MODEL 1
REMARK VINA RESULT:     -12.6      0.000      0.000
REMARK SMILES COc1ccc(C(=O)Nc2cccc(C(=O)NCCCNC(=O)c3ccc(-c4c5nc(c(-c6cccc(S(=O)(=O)[O-])c6F)c6ccc([nH]6)c(-c6cccc(S(=O)(=O)[O-])c6F)c6nc(c(-c7cccc(S(=O)(=O)[O-])c7F)c7ccc4[nH]7)C=C6)C=C5)cc3)c2)cc1
REMARK SMILES IDX 19 1 18 2 17 3 15 4 16 5 14 7 10 8 11 9 87 10 12 11 13 12
REMARK SMILES IDX 9 13 7 14 8 15 6 17 3 18 4 19 89 20 5 21 88 22 2 23 1 24
REMARK SMILES IDX 20 25 21 26 22 27 23 29 24 30 25 31 86 32 26 33 85 34 27 35
REMARK SMILES IDX 28 36 29 37 79 38 30 39 84 40 78 41 80 42 31 43 83 44 77 45
REMARK SMILES IDX 76 46 32 48 64 49 44 50 63 51 45 52 48 53 62 54 81 55 46 56
REMARK SMILES IDX 47 57 61 59 82 60 49 61 33 62 34 63 42 64 35 65 37 66 43 67
REMARK SMILES IDX 36 68 38 69 39 70 40 71 41 72 65 73 66 74 74 75 67 76 69 77
REMARK SMILES IDX 75 78 68 79 70 80 71 81 72 82 73 83 50 84 51 85 59 86 52 87
REMARK SMILES IDX 54 88 60 89 53 90 55 91 56 92 57 93 58 94
REMARK H PARENT 17 6 9 16 21 28 80 47 48 58
REMARK Flexibility Score: inf
ROOT
ATOM      1  C   UNL A   1      31.707  31.813  26.554  1.00  0.00     0.042 C 
ENDROOT
BRANCH   1   2
ATOM      2  C   UNL A   1      31.849  30.298  26.457  1.00  0.00     0.118 C 
BRANCH   2   3
ATOM      3  N   UNL A   1      32.619  29.904  25.292  1.00  0.00    -0.352 N 
ATOM      4  C   UNL A   1      32.457  28.921  24.349  1.00  0.00     0.251 C 
ATOM      5  O   UNL A   1      33.266  28.903  23.418  1.00  0.00    -0.269 OA
ATOM      6  H   UNL A   1      33.423  30.456  25.149  1.00  0.00     0.163 HD
BRANCH   4   7
ATOM      7  C   UNL A   1      31.333  27.938  24.344  1.00  0.00     0.041 A 
ATOM      8  C   UNL A   1      30.062  26.080  25.245  1.00  0.00     0.042 A 
ATOM      9  C   UNL A   1      29.055  26.278  24.304  1.00  0.00     0.026 A 
ATOM     10  C   UNL A   1      31.239  26.830  25.185  1.00  0.00     0.040 A 
ATOM     11  C   UNL A   1      29.160  27.337  23.407  1.00  0.00     0.003 A 
ATOM     12  C   UNL A   1      30.275  28.180  23.450  1.00  0.00     0.014 A 
BRANCH   8  13
ATOM     13  N   UNL A   1      29.820  25.190  26.300  1.00  0.00    -0.322 N 
ATOM     14  C   UNL A   1      30.401  23.957  26.551  1.00  0.00     0.255 C 
ATOM     15  O   UNL A   1      29.912  23.227  27.414  1.00  0.00    -0.269 OA
ATOM     16  H   UNL A   1      29.143  25.480  26.954  1.00  0.00     0.170 HD
BRANCH  14  17
ATOM     17  C   UNL A   1      31.683  23.526  25.905  1.00  0.00     0.040 A 
ATOM     18  C   UNL A   1      34.043  22.646  24.618  1.00  0.00     0.118 A 
ATOM     19  C   UNL A   1      32.785  22.302  24.115  1.00  0.00     0.047 A 
ATOM     20  C   UNL A   1      34.119  23.403  25.785  1.00  0.00     0.047 A 
ATOM     21  C   UNL A   1      31.615  22.738  24.750  1.00  0.00     0.017 A 
ATOM     22  C   UNL A   1      32.948  23.804  26.444  1.00  0.00     0.017 A 
BRANCH  18  23
ATOM     23  O   UNL A   1      35.106  22.190  23.889  1.00  0.00    -0.497 OA
ATOM     24  C   UNL A   1      36.405  22.500  24.379  1.00  0.00     0.278 C 
ENDBRANCH  18  23
ENDBRANCH  14  17
ENDBRANCH   8  13
ENDBRANCH   4   7
ENDBRANCH   2   3
ENDBRANCH   1   2
BRANCH   1  25
ATOM     25  C   UNL A   1      32.821  32.446  27.380  1.00  0.00     0.118 C 
BRANCH  25  26
ATOM     26  N   UNL A   1      32.564  33.860  27.641  1.00  0.00    -0.352 N 
ATOM     27  C   UNL A   1      33.101  34.696  28.588  1.00  0.00     0.251 C 
ATOM     28  H   UNL A   1      31.904  34.278  27.043  1.00  0.00     0.163 HD
ATOM     29  O   UNL A   1      32.587  35.789  28.796  1.00  0.00    -0.269 OA
BRANCH  27  30
ATOM     30  C   UNL A   1      34.287  34.275  29.362  1.00  0.00     0.039 A 
ATOM     31  C   UNL A   1      34.107  33.525  30.527  1.00  0.00     0.014 A 
ATOM     32  C   UNL A   1      35.573  34.625  28.942  1.00  0.00     0.014 A 
ATOM     33  C   UNL A   1      35.221  33.060  31.229  1.00  0.00     0.010 A 
ATOM     34  C   UNL A   1      36.679  34.093  29.593  1.00  0.00     0.010 A 
ATOM     35  C   UNL A   1      36.514  33.304  30.741  1.00  0.00    -0.014 A 
BRANCH  35  36
ATOM     36  C   UNL A   1      37.712  32.707  31.383  1.00  0.00     0.031 A 
ATOM     37  C   UNL A   1      38.424  31.553  30.736  1.00  0.00     0.074 A 
ATOM     38  C   UNL A   1      38.077  33.130  32.609  1.00  0.00     0.049 A 
ATOM     39  N   UNL A   1      39.427  30.847  31.190  1.00  0.00    -0.248 NA
ATOM     40  C   UNL A   1      37.928  31.118  29.421  1.00  0.00     0.031 C 
ATOM     41  C   UNL A   1      37.419  34.197  33.367  1.00  0.00     0.029 A 
ATOM     42  N   UNL A   1      39.073  32.694  33.447  1.00  0.00    -0.354 N 
ATOM     43  C   UNL A   1      39.651  29.856  30.242  1.00  0.00     0.074 A 
ATOM     44  C   UNL A   1      38.665  30.040  29.199  1.00  0.00     0.031 C 
ATOM     45  C   UNL A   1      38.032  34.338  34.551  1.00  0.00     0.029 A 
ATOM     46  C   UNL A   1      39.097  33.346  34.658  1.00  0.00     0.049 A 
ATOM     47  H   UNL A   1      39.708  31.983  33.204  1.00  0.00     0.167 HD
ATOM     48  C   UNL A   1      40.605  28.895  30.230  1.00  0.00     0.034 A 
ATOM     49  C   UNL A   1      39.877  33.156  35.739  1.00  0.00     0.034 A 
ATOM     50  C   UNL A   1      41.602  28.743  31.255  1.00  0.00     0.049 A 
ATOM     51  C   UNL A   1      40.929  32.082  35.701  1.00  0.00     0.074 A 
ATOM     52  C   UNL A   1      42.683  27.879  31.282  1.00  0.00     0.029 A 
ATOM     53  N   UNL A   1      41.627  29.451  32.447  1.00  0.00    -0.354 N 
ATOM     54  N   UNL A   1      41.246  31.273  34.719  1.00  0.00    -0.248 NA
ATOM     55  C   UNL A   1      41.745  31.910  36.910  1.00  0.00     0.031 C 
ATOM     56  C   UNL A   1      43.334  28.035  32.511  1.00  0.00     0.029 A 
ATOM     57  C   UNL A   1      42.679  29.018  33.235  1.00  0.00     0.049 A 
ATOM     58  H   UNL A   1      40.988  30.158  32.696  1.00  0.00     0.167 HD
ATOM     59  C   UNL A   1      42.310  30.509  35.183  1.00  0.00     0.074 A 
ATOM     60  C   UNL A   1      42.601  30.972  36.525  1.00  0.00     0.031 C 
ATOM     61  C   UNL A   1      42.977  29.506  34.559  1.00  0.00     0.034 A 
BRANCH  48  62
ATOM     62  C   UNL A   1      40.628  27.949  29.057  1.00  0.00     0.023 A 
ATOM     63  C   UNL A   1      39.714  26.876  29.000  1.00  0.00     0.012 A 
ATOM     64  C   UNL A   1      41.535  28.138  27.995  1.00  0.00     0.148 A 
ATOM     65  C   UNL A   1      39.732  25.982  27.931  1.00  0.00     0.002 A 
ATOM     66  C   UNL A   1      41.514  27.271  26.909  1.00  0.00     0.091 A 
ATOM     67  F   UNL A   1      42.411  29.149  28.074  1.00  0.00    -0.205 F 
ATOM     68  C   UNL A   1      40.625  26.184  26.881  1.00  0.00     0.022 A 
BRANCH  66  69
ATOM     69  S   UNL A   1      42.570  27.496  25.473  1.00  0.00     0.127 S 
ATOM     70  O   UNL A   1      42.298  26.276  24.714  1.00  0.00    -0.237 OA
ATOM     71  O   UNL A   1      42.025  28.717  24.878  1.00  0.00    -0.237 OA
ATOM     72  O   UNL A   1      43.925  27.626  25.990  1.00  0.00    -0.744 OA
ENDBRANCH  66  69
ENDBRANCH  48  62
BRANCH  49  73
ATOM     73  C   UNL A   1      39.727  34.046  36.924  1.00  0.00     0.023 A 
ATOM     74  C   UNL A   1      40.131  35.391  36.825  1.00  0.00     0.012 A 
ATOM     75  C   UNL A   1      39.146  33.589  38.123  1.00  0.00     0.148 A 
ATOM     76  C   UNL A   1      39.978  36.261  37.904  1.00  0.00     0.002 A 
ATOM     77  C   UNL A   1      38.947  34.474  39.177  1.00  0.00     0.091 A 
ATOM     78  F   UNL A   1      38.774  32.303  38.199  1.00  0.00    -0.205 F 
ATOM     79  C   UNL A   1      39.376  35.807  39.074  1.00  0.00     0.022 A 
BRANCH  77  80
ATOM     80  S   UNL A   1      38.073  34.015  40.677  1.00  0.00     0.127 S 
ATOM     81  O   UNL A   1      39.076  33.213  41.374  1.00  0.00    -0.237 OA
ATOM     82  O   UNL A   1      37.803  35.323  41.277  1.00  0.00    -0.237 OA
ATOM     83  O   UNL A   1      36.885  33.295  40.240  1.00  0.00    -0.744 OA
ENDBRANCH  77  80
ENDBRANCH  49  73
BRANCH  61  84
ATOM     84  C   UNL A   1      44.092  28.832  35.316  1.00  0.00     0.023 A 
ATOM     85  C   UNL A   1      45.403  29.339  35.221  1.00  0.00     0.012 A 
ATOM     86  C   UNL A   1      43.830  27.753  36.182  1.00  0.00     0.148 A 
ATOM     87  C   UNL A   1      46.440  28.769  35.958  1.00  0.00     0.002 A 
ATOM     88  C   UNL A   1      44.857  27.222  36.952  1.00  0.00     0.091 A 
ATOM     89  F   UNL A   1      42.577  27.276  36.246  1.00  0.00    -0.205 F 
ATOM     90  C   UNL A   1      46.165  27.720  36.832  1.00  0.00     0.022 A 
BRANCH  88  91
ATOM     91  S   UNL A   1      44.586  25.933  38.175  1.00  0.00     0.127 S 
ATOM     92  O   UNL A   1      43.616  26.568  39.066  1.00  0.00    -0.237 OA
ATOM     93  O   UNL A   1      44.044  24.845  37.360  1.00  0.00    -0.237 OA
ATOM     94  O   UNL A   1      45.887  25.659  38.768  1.00  0.00    -0.744 OA
ENDBRANCH  88  91
ENDBRANCH  61  84
ENDBRANCH  35  36
ENDBRANCH  27  30
ENDBRANCH  25  26
ENDBRANCH   1  25
TORSDOF 16
ENDMDL
MODEL 2
REMARK VINA RESULT:     -12.5      0.324      7.795
REMARK SMILES COc1ccc(C(=O)Nc2cccc(C(=O)NCCCNC(=O)c3ccc(-c4c5nc(c(-c6cccc(S(=O)(=O)[O-])c6F)c6ccc([nH]6)c(-c6cccc(S(=O)(=O)[O-])c6F)c6nc(c(-c7cccc(S(=O)(=O)[O-])c7F)c7ccc4[nH]7)C=C6)C=C5)cc3)c2)cc1
REMARK SMILES IDX 19 1 18 2 17 3 15 4 16 5 14 7 10 8 11 9 87 10 12 11 13 12
REMARK SMILES IDX 9 13 7 14 8 15 6 17 3 18 4 19 89 20 5 21 88 22 2 23 1 24
REMARK SMILES IDX 20 25 21 26 22 27 23 29 24 30 25 31 86 32 26 33 85 34 27 35
REMARK SMILES IDX 28 36 29 37 79 38 30 39 84 40 78 41 80 42 31 43 83 44 77 45
REMARK SMILES IDX 76 46 32 48 64 49 44 50 63 51 45 52 48 53 62 54 81 55 46 56
REMARK SMILES IDX 47 57 61 59 82 60 49 61 33 62 34 63 42 64 35 65 37 66 43 67
REMARK SMILES IDX 36 68 38 69 39 70 40 71 41 72 65 73 66 74 74 75 67 76 69 77
REMARK SMILES IDX 75 78 68 79 70 80 71 81 72 82 73 83 50 84 51 85 59 86 52 87
REMARK SMILES IDX 54 88 60 89 53 90 55 91 56 92 57 93 58 94
REMARK H PARENT 17 6 9 16 21 28 80 47 48 58
REMARK Flexibility Score: inf
ROOT
ATOM      1  C   UNL A   1      31.597  32.018  26.742  1.00  0.00     0.042 C 
ENDROOT
BRANCH   1   2
ATOM      2  C   UNL A   1      31.733  30.508  26.582  1.00  0.00     0.118 C 
BRANCH   2   3
ATOM      3  N   UNL A   1      32.586  30.161  25.461  1.00  0.00    -0.352 N 
ATOM      4  C   UNL A   1      32.537  29.164  24.519  1.00  0.00     0.251 C 
ATOM      5  O   UNL A   1      33.393  29.195  23.631  1.00  0.00    -0.269 OA
ATOM      6  H   UNL A   1      33.358  30.764  25.355  1.00  0.00     0.163 HD
BRANCH   4   7
ATOM      7  C   UNL A   1      31.482  28.109  24.465  1.00  0.00     0.041 A 
ATOM      8  C   UNL A   1      30.295  26.172  25.312  1.00  0.00     0.042 A 
ATOM      9  C   UNL A   1      29.324  26.302  24.323  1.00  0.00     0.026 A 
ATOM     10  C   UNL A   1      31.422  26.999  25.305  1.00  0.00     0.040 A 
ATOM     11  C   UNL A   1      29.401  27.365  23.428  1.00  0.00     0.003 A 
ATOM     12  C   UNL A   1      30.455  28.279  23.520  1.00  0.00     0.014 A 
BRANCH   8  13
ATOM     13  N   UNL A   1      30.063  25.269  26.358  1.00  0.00    -0.322 N 
ATOM     14  C   UNL A   1      30.571  23.993  26.537  1.00  0.00     0.255 C 
ATOM     15  O   UNL A   1      30.092  23.272  27.413  1.00  0.00    -0.269 OA
ATOM     16  H   UNL A   1      29.454  25.585  27.064  1.00  0.00     0.170 HD
BRANCH  14  17
ATOM     17  C   UNL A   1      31.775  23.495  25.793  1.00  0.00     0.040 A 
ATOM     18  C   UNL A   1      34.108  22.613  24.462  1.00  0.00     0.118 A 
ATOM     19  C   UNL A   1      34.197  23.305  25.672  1.00  0.00     0.047 A 
ATOM     20  C   UNL A   1      32.853  22.392  23.900  1.00  0.00     0.047 A 
ATOM     21  C   UNL A   1      33.042  23.741  26.335  1.00  0.00     0.017 A 
ATOM     22  C   UNL A   1      31.700  22.865  24.542  1.00  0.00     0.017 A 
BRANCH  18  23
ATOM     23  O   UNL A   1      35.303  22.209  23.933  1.00  0.00    -0.497 OA
ATOM     24  C   UNL A   1      36.357  23.165  23.915  1.00  0.00     0.278 C 
ENDBRANCH  18  23
ENDBRANCH  14  17
ENDBRANCH   8  13
ENDBRANCH   4   7
ENDBRANCH   2   3
ENDBRANCH   1   2
BRANCH   1  25
ATOM     25  C   UNL A   1      32.881  32.662  27.254  1.00  0.00     0.118 C 
BRANCH  25  26
ATOM     26  N   UNL A   1      32.675  34.061  27.619  1.00  0.00    -0.352 N 
ATOM     27  C   UNL A   1      33.178  34.783  28.674  1.00  0.00     0.251 C 
ATOM     28  H   UNL A   1      32.085  34.565  27.014  1.00  0.00     0.163 HD
ATOM     29  O   UNL A   1      32.703  35.882  28.938  1.00  0.00    -0.269 OA
BRANCH  27  30
ATOM     30  C   UNL A   1      34.277  34.232  29.492  1.00  0.00     0.039 A 
ATOM     31  C   UNL A   1      33.968  33.489  30.634  1.00  0.00     0.014 A 
ATOM     32  C   UNL A   1      35.610  34.454  29.136  1.00  0.00     0.014 A 
ATOM     33  C   UNL A   1      34.995  32.904  31.376  1.00  0.00     0.010 A 
ATOM     34  C   UNL A   1      36.625  33.803  29.827  1.00  0.00     0.010 A 
ATOM     35  C   UNL A   1      36.327  33.019  30.951  1.00  0.00    -0.014 A 
BRANCH  35  36
ATOM     36  C   UNL A   1      37.427  32.295  31.636  1.00  0.00     0.031 A 
ATOM     37  C   UNL A   1      37.917  32.754  32.980  1.00  0.00     0.074 A 
ATOM     38  C   UNL A   1      38.062  31.302  30.985  1.00  0.00     0.049 A 
ATOM     39  N   UNL A   1      38.922  32.306  33.687  1.00  0.00    -0.248 NA
ATOM     40  C   UNL A   1      37.201  33.881  33.600  1.00  0.00     0.031 C 
ATOM     41  C   UNL A   1      37.722  30.814  29.646  1.00  0.00     0.029 A 
ATOM     42  N   UNL A   1      39.147  30.543  31.348  1.00  0.00    -0.354 N 
ATOM     43  C   UNL A   1      38.990  33.124  34.808  1.00  0.00     0.074 A 
ATOM     44  C   UNL A   1      37.938  34.109  34.676  1.00  0.00     0.031 C 
ATOM     45  C   UNL A   1      38.573  29.835  29.304  1.00  0.00     0.029 A 
ATOM     46  C   UNL A   1      39.545  29.653  30.377  1.00  0.00     0.049 A 
ATOM     47  H   UNL A   1      39.597  30.628  32.219  1.00  0.00     0.167 HD
ATOM     48  C   UNL A   1      39.837  33.048  35.862  1.00  0.00     0.034 A 
ATOM     49  C   UNL A   1      40.586  28.800  30.346  1.00  0.00     0.034 A 
ATOM     50  C   UNL A   1      40.856  32.043  36.000  1.00  0.00     0.049 A 
ATOM     51  C   UNL A   1      41.512  28.734  31.529  1.00  0.00     0.074 A 
ATOM     52  C   UNL A   1      41.689  31.805  37.079  1.00  0.00     0.029 A 
ATOM     53  N   UNL A   1      41.203  31.127  35.018  1.00  0.00    -0.354 N 
ATOM     54  N   UNL A   1      41.451  29.391  32.661  1.00  0.00    -0.248 NA
ATOM     55  C   UNL A   1      42.638  27.794  31.439  1.00  0.00     0.031 C 
ATOM     56  C   UNL A   1      42.568  30.773  36.731  1.00  0.00     0.029 A 
ATOM     57  C   UNL A   1      42.262  30.347  35.449  1.00  0.00     0.049 A 
ATOM     58  H   UNL A   1      40.760  31.044  34.143  1.00  0.00     0.167 HD
ATOM     59  C   UNL A   1      42.515  28.931  33.428  1.00  0.00     0.074 A 
ATOM     60  C   UNL A   1      43.189  27.919  32.640  1.00  0.00     0.031 C 
ATOM     61  C   UNL A   1      42.908  29.322  34.666  1.00  0.00     0.034 A 
BRANCH  48  62
ATOM     62  C   UNL A   1      39.678  34.067  36.961  1.00  0.00     0.023 A 
ATOM     63  C   UNL A   1      40.074  35.403  36.744  1.00  0.00     0.012 A 
ATOM     64  C   UNL A   1      39.107  33.710  38.199  1.00  0.00     0.148 A 
ATOM     65  C   UNL A   1      39.949  36.356  37.754  1.00  0.00     0.002 A 
ATOM     66  C   UNL A   1      38.940  34.676  39.184  1.00  0.00     0.091 A 
ATOM     67  F   UNL A   1      38.755  32.432  38.397  1.00  0.00    -0.205 F 
ATOM     68  C   UNL A   1      39.374  35.994  38.971  1.00  0.00     0.022 A 
BRANCH  66  69
ATOM     69  S   UNL A   1      38.137  34.327  40.753  1.00  0.00     0.127 S 
ATOM     70  O   UNL A   1      36.968  33.562  40.322  1.00  0.00    -0.237 OA
ATOM     71  O   UNL A   1      39.155  33.541  41.451  1.00  0.00    -0.237 OA
ATOM     72  O   UNL A   1      37.854  35.623  41.354  1.00  0.00    -0.744 OA
ENDBRANCH  66  69
ENDBRANCH  48  62
BRANCH  49  73
ATOM     73  C   UNL A   1      40.768  27.897  29.175  1.00  0.00     0.023 A 
ATOM     74  C   UNL A   1      40.029  26.700  29.113  1.00  0.00     0.012 A 
ATOM     75  C   UNL A   1      41.619  28.235  28.105  1.00  0.00     0.148 A 
ATOM     76  C   UNL A   1      40.150  25.845  28.018  1.00  0.00     0.002 A 
ATOM     77  C   UNL A   1      41.695  27.406  26.992  1.00  0.00     0.091 A 
ATOM     78  F   UNL A   1      42.318  29.377  28.186  1.00  0.00    -0.205 F 
ATOM     79  C   UNL A   1      40.973  26.203  26.953  1.00  0.00     0.022 A 
BRANCH  77  80
ATOM     80  S   UNL A   1      42.631  27.839  25.522  1.00  0.00     0.127 S 
ATOM     81  O   UNL A   1      42.448  26.652  24.690  1.00  0.00    -0.237 OA
ATOM     82  O   UNL A   1      41.923  29.032  25.058  1.00  0.00    -0.237 OA
ATOM     83  O   UNL A   1      43.993  28.083  25.976  1.00  0.00    -0.744 OA
ENDBRANCH  77  80
ENDBRANCH  49  73
BRANCH  61  84
ATOM     84  C   UNL A   1      44.123  28.656  35.256  1.00  0.00     0.023 A 
ATOM     85  C   UNL A   1      45.406  29.148  34.946  1.00  0.00     0.012 A 
ATOM     86  C   UNL A   1      43.993  27.601  36.181  1.00  0.00     0.148 A 
ATOM     87  C   UNL A   1      46.542  28.586  35.527  1.00  0.00     0.002 A 
ATOM     88  C   UNL A   1      45.124  27.079  36.795  1.00  0.00     0.091 A 
ATOM     89  F   UNL A   1      42.763  27.139  36.452  1.00  0.00    -0.205 F 
ATOM     90  C   UNL A   1      46.401  27.561  36.459  1.00  0.00     0.022 A 
BRANCH  88  91
ATOM     91  S   UNL A   1      45.040  25.824  38.078  1.00  0.00     0.127 S 
ATOM     92  O   UNL A   1      44.184  26.471  39.071  1.00  0.00    -0.237 OA
ATOM     93  O   UNL A   1      44.417  24.705  37.372  1.00  0.00    -0.237 OA
ATOM     94  O   UNL A   1      46.413  25.587  38.502  1.00  0.00    -0.744 OA
ENDBRANCH  88  91
ENDBRANCH  61  84
ENDBRANCH  35  36
ENDBRANCH  27  30
ENDBRANCH  25  26
ENDBRANCH   1  25
TORSDOF 16
ENDMDL
MODEL 3
REMARK VINA RESULT:     -12.3      2.104      8.049
REMARK SMILES COc1ccc(C(=O)Nc2cccc(C(=O)NCCCNC(=O)c3ccc(-c4c5nc(c(-c6cccc(S(=O)(=O)[O-])c6F)c6ccc([nH]6)c(-c6cccc(S(=O)(=O)[O-])c6F)c6nc(c(-c7cccc(S(=O)(=O)[O-])c7F)c7ccc4[nH]7)C=C6)C=C5)cc3)c2)cc1
REMARK SMILES IDX 19 1 18 2 17 3 15 4 16 5 14 7 10 8 11 9 87 10 12 11 13 12
REMARK SMILES IDX 9 13 7 14 8 15 6 17 3 18 4 19 89 20 5 21 88 22 2 23 1 24
REMARK SMILES IDX 20 25 21 26 22 27 23 29 24 30 25 31 86 32 26 33 85 34 27 35
REMARK SMILES IDX 28 36 29 37 79 38 30 39 84 40 78 41 80 42 31 43 83 44 77 45
REMARK SMILES IDX 76 46 32 48 64 49 44 50 63 51 45 52 48 53 62 54 81 55 46 56
REMARK SMILES IDX 47 57 61 59 82 60 49 61 33 62 34 63 42 64 35 65 37 66 43 67
REMARK SMILES IDX 36 68 38 69 39 70 40 71 41 72 65 73 66 74 74 75 67 76 69 77
REMARK SMILES IDX 75 78 68 79 70 80 71 81 72 82 73 83 50 84 51 85 59 86 52 87
REMARK SMILES IDX 54 88 60 89 53 90 55 91 56 92 57 93 58 94
REMARK H PARENT 17 6 9 16 21 28 80 47 48 58
REMARK Flexibility Score: inf
ROOT
ATOM      1  C   UNL A   1      31.311  32.274  26.403  1.00  0.00     0.042 C 
ENDROOT
BRANCH   1   2
ATOM      2  C   UNL A   1      31.294  30.868  25.812  1.00  0.00     0.118 C 
BRANCH   2   3
ATOM      3  N   UNL A   1      32.170  29.970  26.540  1.00  0.00    -0.352 N 
ATOM      4  C   UNL A   1      32.380  28.615  26.482  1.00  0.00     0.251 C 
ATOM      5  O   UNL A   1      33.275  28.159  27.199  1.00  0.00    -0.269 OA
ATOM      6  H   UNL A   1      32.727  30.425  27.213  1.00  0.00     0.163 HD
BRANCH   4   7
ATOM      7  C   UNL A   1      31.653  27.690  25.563  1.00  0.00     0.041 A 
ATOM      8  C   UNL A   1      31.295  26.559  23.449  1.00  0.00     0.042 A 
ATOM      9  C   UNL A   1      30.295  25.769  24.011  1.00  0.00     0.026 A 
ATOM     10  C   UNL A   1      31.881  27.586  24.192  1.00  0.00     0.040 A 
ATOM     11  C   UNL A   1      30.000  25.903  25.364  1.00  0.00     0.003 A 
ATOM     12  C   UNL A   1      30.698  26.834  26.140  1.00  0.00     0.014 A 
BRANCH   8  13
ATOM     13  N   UNL A   1      31.761  26.231  22.168  1.00  0.00    -0.322 N 
ATOM     14  C   UNL A   1      32.771  25.355  21.806  1.00  0.00     0.255 C 
ATOM     15  O   UNL A   1      33.177  25.353  20.644  1.00  0.00    -0.269 OA
ATOM     16  H   UNL A   1      31.308  26.686  21.422  1.00  0.00     0.170 HD
BRANCH  14  17
ATOM     17  C   UNL A   1      33.306  24.313  22.743  1.00  0.00     0.040 A 
ATOM     18  C   UNL A   1      34.399  22.417  24.534  1.00  0.00     0.118 A 
ATOM     19  C   UNL A   1      34.912  23.715  24.469  1.00  0.00     0.047 A 
ATOM     20  C   UNL A   1      33.361  22.058  23.678  1.00  0.00     0.047 A 
ATOM     21  C   UNL A   1      34.371  24.657  23.584  1.00  0.00     0.017 A 
ATOM     22  C   UNL A   1      32.847  22.988  22.762  1.00  0.00     0.017 A 
BRANCH  18  23
ATOM     23  O   UNL A   1      34.988  21.604  25.462  1.00  0.00    -0.497 OA
ATOM     24  C   UNL A   1      35.959  20.680  24.987  1.00  0.00     0.278 C 
ENDBRANCH  18  23
ENDBRANCH  14  17
ENDBRANCH   8  13
ENDBRANCH   4   7
ENDBRANCH   2   3
ENDBRANCH   1   2
BRANCH   1  25
ATOM     25  C   UNL A   1      32.389  32.441  27.467  1.00  0.00     0.118 C 
BRANCH  25  26
ATOM     26  N   UNL A   1      32.875  33.817  27.534  1.00  0.00    -0.352 N 
ATOM     27  C   UNL A   1      33.991  34.332  28.145  1.00  0.00     0.251 C 
ATOM     28  H   UNL A   1      32.314  34.478  27.067  1.00  0.00     0.163 HD
ATOM     29  O   UNL A   1      34.102  35.544  28.286  1.00  0.00    -0.269 OA
BRANCH  27  30
ATOM     30  C   UNL A   1      35.049  33.427  28.640  1.00  0.00     0.039 A 
ATOM     31  C   UNL A   1      36.384  33.719  28.348  1.00  0.00     0.014 A 
ATOM     32  C   UNL A   1      34.723  32.291  29.386  1.00  0.00     0.014 A 
ATOM     33  C   UNL A   1      37.397  32.912  28.869  1.00  0.00     0.010 A 
ATOM     34  C   UNL A   1      35.734  31.538  29.971  1.00  0.00     0.010 A 
ATOM     35  C   UNL A   1      37.080  31.843  29.721  1.00  0.00    -0.014 A 
BRANCH  35  36
ATOM     36  C   UNL A   1      38.136  31.053  30.403  1.00  0.00     0.031 A 
ATOM     37  C   UNL A   1      38.506  31.353  31.829  1.00  0.00     0.074 A 
ATOM     38  C   UNL A   1      38.841  30.152  29.693  1.00  0.00     0.049 A 
ATOM     39  N   UNL A   1      39.459  30.834  32.557  1.00  0.00    -0.248 NA
ATOM     40  C   UNL A   1      37.720  32.390  32.516  1.00  0.00     0.031 C 
ATOM     41  C   UNL A   1      38.619  29.825  28.283  1.00  0.00     0.029 A 
ATOM     42  N   UNL A   1      39.909  29.366  30.051  1.00  0.00    -0.354 N 
ATOM     43  C   UNL A   1      39.421  31.511  33.769  1.00  0.00     0.074 A 
ATOM     44  C   UNL A   1      38.363  32.494  33.669  1.00  0.00     0.031 C 
ATOM     45  C   UNL A   1      39.515  28.903  27.898  1.00  0.00     0.029 A 
ATOM     46  C   UNL A   1      40.401  28.604  29.018  1.00  0.00     0.049 A 
ATOM     47  H   UNL A   1      40.284  29.351  30.961  1.00  0.00     0.167 HD
ATOM     48  C   UNL A   1      40.181  31.318  34.873  1.00  0.00     0.034 A 
ATOM     49  C   UNL A   1      41.458  27.771  28.972  1.00  0.00     0.034 A 
ATOM     50  C   UNL A   1      41.206  30.315  34.974  1.00  0.00     0.049 A 
ATOM     51  C   UNL A   1      42.287  27.573  30.211  1.00  0.00     0.074 A 
ATOM     52  C   UNL A   1      41.954  29.957  36.082  1.00  0.00     0.029 A 
ATOM     53  N   UNL A   1      41.650  29.526  33.922  1.00  0.00    -0.354 N 
ATOM     54  N   UNL A   1      42.121  28.089  31.404  1.00  0.00    -0.248 NA
ATOM     55  C   UNL A   1      43.435  26.663  30.103  1.00  0.00     0.031 C 
ATOM     56  C   UNL A   1      42.879  28.984  35.688  1.00  0.00     0.029 A 
ATOM     57  C   UNL A   1      42.686  28.712  34.343  1.00  0.00     0.049 A 
ATOM     58  H   UNL A   1      41.280  29.545  33.010  1.00  0.00     0.167 HD
ATOM     59  C   UNL A   1      43.130  27.552  32.196  1.00  0.00     0.074 A 
ATOM     60  C   UNL A   1      43.885  26.649  31.351  1.00  0.00     0.031 C 
ATOM     61  C   UNL A   1      43.413  27.795  33.500  1.00  0.00     0.034 A 
BRANCH  48  62
ATOM     62  C   UNL A   1      39.914  32.196  36.068  1.00  0.00     0.023 A 
ATOM     63  C   UNL A   1      40.701  33.347  36.287  1.00  0.00     0.012 A 
ATOM     64  C   UNL A   1      38.863  31.901  36.960  1.00  0.00     0.148 A 
ATOM     65  C   UNL A   1      40.477  34.161  37.396  1.00  0.00     0.002 A 
ATOM     66  C   UNL A   1      38.615  32.745  38.036  1.00  0.00     0.091 A 
ATOM     67  F   UNL A   1      38.138  30.793  36.751  1.00  0.00    -0.205 F 
ATOM     68  C   UNL A   1      39.430  33.866  38.265  1.00  0.00     0.022 A 
BRANCH  66  69
ATOM     69  S   UNL A   1      37.240  32.494  39.164  1.00  0.00     0.127 S 
ATOM     70  O   UNL A   1      37.465  31.116  39.599  1.00  0.00    -0.237 OA
ATOM     71  O   UNL A   1      37.495  33.505  40.190  1.00  0.00    -0.237 OA
ATOM     72  O   UNL A   1      36.034  32.716  38.380  1.00  0.00    -0.744 OA
ENDBRANCH  66  69
ENDBRANCH  48  62
BRANCH  49  73
ATOM     73  C   UNL A   1      41.751  27.017  27.721  1.00  0.00     0.023 A 
ATOM     74  C   UNL A   1      42.285  27.708  26.616  1.00  0.00     0.012 A 
ATOM     75  C   UNL A   1      41.557  25.625  27.633  1.00  0.00     0.148 A 
ATOM     76  C   UNL A   1      42.601  27.030  25.438  1.00  0.00     0.002 A 
ATOM     77  C   UNL A   1      41.923  24.947  26.476  1.00  0.00     0.091 A 
ATOM     78  F   UNL A   1      41.042  24.988  28.694  1.00  0.00    -0.205 F 
ATOM     79  C   UNL A   1      42.431  25.650  25.372  1.00  0.00     0.022 A 
BRANCH  77  80
ATOM     80  S   UNL A   1      41.856  23.158  26.338  1.00  0.00     0.127 S 
ATOM     81  O   UNL A   1      42.594  22.738  27.528  1.00  0.00    -0.237 OA
ATOM     82  O   UNL A   1      40.414  22.908  26.387  1.00  0.00    -0.237 OA
ATOM     83  O   UNL A   1      42.481  22.833  25.064  1.00  0.00    -0.744 OA
ENDBRANCH  77  80
ENDBRANCH  49  73
BRANCH  61  84
ATOM     84  C   UNL A   1      44.590  27.076  34.105  1.00  0.00     0.023 A 
ATOM     85  C   UNL A   1      45.879  27.632  33.993  1.00  0.00     0.012 A 
ATOM     86  C   UNL A   1      44.410  25.896  34.854  1.00  0.00     0.148 A 
ATOM     87  C   UNL A   1      46.974  27.016  34.596  1.00  0.00     0.002 A 
ATOM     88  C   UNL A   1      45.497  25.314  35.494  1.00  0.00     0.091 A 
ATOM     89  F   UNL A   1      43.177  25.374  34.936  1.00  0.00    -0.205 F 
ATOM     90  C   UNL A   1      46.782  25.864  35.356  1.00  0.00     0.022 A 
BRANCH  88  91
ATOM     91  S   UNL A   1      45.336  23.885  36.572  1.00  0.00     0.127 S 
ATOM     92  O   UNL A   1      46.732  23.604  36.905  1.00  0.00    -0.237 OA
ATOM     93  O   UNL A   1      44.542  24.421  37.677  1.00  0.00    -0.237 OA
ATOM     94  O   UNL A   1      44.668  22.858  35.785  1.00  0.00    -0.744 OA
ENDBRANCH  88  91
ENDBRANCH  61  84
ENDBRANCH  35  36
ENDBRANCH  27  30
ENDBRANCH  25  26
ENDBRANCH   1  25
TORSDOF 16
ENDMDL
