MODEL 1
REMARK VINA RESULT:     -12.5      0.000      0.000
REMARK SMILES Cc1ccc(Nc2c(F)cccc2Cl)c(CC(=O)NCCCNC(=O)c2ccc(-c3c4nc(c(-c5cccc(S(=O)(=O)[O-])c5F)c5ccc([nH]5)c(-c5cccc(S(=O)(=O)[O-])c5F)c5nc(c(-c6cccc(S(=O)(=O)[O-])c6F)c6ccc3[nH]6)C=C5)C=C4)cc2)c1
REMARK SMILES IDX 21 1 20 2 19 3 17 4 18 5 16 7 15 8 1 9 2 10 3 11 89 12 4 13
REMARK SMILES IDX 5 14 6 15 7 17 8 18 13 19 9 20 10 21 12 22 14 23 11 24 22 25
REMARK SMILES IDX 23 26 24 27 25 29 26 30 27 31 88 32 28 33 87 34 29 35 30 36
REMARK SMILES IDX 31 37 81 38 32 39 86 40 80 41 82 42 33 43 85 44 79 45 78 46
REMARK SMILES IDX 34 48 66 49 46 50 65 51 47 52 50 53 64 54 83 55 48 56 49 57
REMARK SMILES IDX 63 59 84 60 51 61 35 62 36 63 44 64 37 65 39 66 45 67 38 68
REMARK SMILES IDX 40 69 41 70 42 71 43 72 67 73 68 74 76 75 69 76 71 77 77 78
REMARK SMILES IDX 70 79 72 80 73 81 74 82 75 83 52 84 53 85 61 86 54 87 56 88
REMARK SMILES IDX 62 89 55 90 57 91 58 92 59 93 60 94
REMARK H PARENT 19 6 6 16 23 28 82 47 50 58
REMARK Flexibility Score: inf
ROOT
ATOM      1  C   UNL A   1      33.221  30.132  26.147  1.00  0.00     0.042 C 
ENDROOT
BRANCH   1   2
ATOM      2  C   UNL A   1      33.641  28.722  25.750  1.00  0.00     0.117 C 
BRANCH   2   3
ATOM      3  N   UNL A   1      32.683  27.711  26.170  1.00  0.00    -0.356 N 
ATOM      4  C   UNL A   1      32.800  26.351  26.159  1.00  0.00     0.224 C 
ATOM      5  O   UNL A   1      31.834  25.667  26.507  1.00  0.00    -0.275 OA
ATOM      6  H   UNL A   1      31.828  28.058  26.512  1.00  0.00     0.163 HD
BRANCH   4   7
ATOM      7  C   UNL A   1      34.082  25.670  25.706  1.00  0.00     0.137 C 
BRANCH   7   8
ATOM      8  C   UNL A   1      33.940  24.919  24.397  1.00  0.00    -0.015 A 
ATOM      9  C   UNL A   1      32.371  25.700  20.996  1.00  0.00     0.044 C 
ATOM     10  C   UNL A   1      33.085  24.982  22.101  1.00  0.00    -0.051 A 
ATOM     11  C   UNL A   1      33.354  23.620  21.982  1.00  0.00     0.005 A 
ATOM     12  C   UNL A   1      33.430  25.632  23.288  1.00  0.00     0.009 A 
ATOM     13  C   UNL A   1      33.925  22.919  23.047  1.00  0.00     0.026 A 
ATOM     14  C   UNL A   1      34.205  23.535  24.278  1.00  0.00     0.042 A 
BRANCH  14  15
ATOM     15  N   UNL A   1      34.740  22.790  25.354  1.00  0.00    -0.352 N 
ATOM     16  H   UNL A   1      34.148  22.684  26.134  1.00  0.00     0.167 HD
BRANCH  15  17
ATOM     17  C   UNL A   1      36.014  22.177  25.463  1.00  0.00     0.094 A 
ATOM     18  C   UNL A   1      37.170  22.910  25.778  1.00  0.00     0.148 A 
ATOM     19  C   UNL A   1      36.184  20.816  25.147  1.00  0.00     0.067 A 
ATOM     20  F   UNL A   1      37.081  24.210  26.103  1.00  0.00    -0.205 F 
ATOM     21  C   UNL A   1      38.437  22.328  25.775  1.00  0.00     0.041 A 
ATOM     22  C   UNL A   1      37.454  20.226  25.137  1.00  0.00     0.023 A 
ATOM     23  Cl  UNL A   1      34.831  19.831  24.709  1.00  0.00    -0.082 Cl
ATOM     24  C   UNL A   1      38.583  20.983  25.447  1.00  0.00     0.005 A 
ENDBRANCH  15  17
ENDBRANCH  14  15
ENDBRANCH   7   8
ENDBRANCH   4   7
ENDBRANCH   2   3
ENDBRANCH   1   2
BRANCH   1  25
ATOM     25  C   UNL A   1      33.320  30.439  27.629  1.00  0.00     0.118 C 
BRANCH  25  26
ATOM     26  N   UNL A   1      34.126  31.615  27.924  1.00  0.00    -0.352 N 
ATOM     27  C   UNL A   1      35.418  31.686  28.413  1.00  0.00     0.251 C 
ATOM     28  H   UNL A   1      33.691  32.481  27.749  1.00  0.00     0.163 HD
ATOM     29  O   UNL A   1      35.880  32.781  28.719  1.00  0.00    -0.269 OA
BRANCH  27  30
ATOM     30  C   UNL A   1      36.256  30.464  28.432  1.00  0.00     0.039 A 
ATOM     31  C   UNL A   1      36.539  29.890  29.677  1.00  0.00     0.014 A 
ATOM     32  C   UNL A   1      36.943  30.045  27.295  1.00  0.00     0.014 A 
ATOM     33  C   UNL A   1      37.685  29.112  29.829  1.00  0.00     0.010 A 
ATOM     34  C   UNL A   1      38.122  29.352  27.454  1.00  0.00     0.010 A 
ATOM     35  C   UNL A   1      38.529  28.962  28.733  1.00  0.00    -0.014 A 
BRANCH  35  36
ATOM     36  C   UNL A   1      39.899  28.486  28.806  1.00  0.00     0.031 A 
ATOM     37  C   UNL A   1      40.194  27.050  28.735  1.00  0.00     0.074 A 
ATOM     38  C   UNL A   1      40.897  29.394  28.718  1.00  0.00     0.049 A 
ATOM     39  N   UNL A   1      41.359  26.548  28.957  1.00  0.00    -0.248 NA
ATOM     40  C   UNL A   1      39.175  26.053  28.446  1.00  0.00     0.031 C 
ATOM     41  C   UNL A   1      42.288  29.161  28.352  1.00  0.00     0.029 A 
ATOM     42  N   UNL A   1      40.887  30.715  29.179  1.00  0.00    -0.354 N 
ATOM     43  C   UNL A   1      41.328  25.240  28.529  1.00  0.00     0.074 A 
ATOM     44  C   UNL A   1      39.925  24.949  28.369  1.00  0.00     0.031 C 
ATOM     45  C   UNL A   1      43.036  30.152  28.859  1.00  0.00     0.029 A 
ATOM     46  C   UNL A   1      42.167  30.930  29.723  1.00  0.00     0.049 A 
ATOM     47  H   UNL A   1      40.142  31.356  29.133  1.00  0.00     0.167 HD
ATOM     48  C   UNL A   1      42.514  24.640  28.221  1.00  0.00     0.034 A 
ATOM     49  C   UNL A   1      42.379  31.172  31.053  1.00  0.00     0.034 A 
ATOM     50  C   UNL A   1      43.655  25.458  28.680  1.00  0.00     0.049 A 
ATOM     51  C   UNL A   1      43.301  30.155  31.722  1.00  0.00     0.074 A 
ATOM     52  C   UNL A   1      44.624  26.242  28.075  1.00  0.00     0.029 A 
ATOM     53  N   UNL A   1      43.752  25.731  30.035  1.00  0.00    -0.354 N 
ATOM     54  N   UNL A   1      43.917  29.179  31.108  1.00  0.00    -0.248 NA
ATOM     55  C   UNL A   1      43.514  30.108  33.169  1.00  0.00     0.031 C 
ATOM     56  C   UNL A   1      45.285  27.003  29.091  1.00  0.00     0.029 A 
ATOM     57  C   UNL A   1      44.737  26.660  30.314  1.00  0.00     0.049 A 
ATOM     58  H   UNL A   1      43.184  25.311  30.722  1.00  0.00     0.167 HD
ATOM     59  C   UNL A   1      44.422  28.299  32.035  1.00  0.00     0.074 A 
ATOM     60  C   UNL A   1      44.184  28.952  33.311  1.00  0.00     0.031 C 
ATOM     61  C   UNL A   1      44.917  27.063  31.705  1.00  0.00     0.034 A 
BRANCH  48  62
ATOM     62  C   UNL A   1      42.690  23.416  27.325  1.00  0.00     0.023 A 
ATOM     63  C   UNL A   1      41.908  22.277  27.628  1.00  0.00     0.012 A 
ATOM     64  C   UNL A   1      43.620  23.247  26.270  1.00  0.00     0.148 A 
ATOM     65  C   UNL A   1      42.084  21.043  26.987  1.00  0.00     0.002 A 
ATOM     66  C   UNL A   1      43.809  22.016  25.636  1.00  0.00     0.091 A 
ATOM     67  F   UNL A   1      44.343  24.274  25.838  1.00  0.00    -0.205 F 
ATOM     68  C   UNL A   1      43.048  20.906  26.000  1.00  0.00     0.022 A 
BRANCH  66  69
ATOM     69  S   UNL A   1      45.065  21.763  24.364  1.00  0.00     0.127 S 
ATOM     70  O   UNL A   1      46.290  21.675  25.162  1.00  0.00    -0.237 OA
ATOM     71  O   UNL A   1      44.644  20.502  23.755  1.00  0.00    -0.237 OA
ATOM     72  O   UNL A   1      45.006  22.922  23.481  1.00  0.00    -0.744 OA
ENDBRANCH  66  69
ENDBRANCH  48  62
BRANCH  49  73
ATOM     73  C   UNL A   1      41.218  31.850  31.713  1.00  0.00     0.023 A 
ATOM     74  C   UNL A   1      40.878  33.144  31.246  1.00  0.00     0.012 A 
ATOM     75  C   UNL A   1      40.265  31.132  32.456  1.00  0.00     0.148 A 
ATOM     76  C   UNL A   1      39.579  33.637  31.379  1.00  0.00     0.002 A 
ATOM     77  C   UNL A   1      38.978  31.643  32.607  1.00  0.00     0.091 A 
ATOM     78  F   UNL A   1      40.594  29.928  32.939  1.00  0.00    -0.205 F 
ATOM     79  C   UNL A   1      38.619  32.870  32.029  1.00  0.00     0.022 A 
BRANCH  77  80
ATOM     80  S   UNL A   1      37.702  30.698  33.448  1.00  0.00     0.127 S 
ATOM     81  O   UNL A   1      36.492  31.375  32.993  1.00  0.00    -0.237 OA
ATOM     82  O   UNL A   1      37.896  29.352  32.912  1.00  0.00    -0.237 OA
ATOM     83  O   UNL A   1      38.024  30.826  34.862  1.00  0.00    -0.744 OA
ENDBRANCH  77  80
ENDBRANCH  49  73
BRANCH  61  84
ATOM     84  C   UNL A   1      45.542  26.093  32.701  1.00  0.00     0.023 A 
ATOM     85  C   UNL A   1      46.923  25.807  32.667  1.00  0.00     0.012 A 
ATOM     86  C   UNL A   1      44.769  25.341  33.628  1.00  0.00     0.148 A 
ATOM     87  C   UNL A   1      47.520  24.916  33.567  1.00  0.00     0.002 A 
ATOM     88  C   UNL A   1      45.356  24.412  34.483  1.00  0.00     0.091 A 
ATOM     89  F   UNL A   1      43.446  25.512  33.690  1.00  0.00    -0.205 F 
ATOM     90  C   UNL A   1      46.738  24.220  34.477  1.00  0.00     0.022 A 
BRANCH  88  91
ATOM     91  S   UNL A   1      44.395  23.365  35.590  1.00  0.00     0.127 S 
ATOM     92  O   UNL A   1      43.754  24.360  36.451  1.00  0.00    -0.237 OA
ATOM     93  O   UNL A   1      43.492  22.693  34.657  1.00  0.00    -0.237 OA
ATOM     94  O   UNL A   1      45.346  22.493  36.263  1.00  0.00    -0.744 OA
ENDBRANCH  88  91
ENDBRANCH  61  84
ENDBRANCH  35  36
ENDBRANCH  27  30
ENDBRANCH  25  26
ENDBRANCH   1  25
TORSDOF 16
ENDMDL
MODEL 2
REMARK VINA RESULT:     -12.3      3.823      9.308
REMARK SMILES Cc1ccc(Nc2c(F)cccc2Cl)c(CC(=O)NCCCNC(=O)c2ccc(-c3c4nc(c(-c5cccc(S(=O)(=O)[O-])c5F)c5ccc([nH]5)c(-c5cccc(S(=O)(=O)[O-])c5F)c5nc(c(-c6cccc(S(=O)(=O)[O-])c6F)c6ccc3[nH]6)C=C5)C=C4)cc2)c1
REMARK SMILES IDX 21 1 20 2 19 3 17 4 18 5 16 7 15 8 1 9 2 10 3 11 89 12 4 13
REMARK SMILES IDX 5 14 6 15 7 17 8 18 13 19 9 20 10 21 12 22 14 23 11 24 22 25
REMARK SMILES IDX 23 26 24 27 25 29 26 30 27 31 88 32 28 33 87 34 29 35 30 36
REMARK SMILES IDX 31 37 81 38 32 39 86 40 80 41 82 42 33 43 85 44 79 45 78 46
REMARK SMILES IDX 34 48 66 49 46 50 65 51 47 52 50 53 64 54 83 55 48 56 49 57
REMARK SMILES IDX 63 59 84 60 51 61 35 62 36 63 44 64 37 65 39 66 45 67 38 68
REMARK SMILES IDX 40 69 41 70 42 71 43 72 67 73 68 74 76 75 69 76 71 77 77 78
REMARK SMILES IDX 70 79 72 80 73 81 74 82 75 83 52 84 53 85 61 86 54 87 56 88
REMARK SMILES IDX 62 89 55 90 57 91 58 92 59 93 60 94
REMARK H PARENT 19 6 6 16 23 28 82 47 50 58
REMARK Flexibility Score: inf
ROOT
ATOM      1  C   UNL A   1      37.804  21.213  25.000  1.00  0.00     0.042 C 
ENDROOT
BRANCH   1   2
ATOM      2  C   UNL A   1      36.294  21.182  24.796  1.00  0.00     0.117 C 
BRANCH   2   3
ATOM      3  N   UNL A   1      35.829  22.212  23.880  1.00  0.00    -0.356 N 
ATOM      4  C   UNL A   1      35.183  23.383  24.150  1.00  0.00     0.224 C 
ATOM      5  O   UNL A   1      34.819  24.094  23.209  1.00  0.00    -0.275 OA
ATOM      6  H   UNL A   1      36.007  22.038  22.927  1.00  0.00     0.163 HD
BRANCH   4   7
ATOM      7  C   UNL A   1      34.885  23.811  25.578  1.00  0.00     0.137 C 
BRANCH   7   8
ATOM      8  C   UNL A   1      33.826  24.892  25.679  1.00  0.00    -0.015 A 
ATOM      9  C   UNL A   1      33.886  28.707  25.963  1.00  0.00     0.044 C 
ATOM     10  C   UNL A   1      33.389  27.297  25.866  1.00  0.00    -0.051 A 
ATOM     11  C   UNL A   1      32.049  27.015  26.120  1.00  0.00     0.005 A 
ATOM     12  C   UNL A   1      34.257  26.236  25.594  1.00  0.00     0.009 A 
ATOM     13  C   UNL A   1      31.597  25.693  26.135  1.00  0.00     0.026 A 
ATOM     14  C   UNL A   1      32.467  24.607  25.944  1.00  0.00     0.042 A 
BRANCH  14  15
ATOM     15  N   UNL A   1      31.990  23.278  26.011  1.00  0.00    -0.352 N 
ATOM     16  H   UNL A   1      31.556  23.024  26.858  1.00  0.00     0.167 HD
BRANCH  15  17
ATOM     17  C   UNL A   1      32.052  22.261  25.025  1.00  0.00     0.094 A 
ATOM     18  C   UNL A   1      32.623  21.005  25.286  1.00  0.00     0.148 A 
ATOM     19  C   UNL A   1      31.641  22.517  23.703  1.00  0.00     0.067 A 
ATOM     20  F   UNL A   1      33.025  20.687  26.526  1.00  0.00    -0.205 F 
ATOM     21  C   UNL A   1      32.785  20.046  24.286  1.00  0.00     0.041 A 
ATOM     22  C   UNL A   1      31.806  21.562  22.693  1.00  0.00     0.023 A 
ATOM     23  Cl  UNL A   1      30.960  24.047  23.266  1.00  0.00    -0.082 Cl
ATOM     24  C   UNL A   1      32.382  20.325  22.983  1.00  0.00     0.005 A 
ENDBRANCH  15  17
ENDBRANCH  14  15
ENDBRANCH   7   8
ENDBRANCH   4   7
ENDBRANCH   2   3
ENDBRANCH   1   2
BRANCH   1  25
ATOM     25  C   UNL A   1      38.312  22.349  25.868  1.00  0.00     0.118 C 
BRANCH  25  26
ATOM     26  N   UNL A   1      39.718  22.222  26.223  1.00  0.00    -0.352 N 
ATOM     27  C   UNL A   1      40.619  23.209  26.576  1.00  0.00     0.251 C 
ATOM     28  H   UNL A   1      40.076  21.306  26.210  1.00  0.00     0.163 HD
ATOM     29  O   UNL A   1      41.802  22.914  26.715  1.00  0.00    -0.269 OA
BRANCH  27  30
ATOM     30  C   UNL A   1      40.120  24.565  26.906  1.00  0.00     0.039 A 
ATOM     31  C   UNL A   1      40.710  25.653  26.252  1.00  0.00     0.014 A 
ATOM     32  C   UNL A   1      39.281  24.777  27.998  1.00  0.00     0.014 A 
ATOM     33  C   UNL A   1      40.687  26.909  26.852  1.00  0.00     0.010 A 
ATOM     34  C   UNL A   1      39.329  25.993  28.641  1.00  0.00     0.010 A 
ATOM     35  C   UNL A   1      40.101  27.029  28.108  1.00  0.00    -0.014 A 
BRANCH  35  36
ATOM     36  C   UNL A   1      40.289  28.157  29.002  1.00  0.00     0.031 A 
ATOM     37  C   UNL A   1      39.446  29.353  28.881  1.00  0.00     0.074 A 
ATOM     38  C   UNL A   1      41.095  27.995  30.075  1.00  0.00     0.049 A 
ATOM     39  N   UNL A   1      39.662  30.448  29.524  1.00  0.00    -0.248 NA
ATOM     40  C   UNL A   1      38.305  29.422  27.981  1.00  0.00     0.031 C 
ATOM     41  C   UNL A   1      41.121  28.783  31.301  1.00  0.00     0.029 A 
ATOM     42  N   UNL A   1      42.238  27.193  30.166  1.00  0.00    -0.354 N 
ATOM     43  C   UNL A   1      38.538  31.230  29.388  1.00  0.00     0.074 A 
ATOM     44  C   UNL A   1      37.805  30.617  28.308  1.00  0.00     0.031 C 
ATOM     45  C   UNL A   1      42.331  28.657  31.865  1.00  0.00     0.029 A 
ATOM     46  C   UNL A   1      43.164  27.947  30.911  1.00  0.00     0.049 A 
ATOM     47  H   UNL A   1      42.367  26.294  29.787  1.00  0.00     0.167 HD
ATOM     48  C   UNL A   1      38.316  32.200  30.320  1.00  0.00     0.034 A 
ATOM     49  C   UNL A   1      44.342  28.406  30.388  1.00  0.00     0.034 A 
ATOM     50  C   UNL A   1      39.509  32.398  31.171  1.00  0.00     0.049 A 
ATOM     51  C   UNL A   1      44.489  29.925  30.450  1.00  0.00     0.074 A 
ATOM     52  C   UNL A   1      39.855  32.108  32.481  1.00  0.00     0.029 A 
ATOM     53  N   UNL A   1      40.688  32.782  30.552  1.00  0.00    -0.354 N 
ATOM     54  N   UNL A   1      43.637  30.741  31.011  1.00  0.00    -0.248 NA
ATOM     55  C   UNL A   1      45.574  30.645  29.783  1.00  0.00     0.031 C 
ATOM     56  C   UNL A   1      41.265  32.305  32.626  1.00  0.00     0.029 A 
ATOM     57  C   UNL A   1      41.769  32.741  31.413  1.00  0.00     0.049 A 
ATOM     58  H   UNL A   1      40.749  33.052  29.607  1.00  0.00     0.167 HD
ATOM     59  C   UNL A   1      43.924  32.033  30.639  1.00  0.00     0.074 A 
ATOM     60  C   UNL A   1      45.176  31.922  29.909  1.00  0.00     0.031 C 
ATOM     61  C   UNL A   1      43.080  33.088  30.874  1.00  0.00     0.034 A 
BRANCH  48  62
ATOM     62  C   UNL A   1      36.970  32.850  30.632  1.00  0.00     0.023 A 
ATOM     63  C   UNL A   1      36.487  32.730  31.956  1.00  0.00     0.012 A 
ATOM     64  C   UNL A   1      36.092  33.491  29.724  1.00  0.00     0.148 A 
ATOM     65  C   UNL A   1      35.203  33.143  32.335  1.00  0.00     0.002 A 
ATOM     66  C   UNL A   1      34.805  33.893  30.093  1.00  0.00     0.091 A 
ATOM     67  F   UNL A   1      36.476  33.741  28.478  1.00  0.00    -0.205 F 
ATOM     68  C   UNL A   1      34.352  33.710  31.399  1.00  0.00     0.022 A 
BRANCH  66  69
ATOM     69  S   UNL A   1      33.639  34.611  28.917  1.00  0.00     0.127 S 
ATOM     70  O   UNL A   1      32.532  35.006  29.790  1.00  0.00    -0.237 OA
ATOM     71  O   UNL A   1      34.404  35.727  28.362  1.00  0.00    -0.237 OA
ATOM     72  O   UNL A   1      33.306  33.560  27.962  1.00  0.00    -0.744 OA
ENDBRANCH  66  69
ENDBRANCH  48  62
BRANCH  49  73
ATOM     73  C   UNL A   1      44.875  27.530  29.297  1.00  0.00     0.023 A 
ATOM     74  C   UNL A   1      45.274  26.221  29.660  1.00  0.00     0.012 A 
ATOM     75  C   UNL A   1      44.632  27.807  27.940  1.00  0.00     0.148 A 
ATOM     76  C   UNL A   1      45.276  25.185  28.723  1.00  0.00     0.002 A 
ATOM     77  C   UNL A   1      44.662  26.773  27.007  1.00  0.00     0.091 A 
ATOM     78  F   UNL A   1      44.298  29.054  27.584  1.00  0.00    -0.205 F 
ATOM     79  C   UNL A   1      44.935  25.456  27.403  1.00  0.00     0.022 A 
BRANCH  77  80
ATOM     80  S   UNL A   1      44.240  27.070  25.285  1.00  0.00     0.127 S 
ATOM     81  O   UNL A   1      45.519  27.524  24.748  1.00  0.00    -0.237 OA
ATOM     82  O   UNL A   1      43.813  25.748  24.829  1.00  0.00    -0.237 OA
ATOM     83  O   UNL A   1      43.170  28.056  25.335  1.00  0.00    -0.744 OA
ENDBRANCH  77  80
ENDBRANCH  49  73
BRANCH  61  84
ATOM     84  C   UNL A   1      43.399  34.539  30.532  1.00  0.00     0.023 A 
ATOM     85  C   UNL A   1      43.557  35.506  31.547  1.00  0.00     0.012 A 
ATOM     86  C   UNL A   1      43.440  35.021  29.195  1.00  0.00     0.148 A 
ATOM     87  C   UNL A   1      43.845  36.846  31.258  1.00  0.00     0.002 A 
ATOM     88  C   UNL A   1      43.669  36.364  28.910  1.00  0.00     0.091 A 
ATOM     89  F   UNL A   1      43.249  34.180  28.175  1.00  0.00    -0.205 F 
ATOM     90  C   UNL A   1      43.904  37.275  29.940  1.00  0.00     0.022 A 
BRANCH  88  91
ATOM     91  S   UNL A   1      43.616  37.027  27.236  1.00  0.00     0.127 S 
ATOM     92  O   UNL A   1      44.693  36.276  26.590  1.00  0.00    -0.237 OA
ATOM     93  O   UNL A   1      42.269  36.652  26.808  1.00  0.00    -0.237 OA
ATOM     94  O   UNL A   1      43.849  38.459  27.351  1.00  0.00    -0.744 OA
ENDBRANCH  88  91
ENDBRANCH  61  84
ENDBRANCH  35  36
ENDBRANCH  27  30
ENDBRANCH  25  26
ENDBRANCH   1  25
TORSDOF 16
ENDMDL
MODEL 3
REMARK VINA RESULT:     -12.2      4.081      9.933
REMARK SMILES Cc1ccc(Nc2c(F)cccc2Cl)c(CC(=O)NCCCNC(=O)c2ccc(-c3c4nc(c(-c5cccc(S(=O)(=O)[O-])c5F)c5ccc([nH]5)c(-c5cccc(S(=O)(=O)[O-])c5F)c5nc(c(-c6cccc(S(=O)(=O)[O-])c6F)c6ccc3[nH]6)C=C5)C=C4)cc2)c1
REMARK SMILES IDX 21 1 20 2 19 3 17 4 18 5 16 7 15 8 1 9 2 10 3 11 89 12 4 13
REMARK SMILES IDX 5 14 6 15 7 17 8 18 13 19 9 20 10 21 12 22 14 23 11 24 22 25
REMARK SMILES IDX 23 26 24 27 25 29 26 30 27 31 88 32 28 33 87 34 29 35 30 36
REMARK SMILES IDX 31 37 81 38 32 39 86 40 80 41 82 42 33 43 85 44 79 45 78 46
REMARK SMILES IDX 34 48 66 49 46 50 65 51 47 52 50 53 64 54 83 55 48 56 49 57
REMARK SMILES IDX 63 59 84 60 51 61 35 62 36 63 44 64 37 65 39 66 45 67 38 68
REMARK SMILES IDX 40 69 41 70 42 71 43 72 67 73 68 74 76 75 69 76 71 77 77 78
REMARK SMILES IDX 70 79 72 80 73 81 74 82 75 83 52 84 53 85 61 86 54 87 56 88
REMARK SMILES IDX 62 89 55 90 57 91 58 92 59 93 60 94
REMARK H PARENT 19 6 6 16 23 28 82 47 50 58
REMARK Flexibility Score: inf
ROOT
ATOM      1  C   UNL A   1      37.898  21.364  25.475  1.00  0.00     0.042 C 
ENDROOT
BRANCH   1   2
ATOM      2  C   UNL A   1      36.391  21.410  25.252  1.00  0.00     0.117 C 
BRANCH   2   3
ATOM      3  N   UNL A   1      35.637  21.363  26.496  1.00  0.00    -0.356 N 
ATOM      4  C   UNL A   1      34.433  21.931  26.800  1.00  0.00     0.224 C 
ATOM      5  O   UNL A   1      33.994  21.817  27.947  1.00  0.00    -0.275 OA
ATOM      6  H   UNL A   1      36.056  20.848  27.222  1.00  0.00     0.163 HD
BRANCH   4   7
ATOM      7  C   UNL A   1      33.643  22.714  25.763  1.00  0.00     0.137 C 
BRANCH   7   8
ATOM      8  C   UNL A   1      33.022  21.843  24.689  1.00  0.00    -0.015 A 
ATOM      9  C   UNL A   1      32.576  18.074  24.197  1.00  0.00     0.044 C 
ATOM     10  C   UNL A   1      32.521  19.554  23.967  1.00  0.00    -0.051 A 
ATOM     11  C   UNL A   1      32.153  20.048  22.717  1.00  0.00     0.005 A 
ATOM     12  C   UNL A   1      32.901  20.460  24.960  1.00  0.00     0.009 A 
ATOM     13  C   UNL A   1      32.199  21.420  22.461  1.00  0.00     0.026 A 
ATOM     14  C   UNL A   1      32.655  22.342  23.419  1.00  0.00     0.042 A 
BRANCH  14  15
ATOM     15  N   UNL A   1      32.734  23.720  23.115  1.00  0.00    -0.352 N 
ATOM     16  H   UNL A   1      33.413  23.970  22.446  1.00  0.00     0.167 HD
BRANCH  15  17
ATOM     17  C   UNL A   1      31.971  24.792  23.643  1.00  0.00     0.094 A 
ATOM     18  C   UNL A   1      30.575  24.853  23.502  1.00  0.00     0.148 A 
ATOM     19  C   UNL A   1      32.604  25.900  24.237  1.00  0.00     0.067 A 
ATOM     20  F   UNL A   1      29.903  23.826  22.956  1.00  0.00    -0.205 F 
ATOM     21  C   UNL A   1      29.838  25.960  23.922  1.00  0.00     0.041 A 
ATOM     22  C   UNL A   1      31.872  27.017  24.657  1.00  0.00     0.023 A 
ATOM     23  Cl  UNL A   1      34.324  25.942  24.426  1.00  0.00    -0.082 Cl
ATOM     24  C   UNL A   1      30.487  27.049  24.496  1.00  0.00     0.005 A 
ENDBRANCH  15  17
ENDBRANCH  14  15
ENDBRANCH   7   8
ENDBRANCH   4   7
ENDBRANCH   2   3
ENDBRANCH   1   2
BRANCH   1  25
ATOM     25  C   UNL A   1      38.531  22.687  25.861  1.00  0.00     0.118 C 
BRANCH  25  26
ATOM     26  N   UNL A   1      39.639  22.548  26.794  1.00  0.00    -0.352 N 
ATOM     27  C   UNL A   1      40.306  23.528  27.507  1.00  0.00     0.251 C 
ATOM     28  H   UNL A   1      39.957  21.628  26.940  1.00  0.00     0.163 HD
ATOM     29  O   UNL A   1      41.306  23.222  28.149  1.00  0.00    -0.269 OA
BRANCH  27  30
ATOM     30  C   UNL A   1      39.727  24.890  27.586  1.00  0.00     0.039 A 
ATOM     31  C   UNL A   1      40.228  25.861  26.711  1.00  0.00     0.014 A 
ATOM     32  C   UNL A   1      38.905  25.262  28.647  1.00  0.00     0.014 A 
ATOM     33  C   UNL A   1      40.137  27.208  27.056  1.00  0.00     0.010 A 
ATOM     34  C   UNL A   1      38.889  26.581  29.039  1.00  0.00     0.010 A 
ATOM     35  C   UNL A   1      39.577  27.536  28.286  1.00  0.00    -0.014 A 
BRANCH  35  36
ATOM     36  C   UNL A   1      39.714  28.827  28.937  1.00  0.00     0.031 A 
ATOM     37  C   UNL A   1      38.781  29.919  28.631  1.00  0.00     0.074 A 
ATOM     38  C   UNL A   1      40.569  28.931  29.979  1.00  0.00     0.049 A 
ATOM     39  N   UNL A   1      38.938  31.129  29.040  1.00  0.00    -0.248 NA
ATOM     40  C   UNL A   1      37.605  29.735  27.792  1.00  0.00     0.031 C 
ATOM     41  C   UNL A   1      40.581  29.943  31.027  1.00  0.00     0.029 A 
ATOM     42  N   UNL A   1      41.770  28.239  30.164  1.00  0.00    -0.354 N 
ATOM     43  C   UNL A   1      37.755  31.795  28.812  1.00  0.00     0.074 A 
ATOM     44  C   UNL A   1      37.030  30.936  27.908  1.00  0.00     0.031 C 
ATOM     45  C   UNL A   1      41.817  30.009  31.544  1.00  0.00     0.029 A 
ATOM     46  C   UNL A   1      42.665  29.183  30.703  1.00  0.00     0.049 A 
ATOM     47  H   UNL A   1      41.951  27.294  29.959  1.00  0.00     0.167 HD
ATOM     48  C   UNL A   1      37.496  32.911  29.551  1.00  0.00     0.034 A 
ATOM     49  C   UNL A   1      43.785  29.607  30.043  1.00  0.00     0.034 A 
ATOM     50  C   UNL A   1      38.701  33.349  30.287  1.00  0.00     0.049 A 
ATOM     51  C   UNL A   1      43.821  31.116  29.805  1.00  0.00     0.074 A 
ATOM     52  C   UNL A   1      39.116  33.344  31.609  1.00  0.00     0.029 A 
ATOM     53  N   UNL A   1      39.825  33.681  29.547  1.00  0.00    -0.354 N 
ATOM     54  N   UNL A   1      42.932  31.968  30.240  1.00  0.00    -0.248 NA
ATOM     55  C   UNL A   1      44.825  31.761  28.957  1.00  0.00     0.031 C 
ATOM     56  C   UNL A   1      40.511  33.658  31.642  1.00  0.00     0.029 A 
ATOM     57  C   UNL A   1      40.937  33.880  30.344  1.00  0.00     0.049 A 
ATOM     58  H   UNL A   1      39.831  33.765  28.566  1.00  0.00     0.167 HD
ATOM     59  C   UNL A   1      43.109  33.178  29.613  1.00  0.00     0.074 A 
ATOM     60  C   UNL A   1      44.338  33.009  28.856  1.00  0.00     0.031 C 
ATOM     61  C   UNL A   1      42.198  34.201  29.684  1.00  0.00     0.034 A 
BRANCH  48  62
ATOM     62  C   UNL A   1      36.118  33.520  29.799  1.00  0.00     0.023 A 
ATOM     63  C   UNL A   1      35.447  34.074  28.684  1.00  0.00     0.012 A 
ATOM     64  C   UNL A   1      35.458  33.682  31.042  1.00  0.00     0.148 A 
ATOM     65  C   UNL A   1      34.253  34.798  28.800  1.00  0.00     0.002 A 
ATOM     66  C   UNL A   1      34.275  34.414  31.166  1.00  0.00     0.091 A 
ATOM     67  F   UNL A   1      35.949  33.124  32.143  1.00  0.00    -0.205 F 
ATOM     68  C   UNL A   1      33.673  34.984  30.045  1.00  0.00     0.022 A 
BRANCH  66  69
ATOM     69  S   UNL A   1      33.484  34.717  32.760  1.00  0.00     0.127 S 
ATOM     70  O   UNL A   1      32.278  35.448  32.367  1.00  0.00    -0.237 OA
ATOM     71  O   UNL A   1      33.240  33.362  33.251  1.00  0.00    -0.237 OA
ATOM     72  O   UNL A   1      34.427  35.498  33.554  1.00  0.00    -0.744 OA
ENDBRANCH  66  69
ENDBRANCH  48  62
BRANCH  49  73
ATOM     73  C   UNL A   1      44.341  28.572  29.115  1.00  0.00     0.023 A 
ATOM     74  C   UNL A   1      44.799  27.365  29.697  1.00  0.00     0.012 A 
ATOM     75  C   UNL A   1      44.070  28.593  27.736  1.00  0.00     0.148 A 
ATOM     76  C   UNL A   1      44.833  26.180  28.960  1.00  0.00     0.002 A 
ATOM     77  C   UNL A   1      44.132  27.411  27.001  1.00  0.00     0.091 A 
ATOM     78  F   UNL A   1      43.680  29.742  27.169  1.00  0.00    -0.205 F 
ATOM     79  C   UNL A   1      44.465  26.197  27.619  1.00  0.00     0.022 A 
BRANCH  77  80
ATOM     80  S   UNL A   1      43.678  27.379  25.262  1.00  0.00     0.127 S 
ATOM     81  O   UNL A   1      44.932  27.771  24.627  1.00  0.00    -0.237 OA
ATOM     82  O   UNL A   1      43.294  25.983  25.059  1.00  0.00    -0.237 OA
ATOM     83  O   UNL A   1      42.573  28.320  25.155  1.00  0.00    -0.744 OA
ENDBRANCH  77  80
ENDBRANCH  49  73
BRANCH  61  84
ATOM     84  C   UNL A   1      42.396  35.575  29.054  1.00  0.00     0.023 A 
ATOM     85  C   UNL A   1      41.913  35.856  27.759  1.00  0.00     0.012 A 
ATOM     86  C   UNL A   1      43.167  36.598  29.671  1.00  0.00     0.148 A 
ATOM     87  C   UNL A   1      42.088  37.108  27.156  1.00  0.00     0.002 A 
ATOM     88  C   UNL A   1      43.389  37.822  29.046  1.00  0.00     0.091 A 
ATOM     89  F   UNL A   1      43.705  36.395  30.876  1.00  0.00    -0.205 F 
ATOM     90  C   UNL A   1      42.823  38.093  27.800  1.00  0.00     0.022 A 
BRANCH  88  91
ATOM     91  S   UNL A   1      44.451  39.096  29.750  1.00  0.00     0.127 S 
ATOM     92  O   UNL A   1      44.337  40.158  28.749  1.00  0.00    -0.237 OA
ATOM     93  O   UNL A   1      43.780  39.378  31.018  1.00  0.00    -0.237 OA
ATOM     94  O   UNL A   1      45.777  38.507  29.872  1.00  0.00    -0.744 OA
ENDBRANCH  88  91
ENDBRANCH  61  84
ENDBRANCH  35  36
ENDBRANCH  27  30
ENDBRANCH  25  26
ENDBRANCH   1  25
TORSDOF 16
ENDMDL
