MODEL 1
REMARK VINA RESULT:     -12.2      0.000      0.000
REMARK SMILES CN(Cc1ccccc1Br)C(=O)N[C@H]1C=C[C@H](C(=O)NCCCNC(=O)c2ccc(-c3c4nc(c(-c5cccc(S(=O)(=O)[O-])c5F)c5ccc([nH]5)c(-c5cccc(S(=O)(=O)[O-])c5F)c5nc(c(-c6cccc(S(=O)(=O)[O-])c6F)c6ccc3[nH]6)C=C5)C=C4)cc2)C1
REMARK SMILES IDX 21 1 20 2 18 3 19 4 17 6 14 7 15 8 90 9 16 10 13 11 11 12
REMARK SMILES IDX 12 13 2 15 1 16 3 17 4 18 5 19 9 20 6 21 8 22 10 23 7 24
REMARK SMILES IDX 22 25 23 26 24 27 25 28 26 30 27 31 28 32 89 33 29 34 88 35
REMARK SMILES IDX 30 36 31 37 32 38 82 39 33 40 87 41 81 42 83 43 34 44 86 45
REMARK SMILES IDX 80 46 79 47 35 49 67 50 47 51 66 52 48 53 51 54 65 55 84 56
REMARK SMILES IDX 49 57 50 58 64 60 85 61 52 62 36 63 37 64 45 65 38 66 40 67
REMARK SMILES IDX 46 68 39 69 41 70 42 71 43 72 44 73 68 74 69 75 77 76 70 77
REMARK SMILES IDX 72 78 78 79 71 80 73 81 74 82 75 83 76 84 53 85 54 86 62 87
REMARK SMILES IDX 55 88 57 89 63 90 56 91 58 92 59 93 60 94 61 95
REMARK H PARENT 20 5 13 14 24 29 83 48 51 59
REMARK Flexibility Score: inf
ROOT
ATOM      1  C   UNL A   1      32.189  30.199  26.160  1.00  0.00     0.117 C 
ENDROOT
BRANCH   1   2
ATOM      2  N   UNL A   1      31.730  30.055  24.794  1.00  0.00    -0.356 N 
ATOM      3  C   UNL A   1      31.387  28.975  24.048  1.00  0.00     0.227 C 
ATOM      4  O   UNL A   1      30.950  29.216  22.914  1.00  0.00    -0.274 OA
ATOM      5  H   UNL A   1      31.653  30.909  24.310  1.00  0.00     0.163 HD
BRANCH   3   6
ATOM      6  C   UNL A   1      31.393  27.520  24.550  1.00  0.00     0.103 C 
ATOM      7  C   UNL A   1      31.052  25.716  22.928  1.00  0.00     0.107 C 
ATOM      8  C   UNL A   1      29.936  25.789  23.929  1.00  0.00    -0.006 C 
ATOM      9  C   UNL A   1      32.131  26.578  23.589  1.00  0.00     0.047 C 
ATOM     10  C   UNL A   1      30.095  26.815  24.777  1.00  0.00    -0.016 C 
BRANCH   7  11
ATOM     11  N   UNL A   1      31.408  24.347  22.693  1.00  0.00    -0.332 N 
ATOM     12  C   UNL A   1      31.825  23.310  23.428  1.00  0.00     0.317 C 
ATOM     13  O   UNL A   1      31.984  22.269  22.774  1.00  0.00    -0.249 OA
ATOM     14  H   UNL A   1      31.323  24.108  21.741  1.00  0.00     0.165 HD
BRANCH  12  15
ATOM     15  N   UNL A   1      32.014  23.323  24.782  1.00  0.00    -0.324 N 
ATOM     16  C   UNL A   1      30.873  22.814  25.537  1.00  0.00     0.149 C 
BRANCH  15  17
ATOM     17  C   UNL A   1      33.163  23.751  25.600  1.00  0.00     0.157 C 
BRANCH  17  18
ATOM     18  C   UNL A   1      34.527  23.180  25.261  1.00  0.00    -0.014 A 
ATOM     19  C   UNL A   1      35.612  24.075  25.191  1.00  0.00     0.007 A 
ATOM     20  C   UNL A   1      34.834  21.820  25.109  1.00  0.00     0.022 A 
ATOM     21  C   UNL A   1      36.898  23.677  24.821  1.00  0.00     0.000 A 
ATOM     22  C   UNL A   1      36.132  21.409  24.761  1.00  0.00     0.016 A 
ATOM     23  Br  UNL A   1      33.608  20.429  25.507  1.00  0.00    -0.050 Br
ATOM     24  C   UNL A   1      37.154  22.339  24.586  1.00  0.00     0.001 A 
ENDBRANCH  17  18
ENDBRANCH  15  17
ENDBRANCH  12  15
ENDBRANCH   7  11
ENDBRANCH   3   6
ENDBRANCH   1   2
BRANCH   1  25
ATOM     25  C   UNL A   1      31.788  31.515  26.800  1.00  0.00     0.042 C 
BRANCH  25  26
ATOM     26  C   UNL A   1      32.985  32.315  27.296  1.00  0.00     0.118 C 
BRANCH  26  27
ATOM     27  N   UNL A   1      32.659  33.715  27.569  1.00  0.00    -0.352 N 
ATOM     28  C   UNL A   1      33.130  34.567  28.549  1.00  0.00     0.251 C 
ATOM     29  H   UNL A   1      31.998  34.113  26.959  1.00  0.00     0.163 HD
ATOM     30  O   UNL A   1      32.584  35.645  28.725  1.00  0.00    -0.269 OA
BRANCH  28  31
ATOM     31  C   UNL A   1      34.282  34.159  29.384  1.00  0.00     0.039 A 
ATOM     32  C   UNL A   1      34.059  33.459  30.573  1.00  0.00     0.014 A 
ATOM     33  C   UNL A   1      35.584  34.454  28.981  1.00  0.00     0.014 A 
ATOM     34  C   UNL A   1      35.148  32.972  31.302  1.00  0.00     0.010 A 
ATOM     35  C   UNL A   1      36.659  33.877  29.645  1.00  0.00     0.010 A 
ATOM     36  C   UNL A   1      36.456  33.132  30.815  1.00  0.00    -0.014 A 
BRANCH  36  37
ATOM     37  C   UNL A   1      37.633  32.528  31.492  1.00  0.00     0.031 A 
ATOM     38  C   UNL A   1      38.370  31.388  30.840  1.00  0.00     0.074 A 
ATOM     39  C   UNL A   1      37.953  32.910  32.745  1.00  0.00     0.049 A 
ATOM     40  N   UNL A   1      39.326  30.638  31.324  1.00  0.00    -0.248 NA
ATOM     41  C   UNL A   1      37.945  31.009  29.482  1.00  0.00     0.031 C 
ATOM     42  C   UNL A   1      37.253  33.933  33.526  1.00  0.00     0.029 A 
ATOM     43  N   UNL A   1      38.928  32.455  33.597  1.00  0.00    -0.354 N 
ATOM     44  C   UNL A   1      39.576  29.671  30.358  1.00  0.00     0.074 A 
ATOM     45  C   UNL A   1      38.645  29.904  29.276  1.00  0.00     0.031 C 
ATOM     46  C   UNL A   1      37.827  34.035  34.736  1.00  0.00     0.029 A 
ATOM     47  C   UNL A   1      38.911  33.064  34.832  1.00  0.00     0.049 A 
ATOM     48  H   UNL A   1      39.577  31.758  33.350  1.00  0.00     0.167 HD
ATOM     49  C   UNL A   1      40.519  28.699  30.353  1.00  0.00     0.034 A 
ATOM     50  C   UNL A   1      39.682  32.862  35.918  1.00  0.00     0.034 A 
ATOM     51  C   UNL A   1      41.493  28.523  31.393  1.00  0.00     0.049 A 
ATOM     52  C   UNL A   1      40.780  31.836  35.852  1.00  0.00     0.074 A 
ATOM     53  C   UNL A   1      42.561  27.644  31.433  1.00  0.00     0.029 A 
ATOM     54  N   UNL A   1      41.525  29.246  32.575  1.00  0.00    -0.354 N 
ATOM     55  N   UNL A   1      41.105  31.039  34.863  1.00  0.00    -0.248 NA
ATOM     56  C   UNL A   1      41.640  31.704  37.037  1.00  0.00     0.031 C 
ATOM     57  C   UNL A   1      43.235  27.833  32.643  1.00  0.00     0.029 A 
ATOM     58  C   UNL A   1      42.594  28.837  33.352  1.00  0.00     0.049 A 
ATOM     59  H   UNL A   1      40.881  29.948  32.825  1.00  0.00     0.167 HD
ATOM     60  C   UNL A   1      42.226  30.338  35.291  1.00  0.00     0.074 A 
ATOM     61  C   UNL A   1      42.536  30.819  36.621  1.00  0.00     0.031 C 
ATOM     62  C   UNL A   1      42.924  29.369  34.649  1.00  0.00     0.034 A 
BRANCH  49  63
ATOM     63  C   UNL A   1      40.586  27.801  29.145  1.00  0.00     0.023 A 
ATOM     64  C   UNL A   1      39.707  26.703  29.047  1.00  0.00     0.012 A 
ATOM     65  C   UNL A   1      41.484  28.061  28.090  1.00  0.00     0.148 A 
ATOM     66  C   UNL A   1      39.746  25.854  27.943  1.00  0.00     0.002 A 
ATOM     67  C   UNL A   1      41.486  27.236  26.971  1.00  0.00     0.091 A 
ATOM     68  F   UNL A   1      42.330  29.095  28.209  1.00  0.00    -0.205 F 
ATOM     69  C   UNL A   1      40.628  26.127  26.902  1.00  0.00     0.022 A 
BRANCH  67  70
ATOM     70  S   UNL A   1      42.533  27.549  25.544  1.00  0.00     0.127 S 
ATOM     71  O   UNL A   1      43.863  27.558  26.150  1.00  0.00    -0.237 OA
ATOM     72  O   UNL A   1      42.257  26.388  24.696  1.00  0.00    -0.237 OA
ATOM     73  O   UNL A   1      42.083  28.820  24.992  1.00  0.00    -0.744 OA
ENDBRANCH  67  70
ENDBRANCH  49  63
BRANCH  50  74
ATOM     74  C   UNL A   1      39.500  33.716  37.126  1.00  0.00     0.023 A 
ATOM     75  C   UNL A   1      39.989  35.037  37.110  1.00  0.00     0.012 A 
ATOM     76  C   UNL A   1      38.815  33.251  38.266  1.00  0.00     0.148 A 
ATOM     77  C   UNL A   1      39.825  35.871  38.216  1.00  0.00     0.002 A 
ATOM     78  C   UNL A   1      38.609  34.105  39.344  1.00  0.00     0.091 A 
ATOM     79  F   UNL A   1      38.367  31.988  38.267  1.00  0.00    -0.205 F 
ATOM     80  C   UNL A   1      39.126  35.410  39.328  1.00  0.00     0.022 A 
BRANCH  78  81
ATOM     81  S   UNL A   1      37.606  33.639  40.760  1.00  0.00     0.127 S 
ATOM     82  O   UNL A   1      36.407  33.109  40.117  1.00  0.00    -0.237 OA
ATOM     83  O   UNL A   1      38.449  32.637  41.415  1.00  0.00    -0.237 OA
ATOM     84  O   UNL A   1      37.427  34.862  41.530  1.00  0.00    -0.744 OA
ENDBRANCH  78  81
ENDBRANCH  50  74
BRANCH  62  85
ATOM     85  C   UNL A   1      44.115  28.781  35.356  1.00  0.00     0.023 A 
ATOM     86  C   UNL A   1      45.395  29.325  35.133  1.00  0.00     0.012 A 
ATOM     87  C   UNL A   1      43.954  27.749  36.300  1.00  0.00     0.148 A 
ATOM     88  C   UNL A   1      46.502  28.834  35.823  1.00  0.00     0.002 A 
ATOM     89  C   UNL A   1      45.055  27.294  37.017  1.00  0.00     0.091 A 
ATOM     90  F   UNL A   1      42.731  27.229  36.481  1.00  0.00    -0.205 F 
ATOM     91  C   UNL A   1      46.331  27.829  36.772  1.00  0.00     0.022 A 
BRANCH  89  92
ATOM     92  S   UNL A   1      44.909  26.070  38.323  1.00  0.00     0.127 S 
ATOM     93  O   UNL A   1      46.292  25.957  38.782  1.00  0.00    -0.237 OA
ATOM     94  O   UNL A   1      44.005  26.727  39.267  1.00  0.00    -0.237 OA
ATOM     95  O   UNL A   1      44.356  24.879  37.691  1.00  0.00    -0.744 OA
ENDBRANCH  89  92
ENDBRANCH  62  85
ENDBRANCH  36  37
ENDBRANCH  28  31
ENDBRANCH  26  27
ENDBRANCH  25  26
ENDBRANCH   1  25
TORSDOF 17
ENDMDL
MODEL 2
REMARK VINA RESULT:     -11.9      5.785      8.971
REMARK SMILES CN(Cc1ccccc1Br)C(=O)N[C@H]1C=C[C@H](C(=O)NCCCNC(=O)c2ccc(-c3c4nc(c(-c5cccc(S(=O)(=O)[O-])c5F)c5ccc([nH]5)c(-c5cccc(S(=O)(=O)[O-])c5F)c5nc(c(-c6cccc(S(=O)(=O)[O-])c6F)c6ccc3[nH]6)C=C5)C=C4)cc2)C1
REMARK SMILES IDX 21 1 20 2 18 3 19 4 17 6 14 7 15 8 90 9 16 10 13 11 11 12
REMARK SMILES IDX 12 13 2 15 1 16 3 17 4 18 5 19 9 20 6 21 8 22 10 23 7 24
REMARK SMILES IDX 22 25 23 26 24 27 25 28 26 30 27 31 28 32 89 33 29 34 88 35
REMARK SMILES IDX 30 36 31 37 32 38 82 39 33 40 87 41 81 42 83 43 34 44 86 45
REMARK SMILES IDX 80 46 79 47 35 49 67 50 47 51 66 52 48 53 51 54 65 55 84 56
REMARK SMILES IDX 49 57 50 58 64 60 85 61 52 62 36 63 37 64 45 65 38 66 40 67
REMARK SMILES IDX 46 68 39 69 41 70 42 71 43 72 44 73 68 74 69 75 77 76 70 77
REMARK SMILES IDX 72 78 78 79 71 80 73 81 74 82 75 83 76 84 53 85 54 86 62 87
REMARK SMILES IDX 55 88 57 89 63 90 56 91 58 92 59 93 60 94 61 95
REMARK H PARENT 20 5 13 14 24 29 83 48 51 59
REMARK Flexibility Score: inf
ROOT
ATOM      1  C   UNL A   1      35.926  20.163  25.002  1.00  0.00     0.117 C 
ENDROOT
BRANCH   1   2
ATOM      2  N   UNL A   1      34.950  20.923  25.753  1.00  0.00    -0.356 N 
ATOM      3  C   UNL A   1      33.820  21.582  25.391  1.00  0.00     0.227 C 
ATOM      4  O   UNL A   1      33.157  22.071  26.316  1.00  0.00    -0.274 OA
ATOM      5  H   UNL A   1      35.144  20.973  26.717  1.00  0.00     0.163 HD
BRANCH   3   6
ATOM      6  C   UNL A   1      33.265  21.655  23.957  1.00  0.00     0.103 C 
ATOM      7  C   UNL A   1      32.877  23.859  22.958  1.00  0.00     0.107 C 
ATOM      8  C   UNL A   1      31.599  23.092  23.142  1.00  0.00    -0.006 C 
ATOM      9  C   UNL A   1      33.933  22.765  23.133  1.00  0.00     0.047 C 
ATOM     10  C   UNL A   1      31.809  21.913  23.744  1.00  0.00    -0.016 C 
BRANCH   7  11
ATOM     11  N   UNL A   1      32.870  24.520  21.687  1.00  0.00    -0.332 N 
ATOM     12  C   UNL A   1      32.813  25.781  21.246  1.00  0.00     0.317 C 
ATOM     13  O   UNL A   1      32.868  25.879  20.011  1.00  0.00    -0.249 OA
ATOM     14  H   UNL A   1      32.920  23.876  20.943  1.00  0.00     0.165 HD
BRANCH  12  15
ATOM     15  N   UNL A   1      32.762  26.896  22.036  1.00  0.00    -0.324 N 
ATOM     16  C   UNL A   1      33.946  27.744  21.929  1.00  0.00     0.149 C 
BRANCH  15  17
ATOM     17  C   UNL A   1      31.725  27.387  22.961  1.00  0.00     0.157 C 
BRANCH  17  18
ATOM     18  C   UNL A   1      31.473  26.592  24.229  1.00  0.00    -0.014 A 
ATOM     19  C   UNL A   1      32.562  26.383  25.096  1.00  0.00     0.007 A 
ATOM     20  C   UNL A   1      30.226  26.131  24.675  1.00  0.00     0.022 A 
ATOM     21  C   UNL A   1      32.467  25.611  26.255  1.00  0.00     0.000 A 
ATOM     22  C   UNL A   1      30.118  25.374  25.854  1.00  0.00     0.016 A 
ATOM     23  Br  UNL A   1      28.587  26.604  23.847  1.00  0.00    -0.050 Br
ATOM     24  C   UNL A   1      31.242  25.087  26.626  1.00  0.00     0.001 A 
ENDBRANCH  17  18
ENDBRANCH  15  17
ENDBRANCH  12  15
ENDBRANCH   7  11
ENDBRANCH   3   6
ENDBRANCH   1   2
BRANCH   1  25
ATOM     25  C   UNL A   1      36.978  21.023  24.328  1.00  0.00     0.042 C 
BRANCH  25  26
ATOM     26  C   UNL A   1      37.908  21.703  25.324  1.00  0.00     0.118 C 
BRANCH  26  27
ATOM     27  N   UNL A   1      38.877  20.780  25.918  1.00  0.00    -0.352 N 
ATOM     28  C   UNL A   1      40.037  21.035  26.622  1.00  0.00     0.251 C 
ATOM     29  H   UNL A   1      38.669  19.826  25.794  1.00  0.00     0.163 HD
ATOM     30  O   UNL A   1      40.809  20.120  26.865  1.00  0.00    -0.269 OA
BRANCH  28  31
ATOM     31  C   UNL A   1      40.340  22.415  27.062  1.00  0.00     0.039 A 
ATOM     32  C   UNL A   1      41.276  22.625  28.079  1.00  0.00     0.014 A 
ATOM     33  C   UNL A   1      39.710  23.502  26.457  1.00  0.00     0.014 A 
ATOM     34  C   UNL A   1      41.649  23.930  28.415  1.00  0.00     0.010 A 
ATOM     35  C   UNL A   1      40.161  24.790  26.714  1.00  0.00     0.010 A 
ATOM     36  C   UNL A   1      41.132  25.022  27.698  1.00  0.00    -0.014 A 
BRANCH  36  37
ATOM     37  C   UNL A   1      41.589  26.415  27.937  1.00  0.00     0.031 A 
ATOM     38  C   UNL A   1      42.997  26.815  27.581  1.00  0.00     0.074 A 
ATOM     39  C   UNL A   1      40.790  27.277  28.598  1.00  0.00     0.049 A 
ATOM     40  N   UNL A   1      43.628  27.932  27.835  1.00  0.00    -0.248 NA
ATOM     41  C   UNL A   1      43.820  25.811  26.886  1.00  0.00     0.031 C 
ATOM     42  C   UNL A   1      39.441  26.980  29.087  1.00  0.00     0.029 A 
ATOM     43  N   UNL A   1      41.010  28.570  29.004  1.00  0.00    -0.354 N 
ATOM     44  C   UNL A   1      44.930  27.744  27.386  1.00  0.00     0.074 A 
ATOM     45  C   UNL A   1      45.009  26.393  26.877  1.00  0.00     0.031 C 
ATOM     46  C   UNL A   1      38.952  28.059  29.717  1.00  0.00     0.029 A 
ATOM     47  C   UNL A   1      39.959  29.114  29.707  1.00  0.00     0.049 A 
ATOM     48  H   UNL A   1      41.840  29.061  28.810  1.00  0.00     0.167 HD
ATOM     49  C   UNL A   1      45.957  28.626  27.363  1.00  0.00     0.034 A 
ATOM     50  C   UNL A   1      39.824  30.326  30.280  1.00  0.00     0.034 A 
ATOM     51  C   UNL A   1      45.849  29.992  27.794  1.00  0.00     0.049 A 
ATOM     52  C   UNL A   1      40.949  31.318  30.162  1.00  0.00     0.074 A 
ATOM     53  C   UNL A   1      46.793  30.999  27.709  1.00  0.00     0.029 A 
ATOM     54  N   UNL A   1      44.725  30.546  28.387  1.00  0.00    -0.354 N 
ATOM     55  N   UNL A   1      42.118  31.173  29.585  1.00  0.00    -0.248 NA
ATOM     56  C   UNL A   1      40.725  32.650  30.739  1.00  0.00     0.031 C 
ATOM     57  C   UNL A   1      46.240  32.162  28.255  1.00  0.00     0.029 A 
ATOM     58  C   UNL A   1      44.949  31.882  28.670  1.00  0.00     0.049 A 
ATOM     59  H   UNL A   1      43.889  30.061  28.577  1.00  0.00     0.167 HD
ATOM     60  C   UNL A   1      42.754  32.404  29.700  1.00  0.00     0.074 A 
ATOM     61  C   UNL A   1      41.832  33.288  30.383  1.00  0.00     0.031 C 
ATOM     62  C   UNL A   1      43.997  32.764  29.295  1.00  0.00     0.034 A 
BRANCH  49  63
ATOM     63  C   UNL A   1      47.264  28.157  26.780  1.00  0.00     0.023 A 
ATOM     64  C   UNL A   1      48.335  27.843  27.642  1.00  0.00     0.012 A 
ATOM     65  C   UNL A   1      47.426  27.988  25.391  1.00  0.00     0.148 A 
ATOM     66  C   UNL A   1      49.557  27.408  27.133  1.00  0.00     0.002 A 
ATOM     67  C   UNL A   1      48.633  27.511  24.893  1.00  0.00     0.091 A 
ATOM     68  F   UNL A   1      46.407  28.314  24.582  1.00  0.00    -0.205 F 
ATOM     69  C   UNL A   1      49.702  27.233  25.761  1.00  0.00     0.022 A 
BRANCH  67  70
ATOM     70  S   UNL A   1      48.894  27.178  23.146  1.00  0.00     0.127 S 
ATOM     71  O   UNL A   1      48.214  28.314  22.526  1.00  0.00    -0.237 OA
ATOM     72  O   UNL A   1      50.353  27.207  23.038  1.00  0.00    -0.237 OA
ATOM     73  O   UNL A   1      48.295  25.874  22.896  1.00  0.00    -0.744 OA
ENDBRANCH  67  70
ENDBRANCH  49  63
BRANCH  50  74
ATOM     74  C   UNL A   1      38.537  30.698  30.935  1.00  0.00     0.023 A 
ATOM     75  C   UNL A   1      38.362  30.422  32.304  1.00  0.00     0.012 A 
ATOM     76  C   UNL A   1      37.511  31.357  30.230  1.00  0.00     0.148 A 
ATOM     77  C   UNL A   1      37.178  30.769  32.956  1.00  0.00     0.002 A 
ATOM     78  C   UNL A   1      36.355  31.746  30.897  1.00  0.00     0.091 A 
ATOM     79  F   UNL A   1      37.691  31.600  28.924  1.00  0.00    -0.205 F 
ATOM     80  C   UNL A   1      36.180  31.441  32.256  1.00  0.00     0.022 A 
BRANCH  78  81
ATOM     81  S   UNL A   1      35.076  32.732  30.108  1.00  0.00     0.127 S 
ATOM     82  O   UNL A   1      34.227  33.085  31.242  1.00  0.00    -0.237 OA
ATOM     83  O   UNL A   1      35.849  33.841  29.547  1.00  0.00    -0.237 OA
ATOM     84  O   UNL A   1      34.475  31.860  29.108  1.00  0.00    -0.744 OA
ENDBRANCH  78  81
ENDBRANCH  50  74
BRANCH  62  85
ATOM     85  C   UNL A   1      44.430  34.183  29.546  1.00  0.00     0.023 A 
ATOM     86  C   UNL A   1      44.998  34.528  30.788  1.00  0.00     0.012 A 
ATOM     87  C   UNL A   1      44.352  35.151  28.526  1.00  0.00     0.148 A 
ATOM     88  C   UNL A   1      45.460  35.822  31.019  1.00  0.00     0.002 A 
ATOM     89  C   UNL A   1      44.855  36.427  28.748  1.00  0.00     0.091 A 
ATOM     90  F   UNL A   1      43.787  34.808  27.359  1.00  0.00    -0.205 F 
ATOM     91  C   UNL A   1      45.400  36.767  29.997  1.00  0.00     0.022 A 
BRANCH  89  92
ATOM     92  S   UNL A   1      44.904  37.676  27.459  1.00  0.00     0.127 S 
ATOM     93  O   UNL A   1      45.818  37.071  26.492  1.00  0.00    -0.237 OA
ATOM     94  O   UNL A   1      43.507  37.733  27.025  1.00  0.00    -0.237 OA
ATOM     95  O   UNL A   1      45.383  38.892  28.101  1.00  0.00    -0.744 OA
ENDBRANCH  89  92
ENDBRANCH  62  85
ENDBRANCH  36  37
ENDBRANCH  28  31
ENDBRANCH  26  27
ENDBRANCH  25  26
ENDBRANCH   1  25
TORSDOF 17
ENDMDL
MODEL 3
REMARK VINA RESULT:     -11.6      1.664      2.004
REMARK SMILES CN(Cc1ccccc1Br)C(=O)N[C@H]1C=C[C@H](C(=O)NCCCNC(=O)c2ccc(-c3c4nc(c(-c5cccc(S(=O)(=O)[O-])c5F)c5ccc([nH]5)c(-c5cccc(S(=O)(=O)[O-])c5F)c5nc(c(-c6cccc(S(=O)(=O)[O-])c6F)c6ccc3[nH]6)C=C5)C=C4)cc2)C1
REMARK SMILES IDX 21 1 20 2 18 3 19 4 17 6 14 7 15 8 90 9 16 10 13 11 11 12
REMARK SMILES IDX 12 13 2 15 1 16 3 17 4 18 5 19 9 20 6 21 8 22 10 23 7 24
REMARK SMILES IDX 22 25 23 26 24 27 25 28 26 30 27 31 28 32 89 33 29 34 88 35
REMARK SMILES IDX 30 36 31 37 32 38 82 39 33 40 87 41 81 42 83 43 34 44 86 45
REMARK SMILES IDX 80 46 79 47 35 49 67 50 47 51 66 52 48 53 51 54 65 55 84 56
REMARK SMILES IDX 49 57 50 58 64 60 85 61 52 62 36 63 37 64 45 65 38 66 40 67
REMARK SMILES IDX 46 68 39 69 41 70 42 71 43 72 44 73 68 74 69 75 77 76 70 77
REMARK SMILES IDX 72 78 78 79 71 80 73 81 74 82 75 83 76 84 53 85 54 86 62 87
REMARK SMILES IDX 55 88 57 89 63 90 56 91 58 92 59 93 60 94 61 95
REMARK H PARENT 20 5 13 14 24 29 83 48 51 59
REMARK Flexibility Score: inf
ROOT
ATOM      1  C   UNL A   1      34.192  30.295  27.409  1.00  0.00     0.117 C 
ENDROOT
BRANCH   1   2
ATOM      2  N   UNL A   1      34.358  29.601  26.149  1.00  0.00    -0.356 N 
ATOM      3  C   UNL A   1      33.587  28.704  25.484  1.00  0.00     0.227 C 
ATOM      4  O   UNL A   1      33.996  28.362  24.366  1.00  0.00    -0.274 OA
ATOM      5  H   UNL A   1      35.196  29.823  25.683  1.00  0.00     0.163 HD
BRANCH   3   6
ATOM      6  C   UNL A   1      32.219  28.191  25.967  1.00  0.00     0.103 C 
ATOM      7  C   UNL A   1      31.781  25.780  25.909  1.00  0.00     0.107 C 
ATOM      8  C   UNL A   1      30.882  26.538  24.973  1.00  0.00    -0.006 C 
ATOM      9  C   UNL A   1      32.340  26.900  26.790  1.00  0.00     0.047 C 
ATOM     10  C   UNL A   1      31.166  27.848  24.963  1.00  0.00    -0.016 C 
BRANCH   7  11
ATOM     11  N   UNL A   1      31.031  24.768  26.592  1.00  0.00    -0.332 N 
ATOM     12  C   UNL A   1      31.182  23.470  26.878  1.00  0.00     0.317 C 
ATOM     13  O   UNL A   1      30.251  22.995  27.544  1.00  0.00    -0.249 OA
ATOM     14  H   UNL A   1      30.180  25.121  26.943  1.00  0.00     0.165 HD
BRANCH  12  15
ATOM     15  N   UNL A   1      32.268  22.707  26.546  1.00  0.00    -0.324 N 
ATOM     16  C   UNL A   1      33.191  22.490  27.656  1.00  0.00     0.149 C 
BRANCH  15  17
ATOM     17  C   UNL A   1      32.656  22.067  25.277  1.00  0.00     0.157 C 
BRANCH  17  18
ATOM     18  C   UNL A   1      34.125  22.083  24.895  1.00  0.00    -0.014 A 
ATOM     19  C   UNL A   1      34.900  20.957  25.235  1.00  0.00     0.007 A 
ATOM     20  C   UNL A   1      34.767  23.074  24.141  1.00  0.00     0.022 A 
ATOM     21  C   UNL A   1      36.274  20.886  24.998  1.00  0.00     0.000 A 
ATOM     22  C   UNL A   1      36.145  22.998  23.875  1.00  0.00     0.016 A 
ATOM     23  Br  UNL A   1      33.841  24.491  23.286  1.00  0.00    -0.050 Br
ATOM     24  C   UNL A   1      36.903  21.922  24.331  1.00  0.00     0.001 A 
ENDBRANCH  17  18
ENDBRANCH  15  17
ENDBRANCH  12  15
ENDBRANCH   7  11
ENDBRANCH   3   6
ENDBRANCH   1   2
BRANCH   1  25
ATOM     25  C   UNL A   1      34.023  31.795  27.259  1.00  0.00     0.042 C 
BRANCH  25  26
ATOM     26  C   UNL A   1      32.573  32.240  27.395  1.00  0.00     0.118 C 
BRANCH  26  27
ATOM     27  N   UNL A   1      32.432  33.692  27.510  1.00  0.00    -0.352 N 
ATOM     28  C   UNL A   1      33.062  34.586  28.353  1.00  0.00     0.251 C 
ATOM     29  H   UNL A   1      31.785  34.095  26.888  1.00  0.00     0.163 HD
ATOM     30  O   UNL A   1      32.659  35.737  28.422  1.00  0.00    -0.269 OA
BRANCH  28  31
ATOM     31  C   UNL A   1      34.209  34.137  29.174  1.00  0.00     0.039 A 
ATOM     32  C   UNL A   1      33.978  33.392  30.334  1.00  0.00     0.014 A 
ATOM     33  C   UNL A   1      35.514  34.439  28.785  1.00  0.00     0.014 A 
ATOM     34  C   UNL A   1      35.062  32.869  31.045  1.00  0.00     0.010 A 
ATOM     35  C   UNL A   1      36.583  33.829  29.428  1.00  0.00     0.010 A 
ATOM     36  C   UNL A   1      36.372  33.040  30.568  1.00  0.00    -0.014 A 
BRANCH  36  37
ATOM     37  C   UNL A   1      37.544  32.401  31.222  1.00  0.00     0.031 A 
ATOM     38  C   UNL A   1      38.344  31.363  30.481  1.00  0.00     0.074 A 
ATOM     39  C   UNL A   1      37.803  32.652  32.521  1.00  0.00     0.049 A 
ATOM     40  N   UNL A   1      39.307  30.594  30.919  1.00  0.00    -0.248 NA
ATOM     41  C   UNL A   1      37.984  31.123  29.073  1.00  0.00     0.031 C 
ATOM     42  C   UNL A   1      37.039  33.561  33.380  1.00  0.00     0.029 A 
ATOM     43  N   UNL A   1      38.760  32.136  33.359  1.00  0.00    -0.354 N 
ATOM     44  C   UNL A   1      39.627  29.747  29.865  1.00  0.00     0.074 A 
ATOM     45  C   UNL A   1      38.730  30.070  28.777  1.00  0.00     0.031 C 
ATOM     46  C   UNL A   1      37.563  33.546  34.616  1.00  0.00     0.029 A 
ATOM     47  C   UNL A   1      38.676  32.604  34.650  1.00  0.00     0.049 A 
ATOM     48  H   UNL A   1      39.443  31.491  33.063  1.00  0.00     0.167 HD
ATOM     49  C   UNL A   1      40.603  28.811  29.792  1.00  0.00     0.034 A 
ATOM     50  C   UNL A   1      39.412  32.307  35.739  1.00  0.00     0.034 A 
ATOM     51  C   UNL A   1      41.543  28.552  30.846  1.00  0.00     0.049 A 
ATOM     52  C   UNL A   1      40.547  31.329  35.607  1.00  0.00     0.074 A 
ATOM     53  C   UNL A   1      42.638  27.707  30.834  1.00  0.00     0.029 A 
ATOM     54  N   UNL A   1      41.505  29.140  32.100  1.00  0.00    -0.354 N 
ATOM     55  N   UNL A   1      40.937  30.657  34.550  1.00  0.00    -0.248 NA
ATOM     56  C   UNL A   1      41.366  31.094  36.804  1.00  0.00     0.031 C 
ATOM     57  C   UNL A   1      43.260  27.782  32.084  1.00  0.00     0.029 A 
ATOM     58  C   UNL A   1      42.558  28.681  32.871  1.00  0.00     0.049 A 
ATOM     59  H   UNL A   1      40.828  29.791  32.398  1.00  0.00     0.167 HD
ATOM     60  C   UNL A   1      42.065  29.947  34.945  1.00  0.00     0.074 A 
ATOM     61  C   UNL A   1      42.307  30.287  36.332  1.00  0.00     0.031 C 
ATOM     62  C   UNL A   1      42.820  29.077  34.231  1.00  0.00     0.034 A 
BRANCH  49  63
ATOM     63  C   UNL A   1      40.747  28.055  28.497  1.00  0.00     0.023 A 
ATOM     64  C   UNL A   1      41.396  28.668  27.405  1.00  0.00     0.012 A 
ATOM     65  C   UNL A   1      40.283  26.731  28.367  1.00  0.00     0.148 A 
ATOM     66  C   UNL A   1      41.544  27.995  26.194  1.00  0.00     0.002 A 
ATOM     67  C   UNL A   1      40.474  26.050  27.170  1.00  0.00     0.091 A 
ATOM     68  F   UNL A   1      39.646  26.171  29.406  1.00  0.00    -0.205 F 
ATOM     69  C   UNL A   1      41.093  26.684  26.081  1.00  0.00     0.022 A 
BRANCH  67  70
ATOM     70  S   UNL A   1      39.996  24.332  26.950  1.00  0.00     0.127 S 
ATOM     71  O   UNL A   1      38.552  24.451  26.753  1.00  0.00    -0.237 OA
ATOM     72  O   UNL A   1      40.745  23.952  25.752  1.00  0.00    -0.237 OA
ATOM     73  O   UNL A   1      40.410  23.645  28.166  1.00  0.00    -0.744 OA
ENDBRANCH  67  70
ENDBRANCH  49  63
BRANCH  50  74
ATOM     74  C   UNL A   1      39.155  33.017  37.025  1.00  0.00     0.023 A 
ATOM     75  C   UNL A   1      39.766  34.265  37.251  1.00  0.00     0.012 A 
ATOM     76  C   UNL A   1      38.284  32.492  37.999  1.00  0.00     0.148 A 
ATOM     77  C   UNL A   1      39.538  34.966  38.435  1.00  0.00     0.002 A 
ATOM     78  C   UNL A   1      38.021  33.220  39.154  1.00  0.00     0.091 A 
ATOM     79  F   UNL A   1      37.721  31.297  37.771  1.00  0.00    -0.205 F 
ATOM     80  C   UNL A   1      38.658  34.451  39.381  1.00  0.00     0.022 A 
BRANCH  78  81
ATOM     81  S   UNL A   1      36.799  32.695  40.363  1.00  0.00     0.127 S 
ATOM     82  O   UNL A   1      35.658  32.367  39.513  1.00  0.00    -0.237 OA
ATOM     83  O   UNL A   1      37.458  31.544  40.982  1.00  0.00    -0.237 OA
ATOM     84  O   UNL A   1      36.622  33.832  41.256  1.00  0.00    -0.744 OA
ENDBRANCH  78  81
ENDBRANCH  50  74
BRANCH  62  85
ATOM     85  C   UNL A   1      44.003  28.451  34.918  1.00  0.00     0.023 A 
ATOM     86  C   UNL A   1      45.293  28.975  34.699  1.00  0.00     0.012 A 
ATOM     87  C   UNL A   1      43.828  27.402  35.841  1.00  0.00     0.148 A 
ATOM     88  C   UNL A   1      46.394  28.448  35.371  1.00  0.00     0.002 A 
ATOM     89  C   UNL A   1      44.925  26.911  36.541  1.00  0.00     0.091 A 
ATOM     90  F   UNL A   1      42.597  26.903  36.018  1.00  0.00    -0.205 F 
ATOM     91  C   UNL A   1      46.208  27.427  36.300  1.00  0.00     0.022 A 
BRANCH  89  92
ATOM     92  S   UNL A   1      44.762  25.663  37.822  1.00  0.00     0.127 S 
ATOM     93  O   UNL A   1      46.139  25.542  38.296  1.00  0.00    -0.237 OA
ATOM     94  O   UNL A   1      43.845  26.302  38.767  1.00  0.00    -0.237 OA
ATOM     95  O   UNL A   1      44.218  24.484  37.161  1.00  0.00    -0.744 OA
ENDBRANCH  89  92
ENDBRANCH  62  85
ENDBRANCH  36  37
ENDBRANCH  28  31
ENDBRANCH  26  27
ENDBRANCH  25  26
ENDBRANCH   1  25
TORSDOF 17
ENDMDL
