MODEL 1
REMARK VINA RESULT:     -11.1      0.000      0.000
REMARK SMILES C[NH2+]C[C@@H](C)C(=O)Nc1ccc(Cl)cc1C(=O)NCCCNC(=O)c1ccc(-c2c3nc(c(-c4cccc(S(=O)(=O)[O-])c4F)c4ccc([nH]4)c(-c4cccc(S(=O)(=O)[O-])c4F)c4nc(c(-c5cccc(S(=O)(=O)[O-])c5F)c5ccc2[nH]5)C=C4)C=C3)cc1
REMARK SMILES IDX 19 1 18 2 16 3 17 4 15 6 9 7 10 8 11 9 14 10 12 11 13 12
REMARK SMILES IDX 8 13 6 14 7 15 4 17 5 18 3 19 2 20 1 21 20 24 21 25 22 26
REMARK SMILES IDX 23 27 24 29 25 30 26 31 87 32 27 33 86 34 28 35 29 36 30 37
REMARK SMILES IDX 80 38 31 39 85 40 79 41 81 42 32 43 84 44 78 45 77 46 33 48
REMARK SMILES IDX 65 49 45 50 64 51 46 52 49 53 63 54 82 55 47 56 48 57 62 59
REMARK SMILES IDX 83 60 50 61 34 62 35 63 43 64 36 65 38 66 44 67 37 68 39 69
REMARK SMILES IDX 40 70 41 71 42 72 66 73 67 74 75 75 68 76 70 77 76 78 69 79
REMARK SMILES IDX 71 80 72 81 73 82 74 83 51 84 52 85 60 86 53 87 55 88 61 89
REMARK SMILES IDX 54 90 56 91 57 92 58 93 59 94
REMARK H PARENT 18 5 8 16 2 22 2 23 22 28 81 47 49 58
REMARK Flexibility Score: inf
ROOT
ATOM      1  C   UNL A   1      33.519  26.770  25.592  1.00  0.00     0.118 C 
ENDROOT
BRANCH   1   2
ATOM      2  N   UNL A   1      32.967  25.569  26.152  1.00  0.00    -0.352 N 
ATOM      3  C   UNL A   1      33.346  24.255  26.088  1.00  0.00     0.253 C 
ATOM      4  O   UNL A   1      32.601  23.490  26.716  1.00  0.00    -0.269 OA
ATOM      5  H   UNL A   1      32.155  25.720  26.688  1.00  0.00     0.163 HD
BRANCH   3   6
ATOM      6  C   UNL A   1      34.534  23.643  25.378  1.00  0.00     0.064 A 
ATOM      7  C   UNL A   1      34.640  22.797  24.251  1.00  0.00     0.054 A 
ATOM      8  C   UNL A   1      35.896  22.566  23.657  1.00  0.00     0.028 A 
ATOM      9  C   UNL A   1      37.075  22.997  24.247  1.00  0.00     0.023 A 
ATOM     10  C   UNL A   1      35.764  24.039  25.972  1.00  0.00     0.036 A 
ATOM     11  C   UNL A   1      37.006  23.702  25.432  1.00  0.00     0.041 A 
ATOM     12  Cl  UNL A   1      38.455  24.186  26.220  1.00  0.00    -0.084 Cl
BRANCH   7  13
ATOM     13  N   UNL A   1      33.589  22.174  23.577  1.00  0.00    -0.325 N 
ATOM     14  C   UNL A   1      33.065  20.915  23.788  1.00  0.00     0.232 C 
ATOM     15  O   UNL A   1      32.111  20.596  23.066  1.00  0.00    -0.274 OA
ATOM     16  H   UNL A   1      33.167  22.700  22.859  1.00  0.00     0.169 HD
BRANCH  14  17
ATOM     17  C   UNL A   1      33.534  19.948  24.897  1.00  0.00     0.130 C 
ATOM     18  C   UNL A   1      34.924  19.345  24.682  1.00  0.00     0.024 C 
BRANCH  17  19
ATOM     19  C   UNL A   1      32.442  18.921  25.221  1.00  0.00     0.273 C 
BRANCH  19  20
ATOM     20  N   UNL A   1      32.714  17.937  26.271  1.00  0.00    -0.348 N 
ATOM     21  C   UNL A   1      32.709  16.565  25.781  1.00  0.00     0.330 C 
ATOM     22  H   UNL A   1      33.630  18.135  26.672  1.00  0.00     0.346 HD
ATOM     23  H   UNL A   1      31.968  18.017  26.963  1.00  0.00     0.346 HD
ENDBRANCH  19  20
ENDBRANCH  17  19
ENDBRANCH  14  17
ENDBRANCH   7  13
ENDBRANCH   3   6
ENDBRANCH   1   2
BRANCH   1  24
ATOM     24  C   UNL A   1      33.331  28.034  26.397  1.00  0.00     0.042 C 
BRANCH  24  25
ATOM     25  C   UNL A   1      34.257  29.169  26.029  1.00  0.00     0.118 C 
BRANCH  25  26
ATOM     26  N   UNL A   1      33.917  30.428  26.687  1.00  0.00    -0.352 N 
ATOM     27  C   UNL A   1      34.479  31.074  27.762  1.00  0.00     0.251 C 
ATOM     28  H   UNL A   1      33.148  30.897  26.289  1.00  0.00     0.163 HD
ATOM     29  O   UNL A   1      33.901  32.052  28.240  1.00  0.00    -0.269 OA
BRANCH  27  30
ATOM     30  C   UNL A   1      35.746  30.602  28.369  1.00  0.00     0.039 A 
ATOM     31  C   UNL A   1      35.708  29.685  29.424  1.00  0.00     0.014 A 
ATOM     32  C   UNL A   1      36.977  31.069  27.915  1.00  0.00     0.014 A 
ATOM     33  C   UNL A   1      36.902  29.183  29.955  1.00  0.00     0.010 A 
ATOM     34  C   UNL A   1      38.150  30.460  28.334  1.00  0.00     0.010 A 
ATOM     35  C   UNL A   1      38.135  29.530  29.380  1.00  0.00    -0.014 A 
BRANCH  35  36
ATOM     36  C   UNL A   1      39.424  28.965  29.861  1.00  0.00     0.031 A 
ATOM     37  C   UNL A   1      40.171  29.642  30.985  1.00  0.00     0.074 A 
ATOM     38  C   UNL A   1      39.980  27.917  29.219  1.00  0.00     0.049 A 
ATOM     39  N   UNL A   1      41.355  29.371  31.471  1.00  0.00    -0.248 NA
ATOM     40  C   UNL A   1      39.521  30.804  31.620  1.00  0.00     0.031 C 
ATOM     41  C   UNL A   1      39.407  27.233  28.057  1.00  0.00     0.029 A 
ATOM     42  N   UNL A   1      41.169  27.264  29.430  1.00  0.00    -0.354 N 
ATOM     43  C   UNL A   1      41.610  30.355  32.420  1.00  0.00     0.074 A 
ATOM     44  C   UNL A   1      40.481  31.255  32.412  1.00  0.00     0.031 C 
ATOM     45  C   UNL A   1      40.237  26.252  27.668  1.00  0.00     0.029 A 
ATOM     46  C   UNL A   1      41.419  26.262  28.522  1.00  0.00     0.049 A 
ATOM     47  H   UNL A   1      41.785  27.492  30.165  1.00  0.00     0.167 HD
ATOM     48  C   UNL A   1      42.672  30.482  33.249  1.00  0.00     0.034 A 
ATOM     49  C   UNL A   1      42.487  25.452  28.383  1.00  0.00     0.034 A 
ATOM     50  C   UNL A   1      43.762  29.547  33.299  1.00  0.00     0.049 A 
ATOM     51  C   UNL A   1      43.626  25.573  29.357  1.00  0.00     0.074 A 
ATOM     52  C   UNL A   1      44.830  29.520  34.178  1.00  0.00     0.029 A 
ATOM     53  N   UNL A   1      43.928  28.482  32.430  1.00  0.00    -0.354 N 
ATOM     54  N   UNL A   1      43.771  26.409  30.357  1.00  0.00    -0.248 NA
ATOM     55  C   UNL A   1      44.732  24.617  29.211  1.00  0.00     0.031 C 
ATOM     56  C   UNL A   1      45.661  28.455  33.817  1.00  0.00     0.029 A 
ATOM     57  C   UNL A   1      45.090  27.796  32.741  1.00  0.00     0.049 A 
ATOM     58  H   UNL A   1      43.312  28.246  31.700  1.00  0.00     0.167 HD
ATOM     59  C   UNL A   1      44.962  26.058  30.979  1.00  0.00     0.074 A 
ATOM     60  C   UNL A   1      45.489  24.919  30.257  1.00  0.00     0.031 C 
ATOM     61  C   UNL A   1      45.573  26.633  32.044  1.00  0.00     0.034 A 
BRANCH  48  62
ATOM     62  C   UNL A   1      42.683  31.644  34.209  1.00  0.00     0.023 A 
ATOM     63  C   UNL A   1      43.228  32.882  33.808  1.00  0.00     0.012 A 
ATOM     64  C   UNL A   1      42.099  31.530  35.486  1.00  0.00     0.148 A 
ATOM     65  C   UNL A   1      43.226  33.974  34.674  1.00  0.00     0.002 A 
ATOM     66  C   UNL A   1      42.056  32.637  36.325  1.00  0.00     0.091 A 
ATOM     67  F   UNL A   1      41.605  30.341  35.859  1.00  0.00    -0.205 F 
ATOM     68  C   UNL A   1      42.630  33.855  35.927  1.00  0.00     0.022 A 
BRANCH  66  69
ATOM     69  S   UNL A   1      41.235  32.613  37.923  1.00  0.00     0.127 S 
ATOM     70  O   UNL A   1      41.263  34.027  38.290  1.00  0.00    -0.237 OA
ATOM     71  O   UNL A   1      39.910  32.099  37.578  1.00  0.00    -0.237 OA
ATOM     72  O   UNL A   1      42.028  31.733  38.770  1.00  0.00    -0.744 OA
ENDBRANCH  66  69
ENDBRANCH  48  62
BRANCH  49  73
ATOM     73  C   UNL A   1      42.503  24.415  27.310  1.00  0.00     0.023 A 
ATOM     74  C   UNL A   1      43.337  24.590  26.188  1.00  0.00     0.012 A 
ATOM     75  C   UNL A   1      41.716  23.251  27.404  1.00  0.00     0.148 A 
ATOM     76  C   UNL A   1      43.358  23.645  25.162  1.00  0.00     0.002 A 
ATOM     77  C   UNL A   1      41.786  22.285  26.407  1.00  0.00     0.091 A 
ATOM     78  F   UNL A   1      40.923  23.106  28.475  1.00  0.00    -0.205 F 
ATOM     79  C   UNL A   1      42.592  22.489  25.276  1.00  0.00     0.022 A 
BRANCH  77  80
ATOM     80  S   UNL A   1      40.936  20.707  26.534  1.00  0.00     0.127 S 
ATOM     81  O   UNL A   1      41.753  19.857  25.673  1.00  0.00    -0.237 OA
ATOM     82  O   UNL A   1      41.044  20.421  27.965  1.00  0.00    -0.237 OA
ATOM     83  O   UNL A   1      39.576  20.954  26.074  1.00  0.00    -0.744 OA
ENDBRANCH  77  80
ENDBRANCH  49  73
BRANCH  61  84
ATOM     84  C   UNL A   1      46.859  26.018  32.531  1.00  0.00     0.023 A 
ATOM     85  C   UNL A   1      48.096  26.519  32.080  1.00  0.00     0.012 A 
ATOM     86  C   UNL A   1      46.837  24.995  33.500  1.00  0.00     0.148 A 
ATOM     87  C   UNL A   1      49.292  25.987  32.560  1.00  0.00     0.002 A 
ATOM     88  C   UNL A   1      48.032  24.508  34.014  1.00  0.00     0.091 A 
ATOM     89  F   UNL A   1      45.649  24.523  33.904  1.00  0.00    -0.205 F 
ATOM     90  C   UNL A   1      49.259  24.992  33.535  1.00  0.00     0.022 A 
BRANCH  88  91
ATOM     91  S   UNL A   1      48.088  23.303  35.344  1.00  0.00     0.127 S 
ATOM     92  O   UNL A   1      47.460  22.140  34.718  1.00  0.00    -0.237 OA
ATOM     93  O   UNL A   1      49.526  23.167  35.578  1.00  0.00    -0.237 OA
ATOM     94  O   UNL A   1      47.347  23.890  36.452  1.00  0.00    -0.744 OA
ENDBRANCH  88  91
ENDBRANCH  61  84
ENDBRANCH  35  36
ENDBRANCH  27  30
ENDBRANCH  25  26
ENDBRANCH  24  25
ENDBRANCH   1  24
TORSDOF 17
ENDMDL
MODEL 2
REMARK VINA RESULT:     -10.9      4.048      9.244
REMARK SMILES C[NH2+]C[C@@H](C)C(=O)Nc1ccc(Cl)cc1C(=O)NCCCNC(=O)c1ccc(-c2c3nc(c(-c4cccc(S(=O)(=O)[O-])c4F)c4ccc([nH]4)c(-c4cccc(S(=O)(=O)[O-])c4F)c4nc(c(-c5cccc(S(=O)(=O)[O-])c5F)c5ccc2[nH]5)C=C4)C=C3)cc1
REMARK SMILES IDX 19 1 18 2 16 3 17 4 15 6 9 7 10 8 11 9 14 10 12 11 13 12
REMARK SMILES IDX 8 13 6 14 7 15 4 17 5 18 3 19 2 20 1 21 20 24 21 25 22 26
REMARK SMILES IDX 23 27 24 29 25 30 26 31 87 32 27 33 86 34 28 35 29 36 30 37
REMARK SMILES IDX 80 38 31 39 85 40 79 41 81 42 32 43 84 44 78 45 77 46 33 48
REMARK SMILES IDX 65 49 45 50 64 51 46 52 49 53 63 54 82 55 47 56 48 57 62 59
REMARK SMILES IDX 83 60 50 61 34 62 35 63 43 64 36 65 38 66 44 67 37 68 39 69
REMARK SMILES IDX 40 70 41 71 42 72 66 73 67 74 75 75 68 76 70 77 76 78 69 79
REMARK SMILES IDX 71 80 72 81 73 82 74 83 51 84 52 85 60 86 53 87 55 88 61 89
REMARK SMILES IDX 54 90 56 91 57 92 58 93 59 94
REMARK H PARENT 18 5 8 16 2 22 2 23 22 28 81 47 49 58
REMARK Flexibility Score: inf
ROOT
ATOM      1  C   UNL A   1      31.678  30.496  26.356  1.00  0.00     0.118 C 
ENDROOT
BRANCH   1   2
ATOM      2  N   UNL A   1      32.444  30.040  25.230  1.00  0.00    -0.352 N 
ATOM      3  C   UNL A   1      32.101  29.379  24.082  1.00  0.00     0.253 C 
ATOM      4  O   UNL A   1      33.060  29.154  23.331  1.00  0.00    -0.269 OA
ATOM      5  H   UNL A   1      33.404  30.244  25.297  1.00  0.00     0.163 HD
BRANCH   3   6
ATOM      6  C   UNL A   1      30.735  28.914  23.625  1.00  0.00     0.064 A 
ATOM      7  C   UNL A   1      30.227  27.642  23.277  1.00  0.00     0.054 A 
ATOM      8  C   UNL A   1      28.840  27.457  23.112  1.00  0.00     0.028 A 
ATOM      9  C   UNL A   1      27.955  28.525  23.099  1.00  0.00     0.023 A 
ATOM     10  C   UNL A   1      29.804  29.988  23.572  1.00  0.00     0.036 A 
ATOM     11  C   UNL A   1      28.450  29.800  23.291  1.00  0.00     0.041 A 
ATOM     12  Cl  UNL A   1      27.386  31.147  23.210  1.00  0.00    -0.084 Cl
BRANCH   7  13
ATOM     13  N   UNL A   1      30.961  26.465  23.128  1.00  0.00    -0.325 N 
ATOM     14  C   UNL A   1      31.608  25.732  24.102  1.00  0.00     0.232 C 
ATOM     15  O   UNL A   1      32.180  24.704  23.718  1.00  0.00    -0.274 OA
ATOM     16  H   UNL A   1      31.026  26.112  22.211  1.00  0.00     0.169 HD
BRANCH  14  17
ATOM     17  C   UNL A   1      31.586  26.071  25.609  1.00  0.00     0.130 C 
ATOM     18  C   UNL A   1      32.908  26.594  26.173  1.00  0.00     0.024 C 
BRANCH  17  19
ATOM     19  C   UNL A   1      30.964  24.924  26.415  1.00  0.00     0.273 C 
BRANCH  19  20
ATOM     20  N   UNL A   1      30.328  23.831  25.677  1.00  0.00    -0.348 N 
ATOM     21  C   UNL A   1      30.116  22.642  26.490  1.00  0.00     0.330 C 
ATOM     22  H   UNL A   1      29.424  24.155  25.333  1.00  0.00     0.346 HD
ATOM     23  H   UNL A   1      30.956  23.572  24.916  1.00  0.00     0.346 HD
ENDBRANCH  19  20
ENDBRANCH  17  19
ENDBRANCH  14  17
ENDBRANCH   7  13
ENDBRANCH   3   6
ENDBRANCH   1   2
BRANCH   1  24
ATOM     24  C   UNL A   1      31.639  31.989  26.580  1.00  0.00     0.042 C 
BRANCH  24  25
ATOM     25  C   UNL A   1      32.718  32.526  27.492  1.00  0.00     0.118 C 
BRANCH  25  26
ATOM     26  N   UNL A   1      32.600  33.959  27.745  1.00  0.00    -0.352 N 
ATOM     27  C   UNL A   1      33.252  34.784  28.631  1.00  0.00     0.251 C 
ATOM     28  H   UNL A   1      31.934  34.416  27.181  1.00  0.00     0.163 HD
ATOM     29  O   UNL A   1      32.851  35.941  28.774  1.00  0.00    -0.269 OA
BRANCH  27  30
ATOM     30  C   UNL A   1      34.403  34.301  29.428  1.00  0.00     0.039 A 
ATOM     31  C   UNL A   1      34.176  33.618  30.628  1.00  0.00     0.014 A 
ATOM     32  C   UNL A   1      35.712  34.531  29.011  1.00  0.00     0.014 A 
ATOM     33  C   UNL A   1      35.257  33.100  31.350  1.00  0.00     0.010 A 
ATOM     34  C   UNL A   1      36.767  33.889  29.644  1.00  0.00     0.010 A 
ATOM     35  C   UNL A   1      36.561  33.188  30.838  1.00  0.00    -0.014 A 
BRANCH  35  36
ATOM     36  C   UNL A   1      37.732  32.588  31.531  1.00  0.00     0.031 A 
ATOM     37  C   UNL A   1      38.482  31.445  30.892  1.00  0.00     0.074 A 
ATOM     38  C   UNL A   1      38.052  32.990  32.778  1.00  0.00     0.049 A 
ATOM     39  N   UNL A   1      39.454  30.718  31.381  1.00  0.00    -0.248 NA
ATOM     40  C   UNL A   1      38.057  31.034  29.541  1.00  0.00     0.031 C 
ATOM     41  C   UNL A   1      37.346  34.019  33.546  1.00  0.00     0.029 A 
ATOM     42  N   UNL A   1      39.034  32.557  33.635  1.00  0.00    -0.354 N 
ATOM     43  C   UNL A   1      39.713  29.740  30.427  1.00  0.00     0.074 A 
ATOM     44  C   UNL A   1      38.770  29.934  29.352  1.00  0.00     0.031 C 
ATOM     45  C   UNL A   1      37.925  34.145  34.752  1.00  0.00     0.029 A 
ATOM     46  C   UNL A   1      39.013  33.180  34.861  1.00  0.00     0.049 A 
ATOM     47  H   UNL A   1      39.692  31.865  33.394  1.00  0.00     0.167 HD
ATOM     48  C   UNL A   1      40.672  28.784  30.429  1.00  0.00     0.034 A 
ATOM     49  C   UNL A   1      39.775  32.987  35.956  1.00  0.00     0.034 A 
ATOM     50  C   UNL A   1      41.650  28.636  31.470  1.00  0.00     0.049 A 
ATOM     51  C   UNL A   1      40.874  31.962  35.907  1.00  0.00     0.074 A 
ATOM     52  C   UNL A   1      42.732  27.776  31.516  1.00  0.00     0.029 A 
ATOM     53  N   UNL A   1      41.660  29.358  32.652  1.00  0.00    -0.354 N 
ATOM     54  N   UNL A   1      41.208  31.157  34.928  1.00  0.00    -0.248 NA
ATOM     55  C   UNL A   1      41.725  31.842  37.099  1.00  0.00     0.031 C 
ATOM     56  C   UNL A   1      43.378  27.955  32.743  1.00  0.00     0.029 A 
ATOM     57  C   UNL A   1      42.722  28.954  33.443  1.00  0.00     0.049 A 
ATOM     58  H   UNL A   1      41.009  30.055  32.894  1.00  0.00     0.167 HD
ATOM     59  C   UNL A   1      42.328  30.462  35.369  1.00  0.00     0.074 A 
ATOM     60  C   UNL A   1      42.628  30.958  36.697  1.00  0.00     0.031 C 
ATOM     61  C   UNL A   1      43.037  29.494  34.740  1.00  0.00     0.034 A 
BRANCH  48  62
ATOM     62  C   UNL A   1      40.745  27.857  29.243  1.00  0.00     0.023 A 
ATOM     63  C   UNL A   1      39.899  26.731  29.178  1.00  0.00     0.012 A 
ATOM     64  C   UNL A   1      41.608  28.134  28.163  1.00  0.00     0.148 A 
ATOM     65  C   UNL A   1      39.937  25.875  28.078  1.00  0.00     0.002 A 
ATOM     66  C   UNL A   1      41.604  27.305  27.048  1.00  0.00     0.091 A 
ATOM     67  F   UNL A   1      42.420  29.197  28.251  1.00  0.00    -0.205 F 
ATOM     68  C   UNL A   1      40.780  26.168  27.009  1.00  0.00     0.022 A 
BRANCH  66  69
ATOM     69  S   UNL A   1      42.588  27.642  25.584  1.00  0.00     0.127 S 
ATOM     70  O   UNL A   1      43.929  27.769  26.153  1.00  0.00    -0.237 OA
ATOM     71  O   UNL A   1      42.376  26.434  24.788  1.00  0.00    -0.237 OA
ATOM     72  O   UNL A   1      42.041  28.860  25.002  1.00  0.00    -0.744 OA
ENDBRANCH  66  69
ENDBRANCH  48  62
BRANCH  49  73
ATOM     73  C   UNL A   1      39.559  33.823  37.172  1.00  0.00     0.023 A 
ATOM     74  C   UNL A   1      39.992  35.164  37.180  1.00  0.00     0.012 A 
ATOM     75  C   UNL A   1      38.909  33.306  38.310  1.00  0.00     0.148 A 
ATOM     76  C   UNL A   1      39.817  35.962  38.311  1.00  0.00     0.002 A 
ATOM     77  C   UNL A   1      38.685  34.124  39.412  1.00  0.00     0.091 A 
ATOM     78  F   UNL A   1      38.512  32.027  38.287  1.00  0.00    -0.205 F 
ATOM     79  C   UNL A   1      39.156  35.447  39.422  1.00  0.00     0.022 A 
BRANCH  77  80
ATOM     80  S   UNL A   1      37.728  33.585  40.832  1.00  0.00     0.127 S 
ATOM     81  O   UNL A   1      37.586  34.827  41.587  1.00  0.00    -0.237 OA
ATOM     82  O   UNL A   1      36.498  33.103  40.202  1.00  0.00    -0.237 OA
ATOM     83  O   UNL A   1      38.521  32.543  41.471  1.00  0.00    -0.744 OA
ENDBRANCH  77  80
ENDBRANCH  49  73
BRANCH  61  84
ATOM     84  C   UNL A   1      44.239  28.930  35.452  1.00  0.00     0.023 A 
ATOM     85  C   UNL A   1      45.503  29.527  35.283  1.00  0.00     0.012 A 
ATOM     86  C   UNL A   1      44.095  27.856  36.353  1.00  0.00     0.148 A 
ATOM     87  C   UNL A   1      46.613  29.042  35.972  1.00  0.00     0.002 A 
ATOM     88  C   UNL A   1      45.193  27.413  37.077  1.00  0.00     0.091 A 
ATOM     89  F   UNL A   1      42.885  27.292  36.488  1.00  0.00    -0.205 F 
ATOM     90  C   UNL A   1      46.455  27.994  36.878  1.00  0.00     0.022 A 
BRANCH  88  91
ATOM     91  S   UNL A   1      45.066  26.141  38.340  1.00  0.00     0.127 S 
ATOM     92  O   UNL A   1      44.078  26.724  39.248  1.00  0.00    -0.237 OA
ATOM     93  O   UNL A   1      44.585  24.992  37.573  1.00  0.00    -0.237 OA
ATOM     94  O   UNL A   1      46.404  25.985  38.892  1.00  0.00    -0.744 OA
ENDBRANCH  88  91
ENDBRANCH  61  84
ENDBRANCH  35  36
ENDBRANCH  27  30
ENDBRANCH  25  26
ENDBRANCH  24  25
ENDBRANCH   1  24
TORSDOF 17
ENDMDL
MODEL 3
REMARK VINA RESULT:     -10.9      2.355      3.190
REMARK SMILES C[NH2+]C[C@@H](C)C(=O)Nc1ccc(Cl)cc1C(=O)NCCCNC(=O)c1ccc(-c2c3nc(c(-c4cccc(S(=O)(=O)[O-])c4F)c4ccc([nH]4)c(-c4cccc(S(=O)(=O)[O-])c4F)c4nc(c(-c5cccc(S(=O)(=O)[O-])c5F)c5ccc2[nH]5)C=C4)C=C3)cc1
REMARK SMILES IDX 19 1 18 2 16 3 17 4 15 6 9 7 10 8 11 9 14 10 12 11 13 12
REMARK SMILES IDX 8 13 6 14 7 15 4 17 5 18 3 19 2 20 1 21 20 24 21 25 22 26
REMARK SMILES IDX 23 27 24 29 25 30 26 31 87 32 27 33 86 34 28 35 29 36 30 37
REMARK SMILES IDX 80 38 31 39 85 40 79 41 81 42 32 43 84 44 78 45 77 46 33 48
REMARK SMILES IDX 65 49 45 50 64 51 46 52 49 53 63 54 82 55 47 56 48 57 62 59
REMARK SMILES IDX 83 60 50 61 34 62 35 63 43 64 36 65 38 66 44 67 37 68 39 69
REMARK SMILES IDX 40 70 41 71 42 72 66 73 67 74 75 75 68 76 70 77 76 78 69 79
REMARK SMILES IDX 71 80 72 81 73 82 74 83 51 84 52 85 60 86 53 87 55 88 61 89
REMARK SMILES IDX 54 90 56 91 57 92 58 93 59 94
REMARK H PARENT 18 5 8 16 2 22 2 23 22 28 81 47 49 58
REMARK Flexibility Score: inf
ROOT
ATOM      1  C   UNL A   1      33.726  28.700  24.642  1.00  0.00     0.118 C 
ENDROOT
BRANCH   1   2
ATOM      2  N   UNL A   1      34.010  27.843  23.525  1.00  0.00    -0.352 N 
ATOM      3  C   UNL A   1      33.256  26.924  22.846  1.00  0.00     0.253 C 
ATOM      4  O   UNL A   1      33.862  26.371  21.918  1.00  0.00    -0.269 OA
ATOM      5  H   UNL A   1      34.928  27.933  23.181  1.00  0.00     0.163 HD
BRANCH   3   6
ATOM      6  C   UNL A   1      31.814  26.524  23.073  1.00  0.00     0.064 A 
ATOM      7  C   UNL A   1      31.200  25.278  23.336  1.00  0.00     0.054 A 
ATOM      8  C   UNL A   1      29.853  25.228  23.742  1.00  0.00     0.028 A 
ATOM      9  C   UNL A   1      29.039  26.351  23.723  1.00  0.00     0.023 A 
ATOM     10  C   UNL A   1      30.943  27.647  23.032  1.00  0.00     0.036 A 
ATOM     11  C   UNL A   1      29.582  27.557  23.327  1.00  0.00     0.041 A 
ATOM     12  Cl  UNL A   1      28.579  28.950  23.226  1.00  0.00    -0.084 Cl
BRANCH   7  13
ATOM     13  N   UNL A   1      31.812  24.025  23.300  1.00  0.00    -0.325 N 
ATOM     14  C   UNL A   1      32.654  23.458  24.234  1.00  0.00     0.232 C 
ATOM     15  O   UNL A   1      33.055  22.314  23.981  1.00  0.00    -0.274 OA
ATOM     16  H   UNL A   1      31.619  23.475  22.506  1.00  0.00     0.169 HD
BRANCH  14  17
ATOM     17  C   UNL A   1      33.042  24.118  25.576  1.00  0.00     0.130 C 
ATOM     18  C   UNL A   1      34.502  24.562  25.678  1.00  0.00     0.024 C 
BRANCH  17  19
ATOM     19  C   UNL A   1      32.552  23.275  26.759  1.00  0.00     0.273 C 
BRANCH  19  20
ATOM     20  N   UNL A   1      31.422  22.370  26.538  1.00  0.00    -0.348 N 
ATOM     21  C   UNL A   1      30.140  22.965  26.887  1.00  0.00     0.330 C 
ATOM     22  H   UNL A   1      31.403  22.111  25.551  1.00  0.00     0.346 HD
ATOM     23  H   UNL A   1      31.558  21.560  27.143  1.00  0.00     0.346 HD
ENDBRANCH  19  20
ENDBRANCH  17  19
ENDBRANCH  14  17
ENDBRANCH   7  13
ENDBRANCH   3   6
ENDBRANCH   1   2
BRANCH   1  24
ATOM     24  C   UNL A   1      33.973  28.117  26.013  1.00  0.00     0.042 C 
BRANCH  24  25
ATOM     25  C   UNL A   1      33.222  28.791  27.138  1.00  0.00     0.118 C 
BRANCH  25  26
ATOM     26  N   UNL A   1      33.467  30.228  27.215  1.00  0.00    -0.352 N 
ATOM     27  C   UNL A   1      34.527  30.946  27.716  1.00  0.00     0.251 C 
ATOM     28  H   UNL A   1      32.743  30.783  26.842  1.00  0.00     0.163 HD
ATOM     29  O   UNL A   1      34.424  32.170  27.821  1.00  0.00    -0.269 OA
BRANCH  27  30
ATOM     30  C   UNL A   1      35.774  30.275  28.152  1.00  0.00     0.039 A 
ATOM     31  C   UNL A   1      36.878  30.239  27.293  1.00  0.00     0.014 A 
ATOM     32  C   UNL A   1      35.860  29.663  29.400  1.00  0.00     0.014 A 
ATOM     33  C   UNL A   1      38.080  29.667  27.726  1.00  0.00     0.010 A 
ATOM     34  C   UNL A   1      37.090  29.237  29.883  1.00  0.00     0.010 A 
ATOM     35  C   UNL A   1      38.211  29.205  29.046  1.00  0.00    -0.014 A 
BRANCH  35  36
ATOM     36  C   UNL A   1      39.489  28.658  29.574  1.00  0.00     0.031 A 
ATOM     37  C   UNL A   1      40.199  29.362  30.706  1.00  0.00     0.074 A 
ATOM     38  C   UNL A   1      40.069  27.601  28.969  1.00  0.00     0.049 A 
ATOM     39  N   UNL A   1      41.370  29.108  31.230  1.00  0.00    -0.248 NA
ATOM     40  C   UNL A   1      39.524  30.532  31.298  1.00  0.00     0.031 C 
ATOM     41  C   UNL A   1      39.533  26.890  27.806  1.00  0.00     0.029 A 
ATOM     42  N   UNL A   1      41.255  26.960  29.228  1.00  0.00    -0.354 N 
ATOM     43  C   UNL A   1      41.591  30.113  32.167  1.00  0.00     0.074 A 
ATOM     44  C   UNL A   1      40.458  31.005  32.109  1.00  0.00     0.031 C 
ATOM     45  C   UNL A   1      40.381  25.907  27.460  1.00  0.00     0.029 A 
ATOM     46  C   UNL A   1      41.537  25.942  28.348  1.00  0.00     0.049 A 
ATOM     47  H   UNL A   1      41.848  27.206  29.975  1.00  0.00     0.167 HD
ATOM     48  C   UNL A   1      42.628  30.263  33.024  1.00  0.00     0.034 A 
ATOM     49  C   UNL A   1      42.613  25.136  28.256  1.00  0.00     0.034 A 
ATOM     50  C   UNL A   1      43.722  29.337  33.124  1.00  0.00     0.049 A 
ATOM     51  C   UNL A   1      43.723  25.284  29.260  1.00  0.00     0.074 A 
ATOM     52  C   UNL A   1      44.765  29.333  34.033  1.00  0.00     0.029 A 
ATOM     53  N   UNL A   1      43.919  28.255  32.281  1.00  0.00    -0.354 N 
ATOM     54  N   UNL A   1      43.834  26.141  30.246  1.00  0.00    -0.248 NA
ATOM     55  C   UNL A   1      44.839  24.332  29.165  1.00  0.00     0.031 C 
ATOM     56  C   UNL A   1      45.612  28.267  33.718  1.00  0.00     0.029 A 
ATOM     57  C   UNL A   1      45.076  27.583  32.639  1.00  0.00     0.049 A 
ATOM     58  H   UNL A   1      43.326  28.001  31.539  1.00  0.00     0.167 HD
ATOM     59  C   UNL A   1      45.009  25.810  30.910  1.00  0.00     0.074 A 
ATOM     60  C   UNL A   1      45.564  24.660  30.226  1.00  0.00     0.031 C 
ATOM     61  C   UNL A   1      45.586  26.410  31.979  1.00  0.00     0.034 A 
BRANCH  48  62
ATOM     62  C   UNL A   1      42.605  31.444  33.960  1.00  0.00     0.023 A 
ATOM     63  C   UNL A   1      43.294  32.626  33.617  1.00  0.00     0.012 A 
ATOM     64  C   UNL A   1      41.850  31.406  35.149  1.00  0.00     0.148 A 
ATOM     65  C   UNL A   1      43.264  33.736  34.460  1.00  0.00     0.002 A 
ATOM     66  C   UNL A   1      41.785  32.533  35.959  1.00  0.00     0.091 A 
ATOM     67  F   UNL A   1      41.219  30.268  35.469  1.00  0.00    -0.205 F 
ATOM     68  C   UNL A   1      42.501  33.694  35.624  1.00  0.00     0.022 A 
BRANCH  66  69
ATOM     69  S   UNL A   1      40.762  32.611  37.434  1.00  0.00     0.127 S 
ATOM     70  O   UNL A   1      41.640  32.007  38.433  1.00  0.00    -0.237 OA
ATOM     71  O   UNL A   1      40.560  34.051  37.590  1.00  0.00    -0.237 OA
ATOM     72  O   UNL A   1      39.555  31.856  37.127  1.00  0.00    -0.744 OA
ENDBRANCH  66  69
ENDBRANCH  48  62
BRANCH  49  73
ATOM     73  C   UNL A   1      42.667  24.079  27.204  1.00  0.00     0.023 A 
ATOM     74  C   UNL A   1      43.364  24.326  26.005  1.00  0.00     0.012 A 
ATOM     75  C   UNL A   1      42.052  22.826  27.394  1.00  0.00     0.148 A 
ATOM     76  C   UNL A   1      43.414  23.361  24.999  1.00  0.00     0.002 A 
ATOM     77  C   UNL A   1      42.156  21.847  26.412  1.00  0.00     0.091 A 
ATOM     78  F   UNL A   1      41.387  22.612  28.537  1.00  0.00    -0.205 F 
ATOM     79  C   UNL A   1      42.820  22.119  25.206  1.00  0.00     0.022 A 
BRANCH  77  80
ATOM     80  S   UNL A   1      41.536  20.178  26.647  1.00  0.00     0.127 S 
ATOM     81  O   UNL A   1      42.239  19.765  27.859  1.00  0.00    -0.237 OA
ATOM     82  O   UNL A   1      40.101  20.409  26.815  1.00  0.00    -0.237 OA
ATOM     83  O   UNL A   1      41.887  19.451  25.434  1.00  0.00    -0.744 OA
ENDBRANCH  77  80
ENDBRANCH  49  73
BRANCH  61  84
ATOM     84  C   UNL A   1      46.861  25.813  32.516  1.00  0.00     0.023 A 
ATOM     85  C   UNL A   1      46.820  24.933  33.614  1.00  0.00     0.012 A 
ATOM     86  C   UNL A   1      48.090  26.064  31.874  1.00  0.00     0.148 A 
ATOM     87  C   UNL A   1      47.988  24.339  34.089  1.00  0.00     0.002 A 
ATOM     88  C   UNL A   1      49.241  25.426  32.318  1.00  0.00     0.091 A 
ATOM     89  F   UNL A   1      48.109  26.916  30.838  1.00  0.00    -0.205 F 
ATOM     90  C   UNL A   1      49.195  24.576  33.434  1.00  0.00     0.022 A 
BRANCH  88  91
ATOM     91  S   UNL A   1      50.819  25.588  31.474  1.00  0.00     0.127 S 
ATOM     92  O   UNL A   1      51.669  24.696  32.261  1.00  0.00    -0.237 OA
ATOM     93  O   UNL A   1      50.502  25.102  30.131  1.00  0.00    -0.237 OA
ATOM     94  O   UNL A   1      51.168  27.000  31.541  1.00  0.00    -0.744 OA
ENDBRANCH  88  91
ENDBRANCH  61  84
ENDBRANCH  35  36
ENDBRANCH  27  30
ENDBRANCH  25  26
ENDBRANCH  24  25
ENDBRANCH   1  24
TORSDOF 17
ENDMDL
