MODEL 1
REMARK VINA RESULT:     -13.0      0.000      0.000
REMARK SMILES C[C@H](Oc1cc2oc(=O)cc(-c3ccccc3)c2cc1Cl)C(=O)NCCCNC(=O)c1ccc(-c2c3nc(c(-c4cccc(S(=O)(=O)[O-])c4F)c4ccc([nH]4)c(-c4cccc(S(=O)(=O)[O-])c4F)c4nc(c(-c5cccc(S(=O)(=O)[O-])c5F)c5ccc2[nH]5)C=C4)C=C3)cc1
REMARK SMILES IDX 26 1 25 2 24 3 22 4 23 5 2 7 1 8 3 9 4 10 5 11 20 12 6 13
REMARK SMILES IDX 19 14 21 15 7 16 18 17 8 18 11 19 9 20 10 21 12 22 13 23
REMARK SMILES IDX 17 24 14 25 16 26 15 27 27 28 28 29 29 30 30 32 31 33 32 34
REMARK SMILES IDX 93 35 33 36 92 37 34 38 35 39 36 40 86 41 37 42 91 43 85 44
REMARK SMILES IDX 87 45 38 46 90 47 84 48 83 49 39 51 71 52 51 53 70 54 52 55
REMARK SMILES IDX 55 56 69 57 88 58 53 59 54 60 68 62 89 63 56 64 40 65 41 66
REMARK SMILES IDX 49 67 42 68 44 69 50 70 43 71 45 72 46 73 47 74 48 75 72 76
REMARK SMILES IDX 73 77 81 78 74 79 76 80 82 81 75 82 77 83 78 84 79 85 80 86
REMARK SMILES IDX 57 87 58 88 66 89 59 90 61 91 67 92 60 93 62 94 63 95 64 96
REMARK SMILES IDX 65 97
REMARK H PARENT 24 6 28 31 87 50 55 61
REMARK Flexibility Score: inf
ROOT
ATOM      1  C   UNL A   1      31.691  29.231  26.403  1.00  0.00     0.042 C 
ENDROOT
BRANCH   1   2
ATOM      2  C   UNL A   1      31.649  27.897  25.675  1.00  0.00     0.118 C 
BRANCH   2   3
ATOM      3  N   UNL A   1      31.026  27.991  24.364  1.00  0.00    -0.353 N 
ATOM      4  C   UNL A   1      31.575  27.766  23.128  1.00  0.00     0.260 C 
ATOM      5  O   UNL A   1      30.849  27.872  22.136  1.00  0.00    -0.271 OA
ATOM      6  H   UNL A   1      30.077  28.250  24.364  1.00  0.00     0.163 HD
BRANCH   4   7
ATOM      7  C   UNL A   1      33.037  27.304  23.007  1.00  0.00     0.258 C 
ATOM      8  C   UNL A   1      33.809  28.418  22.292  1.00  0.00     0.064 C 
BRANCH   7   9
ATOM      9  O   UNL A   1      32.952  26.009  22.414  1.00  0.00    -0.479 OA
BRANCH   9  10
ATOM     10  C   UNL A   1      32.850  24.830  23.082  1.00  0.00     0.142 A 
ATOM     11  C   UNL A   1      32.659  24.691  24.449  1.00  0.00     0.096 A 
ATOM     12  C   UNL A   1      33.024  23.664  22.313  1.00  0.00     0.084 A 
ATOM     13  C   UNL A   1      32.790  23.430  25.039  1.00  0.00     0.142 A 
ATOM     14  C   UNL A   1      33.094  22.398  22.912  1.00  0.00     0.037 A 
ATOM     15  Cl  UNL A   1      33.175  23.743  20.592  1.00  0.00    -0.080 Cl
ATOM     16  O   UNL A   1      32.720  23.404  26.444  1.00  0.00    -0.423 OA
ATOM     17  C   UNL A   1      33.023  22.272  24.301  1.00  0.00     0.027 A 
ATOM     18  C   UNL A   1      32.980  22.238  27.141  1.00  0.00     0.336 A 
ATOM     19  C   UNL A   1      33.192  20.991  25.007  1.00  0.00    -0.000 A 
ATOM     20  O   UNL A   1      33.011  22.207  28.367  1.00  0.00    -0.246 OA
ATOM     21  C   UNL A   1      33.192  21.020  26.351  1.00  0.00     0.103 A 
BRANCH  19  22
ATOM     22  C   UNL A   1      33.389  19.663  24.385  1.00  0.00    -0.017 A 
ATOM     23  C   UNL A   1      34.520  18.897  24.705  1.00  0.00     0.009 A 
ATOM     24  C   UNL A   1      32.449  19.144  23.484  1.00  0.00     0.009 A 
ATOM     25  C   UNL A   1      34.706  17.635  24.137  1.00  0.00     0.001 A 
ATOM     26  C   UNL A   1      32.630  17.876  22.927  1.00  0.00     0.001 A 
ATOM     27  C   UNL A   1      33.759  17.124  23.252  1.00  0.00     0.000 A 
ENDBRANCH  19  22
ENDBRANCH   9  10
ENDBRANCH   7   9
ENDBRANCH   4   7
ENDBRANCH   2   3
ENDBRANCH   1   2
BRANCH   1  28
ATOM     28  C   UNL A   1      32.974  30.015  26.180  1.00  0.00     0.118 C 
BRANCH  28  29
ATOM     29  N   UNL A   1      32.867  31.407  26.604  1.00  0.00    -0.352 N 
ATOM     30  C   UNL A   1      33.642  32.115  27.491  1.00  0.00     0.251 C 
ATOM     31  H   UNL A   1      32.131  31.916  26.192  1.00  0.00     0.163 HD
ATOM     32  O   UNL A   1      33.291  33.239  27.844  1.00  0.00    -0.269 OA
BRANCH  30  33
ATOM     33  C   UNL A   1      34.880  31.518  28.033  1.00  0.00     0.039 A 
ATOM     34  C   UNL A   1      36.040  32.294  28.100  1.00  0.00     0.014 A 
ATOM     35  C   UNL A   1      34.894  30.196  28.483  1.00  0.00     0.014 A 
ATOM     36  C   UNL A   1      37.194  31.765  28.684  1.00  0.00     0.010 A 
ATOM     37  C   UNL A   1      36.013  29.704  29.144  1.00  0.00     0.010 A 
ATOM     38  C   UNL A   1      37.178  30.479  29.244  1.00  0.00    -0.014 A 
BRANCH  38  39
ATOM     39  C   UNL A   1      38.362  29.905  29.934  1.00  0.00     0.031 A 
ATOM     40  C   UNL A   1      38.741  30.399  31.304  1.00  0.00     0.074 A 
ATOM     41  C   UNL A   1      39.158  29.032  29.284  1.00  0.00     0.049 A 
ATOM     42  N   UNL A   1      39.803  30.127  32.015  1.00  0.00    -0.248 NA
ATOM     43  C   UNL A   1      37.821  31.356  31.944  1.00  0.00     0.031 C 
ATOM     44  C   UNL A   1      38.939  28.535  27.924  1.00  0.00     0.029 A 
ATOM     45  N   UNL A   1      40.335  28.437  29.669  1.00  0.00    -0.354 N 
ATOM     46  C   UNL A   1      39.705  30.912  33.158  1.00  0.00     0.074 A 
ATOM     47  C   UNL A   1      38.496  31.695  33.031  1.00  0.00     0.031 C 
ATOM     48  C   UNL A   1      39.947  27.713  27.588  1.00  0.00     0.029 A 
ATOM     49  C   UNL A   1      40.902  27.654  28.690  1.00  0.00     0.049 A 
ATOM     50  H   UNL A   1      40.735  28.560  30.559  1.00  0.00     0.167 HD
ATOM     51  C   UNL A   1      40.530  30.956  34.231  1.00  0.00     0.034 A 
ATOM     52  C   UNL A   1      42.066  26.973  28.678  1.00  0.00     0.034 A 
ATOM     53  C   UNL A   1      41.698  30.134  34.379  1.00  0.00     0.049 A 
ATOM     54  C   UNL A   1      42.938  26.999  29.906  1.00  0.00     0.074 A 
ATOM     55  C   UNL A   1      42.548  30.033  35.465  1.00  0.00     0.029 A 
ATOM     56  N   UNL A   1      42.182  29.267  33.410  1.00  0.00    -0.354 N 
ATOM     57  N   UNL A   1      42.749  27.631  31.039  1.00  0.00    -0.248 NA
ATOM     58  C   UNL A   1      44.164  26.190  29.868  1.00  0.00     0.031 C 
ATOM     59  C   UNL A   1      43.557  29.118  35.147  1.00  0.00     0.029 A 
ATOM     60  C   UNL A   1      43.321  28.630  33.871  1.00  0.00     0.049 A 
ATOM     61  H   UNL A   1      41.776  29.127  32.524  1.00  0.00     0.167 HD
ATOM     62  C   UNL A   1      43.809  27.264  31.862  1.00  0.00     0.074 A 
ATOM     63  C   UNL A   1      44.626  26.342  31.102  1.00  0.00     0.031 C 
ATOM     64  C   UNL A   1      44.087  27.666  33.126  1.00  0.00     0.034 A 
BRANCH  51  65
ATOM     65  C   UNL A   1      40.163  31.888  35.357  1.00  0.00     0.023 A 
ATOM     66  C   UNL A   1      40.801  33.141  35.459  1.00  0.00     0.012 A 
ATOM     67  C   UNL A   1      39.155  31.550  36.281  1.00  0.00     0.148 A 
ATOM     68  C   UNL A   1      40.471  34.028  36.483  1.00  0.00     0.002 A 
ATOM     69  C   UNL A   1      38.797  32.458  37.271  1.00  0.00     0.091 A 
ATOM     70  F   UNL A   1      38.573  30.346  36.183  1.00  0.00    -0.205 F 
ATOM     71  C   UNL A   1      39.462  33.691  37.381  1.00  0.00     0.022 A 
BRANCH  69  72
ATOM     72  S   UNL A   1      37.457  32.154  38.427  1.00  0.00     0.127 S 
ATOM     73  O   UNL A   1      38.044  32.606  39.687  1.00  0.00    -0.237 OA
ATOM     74  O   UNL A   1      36.397  33.018  37.904  1.00  0.00    -0.237 OA
ATOM     75  O   UNL A   1      37.171  30.729  38.344  1.00  0.00    -0.744 OA
ENDBRANCH  69  72
ENDBRANCH  51  65
BRANCH  52  76
ATOM     76  C   UNL A   1      42.438  26.152  27.491  1.00  0.00     0.023 A 
ATOM     77  C   UNL A   1      43.206  26.737  26.465  1.00  0.00     0.012 A 
ATOM     78  C   UNL A   1      42.067  24.798  27.382  1.00  0.00     0.148 A 
ATOM     79  C   UNL A   1      43.567  26.000  25.337  1.00  0.00     0.002 A 
ATOM     80  C   UNL A   1      42.478  24.053  26.282  1.00  0.00     0.091 A 
ATOM     81  F   UNL A   1      41.328  24.261  28.364  1.00  0.00    -0.205 F 
ATOM     82  C   UNL A   1      43.212  24.657  25.249  1.00  0.00     0.022 A 
BRANCH  80  83
ATOM     83  S   UNL A   1      42.185  22.286  26.147  1.00  0.00     0.127 S 
ATOM     84  O   UNL A   1      42.904  21.954  24.919  1.00  0.00    -0.237 OA
ATOM     85  O   UNL A   1      42.802  21.781  27.376  1.00  0.00    -0.237 OA
ATOM     86  O   UNL A   1      40.738  22.129  26.097  1.00  0.00    -0.744 OA
ENDBRANCH  80  83
ENDBRANCH  52  76
BRANCH  64  87
ATOM     87  C   UNL A   1      45.301  27.079  33.797  1.00  0.00     0.023 A 
ATOM     88  C   UNL A   1      46.536  27.753  33.729  1.00  0.00     0.012 A 
ATOM     89  C   UNL A   1      45.194  25.905  34.569  1.00  0.00     0.148 A 
ATOM     90  C   UNL A   1      47.653  27.251  34.395  1.00  0.00     0.002 A 
ATOM     91  C   UNL A   1      46.300  25.438  35.268  1.00  0.00     0.091 A 
ATOM     92  F   UNL A   1      44.014  25.268  34.605  1.00  0.00    -0.205 F 
ATOM     93  C   UNL A   1      47.533  26.102  35.174  1.00  0.00     0.022 A 
BRANCH  91  94
ATOM     94  S   UNL A   1      46.211  24.023  36.373  1.00  0.00     0.127 S 
ATOM     95  O   UNL A   1      47.608  23.872  36.776  1.00  0.00    -0.237 OA
ATOM     96  O   UNL A   1      45.321  24.507  37.428  1.00  0.00    -0.237 OA
ATOM     97  O   UNL A   1      45.668  22.928  35.580  1.00  0.00    -0.744 OA
ENDBRANCH  91  94
ENDBRANCH  64  87
ENDBRANCH  38  39
ENDBRANCH  30  33
ENDBRANCH  28  29
ENDBRANCH   1  28
TORSDOF 16
ENDMDL
MODEL 2
REMARK VINA RESULT:     -13.0      4.964      9.970
REMARK SMILES C[C@H](Oc1cc2oc(=O)cc(-c3ccccc3)c2cc1Cl)C(=O)NCCCNC(=O)c1ccc(-c2c3nc(c(-c4cccc(S(=O)(=O)[O-])c4F)c4ccc([nH]4)c(-c4cccc(S(=O)(=O)[O-])c4F)c4nc(c(-c5cccc(S(=O)(=O)[O-])c5F)c5ccc2[nH]5)C=C4)C=C3)cc1
REMARK SMILES IDX 26 1 25 2 24 3 22 4 23 5 2 7 1 8 3 9 4 10 5 11 20 12 6 13
REMARK SMILES IDX 19 14 21 15 7 16 18 17 8 18 11 19 9 20 10 21 12 22 13 23
REMARK SMILES IDX 17 24 14 25 16 26 15 27 27 28 28 29 29 30 30 32 31 33 32 34
REMARK SMILES IDX 93 35 33 36 92 37 34 38 35 39 36 40 86 41 37 42 91 43 85 44
REMARK SMILES IDX 87 45 38 46 90 47 84 48 83 49 39 51 71 52 51 53 70 54 52 55
REMARK SMILES IDX 55 56 69 57 88 58 53 59 54 60 68 62 89 63 56 64 40 65 41 66
REMARK SMILES IDX 49 67 42 68 44 69 50 70 43 71 45 72 46 73 47 74 48 75 72 76
REMARK SMILES IDX 73 77 81 78 74 79 76 80 82 81 75 82 77 83 78 84 79 85 80 86
REMARK SMILES IDX 57 87 58 88 66 89 59 90 61 91 67 92 60 93 62 94 63 95 64 96
REMARK SMILES IDX 65 97
REMARK H PARENT 24 6 28 31 87 50 55 61
REMARK Flexibility Score: inf
ROOT
ATOM      1  C   UNL A   1      36.127  22.740  24.014  1.00  0.00     0.042 C 
ENDROOT
BRANCH   1   2
ATOM      2  C   UNL A   1      34.859  23.540  23.768  1.00  0.00     0.118 C 
BRANCH   2   3
ATOM      3  N   UNL A   1      33.924  22.858  22.887  1.00  0.00    -0.353 N 
ATOM      4  C   UNL A   1      32.927  21.971  23.204  1.00  0.00     0.260 C 
ATOM      5  O   UNL A   1      32.222  21.532  22.292  1.00  0.00    -0.271 OA
ATOM      6  H   UNL A   1      34.019  23.062  21.928  1.00  0.00     0.163 HD
BRANCH   4   7
ATOM      7  C   UNL A   1      32.651  21.617  24.675  1.00  0.00     0.258 C 
ATOM      8  C   UNL A   1      32.608  20.089  24.775  1.00  0.00     0.064 C 
BRANCH   7   9
ATOM      9  O   UNL A   1      31.494  22.382  25.012  1.00  0.00    -0.479 OA
BRANCH   9  10
ATOM     10  C   UNL A   1      31.412  23.738  25.031  1.00  0.00     0.142 A 
ATOM     11  C   UNL A   1      30.698  24.516  24.132  1.00  0.00     0.096 A 
ATOM     12  C   UNL A   1      32.178  24.393  26.015  1.00  0.00     0.084 A 
ATOM     13  C   UNL A   1      30.871  25.904  24.131  1.00  0.00     0.142 A 
ATOM     14  C   UNL A   1      32.296  25.789  26.038  1.00  0.00     0.037 A 
ATOM     15  Cl  UNL A   1      33.023  23.498  27.231  1.00  0.00    -0.080 Cl
ATOM     16  O   UNL A   1      30.219  26.600  23.096  1.00  0.00    -0.423 OA
ATOM     17  C   UNL A   1      31.674  26.564  25.057  1.00  0.00     0.027 A 
ATOM     18  C   UNL A   1      30.435  27.952  22.910  1.00  0.00     0.336 A 
ATOM     19  C   UNL A   1      31.836  28.025  24.956  1.00  0.00    -0.000 A 
ATOM     20  O   UNL A   1      29.948  28.565  21.966  1.00  0.00    -0.246 OA
ATOM     21  C   UNL A   1      31.257  28.642  23.912  1.00  0.00     0.103 A 
BRANCH  19  22
ATOM     22  C   UNL A   1      32.600  28.891  25.882  1.00  0.00    -0.017 A 
ATOM     23  C   UNL A   1      33.949  28.616  26.151  1.00  0.00     0.009 A 
ATOM     24  C   UNL A   1      31.998  30.003  26.488  1.00  0.00     0.009 A 
ATOM     25  C   UNL A   1      34.683  29.438  27.009  1.00  0.00     0.001 A 
ATOM     26  C   UNL A   1      32.738  30.830  27.335  1.00  0.00     0.001 A 
ATOM     27  C   UNL A   1      34.078  30.547  27.596  1.00  0.00     0.000 A 
ENDBRANCH  19  22
ENDBRANCH   9  10
ENDBRANCH   7   9
ENDBRANCH   4   7
ENDBRANCH   2   3
ENDBRANCH   1   2
BRANCH   1  28
ATOM     28  C   UNL A   1      37.095  23.403  24.981  1.00  0.00     0.118 C 
BRANCH  28  29
ATOM     29  N   UNL A   1      38.067  22.468  25.539  1.00  0.00    -0.352 N 
ATOM     30  C   UNL A   1      39.202  22.717  26.273  1.00  0.00     0.251 C 
ATOM     31  H   UNL A   1      37.882  21.516  25.364  1.00  0.00     0.163 HD
ATOM     32  O   UNL A   1      39.986  21.802  26.513  1.00  0.00    -0.269 OA
BRANCH  30  33
ATOM     33  C   UNL A   1      39.487  24.086  26.752  1.00  0.00     0.039 A 
ATOM     34  C   UNL A   1      39.140  24.436  28.060  1.00  0.00     0.014 A 
ATOM     35  C   UNL A   1      40.103  25.019  25.917  1.00  0.00     0.014 A 
ATOM     36  C   UNL A   1      39.476  25.701  28.550  1.00  0.00     0.010 A 
ATOM     37  C   UNL A   1      40.517  26.241  26.433  1.00  0.00     0.010 A 
ATOM     38  C   UNL A   1      40.201  26.600  27.752  1.00  0.00    -0.014 A 
BRANCH  38  39
ATOM     39  C   UNL A   1      40.637  27.927  28.256  1.00  0.00     0.031 A 
ATOM     40  C   UNL A   1      42.102  28.202  28.465  1.00  0.00     0.074 A 
ATOM     41  C   UNL A   1      39.716  28.835  28.636  1.00  0.00     0.049 A 
ATOM     42  N   UNL A   1      42.677  29.238  29.016  1.00  0.00    -0.248 NA
ATOM     43  C   UNL A   1      43.044  27.157  28.028  1.00  0.00     0.031 C 
ATOM     44  C   UNL A   1      38.265  28.657  28.555  1.00  0.00     0.029 A 
ATOM     45  N   UNL A   1      39.865  30.078  29.203  1.00  0.00    -0.354 N 
ATOM     46  C   UNL A   1      44.036  28.949  29.039  1.00  0.00     0.074 A 
ATOM     47  C   UNL A   1      44.198  27.628  28.475  1.00  0.00     0.031 C 
ATOM     48  C   UNL A   1      37.658  29.746  29.054  1.00  0.00     0.029 A 
ATOM     49  C   UNL A   1      38.673  30.684  29.525  1.00  0.00     0.049 A 
ATOM     50  H   UNL A   1      40.742  30.494  29.364  1.00  0.00     0.167 HD
ATOM     51  C   UNL A   1      45.063  29.725  29.463  1.00  0.00     0.034 A 
ATOM     52  C   UNL A   1      38.425  31.858  30.140  1.00  0.00     0.034 A 
ATOM     53  C   UNL A   1      44.903  31.060  29.968  1.00  0.00     0.049 A 
ATOM     54  C   UNL A   1      39.586  32.724  30.553  1.00  0.00     0.074 A 
ATOM     55  C   UNL A   1      45.882  31.964  30.336  1.00  0.00     0.029 A 
ATOM     56  N   UNL A   1      43.682  31.685  30.177  1.00  0.00    -0.354 N 
ATOM     57  N   UNL A   1      40.871  32.496  30.426  1.00  0.00    -0.248 NA
ATOM     58  C   UNL A   1      39.264  34.022  31.161  1.00  0.00     0.031 C 
ATOM     59  C   UNL A   1      45.254  33.131  30.783  1.00  0.00     0.029 A 
ATOM     60  C   UNL A   1      43.883  32.962  30.671  1.00  0.00     0.049 A 
ATOM     61  H   UNL A   1      42.802  31.280  30.001  1.00  0.00     0.167 HD
ATOM     62  C   UNL A   1      41.509  33.638  30.899  1.00  0.00     0.074 A 
ATOM     63  C   UNL A   1      40.468  34.561  31.299  1.00  0.00     0.031 C 
ATOM     64  C   UNL A   1      42.836  33.893  31.005  1.00  0.00     0.034 A 
BRANCH  51  65
ATOM     65  C   UNL A   1      46.457  29.168  29.343  1.00  0.00     0.023 A 
ATOM     66  C   UNL A   1      46.991  28.396  30.396  1.00  0.00     0.012 A 
ATOM     67  C   UNL A   1      47.219  29.359  28.174  1.00  0.00     0.148 A 
ATOM     68  C   UNL A   1      48.272  27.856  30.306  1.00  0.00     0.002 A 
ATOM     69  C   UNL A   1      48.478  28.779  28.071  1.00  0.00     0.091 A 
ATOM     70  F   UNL A   1      46.706  30.113  27.191  1.00  0.00    -0.205 F 
ATOM     71  C   UNL A   1      49.010  28.038  29.140  1.00  0.00     0.022 A 
BRANCH  69  72
ATOM     72  S   UNL A   1      49.475  28.886  26.581  1.00  0.00     0.127 S 
ATOM     73  O   UNL A   1      48.590  28.279  25.588  1.00  0.00    -0.237 OA
ATOM     74  O   UNL A   1      49.657  30.330  26.434  1.00  0.00    -0.237 OA
ATOM     75  O   UNL A   1      50.698  28.146  26.864  1.00  0.00    -0.744 OA
ENDBRANCH  69  72
ENDBRANCH  51  65
BRANCH  52  76
ATOM     76  C   UNL A   1      37.020  32.316  30.335  1.00  0.00     0.023 A 
ATOM     77  C   UNL A   1      36.358  32.005  31.539  1.00  0.00     0.012 A 
ATOM     78  C   UNL A   1      36.347  33.076  29.360  1.00  0.00     0.148 A 
ATOM     79  C   UNL A   1      35.042  32.412  31.754  1.00  0.00     0.002 A 
ATOM     80  C   UNL A   1      35.054  33.527  29.604  1.00  0.00     0.091 A 
ATOM     81  F   UNL A   1      36.989  33.355  28.217  1.00  0.00    -0.205 F 
ATOM     82  C   UNL A   1      34.392  33.180  30.793  1.00  0.00     0.022 A 
BRANCH  80  83
ATOM     83  S   UNL A   1      34.189  34.634  28.484  1.00  0.00     0.127 S 
ATOM     84  O   UNL A   1      34.953  35.870  28.632  1.00  0.00    -0.237 OA
ATOM     85  O   UNL A   1      34.358  33.957  27.196  1.00  0.00    -0.237 OA
ATOM     86  O   UNL A   1      32.813  34.679  28.959  1.00  0.00    -0.744 OA
ENDBRANCH  80  83
ENDBRANCH  52  76
BRANCH  64  87
ATOM     87  C   UNL A   1      43.251  35.241  31.532  1.00  0.00     0.023 A 
ATOM     88  C   UNL A   1      43.456  35.422  32.914  1.00  0.00     0.012 A 
ATOM     89  C   UNL A   1      43.524  36.302  30.646  1.00  0.00     0.148 A 
ATOM     90  C   UNL A   1      43.897  36.649  33.409  1.00  0.00     0.002 A 
ATOM     91  C   UNL A   1      44.009  37.506  31.142  1.00  0.00     0.091 A 
ATOM     92  F   UNL A   1      43.305  36.116  29.336  1.00  0.00    -0.205 F 
ATOM     93  C   UNL A   1      44.186  37.686  32.524  1.00  0.00     0.022 A 
BRANCH  91  94
ATOM     94  S   UNL A   1      44.501  38.861  30.069  1.00  0.00     0.127 S 
ATOM     95  O   UNL A   1      45.141  39.773  31.015  1.00  0.00    -0.237 OA
ATOM     96  O   UNL A   1      45.418  38.204  29.139  1.00  0.00    -0.237 OA
ATOM     97  O   UNL A   1      43.273  39.354  29.459  1.00  0.00    -0.744 OA
ENDBRANCH  91  94
ENDBRANCH  64  87
ENDBRANCH  38  39
ENDBRANCH  30  33
ENDBRANCH  28  29
ENDBRANCH   1  28
TORSDOF 16
ENDMDL
MODEL 3
REMARK VINA RESULT:     -13.0      4.537      9.733
REMARK SMILES C[C@H](Oc1cc2oc(=O)cc(-c3ccccc3)c2cc1Cl)C(=O)NCCCNC(=O)c1ccc(-c2c3nc(c(-c4cccc(S(=O)(=O)[O-])c4F)c4ccc([nH]4)c(-c4cccc(S(=O)(=O)[O-])c4F)c4nc(c(-c5cccc(S(=O)(=O)[O-])c5F)c5ccc2[nH]5)C=C4)C=C3)cc1
REMARK SMILES IDX 26 1 25 2 24 3 22 4 23 5 2 7 1 8 3 9 4 10 5 11 20 12 6 13
REMARK SMILES IDX 19 14 21 15 7 16 18 17 8 18 11 19 9 20 10 21 12 22 13 23
REMARK SMILES IDX 17 24 14 25 16 26 15 27 27 28 28 29 29 30 30 32 31 33 32 34
REMARK SMILES IDX 93 35 33 36 92 37 34 38 35 39 36 40 86 41 37 42 91 43 85 44
REMARK SMILES IDX 87 45 38 46 90 47 84 48 83 49 39 51 71 52 51 53 70 54 52 55
REMARK SMILES IDX 55 56 69 57 88 58 53 59 54 60 68 62 89 63 56 64 40 65 41 66
REMARK SMILES IDX 49 67 42 68 44 69 50 70 43 71 45 72 46 73 47 74 48 75 72 76
REMARK SMILES IDX 73 77 81 78 74 79 76 80 82 81 75 82 77 83 78 84 79 85 80 86
REMARK SMILES IDX 57 87 58 88 66 89 59 90 61 91 67 92 60 93 62 94 63 95 64 96
REMARK SMILES IDX 65 97
REMARK H PARENT 24 6 28 31 87 50 55 61
REMARK Flexibility Score: inf
ROOT
ATOM      1  C   UNL A   1      36.213  22.793  23.871  1.00  0.00     0.042 C 
ENDROOT
BRANCH   1   2
ATOM      2  C   UNL A   1      34.842  23.449  23.842  1.00  0.00     0.118 C 
BRANCH   2   3
ATOM      3  N   UNL A   1      33.922  22.791  22.927  1.00  0.00    -0.353 N 
ATOM      4  C   UNL A   1      32.880  21.945  23.210  1.00  0.00     0.260 C 
ATOM      5  O   UNL A   1      32.199  21.521  22.273  1.00  0.00    -0.271 OA
ATOM      6  H   UNL A   1      34.065  22.981  21.972  1.00  0.00     0.163 HD
BRANCH   4   7
ATOM      7  C   UNL A   1      32.528  21.618  24.671  1.00  0.00     0.258 C 
ATOM      8  C   UNL A   1      32.451  20.092  24.790  1.00  0.00     0.064 C 
BRANCH   7   9
ATOM      9  O   UNL A   1      31.371  22.409  24.942  1.00  0.00    -0.479 OA
BRANCH   9  10
ATOM     10  C   UNL A   1      31.323  23.767  24.975  1.00  0.00     0.142 A 
ATOM     11  C   UNL A   1      30.619  24.571  24.091  1.00  0.00     0.096 A 
ATOM     12  C   UNL A   1      32.116  24.392  25.957  1.00  0.00     0.084 A 
ATOM     13  C   UNL A   1      30.828  25.954  24.101  1.00  0.00     0.142 A 
ATOM     14  C   UNL A   1      32.268  25.785  25.992  1.00  0.00     0.037 A 
ATOM     15  Cl  UNL A   1      32.951  23.465  27.155  1.00  0.00    -0.080 Cl
ATOM     16  O   UNL A   1      30.182  26.676  23.080  1.00  0.00    -0.423 OA
ATOM     17  C   UNL A   1      31.656  26.585  25.025  1.00  0.00     0.027 A 
ATOM     18  C   UNL A   1      30.430  28.024  22.905  1.00  0.00     0.336 A 
ATOM     19  C   UNL A   1      31.854  28.042  24.937  1.00  0.00    -0.000 A 
ATOM     20  O   UNL A   1      29.948  28.658  21.972  1.00  0.00    -0.246 OA
ATOM     21  C   UNL A   1      31.279  28.683  23.905  1.00  0.00     0.103 A 
BRANCH  19  22
ATOM     22  C   UNL A   1      32.648  28.880  25.862  1.00  0.00    -0.017 A 
ATOM     23  C   UNL A   1      33.959  28.509  26.198  1.00  0.00     0.009 A 
ATOM     24  C   UNL A   1      32.115  30.059  26.403  1.00  0.00     0.009 A 
ATOM     25  C   UNL A   1      34.723  29.302  27.056  1.00  0.00     0.001 A 
ATOM     26  C   UNL A   1      32.886  30.857  27.250  1.00  0.00     0.001 A 
ATOM     27  C   UNL A   1      34.187  30.478  27.577  1.00  0.00     0.000 A 
ENDBRANCH  19  22
ENDBRANCH   9  10
ENDBRANCH   7   9
ENDBRANCH   4   7
ENDBRANCH   2   3
ENDBRANCH   1   2
BRANCH   1  28
ATOM     28  C   UNL A   1      37.191  23.452  24.830  1.00  0.00     0.118 C 
BRANCH  28  29
ATOM     29  N   UNL A   1      38.085  22.495  25.472  1.00  0.00    -0.352 N 
ATOM     30  C   UNL A   1      39.169  22.718  26.288  1.00  0.00     0.251 C 
ATOM     31  H   UNL A   1      37.883  21.547  25.297  1.00  0.00     0.163 HD
ATOM     32  O   UNL A   1      39.901  21.782  26.599  1.00  0.00    -0.269 OA
BRANCH  30  33
ATOM     33  C   UNL A   1      39.462  24.084  26.770  1.00  0.00     0.039 A 
ATOM     34  C   UNL A   1      39.116  24.435  28.078  1.00  0.00     0.014 A 
ATOM     35  C   UNL A   1      40.085  25.015  25.937  1.00  0.00     0.014 A 
ATOM     36  C   UNL A   1      39.460  25.697  28.571  1.00  0.00     0.010 A 
ATOM     37  C   UNL A   1      40.507  26.233  26.456  1.00  0.00     0.010 A 
ATOM     38  C   UNL A   1      40.191  26.592  27.775  1.00  0.00    -0.014 A 
BRANCH  38  39
ATOM     39  C   UNL A   1      40.636  27.915  28.282  1.00  0.00     0.031 A 
ATOM     40  C   UNL A   1      42.103  28.185  28.482  1.00  0.00     0.074 A 
ATOM     41  C   UNL A   1      39.721  28.825  28.672  1.00  0.00     0.049 A 
ATOM     42  N   UNL A   1      42.685  29.216  29.034  1.00  0.00    -0.248 NA
ATOM     43  C   UNL A   1      43.038  27.138  28.034  1.00  0.00     0.031 C 
ATOM     44  C   UNL A   1      38.268  28.652  28.600  1.00  0.00     0.029 A 
ATOM     45  N   UNL A   1      39.878  30.064  29.244  1.00  0.00    -0.354 N 
ATOM     46  C   UNL A   1      44.044  28.922  29.046  1.00  0.00     0.074 A 
ATOM     47  C   UNL A   1      44.197  27.603  28.475  1.00  0.00     0.031 C 
ATOM     48  C   UNL A   1      37.668  29.741  29.108  1.00  0.00     0.029 A 
ATOM     49  C   UNL A   1      38.690  30.673  29.576  1.00  0.00     0.049 A 
ATOM     50  H   UNL A   1      40.758  30.477  29.401  1.00  0.00     0.167 HD
ATOM     51  C   UNL A   1      45.076  29.693  29.466  1.00  0.00     0.034 A 
ATOM     52  C   UNL A   1      38.451  31.845  30.198  1.00  0.00     0.034 A 
ATOM     53  C   UNL A   1      44.924  31.027  29.978  1.00  0.00     0.049 A 
ATOM     54  C   UNL A   1      39.618  32.705  30.607  1.00  0.00     0.074 A 
ATOM     55  C   UNL A   1      45.909  31.926  30.343  1.00  0.00     0.029 A 
ATOM     56  N   UNL A   1      43.707  31.654  30.198  1.00  0.00    -0.354 N 
ATOM     57  N   UNL A   1      40.900  32.474  30.470  1.00  0.00    -0.248 NA
ATOM     58  C   UNL A   1      39.304  34.002  31.223  1.00  0.00     0.031 C 
ATOM     59  C   UNL A   1      45.288  33.092  30.800  1.00  0.00     0.029 A 
ATOM     60  C   UNL A   1      43.915  32.928  30.697  1.00  0.00     0.049 A 
ATOM     61  H   UNL A   1      42.825  31.253  30.026  1.00  0.00     0.167 HD
ATOM     62  C   UNL A   1      41.546  33.611  30.944  1.00  0.00     0.074 A 
ATOM     63  C   UNL A   1      40.510  34.536  31.356  1.00  0.00     0.031 C 
ATOM     64  C   UNL A   1      42.874  33.861  31.042  1.00  0.00     0.034 A 
BRANCH  51  65
ATOM     65  C   UNL A   1      46.467  29.131  29.334  1.00  0.00     0.023 A 
ATOM     66  C   UNL A   1      47.003  28.348  30.377  1.00  0.00     0.012 A 
ATOM     67  C   UNL A   1      47.224  29.330  28.163  1.00  0.00     0.148 A 
ATOM     68  C   UNL A   1      48.282  27.804  30.275  1.00  0.00     0.002 A 
ATOM     69  C   UNL A   1      48.480  28.747  28.048  1.00  0.00     0.091 A 
ATOM     70  F   UNL A   1      46.709  30.096  27.190  1.00  0.00    -0.205 F 
ATOM     71  C   UNL A   1      49.015  27.994  29.107  1.00  0.00     0.022 A 
BRANCH  69  72
ATOM     72  S   UNL A   1      49.471  28.864  26.554  1.00  0.00     0.127 S 
ATOM     73  O   UNL A   1      50.588  27.976  26.870  1.00  0.00    -0.237 OA
ATOM     74  O   UNL A   1      48.554  28.352  25.535  1.00  0.00    -0.237 OA
ATOM     75  O   UNL A   1      49.813  30.272  26.409  1.00  0.00    -0.744 OA
ENDBRANCH  69  72
ENDBRANCH  51  65
BRANCH  52  76
ATOM     76  C   UNL A   1      37.048  32.307  30.406  1.00  0.00     0.023 A 
ATOM     77  C   UNL A   1      36.420  32.058  31.642  1.00  0.00     0.012 A 
ATOM     78  C   UNL A   1      36.346  33.012  29.409  1.00  0.00     0.148 A 
ATOM     79  C   UNL A   1      35.107  32.471  31.869  1.00  0.00     0.002 A 
ATOM     80  C   UNL A   1      35.057  33.469  29.662  1.00  0.00     0.091 A 
ATOM     81  F   UNL A   1      36.957  33.231  28.236  1.00  0.00    -0.205 F 
ATOM     82  C   UNL A   1      34.428  33.184  30.885  1.00  0.00     0.022 A 
BRANCH  80  83
ATOM     83  S   UNL A   1      34.157  34.511  28.508  1.00  0.00     0.127 S 
ATOM     84  O   UNL A   1      34.732  35.827  28.779  1.00  0.00    -0.237 OA
ATOM     85  O   UNL A   1      34.533  33.930  27.217  1.00  0.00    -0.237 OA
ATOM     86  O   UNL A   1      32.750  34.352  28.848  1.00  0.00    -0.744 OA
ENDBRANCH  80  83
ENDBRANCH  52  76
BRANCH  64  87
ATOM     87  C   UNL A   1      43.298  35.206  31.572  1.00  0.00     0.023 A 
ATOM     88  C   UNL A   1      43.632  36.240  30.675  1.00  0.00     0.012 A 
ATOM     89  C   UNL A   1      43.277  35.469  32.956  1.00  0.00     0.148 A 
ATOM     90  C   UNL A   1      43.969  37.506  31.150  1.00  0.00     0.002 A 
ATOM     91  C   UNL A   1      43.567  36.746  33.418  1.00  0.00     0.091 A 
ATOM     92  F   UNL A   1      42.974  34.466  33.794  1.00  0.00    -0.205 F 
ATOM     93  C   UNL A   1      43.924  37.764  32.519  1.00  0.00     0.022 A 
BRANCH  91  94
ATOM     94  S   UNL A   1      43.438  37.193  35.154  1.00  0.00     0.127 S 
ATOM     95  O   UNL A   1      43.813  38.606  35.127  1.00  0.00    -0.237 OA
ATOM     96  O   UNL A   1      42.025  36.941  35.436  1.00  0.00    -0.237 OA
ATOM     97  O   UNL A   1      44.360  36.316  35.863  1.00  0.00    -0.744 OA
ENDBRANCH  91  94
ENDBRANCH  64  87
ENDBRANCH  38  39
ENDBRANCH  30  33
ENDBRANCH  28  29
ENDBRANCH   1  28
TORSDOF 16
ENDMDL
