MODEL 1
REMARK VINA RESULT:     -13.1      0.000      0.000
REMARK SMILES Cc1cccc(NS(=O)(=O)c2ccc(Br)c(C(=O)NCCCNC(=O)c3ccc(-c4c5nc(c(-c6cccc(S(=O)(=O)[O-])c6F)c6ccc([nH]6)c(-c6cccc(S(=O)(=O)[O-])c6F)c6nc(c(-c7cccc(S(=O)(=O)[O-])c7F)c7ccc4[nH]7)C=C6)C=C5)cc3)c2)c1
REMARK SMILES IDX 21 1 20 2 19 3 17 4 18 5 16 7 11 8 12 9 89 10 13 11 14 12
REMARK SMILES IDX 15 13 8 14 9 15 10 16 7 17 6 19 1 20 2 21 3 22 90 23 4 24
REMARK SMILES IDX 5 25 22 26 23 27 24 28 25 30 26 31 27 32 88 33 28 34 87 35
REMARK SMILES IDX 29 36 30 37 31 38 81 39 32 40 86 41 80 42 82 43 33 44 85 45
REMARK SMILES IDX 79 46 78 47 34 49 66 50 46 51 65 52 47 53 50 54 64 55 83 56
REMARK SMILES IDX 48 57 49 58 63 60 84 61 51 62 35 63 36 64 44 65 37 66 39 67
REMARK SMILES IDX 45 68 38 69 40 70 41 71 42 72 43 73 67 74 68 75 76 76 69 77
REMARK SMILES IDX 71 78 77 79 70 80 72 81 73 82 74 83 75 84 52 85 53 86 61 87
REMARK SMILES IDX 54 88 56 89 62 90 55 91 57 92 58 93 59 94 60 95
REMARK H PARENT 19 6 7 18 23 29 82 48 50 59
REMARK Flexibility Score: inf
ROOT
ATOM      1  C   UNL A   1      37.856  20.843  25.241  1.00  0.00     0.042 C 
ENDROOT
BRANCH   1   2
ATOM      2  C   UNL A   1      36.343  20.819  25.131  1.00  0.00     0.118 C 
BRANCH   2   3
ATOM      3  N   UNL A   1      35.632  21.250  26.322  1.00  0.00    -0.352 N 
ATOM      4  C   UNL A   1      34.370  21.744  26.546  1.00  0.00     0.252 C 
ATOM      5  O   UNL A   1      34.002  21.872  27.714  1.00  0.00    -0.269 OA
ATOM      6  H   UNL A   1      36.169  21.170  27.144  1.00  0.00     0.163 HD
BRANCH   4   7
ATOM      7  C   UNL A   1      33.492  22.269  25.465  1.00  0.00     0.055 A 
ATOM      8  C   UNL A   1      32.289  24.178  24.582  1.00  0.00     0.088 A 
ATOM      9  C   UNL A   1      32.530  23.736  23.284  1.00  0.00     0.023 A 
ATOM     10  C   UNL A   1      32.891  23.520  25.661  1.00  0.00     0.037 A 
ATOM     11  C   UNL A   1      32.958  22.421  23.116  1.00  0.00     0.018 A 
ATOM     12  C   UNL A   1      33.260  21.650  24.242  1.00  0.00     0.030 A 
ATOM     13  Br  UNL A   1      32.488  19.880  24.218  1.00  0.00    -0.050 Br
BRANCH   8  14
ATOM     14  S   UNL A   1      31.108  25.464  24.888  1.00  0.00     0.261 S 
ATOM     15  O   UNL A   1      30.876  25.503  26.300  1.00  0.00    -0.201 OA
ATOM     16  O   UNL A   1      29.997  25.262  23.958  1.00  0.00    -0.201 OA
BRANCH  14  17
ATOM     17  N   UNL A   1      31.731  27.003  24.480  1.00  0.00    -0.280 N 
ATOM     18  H   UNL A   1      31.754  27.244  23.526  1.00  0.00     0.180 HD
BRANCH  17  19
ATOM     19  C   UNL A   1      32.224  27.973  25.417  1.00  0.00     0.049 A 
ATOM     20  C   UNL A   1      31.353  31.554  26.433  1.00  0.00     0.044 C 
ATOM     21  C   UNL A   1      32.016  30.209  26.384  1.00  0.00    -0.049 A 
ATOM     22  C   UNL A   1      33.100  29.937  27.222  1.00  0.00     0.003 A 
ATOM     23  C   UNL A   1      31.566  29.208  25.507  1.00  0.00     0.030 A 
ATOM     24  C   UNL A   1      33.810  28.748  27.075  1.00  0.00     0.002 A 
ATOM     25  C   UNL A   1      33.414  27.803  26.122  1.00  0.00     0.027 A 
ENDBRANCH  17  19
ENDBRANCH  14  17
ENDBRANCH   8  14
ENDBRANCH   4   7
ENDBRANCH   2   3
ENDBRANCH   1   2
BRANCH   1  26
ATOM     26  C   UNL A   1      38.336  22.171  25.802  1.00  0.00     0.118 C 
BRANCH  26  27
ATOM     27  N   UNL A   1      39.505  22.047  26.678  1.00  0.00    -0.352 N 
ATOM     28  C   UNL A   1      40.297  23.017  27.277  1.00  0.00     0.251 C 
ATOM     29  H   UNL A   1      39.773  21.120  26.875  1.00  0.00     0.163 HD
ATOM     30  O   UNL A   1      41.257  22.654  27.949  1.00  0.00    -0.269 OA
BRANCH  28  31
ATOM     31  C   UNL A   1      39.874  24.439  27.247  1.00  0.00     0.039 A 
ATOM     32  C   UNL A   1      40.680  25.337  26.535  1.00  0.00     0.014 A 
ATOM     33  C   UNL A   1      38.993  24.907  28.207  1.00  0.00     0.014 A 
ATOM     34  C   UNL A   1      40.856  26.625  27.030  1.00  0.00     0.010 A 
ATOM     35  C   UNL A   1      39.296  26.102  28.806  1.00  0.00     0.010 A 
ATOM     36  C   UNL A   1      40.276  26.935  28.248  1.00  0.00    -0.014 A 
BRANCH  36  37
ATOM     37  C   UNL A   1      40.578  28.099  29.059  1.00  0.00     0.031 A 
ATOM     38  C   UNL A   1      39.684  29.262  28.954  1.00  0.00     0.074 A 
ATOM     39  C   UNL A   1      41.427  27.962  30.099  1.00  0.00     0.049 A 
ATOM     40  N   UNL A   1      39.815  30.336  29.644  1.00  0.00    -0.248 NA
ATOM     41  C   UNL A   1      38.555  29.297  28.033  1.00  0.00     0.031 C 
ATOM     42  C   UNL A   1      41.453  28.733  31.339  1.00  0.00     0.029 A 
ATOM     43  N   UNL A   1      42.592  27.202  30.148  1.00  0.00    -0.354 N 
ATOM     44  C   UNL A   1      38.670  31.080  29.479  1.00  0.00     0.074 A 
ATOM     45  C   UNL A   1      37.955  30.427  28.411  1.00  0.00     0.031 C 
ATOM     46  C   UNL A   1      42.658  28.598  31.913  1.00  0.00     0.029 A 
ATOM     47  C   UNL A   1      43.503  27.908  30.958  1.00  0.00     0.049 A 
ATOM     48  H   UNL A   1      42.749  26.338  29.704  1.00  0.00     0.167 HD
ATOM     49  C   UNL A   1      38.435  32.082  30.371  1.00  0.00     0.034 A 
ATOM     50  C   UNL A   1      44.629  28.446  30.397  1.00  0.00     0.034 A 
ATOM     51  C   UNL A   1      39.634  32.318  31.201  1.00  0.00     0.049 A 
ATOM     52  C   UNL A   1      44.703  29.968  30.452  1.00  0.00     0.074 A 
ATOM     53  C   UNL A   1      40.005  32.010  32.500  1.00  0.00     0.029 A 
ATOM     54  N   UNL A   1      40.797  32.726  30.562  1.00  0.00    -0.354 N 
ATOM     55  N   UNL A   1      43.789  30.757  30.953  1.00  0.00    -0.248 NA
ATOM     56  C   UNL A   1      45.817  30.721  29.884  1.00  0.00     0.031 C 
ATOM     57  C   UNL A   1      41.413  32.221  32.622  1.00  0.00     0.029 A 
ATOM     58  C   UNL A   1      41.892  32.684  31.409  1.00  0.00     0.049 A 
ATOM     59  H   UNL A   1      40.838  33.011  29.620  1.00  0.00     0.167 HD
ATOM     60  C   UNL A   1      44.078  32.070  30.649  1.00  0.00     0.074 A 
ATOM     61  C   UNL A   1      45.385  31.988  30.013  1.00  0.00     0.031 C 
ATOM     62  C   UNL A   1      43.192  33.096  30.885  1.00  0.00     0.034 A 
BRANCH  49  63
ATOM     63  C   UNL A   1      37.086  32.724  30.657  1.00  0.00     0.023 A 
ATOM     64  C   UNL A   1      36.563  32.556  31.960  1.00  0.00     0.012 A 
ATOM     65  C   UNL A   1      36.241  33.404  29.747  1.00  0.00     0.148 A 
ATOM     66  C   UNL A   1      35.270  32.960  32.314  1.00  0.00     0.002 A 
ATOM     67  C   UNL A   1      34.939  33.781  30.087  1.00  0.00     0.091 A 
ATOM     68  F   UNL A   1      36.683  33.742  28.540  1.00  0.00    -0.205 F 
ATOM     69  C   UNL A   1      34.446  33.554  31.371  1.00  0.00     0.022 A 
BRANCH  67  70
ATOM     70  S   UNL A   1      33.801  34.520  28.894  1.00  0.00     0.127 S 
ATOM     71  O   UNL A   1      34.551  35.693  28.444  1.00  0.00    -0.237 OA
ATOM     72  O   UNL A   1      33.666  33.463  27.893  1.00  0.00    -0.237 OA
ATOM     73  O   UNL A   1      32.580  34.839  29.624  1.00  0.00    -0.744 OA
ENDBRANCH  67  70
ENDBRANCH  49  63
BRANCH  50  74
ATOM     74  C   UNL A   1      45.167  27.577  29.298  1.00  0.00     0.023 A 
ATOM     75  C   UNL A   1      45.519  26.250  29.655  1.00  0.00     0.012 A 
ATOM     76  C   UNL A   1      44.945  27.874  27.941  1.00  0.00     0.148 A 
ATOM     77  C   UNL A   1      45.485  25.219  28.715  1.00  0.00     0.002 A 
ATOM     78  C   UNL A   1      44.940  26.840  27.003  1.00  0.00     0.091 A 
ATOM     79  F   UNL A   1      44.681  29.141  27.594  1.00  0.00    -0.205 F 
ATOM     80  C   UNL A   1      45.159  25.510  27.396  1.00  0.00     0.022 A 
BRANCH  78  81
ATOM     81  S   UNL A   1      44.533  27.128  25.274  1.00  0.00     0.127 S 
ATOM     82  O   UNL A   1      44.360  25.763  24.784  1.00  0.00    -0.237 OA
ATOM     83  O   UNL A   1      43.298  27.908  25.365  1.00  0.00    -0.237 OA
ATOM     84  O   UNL A   1      45.664  27.867  24.733  1.00  0.00    -0.744 OA
ENDBRANCH  78  81
ENDBRANCH  50  74
BRANCH  62  85
ATOM     85  C   UNL A   1      43.411  34.580  30.559  1.00  0.00     0.023 A 
ATOM     86  C   UNL A   1      43.600  35.554  31.556  1.00  0.00     0.012 A 
ATOM     87  C   UNL A   1      43.379  35.073  29.220  1.00  0.00     0.148 A 
ATOM     88  C   UNL A   1      43.891  36.894  31.250  1.00  0.00     0.002 A 
ATOM     89  C   UNL A   1      43.669  36.401  28.916  1.00  0.00     0.091 A 
ATOM     90  F   UNL A   1      42.993  34.278  28.218  1.00  0.00    -0.205 F 
ATOM     91  C   UNL A   1      43.954  37.312  29.930  1.00  0.00     0.022 A 
BRANCH  89  92
ATOM     92  S   UNL A   1      43.697  37.007  27.220  1.00  0.00     0.127 S 
ATOM     93  O   UNL A   1      42.291  36.880  26.838  1.00  0.00    -0.237 OA
ATOM     94  O   UNL A   1      44.158  38.385  27.395  1.00  0.00    -0.237 OA
ATOM     95  O   UNL A   1      44.630  36.147  26.504  1.00  0.00    -0.744 OA
ENDBRANCH  89  92
ENDBRANCH  62  85
ENDBRANCH  36  37
ENDBRANCH  28  31
ENDBRANCH  26  27
ENDBRANCH   1  26
TORSDOF 16
ENDMDL
MODEL 2
REMARK VINA RESULT:     -13.1      3.921      9.560
REMARK SMILES Cc1cccc(NS(=O)(=O)c2ccc(Br)c(C(=O)NCCCNC(=O)c3ccc(-c4c5nc(c(-c6cccc(S(=O)(=O)[O-])c6F)c6ccc([nH]6)c(-c6cccc(S(=O)(=O)[O-])c6F)c6nc(c(-c7cccc(S(=O)(=O)[O-])c7F)c7ccc4[nH]7)C=C6)C=C5)cc3)c2)c1
REMARK SMILES IDX 21 1 20 2 19 3 17 4 18 5 16 7 11 8 12 9 89 10 13 11 14 12
REMARK SMILES IDX 15 13 8 14 9 15 10 16 7 17 6 19 1 20 2 21 3 22 90 23 4 24
REMARK SMILES IDX 5 25 22 26 23 27 24 28 25 30 26 31 27 32 88 33 28 34 87 35
REMARK SMILES IDX 29 36 30 37 31 38 81 39 32 40 86 41 80 42 82 43 33 44 85 45
REMARK SMILES IDX 79 46 78 47 34 49 66 50 46 51 65 52 47 53 50 54 64 55 83 56
REMARK SMILES IDX 48 57 49 58 63 60 84 61 51 62 35 63 36 64 44 65 37 66 39 67
REMARK SMILES IDX 45 68 38 69 40 70 41 71 42 72 43 73 67 74 68 75 76 76 69 77
REMARK SMILES IDX 71 78 77 79 70 80 72 81 73 82 74 83 75 84 52 85 53 86 61 87
REMARK SMILES IDX 54 88 56 89 62 90 55 91 57 92 58 93 59 94 60 95
REMARK H PARENT 19 6 7 18 23 29 82 48 50 59
REMARK Flexibility Score: inf
ROOT
ATOM      1  C   UNL A   1      32.435  31.160  26.711  1.00  0.00     0.042 C 
ENDROOT
BRANCH   1   2
ATOM      2  C   UNL A   1      32.027  30.009  25.812  1.00  0.00     0.118 C 
BRANCH   2   3
ATOM      3  N   UNL A   1      32.928  29.745  24.703  1.00  0.00    -0.352 N 
ATOM      4  C   UNL A   1      32.965  28.786  23.720  1.00  0.00     0.252 C 
ATOM      5  O   UNL A   1      33.786  28.925  22.812  1.00  0.00    -0.269 OA
ATOM      6  H   UNL A   1      33.669  30.390  24.644  1.00  0.00     0.163 HD
BRANCH   4   7
ATOM      7  C   UNL A   1      32.178  27.524  23.776  1.00  0.00     0.055 A 
ATOM      8  C   UNL A   1      32.236  25.108  23.953  1.00  0.00     0.088 A 
ATOM      9  C   UNL A   1      31.038  25.126  24.662  1.00  0.00     0.023 A 
ATOM     10  C   UNL A   1      32.873  26.314  23.637  1.00  0.00     0.037 A 
ATOM     11  C   UNL A   1      30.283  26.296  24.629  1.00  0.00     0.018 A 
ATOM     12  C   UNL A   1      30.812  27.435  24.014  1.00  0.00     0.030 A 
ATOM     13  Br  UNL A   1      29.590  28.323  22.811  1.00  0.00    -0.050 Br
BRANCH   8  14
ATOM     14  S   UNL A   1      32.879  23.584  23.316  1.00  0.00     0.261 S 
ATOM     15  O   UNL A   1      33.951  23.913  22.426  1.00  0.00    -0.201 OA
ATOM     16  O   UNL A   1      31.740  22.796  22.847  1.00  0.00    -0.201 OA
BRANCH  14  17
ATOM     17  N   UNL A   1      33.580  22.630  24.550  1.00  0.00    -0.280 N 
ATOM     18  H   UNL A   1      32.971  22.099  25.113  1.00  0.00     0.180 HD
BRANCH  17  19
ATOM     19  C   UNL A   1      34.984  22.540  24.832  1.00  0.00     0.049 A 
ATOM     20  C   UNL A   1      37.646  19.795  24.861  1.00  0.00     0.044 C 
ATOM     21  C   UNL A   1      36.984  21.138  24.963  1.00  0.00    -0.049 A 
ATOM     22  C   UNL A   1      37.730  22.255  25.348  1.00  0.00     0.003 A 
ATOM     23  C   UNL A   1      35.618  21.298  24.677  1.00  0.00     0.030 A 
ATOM     24  C   UNL A   1      37.089  23.468  25.588  1.00  0.00     0.002 A 
ATOM     25  C   UNL A   1      35.707  23.586  25.400  1.00  0.00     0.027 A 
ENDBRANCH  17  19
ENDBRANCH  14  17
ENDBRANCH   8  14
ENDBRANCH   4   7
ENDBRANCH   2   3
ENDBRANCH   1   2
BRANCH   1  26
ATOM     26  C   UNL A   1      33.554  30.741  27.650  1.00  0.00     0.118 C 
BRANCH  26  27
ATOM     27  N   UNL A   1      34.538  31.800  27.894  1.00  0.00    -0.352 N 
ATOM     28  C   UNL A   1      35.856  31.731  28.326  1.00  0.00     0.251 C 
ATOM     29  H   UNL A   1      34.210  32.712  27.722  1.00  0.00     0.163 HD
ATOM     30  O   UNL A   1      36.472  32.780  28.491  1.00  0.00    -0.269 OA
BRANCH  28  31
ATOM     31  C   UNL A   1      36.541  30.417  28.406  1.00  0.00     0.039 A 
ATOM     32  C   UNL A   1      36.724  29.861  29.679  1.00  0.00     0.014 A 
ATOM     33  C   UNL A   1      37.318  29.989  27.342  1.00  0.00     0.014 A 
ATOM     34  C   UNL A   1      37.896  29.162  29.948  1.00  0.00     0.010 A 
ATOM     35  C   UNL A   1      38.550  29.468  27.637  1.00  0.00     0.010 A 
ATOM     36  C   UNL A   1      38.861  29.110  28.956  1.00  0.00    -0.014 A 
BRANCH  36  37
ATOM     37  C   UNL A   1      40.239  28.696  29.136  1.00  0.00     0.031 A 
ATOM     38  C   UNL A   1      40.564  27.276  28.930  1.00  0.00     0.074 A 
ATOM     39  C   UNL A   1      41.204  29.639  29.143  1.00  0.00     0.049 A 
ATOM     40  N   UNL A   1      41.747  26.787  29.017  1.00  0.00    -0.248 NA
ATOM     41  C   UNL A   1      39.547  26.282  28.610  1.00  0.00     0.031 C 
ATOM     42  C   UNL A   1      42.600  29.493  28.737  1.00  0.00     0.029 A 
ATOM     43  N   UNL A   1      41.151  30.902  29.725  1.00  0.00    -0.354 N 
ATOM     44  C   UNL A   1      41.708  25.510  28.509  1.00  0.00     0.074 A 
ATOM     45  C   UNL A   1      40.307  25.219  28.343  1.00  0.00     0.031 C 
ATOM     46  C   UNL A   1      43.318  30.491  29.273  1.00  0.00     0.029 A 
ATOM     47  C   UNL A   1      42.446  31.184  30.202  1.00  0.00     0.049 A 
ATOM     48  H   UNL A   1      40.362  31.486  29.790  1.00  0.00     0.167 HD
ATOM     49  C   UNL A   1      42.894  24.925  28.183  1.00  0.00     0.034 A 
ATOM     50  C   UNL A   1      42.666  31.265  31.550  1.00  0.00     0.034 A 
ATOM     51  C   UNL A   1      44.020  25.729  28.701  1.00  0.00     0.049 A 
ATOM     52  C   UNL A   1      43.609  30.203  32.107  1.00  0.00     0.074 A 
ATOM     53  C   UNL A   1      44.940  26.603  28.145  1.00  0.00     0.029 A 
ATOM     54  N   UNL A   1      44.116  25.903  30.075  1.00  0.00    -0.354 N 
ATOM     55  N   UNL A   1      44.171  29.248  31.415  1.00  0.00    -0.248 NA
ATOM     56  C   UNL A   1      43.944  30.116  33.525  1.00  0.00     0.031 C 
ATOM     57  C   UNL A   1      45.576  27.316  29.208  1.00  0.00     0.029 A 
ATOM     58  C   UNL A   1      45.063  26.858  30.409  1.00  0.00     0.049 A 
ATOM     59  H   UNL A   1      43.577  25.407  30.733  1.00  0.00     0.167 HD
ATOM     60  C   UNL A   1      44.784  28.348  32.261  1.00  0.00     0.074 A 
ATOM     61  C   UNL A   1      44.644  28.970  33.571  1.00  0.00     0.031 C 
ATOM     62  C   UNL A   1      45.291  27.147  31.823  1.00  0.00     0.034 A 
BRANCH  49  63
ATOM     63  C   UNL A   1      43.080  23.751  27.234  1.00  0.00     0.023 A 
ATOM     64  C   UNL A   1      43.761  24.010  26.023  1.00  0.00     0.012 A 
ATOM     65  C   UNL A   1      42.575  22.435  27.376  1.00  0.00     0.148 A 
ATOM     66  C   UNL A   1      43.867  23.064  24.996  1.00  0.00     0.002 A 
ATOM     67  C   UNL A   1      42.651  21.498  26.342  1.00  0.00     0.091 A 
ATOM     68  F   UNL A   1      42.043  22.038  28.528  1.00  0.00    -0.205 F 
ATOM     69  C   UNL A   1      43.292  21.813  25.145  1.00  0.00     0.022 A 
BRANCH  67  70
ATOM     70  S   UNL A   1      41.887  19.866  26.456  1.00  0.00     0.127 S 
ATOM     71  O   UNL A   1      40.461  20.196  26.450  1.00  0.00    -0.237 OA
ATOM     72  O   UNL A   1      42.364  19.210  25.240  1.00  0.00    -0.237 OA
ATOM     73  O   UNL A   1      42.354  19.271  27.703  1.00  0.00    -0.744 OA
ENDBRANCH  67  70
ENDBRANCH  49  63
BRANCH  50  74
ATOM     74  C   UNL A   1      41.491  31.862  32.267  1.00  0.00     0.023 A 
ATOM     75  C   UNL A   1      41.133  33.185  31.903  1.00  0.00     0.012 A 
ATOM     76  C   UNL A   1      40.537  31.062  32.922  1.00  0.00     0.148 A 
ATOM     77  C   UNL A   1      39.820  33.639  32.036  1.00  0.00     0.002 A 
ATOM     78  C   UNL A   1      39.233  31.534  33.077  1.00  0.00     0.091 A 
ATOM     79  F   UNL A   1      40.895  29.837  33.329  1.00  0.00    -0.205 F 
ATOM     80  C   UNL A   1      38.862  32.798  32.590  1.00  0.00     0.022 A 
BRANCH  78  81
ATOM     81  S   UNL A   1      37.931  30.515  33.787  1.00  0.00     0.127 S 
ATOM     82  O   UNL A   1      36.753  31.013  33.081  1.00  0.00    -0.237 OA
ATOM     83  O   UNL A   1      38.346  29.163  33.409  1.00  0.00    -0.237 OA
ATOM     84  O   UNL A   1      37.981  30.774  35.217  1.00  0.00    -0.744 OA
ENDBRANCH  78  81
ENDBRANCH  50  74
BRANCH  62  85
ATOM     85  C   UNL A   1      45.965  26.072  32.688  1.00  0.00     0.023 A 
ATOM     86  C   UNL A   1      47.356  25.864  32.690  1.00  0.00     0.012 A 
ATOM     87  C   UNL A   1      45.212  25.178  33.505  1.00  0.00     0.148 A 
ATOM     88  C   UNL A   1      47.976  24.944  33.550  1.00  0.00     0.002 A 
ATOM     89  C   UNL A   1      45.825  24.265  34.361  1.00  0.00     0.091 A 
ATOM     90  F   UNL A   1      43.879  25.142  33.415  1.00  0.00    -0.205 F 
ATOM     91  C   UNL A   1      47.213  24.164  34.407  1.00  0.00     0.022 A 
BRANCH  89  92
ATOM     92  S   UNL A   1      44.875  23.185  35.444  1.00  0.00     0.127 S 
ATOM     93  O   UNL A   1      44.041  22.463  34.483  1.00  0.00    -0.237 OA
ATOM     94  O   UNL A   1      45.924  22.376  36.067  1.00  0.00    -0.237 OA
ATOM     95  O   UNL A   1      44.167  24.064  36.364  1.00  0.00    -0.744 OA
ENDBRANCH  89  92
ENDBRANCH  62  85
ENDBRANCH  36  37
ENDBRANCH  28  31
ENDBRANCH  26  27
ENDBRANCH   1  26
TORSDOF 16
ENDMDL
MODEL 3
REMARK VINA RESULT:     -12.8      3.960      9.735
REMARK SMILES Cc1cccc(NS(=O)(=O)c2ccc(Br)c(C(=O)NCCCNC(=O)c3ccc(-c4c5nc(c(-c6cccc(S(=O)(=O)[O-])c6F)c6ccc([nH]6)c(-c6cccc(S(=O)(=O)[O-])c6F)c6nc(c(-c7cccc(S(=O)(=O)[O-])c7F)c7ccc4[nH]7)C=C6)C=C5)cc3)c2)c1
REMARK SMILES IDX 21 1 20 2 19 3 17 4 18 5 16 7 11 8 12 9 89 10 13 11 14 12
REMARK SMILES IDX 15 13 8 14 9 15 10 16 7 17 6 19 1 20 2 21 3 22 90 23 4 24
REMARK SMILES IDX 5 25 22 26 23 27 24 28 25 30 26 31 27 32 88 33 28 34 87 35
REMARK SMILES IDX 29 36 30 37 31 38 81 39 32 40 86 41 80 42 82 43 33 44 85 45
REMARK SMILES IDX 79 46 78 47 34 49 66 50 46 51 65 52 47 53 50 54 64 55 83 56
REMARK SMILES IDX 48 57 49 58 63 60 84 61 51 62 35 63 36 64 44 65 37 66 39 67
REMARK SMILES IDX 45 68 38 69 40 70 41 71 42 72 43 73 67 74 68 75 76 76 69 77
REMARK SMILES IDX 71 78 77 79 70 80 72 81 73 82 74 83 75 84 52 85 53 86 61 87
REMARK SMILES IDX 54 88 56 89 62 90 55 91 57 92 58 93 59 94 60 95
REMARK H PARENT 19 6 7 18 23 29 82 48 50 59
REMARK Flexibility Score: inf
ROOT
ATOM      1  C   UNL A   1      32.021  30.914  26.522  1.00  0.00     0.042 C 
ENDROOT
BRANCH   1   2
ATOM      2  C   UNL A   1      31.618  29.842  25.527  1.00  0.00     0.118 C 
BRANCH   2   3
ATOM      3  N   UNL A   1      32.560  29.622  24.444  1.00  0.00    -0.352 N 
ATOM      4  C   UNL A   1      33.053  28.496  23.830  1.00  0.00     0.252 C 
ATOM      5  O   UNL A   1      33.735  28.645  22.816  1.00  0.00    -0.269 OA
ATOM      6  H   UNL A   1      32.922  30.458  24.069  1.00  0.00     0.163 HD
BRANCH   4   7
ATOM      7  C   UNL A   1      32.935  27.130  24.408  1.00  0.00     0.055 A 
ATOM      8  C   UNL A   1      34.100  25.180  25.251  1.00  0.00     0.088 A 
ATOM      9  C   UNL A   1      33.071  24.952  26.161  1.00  0.00     0.023 A 
ATOM     10  C   UNL A   1      34.095  26.346  24.477  1.00  0.00     0.037 A 
ATOM     11  C   UNL A   1      31.865  25.617  25.955  1.00  0.00     0.018 A 
ATOM     12  C   UNL A   1      31.776  26.579  24.944  1.00  0.00     0.030 A 
ATOM     13  Br  UNL A   1      30.213  26.406  23.824  1.00  0.00    -0.050 Br
BRANCH   8  14
ATOM     14  S   UNL A   1      35.328  23.936  24.954  1.00  0.00     0.261 S 
ATOM     15  O   UNL A   1      36.468  24.262  25.757  1.00  0.00    -0.201 OA
ATOM     16  O   UNL A   1      35.457  23.793  23.504  1.00  0.00    -0.201 OA
BRANCH  14  17
ATOM     17  N   UNL A   1      34.810  22.398  25.491  1.00  0.00    -0.280 N 
ATOM     18  H   UNL A   1      35.128  22.095  26.372  1.00  0.00     0.180 HD
BRANCH  17  19
ATOM     19  C   UNL A   1      33.947  21.512  24.762  1.00  0.00     0.049 A 
ATOM     20  C   UNL A   1      33.514  17.732  24.387  1.00  0.00     0.044 C 
ATOM     21  C   UNL A   1      33.305  19.211  24.240  1.00  0.00    -0.049 A 
ATOM     22  C   UNL A   1      32.306  19.692  23.391  1.00  0.00     0.003 A 
ATOM     23  C   UNL A   1      34.100  20.130  24.946  1.00  0.00     0.030 A 
ATOM     24  C   UNL A   1      32.209  21.058  23.138  1.00  0.00     0.002 A 
ATOM     25  C   UNL A   1      33.078  21.956  23.767  1.00  0.00     0.027 A 
ENDBRANCH  17  19
ENDBRANCH  14  17
ENDBRANCH   8  14
ENDBRANCH   4   7
ENDBRANCH   2   3
ENDBRANCH   1   2
BRANCH   1  26
ATOM     26  C   UNL A   1      33.207  30.458  27.356  1.00  0.00     0.118 C 
BRANCH  26  27
ATOM     27  N   UNL A   1      34.113  31.549  27.727  1.00  0.00    -0.352 N 
ATOM     28  C   UNL A   1      35.383  31.522  28.288  1.00  0.00     0.251 C 
ATOM     29  H   UNL A   1      33.762  32.451  27.549  1.00  0.00     0.163 HD
ATOM     30  O   UNL A   1      35.931  32.589  28.543  1.00  0.00    -0.269 OA
BRANCH  28  31
ATOM     31  C   UNL A   1      36.116  30.236  28.400  1.00  0.00     0.039 A 
ATOM     32  C   UNL A   1      36.296  29.706  29.684  1.00  0.00     0.014 A 
ATOM     33  C   UNL A   1      36.926  29.822  27.357  1.00  0.00     0.014 A 
ATOM     34  C   UNL A   1      37.489  29.056  29.985  1.00  0.00     0.010 A 
ATOM     35  C   UNL A   1      38.172  29.352  27.680  1.00  0.00     0.010 A 
ATOM     36  C   UNL A   1      38.473  29.026  29.010  1.00  0.00    -0.014 A 
BRANCH  36  37
ATOM     37  C   UNL A   1      39.862  28.666  29.219  1.00  0.00     0.031 A 
ATOM     38  C   UNL A   1      40.254  27.269  28.984  1.00  0.00     0.074 A 
ATOM     39  C   UNL A   1      40.784  29.650  29.282  1.00  0.00     0.049 A 
ATOM     40  N   UNL A   1      41.455  26.829  29.092  1.00  0.00    -0.248 NA
ATOM     41  C   UNL A   1      39.292  26.242  28.605  1.00  0.00     0.031 C 
ATOM     42  C   UNL A   1      42.195  29.577  28.915  1.00  0.00     0.029 A 
ATOM     43  N   UNL A   1      40.658  30.892  29.898  1.00  0.00    -0.354 N 
ATOM     44  C   UNL A   1      41.488  25.567  28.548  1.00  0.00     0.074 A 
ATOM     45  C   UNL A   1      40.106  25.221  28.331  1.00  0.00     0.031 C 
ATOM     46  C   UNL A   1      42.853  30.589  29.501  1.00  0.00     0.029 A 
ATOM     47  C   UNL A   1      41.925  31.215  30.422  1.00  0.00     0.049 A 
ATOM     48  H   UNL A   1      39.842  31.439  29.955  1.00  0.00     0.167 HD
ATOM     49  C   UNL A   1      42.708  25.044  28.242  1.00  0.00     0.034 A 
ATOM     50  C   UNL A   1      42.102  31.266  31.778  1.00  0.00     0.034 A 
ATOM     51  C   UNL A   1      43.781  25.881  28.816  1.00  0.00     0.049 A 
ATOM     52  C   UNL A   1      43.074  30.230  32.333  1.00  0.00     0.074 A 
ATOM     53  C   UNL A   1      44.678  26.810  28.313  1.00  0.00     0.029 A 
ATOM     54  N   UNL A   1      43.830  26.018  30.197  1.00  0.00    -0.354 N 
ATOM     55  N   UNL A   1      43.698  29.321  31.632  1.00  0.00    -0.248 NA
ATOM     56  C   UNL A   1      43.371  30.116  33.757  1.00  0.00     0.031 C 
ATOM     57  C   UNL A   1      45.250  27.518  29.414  1.00  0.00     0.029 A 
ATOM     58  C   UNL A   1      44.723  27.002  30.585  1.00  0.00     0.049 A 
ATOM     59  H   UNL A   1      43.294  25.480  30.824  1.00  0.00     0.167 HD
ATOM     60  C   UNL A   1      44.325  28.424  32.470  1.00  0.00     0.074 A 
ATOM     61  C   UNL A   1      44.119  29.000  33.792  1.00  0.00     0.031 C 
ATOM     62  C   UNL A   1      44.897  27.260  32.013  1.00  0.00     0.034 A 
BRANCH  49  63
ATOM     63  C   UNL A   1      42.973  23.908  27.266  1.00  0.00     0.023 A 
ATOM     64  C   UNL A   1      43.709  24.225  26.102  1.00  0.00     0.012 A 
ATOM     65  C   UNL A   1      42.495  22.576  27.338  1.00  0.00     0.148 A 
ATOM     66  C   UNL A   1      43.892  23.317  25.051  1.00  0.00     0.002 A 
ATOM     67  C   UNL A   1      42.648  21.677  26.280  1.00  0.00     0.091 A 
ATOM     68  F   UNL A   1      41.914  22.128  28.446  1.00  0.00    -0.205 F 
ATOM     69  C   UNL A   1      43.342  22.047  25.129  1.00  0.00     0.022 A 
BRANCH  67  70
ATOM     70  S   UNL A   1      41.921  20.024  26.299  1.00  0.00     0.127 S 
ATOM     71  O   UNL A   1      40.491  20.319  26.198  1.00  0.00    -0.237 OA
ATOM     72  O   UNL A   1      42.502  19.411  25.105  1.00  0.00    -0.237 OA
ATOM     73  O   UNL A   1      42.314  19.410  27.562  1.00  0.00    -0.744 OA
ENDBRANCH  67  70
ENDBRANCH  49  63
BRANCH  50  74
ATOM     74  C   UNL A   1      40.881  31.790  32.475  1.00  0.00     0.023 A 
ATOM     75  C   UNL A   1      39.873  30.842  32.787  1.00  0.00     0.012 A 
ATOM     76  C   UNL A   1      40.889  33.016  33.165  1.00  0.00     0.148 A 
ATOM     77  C   UNL A   1      39.008  31.039  33.864  1.00  0.00     0.002 A 
ATOM     78  C   UNL A   1      40.002  33.215  34.224  1.00  0.00     0.091 A 
ATOM     79  F   UNL A   1      41.797  33.940  32.824  1.00  0.00    -0.205 F 
ATOM     80  C   UNL A   1      39.098  32.211  34.605  1.00  0.00     0.022 A 
BRANCH  78  81
ATOM     81  S   UNL A   1      40.047  34.705  35.233  1.00  0.00     0.127 S 
ATOM     82  O   UNL A   1      38.950  35.480  34.657  1.00  0.00    -0.237 OA
ATOM     83  O   UNL A   1      39.789  34.185  36.576  1.00  0.00    -0.237 OA
ATOM     84  O   UNL A   1      41.383  35.249  35.052  1.00  0.00    -0.744 OA
ENDBRANCH  78  81
ENDBRANCH  50  74
BRANCH  62  85
ATOM     85  C   UNL A   1      45.592  26.190  32.868  1.00  0.00     0.023 A 
ATOM     86  C   UNL A   1      46.980  25.966  32.819  1.00  0.00     0.012 A 
ATOM     87  C   UNL A   1      44.862  25.315  33.726  1.00  0.00     0.148 A 
ATOM     88  C   UNL A   1      47.623  25.052  33.669  1.00  0.00     0.002 A 
ATOM     89  C   UNL A   1      45.498  24.409  34.571  1.00  0.00     0.091 A 
ATOM     90  F   UNL A   1      43.526  25.294  33.688  1.00  0.00    -0.205 F 
ATOM     91  C   UNL A   1      46.886  24.293  34.566  1.00  0.00     0.022 A 
BRANCH  89  92
ATOM     92  S   UNL A   1      44.579  23.354  35.706  1.00  0.00     0.127 S 
ATOM     93  O   UNL A   1      43.942  22.414  34.785  1.00  0.00    -0.237 OA
ATOM     94  O   UNL A   1      45.648  22.777  36.522  1.00  0.00    -0.237 OA
ATOM     95  O   UNL A   1      43.679  24.239  36.433  1.00  0.00    -0.744 OA
ENDBRANCH  89  92
ENDBRANCH  62  85
ENDBRANCH  36  37
ENDBRANCH  28  31
ENDBRANCH  26  27
ENDBRANCH   1  26
TORSDOF 16
ENDMDL
