MODEL 1
REMARK VINA RESULT:     -11.7      0.000      0.000
REMARK SMILES O=C(C[C@H]1C[C@H]2CC[C@@H](C1)N2C(=O)NCCC1CC1)NCCCNC(=O)c1ccc(-c2c3nc(c(-c4cccc(S(=O)(=O)[O-])c4F)c4ccc([nH]4)c(-c4cccc(S(=O)(=O)[O-])c4F)c4nc(c(-c5cccc(S(=O)(=O)[O-])c5F)c5ccc2[nH]5)C=C4)C=C3)cc1
REMARK SMILES IDX 21 1 20 2 1 3 2 4 3 6 4 7 5 8 10 9 6 10 9 11 7 12 11 13 8 14
REMARK SMILES IDX 12 15 13 16 14 17 15 19 16 20 17 21 18 22 19 23 22 24 23 25
REMARK SMILES IDX 24 26 25 27 26 29 27 30 28 31 89 32 29 33 88 34 30 35 31 36
REMARK SMILES IDX 32 37 82 38 33 39 87 40 81 41 83 42 34 43 86 44 80 45 79 46
REMARK SMILES IDX 35 48 67 49 47 50 66 51 48 52 51 53 65 54 84 55 49 56 50 57
REMARK SMILES IDX 64 59 85 60 52 61 36 62 37 63 45 64 38 65 40 66 46 67 39 68
REMARK SMILES IDX 41 69 42 70 43 71 44 72 68 73 69 74 77 75 70 76 72 77 78 78
REMARK SMILES IDX 71 79 73 80 74 81 75 82 76 83 53 84 54 85 62 86 55 87 57 88
REMARK SMILES IDX 63 89 56 90 58 91 59 92 60 93 61 94
REMARK H PARENT 20 5 14 18 24 28 83 47 51 58
REMARK Flexibility Score: inf
ROOT
ATOM      1  C   UNL A   1      34.017  21.572  26.480  1.00  0.00     0.117 C 
ENDROOT
BRANCH   1   2
ATOM      2  N   UNL A   1      32.951  22.551  26.516  1.00  0.00    -0.356 N 
ATOM      3  O   UNL A   1      31.614  21.718  24.857  1.00  0.00    -0.275 OA
ATOM      4  C   UNL A   1      31.838  22.572  25.711  1.00  0.00     0.220 C 
ATOM      5  H   UNL A   1      33.031  23.270  27.183  1.00  0.00     0.163 HD
BRANCH   4   6
ATOM      6  C   UNL A   1      30.945  23.818  25.848  1.00  0.00     0.103 C 
BRANCH   6   7
ATOM      7  C   UNL A   1      30.826  24.824  24.674  1.00  0.00     0.002 C 
ATOM      8  C   UNL A   1      30.147  26.163  24.970  1.00  0.00     0.029 C 
ATOM      9  C   UNL A   1      32.198  25.121  23.985  1.00  0.00     0.029 C 
ATOM     10  C   UNL A   1      31.098  27.189  25.604  1.00  0.00     0.087 C 
ATOM     11  C   UNL A   1      32.956  26.394  24.490  1.00  0.00     0.087 C 
ATOM     12  C   UNL A   1      32.082  26.721  26.702  1.00  0.00     0.027 C 
ATOM     13  N   UNL A   1      32.045  27.537  24.562  1.00  0.00    -0.319 N 
ATOM     14  C   UNL A   1      33.342  26.250  25.958  1.00  0.00     0.027 C 
BRANCH  13  15
ATOM     15  C   UNL A   1      32.082  28.836  24.179  1.00  0.00     0.317 C 
ATOM     16  O   UNL A   1      32.820  29.649  24.748  1.00  0.00    -0.249 OA
ATOM     17  N   UNL A   1      31.382  29.330  23.155  1.00  0.00    -0.338 N 
ATOM     18  H   UNL A   1      31.633  30.260  22.949  1.00  0.00     0.165 HD
BRANCH  17  19
ATOM     19  C   UNL A   1      30.350  28.836  22.274  1.00  0.00     0.118 C 
BRANCH  19  20
ATOM     20  C   UNL A   1      29.258  29.892  22.093  1.00  0.00     0.025 C 
BRANCH  20  21
ATOM     21  C   UNL A   1      28.884  30.510  23.415  1.00  0.00    -0.009 C 
ATOM     22  C   UNL A   1      28.899  32.004  23.610  1.00  0.00     0.004 C 
ATOM     23  C   UNL A   1      27.590  31.268  23.583  1.00  0.00     0.004 C 
ENDBRANCH  20  21
ENDBRANCH  19  20
ENDBRANCH  17  19
ENDBRANCH  13  15
ENDBRANCH   6   7
ENDBRANCH   4   6
ENDBRANCH   1   2
BRANCH   1  24
ATOM     24  C   UNL A   1      35.395  22.241  26.459  1.00  0.00     0.042 C 
BRANCH  24  25
ATOM     25  C   UNL A   1      36.278  21.987  25.232  1.00  0.00     0.118 C 
BRANCH  25  26
ATOM     26  N   UNL A   1      37.274  20.944  25.399  1.00  0.00    -0.352 N 
ATOM     27  C   UNL A   1      38.576  21.031  25.839  1.00  0.00     0.251 C 
ATOM     28  H   UNL A   1      36.973  20.038  25.160  1.00  0.00     0.163 HD
ATOM     29  O   UNL A   1      39.269  20.016  25.841  1.00  0.00    -0.269 OA
BRANCH  27  30
ATOM     30  C   UNL A   1      39.171  22.323  26.266  1.00  0.00     0.039 A 
ATOM     31  C   UNL A   1      40.227  22.287  27.183  1.00  0.00     0.014 A 
ATOM     32  C   UNL A   1      38.693  23.558  25.819  1.00  0.00     0.014 A 
ATOM     33  C   UNL A   1      40.832  23.474  27.610  1.00  0.00     0.010 A 
ATOM     34  C   UNL A   1      39.342  24.741  26.196  1.00  0.00     0.010 A 
ATOM     35  C   UNL A   1      40.414  24.716  27.102  1.00  0.00    -0.014 A 
BRANCH  35  36
ATOM     36  C   UNL A   1      41.099  25.972  27.525  1.00  0.00     0.031 A 
ATOM     37  C   UNL A   1      42.538  26.232  27.159  1.00  0.00     0.074 A 
ATOM     38  C   UNL A   1      40.435  26.881  28.269  1.00  0.00     0.049 A 
ATOM     39  N   UNL A   1      43.277  27.283  27.409  1.00  0.00    -0.248 NA
ATOM     40  C   UNL A   1      43.248  25.166  26.432  1.00  0.00     0.031 C 
ATOM     41  C   UNL A   1      39.063  26.732  28.759  1.00  0.00     0.029 A 
ATOM     42  N   UNL A   1      40.827  28.106  28.754  1.00  0.00    -0.354 N 
ATOM     43  C   UNL A   1      44.539  26.998  26.899  1.00  0.00     0.074 A 
ATOM     44  C   UNL A   1      44.476  25.658  26.356  1.00  0.00     0.031 C 
ATOM     45  C   UNL A   1      38.723  27.826  29.460  1.00  0.00     0.029 A 
ATOM     46  C   UNL A   1      39.858  28.744  29.494  1.00  0.00     0.049 A 
ATOM     47  H   UNL A   1      41.717  28.491  28.588  1.00  0.00     0.167 HD
ATOM     48  C   UNL A   1      45.642  27.785  26.855  1.00  0.00     0.034 A 
ATOM     49  C   UNL A   1      39.874  29.934  30.129  1.00  0.00     0.034 A 
ATOM     50  C   UNL A   1      45.701  29.130  27.366  1.00  0.00     0.049 A 
ATOM     51  C   UNL A   1      41.101  30.804  30.036  1.00  0.00     0.074 A 
ATOM     52  C   UNL A   1      46.752  30.029  27.300  1.00  0.00     0.029 A 
ATOM     53  N   UNL A   1      44.676  29.766  28.046  1.00  0.00    -0.354 N 
ATOM     54  N   UNL A   1      42.231  30.574  29.414  1.00  0.00    -0.248 NA
ATOM     55  C   UNL A   1      41.036  32.116  30.695  1.00  0.00     0.031 C 
ATOM     56  C   UNL A   1      46.372  31.198  27.970  1.00  0.00     0.029 A 
ATOM     57  C   UNL A   1      45.069  31.043  28.413  1.00  0.00     0.049 A 
ATOM     58  H   UNL A   1      43.795  29.369  28.241  1.00  0.00     0.167 HD
ATOM     59  C   UNL A   1      42.991  31.730  29.565  1.00  0.00     0.074 A 
ATOM     60  C   UNL A   1      42.186  32.663  30.325  1.00  0.00     0.031 C 
ATOM     61  C   UNL A   1      44.246  31.990  29.120  1.00  0.00     0.034 A 
BRANCH  48  62
ATOM     62  C   UNL A   1      46.876  27.225  26.192  1.00  0.00     0.023 A 
ATOM     63  C   UNL A   1      47.076  27.422  24.810  1.00  0.00     0.012 A 
ATOM     64  C   UNL A   1      47.866  26.561  26.943  1.00  0.00     0.148 A 
ATOM     65  C   UNL A   1      48.219  26.931  24.178  1.00  0.00     0.002 A 
ATOM     66  C   UNL A   1      49.025  26.117  26.316  1.00  0.00     0.091 A 
ATOM     67  F   UNL A   1      47.654  26.368  28.252  1.00  0.00    -0.205 F 
ATOM     68  C   UNL A   1      49.197  26.289  24.933  1.00  0.00     0.022 A 
BRANCH  66  69
ATOM     69  S   UNL A   1      50.382  25.352  27.211  1.00  0.00     0.127 S 
ATOM     70  O   UNL A   1      50.759  26.415  28.141  1.00  0.00    -0.237 OA
ATOM     71  O   UNL A   1      49.730  24.200  27.834  1.00  0.00    -0.237 OA
ATOM     72  O   UNL A   1      51.385  25.015  26.210  1.00  0.00    -0.744 OA
ENDBRANCH  66  69
ENDBRANCH  48  62
BRANCH  49  73
ATOM     73  C   UNL A   1      38.665  30.409  30.860  1.00  0.00     0.023 A 
ATOM     74  C   UNL A   1      38.545  30.168  32.243  1.00  0.00     0.012 A 
ATOM     75  C   UNL A   1      37.636  31.104  30.193  1.00  0.00     0.148 A 
ATOM     76  C   UNL A   1      37.406  30.572  32.941  1.00  0.00     0.002 A 
ATOM     77  C   UNL A   1      36.532  31.554  30.906  1.00  0.00     0.091 A 
ATOM     78  F   UNL A   1      37.764  31.315  28.876  1.00  0.00    -0.205 F 
ATOM     79  C   UNL A   1      36.404  31.272  32.275  1.00  0.00     0.022 A 
BRANCH  77  80
ATOM     80  S   UNL A   1      35.254  32.573  30.161  1.00  0.00     0.127 S 
ATOM     81  O   UNL A   1      34.776  31.713  29.082  1.00  0.00    -0.237 OA
ATOM     82  O   UNL A   1      34.320  32.745  31.274  1.00  0.00    -0.237 OA
ATOM     83  O   UNL A   1      35.922  33.800  29.742  1.00  0.00    -0.744 OA
ENDBRANCH  77  80
ENDBRANCH  49  73
BRANCH  61  84
ATOM     84  C   UNL A   1      44.814  33.361  29.383  1.00  0.00     0.023 A 
ATOM     85  C   UNL A   1      45.516  33.626  30.576  1.00  0.00     0.012 A 
ATOM     86  C   UNL A   1      44.699  34.377  28.412  1.00  0.00     0.148 A 
ATOM     87  C   UNL A   1      46.054  34.890  30.817  1.00  0.00     0.002 A 
ATOM     88  C   UNL A   1      45.285  35.617  28.635  1.00  0.00     0.091 A 
ATOM     89  F   UNL A   1      44.012  34.116  27.291  1.00  0.00    -0.205 F 
ATOM     90  C   UNL A   1      45.949  35.881  29.843  1.00  0.00     0.022 A 
BRANCH  88  91
ATOM     91  S   UNL A   1      45.286  36.917  27.395  1.00  0.00     0.127 S 
ATOM     92  O   UNL A   1      45.966  38.001  28.100  1.00  0.00    -0.237 OA
ATOM     93  O   UNL A   1      46.061  36.313  26.312  1.00  0.00    -0.237 OA
ATOM     94  O   UNL A   1      43.886  37.162  27.070  1.00  0.00    -0.744 OA
ENDBRANCH  88  91
ENDBRANCH  61  84
ENDBRANCH  35  36
ENDBRANCH  27  30
ENDBRANCH  25  26
ENDBRANCH  24  25
ENDBRANCH   1  24
TORSDOF 18
ENDMDL
MODEL 2
REMARK VINA RESULT:     -11.5      4.775     10.371
REMARK SMILES O=C(C[C@H]1C[C@H]2CC[C@@H](C1)N2C(=O)NCCC1CC1)NCCCNC(=O)c1ccc(-c2c3nc(c(-c4cccc(S(=O)(=O)[O-])c4F)c4ccc([nH]4)c(-c4cccc(S(=O)(=O)[O-])c4F)c4nc(c(-c5cccc(S(=O)(=O)[O-])c5F)c5ccc2[nH]5)C=C4)C=C3)cc1
REMARK SMILES IDX 21 1 20 2 1 3 2 4 3 6 4 7 5 8 10 9 6 10 9 11 7 12 11 13 8 14
REMARK SMILES IDX 12 15 13 16 14 17 15 19 16 20 17 21 18 22 19 23 22 24 23 25
REMARK SMILES IDX 24 26 25 27 26 29 27 30 28 31 89 32 29 33 88 34 30 35 31 36
REMARK SMILES IDX 32 37 82 38 33 39 87 40 81 41 83 42 34 43 86 44 80 45 79 46
REMARK SMILES IDX 35 48 67 49 47 50 66 51 48 52 51 53 65 54 84 55 49 56 50 57
REMARK SMILES IDX 64 59 85 60 52 61 36 62 37 63 45 64 38 65 40 66 46 67 39 68
REMARK SMILES IDX 41 69 42 70 43 71 44 72 68 73 69 74 77 75 70 76 72 77 78 78
REMARK SMILES IDX 71 79 73 80 74 81 75 82 76 83 53 84 54 85 62 86 55 87 57 88
REMARK SMILES IDX 63 89 56 90 58 91 59 92 60 93 61 94
REMARK H PARENT 20 5 14 18 24 28 83 47 51 58
REMARK Flexibility Score: inf
ROOT
ATOM      1  C   UNL A   1      32.791  28.969  23.760  1.00  0.00     0.117 C 
ENDROOT
BRANCH   1   2
ATOM      2  N   UNL A   1      32.541  27.569  23.488  1.00  0.00    -0.356 N 
ATOM      3  O   UNL A   1      33.883  27.292  21.656  1.00  0.00    -0.275 OA
ATOM      4  C   UNL A   1      33.082  26.829  22.465  1.00  0.00     0.220 C 
ATOM      5  H   UNL A   1      31.922  27.103  24.095  1.00  0.00     0.163 HD
BRANCH   4   6
ATOM      6  C   UNL A   1      32.517  25.407  22.305  1.00  0.00     0.103 C 
BRANCH   6   7
ATOM      7  C   UNL A   1      33.409  24.176  22.613  1.00  0.00     0.002 C 
ATOM      8  C   UNL A   1      34.274  24.241  23.874  1.00  0.00     0.029 C 
ATOM      9  C   UNL A   1      32.606  22.835  22.647  1.00  0.00     0.029 C 
ATOM     10  C   UNL A   1      33.504  23.859  25.148  1.00  0.00     0.087 C 
ATOM     11  C   UNL A   1      32.130  22.357  24.059  1.00  0.00     0.087 C 
ATOM     12  C   UNL A   1      32.063  24.387  25.340  1.00  0.00     0.027 C 
ATOM     13  N   UNL A   1      33.228  22.440  25.025  1.00  0.00    -0.319 N 
ATOM     14  C   UNL A   1      31.147  23.352  24.666  1.00  0.00     0.027 C 
BRANCH  13  15
ATOM     15  C   UNL A   1      33.746  21.631  25.980  1.00  0.00     0.317 C 
ATOM     16  O   UNL A   1      33.915  22.035  27.136  1.00  0.00    -0.249 OA
ATOM     17  N   UNL A   1      34.067  20.351  25.776  1.00  0.00    -0.338 N 
ATOM     18  H   UNL A   1      34.309  19.892  26.613  1.00  0.00     0.165 HD
BRANCH  17  19
ATOM     19  C   UNL A   1      34.146  19.474  24.632  1.00  0.00     0.118 C 
BRANCH  19  20
ATOM     20  C   UNL A   1      32.800  18.787  24.396  1.00  0.00     0.025 C 
BRANCH  20  21
ATOM     21  C   UNL A   1      32.978  17.504  23.627  1.00  0.00    -0.009 C 
ATOM     22  C   UNL A   1      34.329  16.850  23.501  1.00  0.00     0.004 C 
ATOM     23  C   UNL A   1      33.260  16.203  24.335  1.00  0.00     0.004 C 
ENDBRANCH  20  21
ENDBRANCH  19  20
ENDBRANCH  17  19
ENDBRANCH  13  15
ENDBRANCH   6   7
ENDBRANCH   4   6
ENDBRANCH   1   2
BRANCH   1  24
ATOM     24  C   UNL A   1      33.354  29.177  25.169  1.00  0.00     0.042 C 
BRANCH  24  25
ATOM     25  C   UNL A   1      32.368  29.607  26.260  1.00  0.00     0.118 C 
BRANCH  25  26
ATOM     26  N   UNL A   1      32.278  31.040  26.476  1.00  0.00    -0.352 N 
ATOM     27  C   UNL A   1      33.116  31.880  27.175  1.00  0.00     0.251 C 
ATOM     28  H   UNL A   1      31.501  31.477  26.060  1.00  0.00     0.163 HD
ATOM     29  O   UNL A   1      32.810  33.065  27.283  1.00  0.00    -0.269 OA
BRANCH  27  30
ATOM     30  C   UNL A   1      34.349  31.381  27.836  1.00  0.00     0.039 A 
ATOM     31  C   UNL A   1      35.433  32.258  27.948  1.00  0.00     0.014 A 
ATOM     32  C   UNL A   1      34.474  30.071  28.308  1.00  0.00     0.014 A 
ATOM     33  C   UNL A   1      36.615  31.842  28.572  1.00  0.00     0.010 A 
ATOM     34  C   UNL A   1      35.633  29.678  28.990  1.00  0.00     0.010 A 
ATOM     35  C   UNL A   1      36.721  30.555  29.124  1.00  0.00    -0.014 A 
BRANCH  35  36
ATOM     36  C   UNL A   1      37.967  30.139  29.832  1.00  0.00     0.031 A 
ATOM     37  C   UNL A   1      38.263  30.623  31.229  1.00  0.00     0.074 A 
ATOM     38  C   UNL A   1      38.858  29.341  29.209  1.00  0.00     0.049 A 
ATOM     39  N   UNL A   1      39.276  30.332  32.006  1.00  0.00    -0.248 NA
ATOM     40  C   UNL A   1      37.309  31.571  31.827  1.00  0.00     0.031 C 
ATOM     41  C   UNL A   1      38.740  28.854  27.833  1.00  0.00     0.029 A 
ATOM     42  N   UNL A   1      40.047  28.806  29.646  1.00  0.00    -0.354 N 
ATOM     43  C   UNL A   1      39.098  31.076  33.167  1.00  0.00     0.074 A 
ATOM     44  C   UNL A   1      37.898  31.861  32.978  1.00  0.00     0.031 C 
ATOM     45  C   UNL A   1      39.800  28.083  27.544  1.00  0.00     0.029 A 
ATOM     46  C   UNL A   1      40.690  28.039  28.702  1.00  0.00     0.049 A 
ATOM     47  H   UNL A   1      40.405  28.957  30.550  1.00  0.00     0.167 HD
ATOM     48  C   UNL A   1      39.843  31.086  34.299  1.00  0.00     0.034 A 
ATOM     49  C   UNL A   1      41.861  27.372  28.755  1.00  0.00     0.034 A 
ATOM     50  C   UNL A   1      41.021  30.283  34.505  1.00  0.00     0.049 A 
ATOM     51  C   UNL A   1      42.652  27.371  30.037  1.00  0.00     0.074 A 
ATOM     52  C   UNL A   1      41.797  30.172  35.645  1.00  0.00     0.029 A 
ATOM     53  N   UNL A   1      41.600  29.466  33.548  1.00  0.00    -0.354 N 
ATOM     54  N   UNL A   1      42.381  27.961  31.175  1.00  0.00    -0.248 NA
ATOM     55  C   UNL A   1      43.888  26.575  30.055  1.00  0.00     0.031 C 
ATOM     56  C   UNL A   1      42.865  29.311  35.367  1.00  0.00     0.029 A 
ATOM     57  C   UNL A   1      42.728  28.851  34.068  1.00  0.00     0.049 A 
ATOM     58  H   UNL A   1      41.260  29.339  32.632  1.00  0.00     0.167 HD
ATOM     59  C   UNL A   1      43.384  27.569  32.056  1.00  0.00     0.074 A 
ATOM     60  C   UNL A   1      44.259  26.680  31.324  1.00  0.00     0.031 C 
ATOM     61  C   UNL A   1      43.565  27.923  33.354  1.00  0.00     0.034 A 
BRANCH  48  62
ATOM     62  C   UNL A   1      39.383  31.969  35.433  1.00  0.00     0.023 A 
ATOM     63  C   UNL A   1      38.517  31.447  36.417  1.00  0.00     0.012 A 
ATOM     64  C   UNL A   1      39.853  33.291  35.561  1.00  0.00     0.148 A 
ATOM     65  C   UNL A   1      38.094  32.238  37.485  1.00  0.00     0.002 A 
ATOM     66  C   UNL A   1      39.465  34.058  36.654  1.00  0.00     0.091 A 
ATOM     67  F   UNL A   1      40.663  33.776  34.610  1.00  0.00    -0.205 F 
ATOM     68  C   UNL A   1      38.576  33.538  37.609  1.00  0.00     0.022 A 
BRANCH  66  69
ATOM     69  S   UNL A   1      40.095  35.714  36.951  1.00  0.00     0.127 S 
ATOM     70  O   UNL A   1      39.610  36.429  35.772  1.00  0.00    -0.237 OA
ATOM     71  O   UNL A   1      39.430  36.077  38.201  1.00  0.00    -0.237 OA
ATOM     72  O   UNL A   1      41.543  35.583  37.048  1.00  0.00    -0.744 OA
ENDBRANCH  66  69
ENDBRANCH  48  62
BRANCH  49  73
ATOM     73  C   UNL A   1      42.332  26.590  27.577  1.00  0.00     0.023 A 
ATOM     74  C   UNL A   1      43.095  27.225  26.577  1.00  0.00     0.012 A 
ATOM     75  C   UNL A   1      42.032  25.220  27.443  1.00  0.00     0.148 A 
ATOM     76  C   UNL A   1      43.517  26.522  25.448  1.00  0.00     0.002 A 
ATOM     77  C   UNL A   1      42.505  24.512  26.345  1.00  0.00     0.091 A 
ATOM     78  F   UNL A   1      41.296  24.636  28.399  1.00  0.00    -0.205 F 
ATOM     79  C   UNL A   1      43.230  25.165  25.336  1.00  0.00     0.022 A 
BRANCH  77  80
ATOM     80  S   UNL A   1      42.293  22.737  26.178  1.00  0.00     0.127 S 
ATOM     81  O   UNL A   1      42.910  22.482  24.879  1.00  0.00    -0.237 OA
ATOM     82  O   UNL A   1      43.043  22.235  27.328  1.00  0.00    -0.237 OA
ATOM     83  O   UNL A   1      40.854  22.503  26.251  1.00  0.00    -0.744 OA
ENDBRANCH  77  80
ENDBRANCH  49  73
BRANCH  61  84
ATOM     84  C   UNL A   1      44.720  27.299  34.096  1.00  0.00     0.023 A 
ATOM     85  C   UNL A   1      45.986  27.920  34.098  1.00  0.00     0.012 A 
ATOM     86  C   UNL A   1      44.531  26.119  34.844  1.00  0.00     0.148 A 
ATOM     87  C   UNL A   1      47.053  27.352  34.794  1.00  0.00     0.002 A 
ATOM     88  C   UNL A   1      45.585  25.590  35.579  1.00  0.00     0.091 A 
ATOM     89  F   UNL A   1      43.327  25.530  34.817  1.00  0.00    -0.205 F 
ATOM     90  C   UNL A   1      46.851  26.195  35.543  1.00  0.00     0.022 A 
BRANCH  88  91
ATOM     91  S   UNL A   1      45.387  24.162  36.651  1.00  0.00     0.127 S 
ATOM     92  O   UNL A   1      44.433  24.660  37.639  1.00  0.00    -0.237 OA
ATOM     93  O   UNL A   1      44.848  23.157  35.735  1.00  0.00    -0.237 OA
ATOM     94  O   UNL A   1      46.717  23.858  37.163  1.00  0.00    -0.744 OA
ENDBRANCH  88  91
ENDBRANCH  61  84
ENDBRANCH  35  36
ENDBRANCH  27  30
ENDBRANCH  25  26
ENDBRANCH  24  25
ENDBRANCH   1  24
TORSDOF 18
ENDMDL
MODEL 3
REMARK VINA RESULT:     -11.3      2.165      2.999
REMARK SMILES O=C(C[C@H]1C[C@H]2CC[C@@H](C1)N2C(=O)NCCC1CC1)NCCCNC(=O)c1ccc(-c2c3nc(c(-c4cccc(S(=O)(=O)[O-])c4F)c4ccc([nH]4)c(-c4cccc(S(=O)(=O)[O-])c4F)c4nc(c(-c5cccc(S(=O)(=O)[O-])c5F)c5ccc2[nH]5)C=C4)C=C3)cc1
REMARK SMILES IDX 21 1 20 2 1 3 2 4 3 6 4 7 5 8 10 9 6 10 9 11 7 12 11 13 8 14
REMARK SMILES IDX 12 15 13 16 14 17 15 19 16 20 17 21 18 22 19 23 22 24 23 25
REMARK SMILES IDX 24 26 25 27 26 29 27 30 28 31 89 32 29 33 88 34 30 35 31 36
REMARK SMILES IDX 32 37 82 38 33 39 87 40 81 41 83 42 34 43 86 44 80 45 79 46
REMARK SMILES IDX 35 48 67 49 47 50 66 51 48 52 51 53 65 54 84 55 49 56 50 57
REMARK SMILES IDX 64 59 85 60 52 61 36 62 37 63 45 64 38 65 40 66 46 67 39 68
REMARK SMILES IDX 41 69 42 70 43 71 44 72 68 73 69 74 77 75 70 76 72 77 78 78
REMARK SMILES IDX 71 79 73 80 74 81 75 82 76 83 53 84 54 85 62 86 55 87 57 88
REMARK SMILES IDX 63 89 56 90 58 91 59 92 60 93 61 94
REMARK H PARENT 20 5 14 18 24 28 83 47 51 58
REMARK Flexibility Score: inf
ROOT
ATOM      1  C   UNL A   1      34.836  22.078  26.554  1.00  0.00     0.117 C 
ENDROOT
BRANCH   1   2
ATOM      2  N   UNL A   1      33.506  22.327  26.040  1.00  0.00    -0.356 N 
ATOM      3  O   UNL A   1      33.676  21.273  24.017  1.00  0.00    -0.275 OA
ATOM      4  C   UNL A   1      33.016  21.927  24.820  1.00  0.00     0.220 C 
ATOM      5  H   UNL A   1      32.893  22.832  26.621  1.00  0.00     0.163 HD
BRANCH   4   6
ATOM      6  C   UNL A   1      31.623  22.468  24.456  1.00  0.00     0.103 C 
BRANCH   6   7
ATOM      7  C   UNL A   1      31.459  23.472  23.285  1.00  0.00     0.002 C 
ATOM      8  C   UNL A   1      30.218  24.368  23.305  1.00  0.00     0.029 C 
ATOM      9  C   UNL A   1      32.712  24.387  23.087  1.00  0.00     0.029 C 
ATOM     10  C   UNL A   1      30.390  25.609  24.194  1.00  0.00     0.087 C 
ATOM     11  C   UNL A   1      32.654  25.786  23.784  1.00  0.00     0.087 C 
ATOM     12  C   UNL A   1      31.083  25.455  25.569  1.00  0.00     0.027 C 
ATOM     13  N   UNL A   1      31.371  26.438  23.520  1.00  0.00    -0.319 N 
ATOM     14  C   UNL A   1      32.586  25.636  25.300  1.00  0.00     0.027 C 
BRANCH  13  15
ATOM     15  C   UNL A   1      30.967  27.674  23.140  1.00  0.00     0.317 C 
ATOM     16  O   UNL A   1      30.556  27.888  21.993  1.00  0.00    -0.249 OA
ATOM     17  N   UNL A   1      30.934  28.729  23.957  1.00  0.00    -0.338 N 
ATOM     18  H   UNL A   1      30.496  29.507  23.541  1.00  0.00     0.165 HD
BRANCH  17  19
ATOM     19  C   UNL A   1      31.381  29.011  25.301  1.00  0.00     0.118 C 
BRANCH  19  20
ATOM     20  C   UNL A   1      32.696  29.792  25.269  1.00  0.00     0.025 C 
BRANCH  20  21
ATOM     21  C   UNL A   1      33.375  29.757  26.614  1.00  0.00    -0.009 C 
ATOM     22  C   UNL A   1      33.286  28.542  27.502  1.00  0.00     0.004 C 
ATOM     23  C   UNL A   1      34.593  28.898  26.851  1.00  0.00     0.004 C 
ENDBRANCH  20  21
ENDBRANCH  19  20
ENDBRANCH  17  19
ENDBRANCH  13  15
ENDBRANCH   6   7
ENDBRANCH   4   6
ENDBRANCH   1   2
BRANCH   1  24
ATOM     24  C   UNL A   1      35.719  23.326  26.463  1.00  0.00     0.042 C 
BRANCH  24  25
ATOM     25  C   UNL A   1      36.904  23.276  25.493  1.00  0.00     0.118 C 
BRANCH  25  26
ATOM     26  N   UNL A   1      37.964  22.356  25.866  1.00  0.00    -0.352 N 
ATOM     27  C   UNL A   1      39.177  22.607  26.467  1.00  0.00     0.251 C 
ATOM     28  H   UNL A   1      37.789  21.411  25.657  1.00  0.00     0.163 HD
ATOM     29  O   UNL A   1      39.958  21.674  26.635  1.00  0.00    -0.269 OA
BRANCH  27  30
ATOM     30  C   UNL A   1      39.579  23.979  26.872  1.00  0.00     0.039 A 
ATOM     31  C   UNL A   1      39.392  24.348  28.208  1.00  0.00     0.014 A 
ATOM     32  C   UNL A   1      40.094  24.913  25.968  1.00  0.00     0.014 A 
ATOM     33  C   UNL A   1      39.764  25.624  28.646  1.00  0.00     0.010 A 
ATOM     34  C   UNL A   1      40.526  26.166  26.421  1.00  0.00     0.010 A 
ATOM     35  C   UNL A   1      40.359  26.541  27.763  1.00  0.00    -0.014 A 
BRANCH  35  36
ATOM     36  C   UNL A   1      40.799  27.880  28.252  1.00  0.00     0.031 A 
ATOM     37  C   UNL A   1      42.258  28.263  28.260  1.00  0.00     0.074 A 
ATOM     38  C   UNL A   1      39.886  28.757  28.720  1.00  0.00     0.049 A 
ATOM     39  N   UNL A   1      42.812  29.395  28.613  1.00  0.00    -0.248 NA
ATOM     40  C   UNL A   1      43.222  27.236  27.833  1.00  0.00     0.031 C 
ATOM     41  C   UNL A   1      38.450  28.498  28.840  1.00  0.00     0.029 A 
ATOM     42  N   UNL A   1      40.030  30.040  29.193  1.00  0.00    -0.354 N 
ATOM     43  C   UNL A   1      44.184  29.211  28.478  1.00  0.00     0.074 A 
ATOM     44  C   UNL A   1      44.380  27.845  28.045  1.00  0.00     0.031 C 
ATOM     45  C   UNL A   1      37.844  29.588  29.338  1.00  0.00     0.029 A 
ATOM     46  C   UNL A   1      38.848  30.617  29.599  1.00  0.00     0.049 A 
ATOM     47  H   UNL A   1      40.898  30.502  29.239  1.00  0.00     0.167 HD
ATOM     48  C   UNL A   1      45.189  30.101  28.666  1.00  0.00     0.034 A 
ATOM     49  C   UNL A   1      38.595  31.835  30.119  1.00  0.00     0.034 A 
ATOM     50  C   UNL A   1      44.997  31.471  29.066  1.00  0.00     0.049 A 
ATOM     51  C   UNL A   1      39.725  32.817  30.285  1.00  0.00     0.074 A 
ATOM     52  C   UNL A   1      45.949  32.466  29.210  1.00  0.00     0.029 A 
ATOM     53  N   UNL A   1      43.778  32.037  29.399  1.00  0.00    -0.354 N 
ATOM     54  N   UNL A   1      40.996  32.668  30.004  1.00  0.00    -0.248 NA
ATOM     55  C   UNL A   1      39.377  34.150  30.798  1.00  0.00     0.031 C 
ATOM     56  C   UNL A   1      45.308  33.625  29.661  1.00  0.00     0.029 A 
ATOM     57  C   UNL A   1      43.951  33.365  29.755  1.00  0.00     0.049 A 
ATOM     58  H   UNL A   1      42.913  31.565  29.385  1.00  0.00     0.167 HD
ATOM     59  C   UNL A   1      41.589  33.901  30.259  1.00  0.00     0.074 A 
ATOM     60  C   UNL A   1      40.535  34.788  30.703  1.00  0.00     0.031 C 
ATOM     61  C   UNL A   1      42.892  34.261  30.142  1.00  0.00     0.034 A 
BRANCH  48  62
ATOM     62  C   UNL A   1      46.598  29.633  28.398  1.00  0.00     0.023 A 
ATOM     63  C   UNL A   1      47.157  29.798  27.114  1.00  0.00     0.012 A 
ATOM     64  C   UNL A   1      47.390  29.089  29.429  1.00  0.00     0.148 A 
ATOM     65  C   UNL A   1      48.464  29.392  26.848  1.00  0.00     0.002 A 
ATOM     66  C   UNL A   1      48.708  28.730  29.169  1.00  0.00     0.091 A 
ATOM     67  F   UNL A   1      46.840  28.924  30.639  1.00  0.00    -0.205 F 
ATOM     68  C   UNL A   1      49.242  28.869  27.878  1.00  0.00     0.022 A 
BRANCH  66  69
ATOM     69  S   UNL A   1      49.819  28.125  30.444  1.00  0.00     0.127 S 
ATOM     70  O   UNL A   1      51.059  27.940  29.691  1.00  0.00    -0.237 OA
ATOM     71  O   UNL A   1      49.840  29.239  31.390  1.00  0.00    -0.237 OA
ATOM     72  O   UNL A   1      49.215  26.902  30.957  1.00  0.00    -0.744 OA
ENDBRANCH  66  69
ENDBRANCH  48  62
BRANCH  49  73
ATOM     73  C   UNL A   1      37.198  32.225  30.464  1.00  0.00     0.023 A 
ATOM     74  C   UNL A   1      36.709  31.993  31.766  1.00  0.00     0.012 A 
ATOM     75  C   UNL A   1      36.353  32.829  29.513  1.00  0.00     0.148 A 
ATOM     76  C   UNL A   1      35.394  32.317  32.102  1.00  0.00     0.002 A 
ATOM     77  C   UNL A   1      35.064  33.203  29.871  1.00  0.00     0.091 A 
ATOM     78  F   UNL A   1      36.832  33.032  28.278  1.00  0.00    -0.205 F 
ATOM     79  C   UNL A   1      34.575  32.930  31.159  1.00  0.00     0.022 A 
BRANCH  77  80
ATOM     80  S   UNL A   1      33.980  34.110  28.764  1.00  0.00     0.127 S 
ATOM     81  O   UNL A   1      34.859  35.174  28.287  1.00  0.00    -0.237 OA
ATOM     82  O   UNL A   1      33.646  33.092  27.769  1.00  0.00    -0.237 OA
ATOM     83  O   UNL A   1      32.852  34.542  29.583  1.00  0.00    -0.744 OA
ENDBRANCH  77  80
ENDBRANCH  49  73
BRANCH  61  84
ATOM     84  C   UNL A   1      43.253  35.695  30.437  1.00  0.00     0.023 A 
ATOM     85  C   UNL A   1      43.617  36.085  31.742  1.00  0.00     0.012 A 
ATOM     86  C   UNL A   1      43.288  36.648  29.398  1.00  0.00     0.148 A 
ATOM     87  C   UNL A   1      43.963  37.408  32.015  1.00  0.00     0.002 A 
ATOM     88  C   UNL A   1      43.687  37.950  29.668  1.00  0.00     0.091 A 
ATOM     89  F   UNL A   1      42.922  36.265  28.167  1.00  0.00    -0.205 F 
ATOM     90  C   UNL A   1      44.010  38.338  30.978  1.00  0.00     0.022 A 
BRANCH  88  91
ATOM     91  S   UNL A   1      43.874  39.185  28.377  1.00  0.00     0.127 S 
ATOM     92  O   UNL A   1      44.353  40.340  29.135  1.00  0.00    -0.237 OA
ATOM     93  O   UNL A   1      44.874  38.572  27.502  1.00  0.00    -0.237 OA
ATOM     94  O   UNL A   1      42.556  39.336  27.773  1.00  0.00    -0.744 OA
ENDBRANCH  88  91
ENDBRANCH  61  84
ENDBRANCH  35  36
ENDBRANCH  27  30
ENDBRANCH  25  26
ENDBRANCH  24  25
ENDBRANCH   1  24
TORSDOF 18
ENDMDL
