MODEL 1
REMARK VINA RESULT:     -10.2      0.000      0.000
REMARK SMILES CC(=O)/C=C(/C)NCC(=O)NCCCNC(=O)c1ccc(-c2c3nc(c(-c4cccc(S(=O)(=O)[O-])c4F)c4ccc([nH]4)c(-c4cccc(S(=O)(=O)[O-])c4F)c4nc(c(-c5cccc(S(=O)(=O)[O-])c5F)c5ccc2[nH]5)C=C4)C=C3)cc1
REMARK SMILES IDX 13 1 12 2 11 3 9 4 10 5 8 7 7 8 5 10 4 11 6 12 2 13 1 14
REMARK SMILES IDX 3 15 14 16 15 17 16 18 17 20 18 21 19 22 80 23 20 24 79 25
REMARK SMILES IDX 21 26 22 27 23 28 73 29 24 30 78 31 72 32 74 33 25 34 77 35
REMARK SMILES IDX 71 36 70 37 26 39 58 40 38 41 57 42 39 43 42 44 56 45 75 46
REMARK SMILES IDX 40 47 41 48 55 50 76 51 43 52 27 53 28 54 36 55 29 56 31 57
REMARK SMILES IDX 37 58 30 59 32 60 33 61 34 62 35 63 59 64 60 65 68 66 61 67
REMARK SMILES IDX 63 68 69 69 62 70 64 71 65 72 66 73 67 74 44 75 45 76 53 77
REMARK SMILES IDX 46 78 48 79 54 80 47 81 49 82 50 83 51 84 52 85
REMARK H PARENT 11 6 7 9 15 19 74 38 42 49
REMARK Flexibility Score: inf
ROOT
ATOM      1  C   UNL A   1      33.788  28.861  23.490  1.00  0.00     0.042 C 
ENDROOT
BRANCH   1   2
ATOM      2  C   UNL A   1      32.631  28.193  22.760  1.00  0.00     0.117 C 
BRANCH   2   3
ATOM      3  N   UNL A   1      33.073  27.287  21.719  1.00  0.00    -0.355 N 
ATOM      4  C   UNL A   1      32.770  25.979  21.493  1.00  0.00     0.239 C 
ATOM      5  O   UNL A   1      33.277  25.458  20.490  1.00  0.00    -0.273 OA
ATOM      6  H   UNL A   1      33.695  27.683  21.067  1.00  0.00     0.163 HD
BRANCH   4   7
ATOM      7  C   UNL A   1      31.783  25.175  22.353  1.00  0.00     0.213 C 
BRANCH   7   8
ATOM      8  N   UNL A   1      32.357  24.517  23.509  1.00  0.00    -0.380 N 
ATOM      9  H   UNL A   1      32.295  23.536  23.464  1.00  0.00     0.160 HD
BRANCH   8  10
ATOM     10  C   UNL A   1      32.970  24.968  24.664  1.00  0.00     0.011 C 
ATOM     11  C   UNL A   1      32.525  25.598  25.771  1.00  0.00     0.067 C 
ATOM     12  C   UNL A   1      34.490  24.779  24.596  1.00  0.00     0.064 C 
BRANCH  11  13
ATOM     13  C   UNL A   1      31.251  26.138  26.337  1.00  0.00     0.154 C 
ATOM     14  C   UNL A   1      29.903  25.581  26.009  1.00  0.00     0.093 C 
ATOM     15  O   UNL A   1      31.339  27.082  27.130  1.00  0.00    -0.295 OA
ENDBRANCH  11  13
ENDBRANCH   8  10
ENDBRANCH   7   8
ENDBRANCH   4   7
ENDBRANCH   2   3
ENDBRANCH   1   2
BRANCH   1  16
ATOM     16  C   UNL A   1      33.612  28.878  25.003  1.00  0.00     0.118 C 
BRANCH  16  17
ATOM     17  N   UNL A   1      32.938  30.081  25.475  1.00  0.00    -0.352 N 
ATOM     18  C   UNL A   1      33.160  30.838  26.597  1.00  0.00     0.251 C 
ATOM     19  H   UNL A   1      32.207  30.400  24.897  1.00  0.00     0.163 HD
ATOM     20  O   UNL A   1      32.362  31.723  26.891  1.00  0.00    -0.269 OA
BRANCH  18  21
ATOM     21  C   UNL A   1      34.336  30.584  27.457  1.00  0.00     0.039 A 
ATOM     22  C   UNL A   1      34.423  29.360  28.124  1.00  0.00     0.014 A 
ATOM     23  C   UNL A   1      35.338  31.543  27.626  1.00  0.00     0.014 A 
ATOM     24  C   UNL A   1      35.539  29.078  28.913  1.00  0.00     0.010 A 
ATOM     25  C   UNL A   1      36.490  31.228  28.341  1.00  0.00     0.010 A 
ATOM     26  C   UNL A   1      36.600  29.994  28.999  1.00  0.00    -0.014 A 
BRANCH  26  27
ATOM     27  C   UNL A   1      37.836  29.658  29.752  1.00  0.00     0.031 A 
ATOM     28  C   UNL A   1      38.088  30.239  31.117  1.00  0.00     0.074 A 
ATOM     29  C   UNL A   1      38.766  28.874  29.171  1.00  0.00     0.049 A 
ATOM     30  N   UNL A   1      39.111  30.057  31.912  1.00  0.00    -0.248 NA
ATOM     31  C   UNL A   1      37.075  31.165  31.653  1.00  0.00     0.031 C 
ATOM     32  C   UNL A   1      38.680  28.322  27.816  1.00  0.00     0.029 A 
ATOM     33  N   UNL A   1      39.975  28.420  29.636  1.00  0.00    -0.354 N 
ATOM     34  C   UNL A   1      38.884  30.863  33.020  1.00  0.00     0.074 A 
ATOM     35  C   UNL A   1      37.642  31.564  32.783  1.00  0.00     0.031 C 
ATOM     36  C   UNL A   1      39.779  27.595  27.566  1.00  0.00     0.029 A 
ATOM     37  C   UNL A   1      40.664  27.655  28.725  1.00  0.00     0.049 A 
ATOM     38  H   UNL A   1      40.317  28.623  30.537  1.00  0.00     0.167 HD
ATOM     39  C   UNL A   1      39.627  30.988  34.147  1.00  0.00     0.034 A 
ATOM     40  C   UNL A   1      41.875  27.072  28.807  1.00  0.00     0.034 A 
ATOM     41  C   UNL A   1      40.844  30.263  34.394  1.00  0.00     0.049 A 
ATOM     42  C   UNL A   1      42.657  27.193  30.086  1.00  0.00     0.074 A 
ATOM     43  C   UNL A   1      41.619  30.249  35.540  1.00  0.00     0.029 A 
ATOM     44  N   UNL A   1      41.473  29.435  33.477  1.00  0.00    -0.354 N 
ATOM     45  N   UNL A   1      42.340  27.824  31.191  1.00  0.00    -0.248 NA
ATOM     46  C   UNL A   1      43.946  26.489  30.145  1.00  0.00     0.031 C 
ATOM     47  C   UNL A   1      42.737  29.443  35.304  1.00  0.00     0.029 A 
ATOM     48  C   UNL A   1      42.636  28.919  34.026  1.00  0.00     0.049 A 
ATOM     49  H   UNL A   1      41.143  29.241  32.571  1.00  0.00     0.167 HD
ATOM     50  C   UNL A   1      43.372  27.567  32.085  1.00  0.00     0.074 A 
ATOM     51  C   UNL A   1      44.309  26.697  31.402  1.00  0.00     0.031 C 
ATOM     52  C   UNL A   1      43.540  28.022  33.352  1.00  0.00     0.034 A 
BRANCH  39  53
ATOM     53  C   UNL A   1      39.123  31.914  35.223  1.00  0.00     0.023 A 
ATOM     54  C   UNL A   1      39.217  33.310  35.046  1.00  0.00     0.012 A 
ATOM     55  C   UNL A   1      38.489  31.408  36.375  1.00  0.00     0.148 A 
ATOM     56  C   UNL A   1      38.717  34.186  36.009  1.00  0.00     0.002 A 
ATOM     57  C   UNL A   1      37.951  32.286  37.307  1.00  0.00     0.091 A 
ATOM     58  F   UNL A   1      38.425  30.078  36.536  1.00  0.00    -0.205 F 
ATOM     59  C   UNL A   1      38.075  33.675  37.133  1.00  0.00     0.022 A 
BRANCH  57  60
ATOM     60  S   UNL A   1      37.030  31.730  38.747  1.00  0.00     0.127 S 
ATOM     61  O   UNL A   1      38.004  31.941  39.818  1.00  0.00    -0.237 OA
ATOM     62  O   UNL A   1      35.898  32.657  38.762  1.00  0.00    -0.237 OA
ATOM     63  O   UNL A   1      36.679  30.342  38.490  1.00  0.00    -0.744 OA
ENDBRANCH  57  60
ENDBRANCH  39  53
BRANCH  40  64
ATOM     64  C   UNL A   1      42.402  26.277  27.662  1.00  0.00     0.023 A 
ATOM     65  C   UNL A   1      43.286  26.877  26.743  1.00  0.00     0.012 A 
ATOM     66  C   UNL A   1      42.045  24.926  27.486  1.00  0.00     0.148 A 
ATOM     67  C   UNL A   1      43.771  26.160  25.650  1.00  0.00     0.002 A 
ATOM     68  C   UNL A   1      42.580  24.199  26.430  1.00  0.00     0.091 A 
ATOM     69  F   UNL A   1      41.196  24.375  28.366  1.00  0.00    -0.205 F 
ATOM     70  C   UNL A   1      43.426  24.819  25.498  1.00  0.00     0.022 A 
BRANCH  68  71
ATOM     71  S   UNL A   1      42.299  22.436  26.239  1.00  0.00     0.127 S 
ATOM     72  O   UNL A   1      40.844  22.375  26.126  1.00  0.00    -0.237 OA
ATOM     73  O   UNL A   1      43.026  22.147  25.001  1.00  0.00    -0.237 OA
ATOM     74  O   UNL A   1      42.870  21.815  27.426  1.00  0.00    -0.744 OA
ENDBRANCH  68  71
ENDBRANCH  40  64
BRANCH  52  75
ATOM     75  C   UNL A   1      44.765  27.563  34.099  1.00  0.00     0.023 A 
ATOM     76  C   UNL A   1      45.945  28.334  34.063  1.00  0.00     0.012 A 
ATOM     77  C   UNL A   1      44.734  26.388  34.876  1.00  0.00     0.148 A 
ATOM     78  C   UNL A   1      47.085  27.921  34.751  1.00  0.00     0.002 A 
ATOM     79  C   UNL A   1      45.856  26.011  35.603  1.00  0.00     0.091 A 
ATOM     80  F   UNL A   1      43.609  25.657  34.886  1.00  0.00    -0.205 F 
ATOM     81  C   UNL A   1      47.038  26.766  35.528  1.00  0.00     0.022 A 
BRANCH  79  82
ATOM     82  S   UNL A   1      45.857  24.595  36.709  1.00  0.00     0.127 S 
ATOM     83  O   UNL A   1      45.731  23.483  35.768  1.00  0.00    -0.237 OA
ATOM     84  O   UNL A   1      47.166  24.706  37.353  1.00  0.00    -0.237 OA
ATOM     85  O   UNL A   1      44.725  24.787  37.606  1.00  0.00    -0.744 OA
ENDBRANCH  79  82
ENDBRANCH  52  75
ENDBRANCH  26  27
ENDBRANCH  18  21
ENDBRANCH  16  17
ENDBRANCH   1  16
TORSDOF 16
ENDMDL
MODEL 2
REMARK VINA RESULT:     -10.2      5.887     10.708
REMARK SMILES CC(=O)/C=C(/C)NCC(=O)NCCCNC(=O)c1ccc(-c2c3nc(c(-c4cccc(S(=O)(=O)[O-])c4F)c4ccc([nH]4)c(-c4cccc(S(=O)(=O)[O-])c4F)c4nc(c(-c5cccc(S(=O)(=O)[O-])c5F)c5ccc2[nH]5)C=C4)C=C3)cc1
REMARK SMILES IDX 13 1 12 2 11 3 9 4 10 5 8 7 7 8 5 10 4 11 6 12 2 13 1 14
REMARK SMILES IDX 3 15 14 16 15 17 16 18 17 20 18 21 19 22 80 23 20 24 79 25
REMARK SMILES IDX 21 26 22 27 23 28 73 29 24 30 78 31 72 32 74 33 25 34 77 35
REMARK SMILES IDX 71 36 70 37 26 39 58 40 38 41 57 42 39 43 42 44 56 45 75 46
REMARK SMILES IDX 40 47 41 48 55 50 76 51 43 52 27 53 28 54 36 55 29 56 31 57
REMARK SMILES IDX 37 58 30 59 32 60 33 61 34 62 35 63 59 64 60 65 68 66 61 67
REMARK SMILES IDX 63 68 69 69 62 70 64 71 65 72 66 73 67 74 44 75 45 76 53 77
REMARK SMILES IDX 46 78 48 79 54 80 47 81 49 82 50 83 51 84 52 85
REMARK H PARENT 11 6 7 9 15 19 74 38 42 49
REMARK Flexibility Score: inf
ROOT
ATOM      1  C   UNL A   1      35.780  21.626  25.829  1.00  0.00     0.042 C 
ENDROOT
BRANCH   1   2
ATOM      2  C   UNL A   1      34.756  22.690  25.456  1.00  0.00     0.117 C 
BRANCH   2   3
ATOM      3  N   UNL A   1      33.874  23.029  26.554  1.00  0.00    -0.355 N 
ATOM      4  C   UNL A   1      32.523  22.911  26.677  1.00  0.00     0.239 C 
ATOM      5  O   UNL A   1      32.033  23.256  27.761  1.00  0.00    -0.273 OA
ATOM      6  H   UNL A   1      34.327  23.408  27.342  1.00  0.00     0.163 HD
BRANCH   4   7
ATOM      7  C   UNL A   1      31.622  22.301  25.592  1.00  0.00     0.213 C 
BRANCH   7   8
ATOM      8  N   UNL A   1      31.907  20.923  25.247  1.00  0.00    -0.380 N 
ATOM      9  H   UNL A   1      31.825  20.310  26.012  1.00  0.00     0.160 HD
BRANCH   8  10
ATOM     10  C   UNL A   1      32.270  20.283  24.076  1.00  0.00     0.011 C 
ATOM     11  C   UNL A   1      32.675  19.029  23.786  1.00  0.00     0.067 C 
ATOM     12  C   UNL A   1      32.296  21.259  22.894  1.00  0.00     0.064 C 
BRANCH  11  13
ATOM     13  C   UNL A   1      32.959  17.737  24.482  1.00  0.00     0.154 C 
ATOM     14  C   UNL A   1      34.230  16.969  24.305  1.00  0.00     0.093 C 
ATOM     15  O   UNL A   1      32.094  17.306  25.252  1.00  0.00    -0.295 OA
ENDBRANCH  11  13
ENDBRANCH   8  10
ENDBRANCH   7   8
ENDBRANCH   4   7
ENDBRANCH   2   3
ENDBRANCH   1   2
BRANCH   1  16
ATOM     16  C   UNL A   1      37.163  21.895  25.249  1.00  0.00     0.118 C 
BRANCH  16  17
ATOM     17  N   UNL A   1      38.149  20.910  25.674  1.00  0.00    -0.352 N 
ATOM     18  C   UNL A   1      39.390  21.084  26.233  1.00  0.00     0.251 C 
ATOM     19  H   UNL A   1      37.882  19.971  25.540  1.00  0.00     0.163 HD
ATOM     20  O   UNL A   1      40.130  20.114  26.363  1.00  0.00    -0.269 OA
BRANCH  18  21
ATOM     21  C   UNL A   1      39.844  22.426  26.657  1.00  0.00     0.039 A 
ATOM     22  C   UNL A   1      40.856  22.516  27.615  1.00  0.00     0.014 A 
ATOM     23  C   UNL A   1      39.270  23.589  26.136  1.00  0.00     0.014 A 
ATOM     24  C   UNL A   1      41.330  23.769  28.007  1.00  0.00     0.010 A 
ATOM     25  C   UNL A   1      39.802  24.833  26.462  1.00  0.00     0.010 A 
ATOM     26  C   UNL A   1      40.834  24.938  27.407  1.00  0.00    -0.014 A 
BRANCH  26  27
ATOM     27  C   UNL A   1      41.406  26.267  27.743  1.00  0.00     0.031 A 
ATOM     28  C   UNL A   1      42.814  26.621  27.349  1.00  0.00     0.074 A 
ATOM     29  C   UNL A   1      40.670  27.134  28.467  1.00  0.00     0.049 A 
ATOM     30  N   UNL A   1      43.473  27.731  27.564  1.00  0.00    -0.248 NA
ATOM     31  C   UNL A   1      43.596  25.591  26.644  1.00  0.00     0.031 C 
ATOM     32  C   UNL A   1      39.325  26.873  28.987  1.00  0.00     0.029 A 
ATOM     33  N   UNL A   1      40.955  28.403  28.908  1.00  0.00    -0.354 N 
ATOM     34  C   UNL A   1      44.749  27.524  27.053  1.00  0.00     0.074 A 
ATOM     35  C   UNL A   1      44.784  26.170  26.547  1.00  0.00     0.031 C 
ATOM     36  C   UNL A   1      38.897  27.950  29.663  1.00  0.00     0.029 A 
ATOM     37  C   UNL A   1      39.946  28.965  29.655  1.00  0.00     0.049 A 
ATOM     38  H   UNL A   1      41.800  28.866  28.709  1.00  0.00     0.167 HD
ATOM     39  C   UNL A   1      45.788  28.391  26.985  1.00  0.00     0.034 A 
ATOM     40  C   UNL A   1      39.874  30.160  30.273  1.00  0.00     0.034 A 
ATOM     41  C   UNL A   1      45.737  29.748  27.459  1.00  0.00     0.049 A 
ATOM     42  C   UNL A   1      41.027  31.118  30.143  1.00  0.00     0.074 A 
ATOM     43  C   UNL A   1      46.704  30.732  27.352  1.00  0.00     0.029 A 
ATOM     44  N   UNL A   1      44.670  30.310  28.142  1.00  0.00    -0.354 N 
ATOM     45  N   UNL A   1      42.162  30.962  29.505  1.00  0.00    -0.248 NA
ATOM     46  C   UNL A   1      40.874  32.431  30.786  1.00  0.00     0.031 C 
ATOM     47  C   UNL A   1      46.237  31.878  28.003  1.00  0.00     0.029 A 
ATOM     48  C   UNL A   1      44.961  31.622  28.479  1.00  0.00     0.049 A 
ATOM     49  H   UNL A   1      43.829  29.846  28.357  1.00  0.00     0.167 HD
ATOM     50  C   UNL A   1      42.843  32.166  29.641  1.00  0.00     0.074 A 
ATOM     51  C   UNL A   1      41.979  33.051  30.397  1.00  0.00     0.031 C 
ATOM     52  C   UNL A   1      44.078  32.505  29.196  1.00  0.00     0.034 A 
BRANCH  39  53
ATOM     53  C   UNL A   1      47.062  27.914  26.336  1.00  0.00     0.023 A 
ATOM     54  C   UNL A   1      48.044  27.268  27.115  1.00  0.00     0.012 A 
ATOM     55  C   UNL A   1      47.255  28.037  24.946  1.00  0.00     0.148 A 
ATOM     56  C   UNL A   1      49.211  26.779  26.527  1.00  0.00     0.002 A 
ATOM     57  C   UNL A   1      48.397  27.505  24.360  1.00  0.00     0.091 A 
ATOM     58  F   UNL A   1      46.319  28.670  24.225  1.00  0.00    -0.205 F 
ATOM     59  C   UNL A   1      49.381  26.888  25.150  1.00  0.00     0.022 A 
BRANCH  57  60
ATOM     60  S   UNL A   1      48.674  27.517  22.585  1.00  0.00     0.127 S 
ATOM     61  O   UNL A   1      49.983  28.164  22.495  1.00  0.00    -0.237 OA
ATOM     62  O   UNL A   1      48.676  26.089  22.266  1.00  0.00    -0.237 OA
ATOM     63  O   UNL A   1      47.569  28.269  22.009  1.00  0.00    -0.744 OA
ENDBRANCH  57  60
ENDBRANCH  39  53
BRANCH  40  64
ATOM     64  C   UNL A   1      38.647  30.540  31.027  1.00  0.00     0.023 A 
ATOM     65  C   UNL A   1      38.520  30.179  32.383  1.00  0.00     0.012 A 
ATOM     66  C   UNL A   1      37.610  31.270  30.413  1.00  0.00     0.148 A 
ATOM     67  C   UNL A   1      37.369  30.502  33.100  1.00  0.00     0.002 A 
ATOM     68  C   UNL A   1      36.493  31.641  31.150  1.00  0.00     0.091 A 
ATOM     69  F   UNL A   1      37.745  31.596  29.119  1.00  0.00    -0.205 F 
ATOM     70  C   UNL A   1      36.360  31.240  32.488  1.00  0.00     0.022 A 
BRANCH  68  71
ATOM     71  S   UNL A   1      35.213  32.707  30.480  1.00  0.00     0.127 S 
ATOM     72  O   UNL A   1      34.737  31.927  29.342  1.00  0.00    -0.237 OA
ATOM     73  O   UNL A   1      34.276  32.796  31.602  1.00  0.00    -0.237 OA
ATOM     74  O   UNL A   1      35.876  33.964  30.156  1.00  0.00    -0.744 OA
ENDBRANCH  68  71
ENDBRANCH  40  64
BRANCH  52  75
ATOM     75  C   UNL A   1      44.560  33.904  29.483  1.00  0.00     0.023 A 
ATOM     76  C   UNL A   1      45.143  34.207  30.730  1.00  0.00     0.012 A 
ATOM     77  C   UNL A   1      44.478  34.908  28.498  1.00  0.00     0.148 A 
ATOM     78  C   UNL A   1      45.595  35.497  31.008  1.00  0.00     0.002 A 
ATOM     79  C   UNL A   1      44.980  36.176  28.763  1.00  0.00     0.091 A 
ATOM     80  F   UNL A   1      43.905  34.607  27.323  1.00  0.00    -0.205 F 
ATOM     81  C   UNL A   1      45.523  36.478  30.023  1.00  0.00     0.022 A 
BRANCH  79  82
ATOM     82  S   UNL A   1      45.020  37.474  27.521  1.00  0.00     0.127 S 
ATOM     83  O   UNL A   1      45.839  36.862  26.476  1.00  0.00    -0.237 OA
ATOM     84  O   UNL A   1      43.605  37.622  27.181  1.00  0.00    -0.237 OA
ATOM     85  O   UNL A   1      45.607  38.636  28.176  1.00  0.00    -0.744 OA
ENDBRANCH  79  82
ENDBRANCH  52  75
ENDBRANCH  26  27
ENDBRANCH  18  21
ENDBRANCH  16  17
ENDBRANCH   1  16
TORSDOF 16
ENDMDL
MODEL 3
REMARK VINA RESULT:     -10.1      2.929      3.923
REMARK SMILES CC(=O)/C=C(/C)NCC(=O)NCCCNC(=O)c1ccc(-c2c3nc(c(-c4cccc(S(=O)(=O)[O-])c4F)c4ccc([nH]4)c(-c4cccc(S(=O)(=O)[O-])c4F)c4nc(c(-c5cccc(S(=O)(=O)[O-])c5F)c5ccc2[nH]5)C=C4)C=C3)cc1
REMARK SMILES IDX 13 1 12 2 11 3 9 4 10 5 8 7 7 8 5 10 4 11 6 12 2 13 1 14
REMARK SMILES IDX 3 15 14 16 15 17 16 18 17 20 18 21 19 22 80 23 20 24 79 25
REMARK SMILES IDX 21 26 22 27 23 28 73 29 24 30 78 31 72 32 74 33 25 34 77 35
REMARK SMILES IDX 71 36 70 37 26 39 58 40 38 41 57 42 39 43 42 44 56 45 75 46
REMARK SMILES IDX 40 47 41 48 55 50 76 51 43 52 27 53 28 54 36 55 29 56 31 57
REMARK SMILES IDX 37 58 30 59 32 60 33 61 34 62 35 63 59 64 60 65 68 66 61 67
REMARK SMILES IDX 63 68 69 69 62 70 64 71 65 72 66 73 67 74 44 75 45 76 53 77
REMARK SMILES IDX 46 78 48 79 54 80 47 81 49 82 50 83 51 84 52 85
REMARK H PARENT 11 6 7 9 15 19 74 38 42 49
REMARK Flexibility Score: inf
ROOT
ATOM      1  C   UNL A   1      32.569  28.196  27.081  1.00  0.00     0.042 C 
ENDROOT
BRANCH   1   2
ATOM      2  C   UNL A   1      31.894  27.246  26.101  1.00  0.00     0.117 C 
BRANCH   2   3
ATOM      3  N   UNL A   1      31.356  26.064  26.745  1.00  0.00    -0.355 N 
ATOM      4  C   UNL A   1      31.518  24.744  26.455  1.00  0.00     0.239 C 
ATOM      5  O   UNL A   1      30.955  23.938  27.209  1.00  0.00    -0.273 OA
ATOM      6  H   UNL A   1      30.777  26.247  27.520  1.00  0.00     0.163 HD
BRANCH   4   7
ATOM      7  C   UNL A   1      32.416  24.228  25.321  1.00  0.00     0.213 C 
BRANCH   7   8
ATOM      8  N   UNL A   1      33.239  23.082  25.649  1.00  0.00    -0.380 N 
ATOM      9  H   UNL A   1      32.932  22.252  25.217  1.00  0.00     0.160 HD
BRANCH   8  10
ATOM     10  C   UNL A   1      34.361  22.900  26.437  1.00  0.00     0.011 C 
ATOM     11  C   UNL A   1      35.685  23.042  26.220  1.00  0.00     0.067 C 
ATOM     12  C   UNL A   1      33.989  22.327  27.809  1.00  0.00     0.064 C 
BRANCH  11  13
ATOM     13  C   UNL A   1      36.623  23.419  25.119  1.00  0.00     0.154 C 
ATOM     14  C   UNL A   1      36.347  23.149  23.674  1.00  0.00     0.093 C 
ATOM     15  O   UNL A   1      37.666  24.001  25.437  1.00  0.00    -0.295 OA
ENDBRANCH  11  13
ENDBRANCH   8  10
ENDBRANCH   7   8
ENDBRANCH   4   7
ENDBRANCH   2   3
ENDBRANCH   1   2
BRANCH   1  16
ATOM     16  C   UNL A   1      33.748  28.946  26.475  1.00  0.00     0.118 C 
BRANCH  16  17
ATOM     17  N   UNL A   1      33.778  30.349  26.865  1.00  0.00    -0.352 N 
ATOM     18  C   UNL A   1      34.663  31.026  27.667  1.00  0.00     0.251 C 
ATOM     19  H   UNL A   1      33.050  30.899  26.495  1.00  0.00     0.163 HD
ATOM     20  O   UNL A   1      34.406  32.179  28.001  1.00  0.00    -0.269 OA
BRANCH  18  21
ATOM     21  C   UNL A   1      35.901  30.374  28.141  1.00  0.00     0.039 A 
ATOM     22  C   UNL A   1      37.041  30.438  27.335  1.00  0.00     0.014 A 
ATOM     23  C   UNL A   1      35.945  29.685  29.357  1.00  0.00     0.014 A 
ATOM     24  C   UNL A   1      38.234  29.863  27.775  1.00  0.00     0.010 A 
ATOM     25  C   UNL A   1      37.155  29.189  29.833  1.00  0.00     0.010 A 
ATOM     26  C   UNL A   1      38.312  29.265  29.044  1.00  0.00    -0.014 A 
BRANCH  26  27
ATOM     27  C   UNL A   1      39.603  28.744  29.560  1.00  0.00     0.031 A 
ATOM     28  C   UNL A   1      40.313  29.433  30.695  1.00  0.00     0.074 A 
ATOM     29  C   UNL A   1      40.170  27.680  28.958  1.00  0.00     0.049 A 
ATOM     30  N   UNL A   1      41.447  29.117  31.267  1.00  0.00    -0.248 NA
ATOM     31  C   UNL A   1      39.686  30.647  31.245  1.00  0.00     0.031 C 
ATOM     32  C   UNL A   1      39.625  26.980  27.791  1.00  0.00     0.029 A 
ATOM     33  N   UNL A   1      41.338  27.012  29.228  1.00  0.00    -0.354 N 
ATOM     34  C   UNL A   1      41.685  30.103  32.216  1.00  0.00     0.074 A 
ATOM     35  C   UNL A   1      40.595  31.049  32.122  1.00  0.00     0.031 C 
ATOM     36  C   UNL A   1      40.449  25.975  27.456  1.00  0.00     0.029 A 
ATOM     37  C   UNL A   1      41.595  25.978  28.358  1.00  0.00     0.049 A 
ATOM     38  H   UNL A   1      41.935  27.249  29.974  1.00  0.00     0.167 HD
ATOM     39  C   UNL A   1      42.702  30.199  33.105  1.00  0.00     0.034 A 
ATOM     40  C   UNL A   1      42.640  25.131  28.288  1.00  0.00     0.034 A 
ATOM     41  C   UNL A   1      43.766  29.238  33.219  1.00  0.00     0.049 A 
ATOM     42  C   UNL A   1      43.734  25.235  29.316  1.00  0.00     0.074 A 
ATOM     43  C   UNL A   1      44.791  29.196  34.148  1.00  0.00     0.029 A 
ATOM     44  N   UNL A   1      43.953  28.158  32.371  1.00  0.00    -0.354 N 
ATOM     45  N   UNL A   1      43.850  26.076  30.316  1.00  0.00    -0.248 NA
ATOM     46  C   UNL A   1      44.821  24.249  29.230  1.00  0.00     0.031 C 
ATOM     47  C   UNL A   1      45.619  28.113  33.839  1.00  0.00     0.029 A 
ATOM     48  C   UNL A   1      45.086  27.454  32.743  1.00  0.00     0.049 A 
ATOM     49  H   UNL A   1      43.368  27.926  31.615  1.00  0.00     0.167 HD
ATOM     50  C   UNL A   1      45.002  25.701  30.996  1.00  0.00     0.074 A 
ATOM     51  C   UNL A   1      45.530  24.538  30.311  1.00  0.00     0.031 C 
ATOM     52  C   UNL A   1      45.581  26.275  32.079  1.00  0.00     0.034 A 
BRANCH  39  53
ATOM     53  C   UNL A   1      42.695  31.365  34.061  1.00  0.00     0.023 A 
ATOM     54  C   UNL A   1      43.367  32.556  33.716  1.00  0.00     0.012 A 
ATOM     55  C   UNL A   1      41.963  31.310  35.263  1.00  0.00     0.148 A 
ATOM     56  C   UNL A   1      43.336  33.662  34.565  1.00  0.00     0.002 A 
ATOM     57  C   UNL A   1      41.898  32.431  36.081  1.00  0.00     0.091 A 
ATOM     58  F   UNL A   1      41.347  30.163  35.584  1.00  0.00    -0.205 F 
ATOM     59  C   UNL A   1      42.593  33.603  35.741  1.00  0.00     0.022 A 
BRANCH  57  60
ATOM     60  S   UNL A   1      40.900  32.487  37.575  1.00  0.00     0.127 S 
ATOM     61  O   UNL A   1      39.702  31.759  37.156  1.00  0.00    -0.237 OA
ATOM     62  O   UNL A   1      41.744  31.773  38.533  1.00  0.00    -0.237 OA
ATOM     63  O   UNL A   1      40.697  33.897  37.872  1.00  0.00    -0.744 OA
ENDBRANCH  57  60
ENDBRANCH  39  53
BRANCH  40  64
ATOM     64  C   UNL A   1      42.679  24.076  27.236  1.00  0.00     0.023 A 
ATOM     65  C   UNL A   1      43.359  24.320  26.027  1.00  0.00     0.012 A 
ATOM     66  C   UNL A   1      42.057  22.827  27.433  1.00  0.00     0.148 A 
ATOM     67  C   UNL A   1      43.386  23.356  25.019  1.00  0.00     0.002 A 
ATOM     68  C   UNL A   1      42.140  21.849  26.449  1.00  0.00     0.091 A 
ATOM     69  F   UNL A   1      41.406  22.617  28.587  1.00  0.00    -0.205 F 
ATOM     70  C   UNL A   1      42.785  22.118  25.233  1.00  0.00     0.022 A 
BRANCH  68  71
ATOM     71  S   UNL A   1      41.514  20.185  26.697  1.00  0.00     0.127 S 
ATOM     72  O   UNL A   1      42.312  19.730  27.832  1.00  0.00    -0.237 OA
ATOM     73  O   UNL A   1      40.102  20.434  26.995  1.00  0.00    -0.237 OA
ATOM     74  O   UNL A   1      41.744  19.486  25.439  1.00  0.00    -0.744 OA
ENDBRANCH  68  71
ENDBRANCH  40  64
BRANCH  52  75
ATOM     75  C   UNL A   1      46.836  25.637  32.617  1.00  0.00     0.023 A 
ATOM     76  C   UNL A   1      46.767  24.768  33.724  1.00  0.00     0.012 A 
ATOM     77  C   UNL A   1      48.079  25.862  31.994  1.00  0.00     0.148 A 
ATOM     78  C   UNL A   1      47.920  24.170  34.231  1.00  0.00     0.002 A 
ATOM     79  C   UNL A   1      49.216  25.220  32.469  1.00  0.00     0.091 A 
ATOM     80  F   UNL A   1      48.130  26.705  30.951  1.00  0.00    -0.205 F 
ATOM     81  C   UNL A   1      49.142  24.387  33.598  1.00  0.00     0.022 A 
BRANCH  79  82
ATOM     82  S   UNL A   1      50.812  25.362  31.658  1.00  0.00     0.127 S 
ATOM     83  O   UNL A   1      51.173  26.748  31.949  1.00  0.00    -0.237 OA
ATOM     84  O   UNL A   1      51.610  24.361  32.367  1.00  0.00    -0.237 OA
ATOM     85  O   UNL A   1      50.576  25.059  30.253  1.00  0.00    -0.744 OA
ENDBRANCH  79  82
ENDBRANCH  52  75
ENDBRANCH  26  27
ENDBRANCH  18  21
ENDBRANCH  16  17
ENDBRANCH   1  16
TORSDOF 16
ENDMDL
