MODEL 1
REMARK VINA RESULT:     -12.9      0.000      0.000
REMARK SMILES Cc1ccc(NS(=O)(=O)c2cc(C(=O)Nc3ccccc3C(=O)NCCCNC(=O)c3ccc(-c4c5nc(c(-c6cccc(S(=O)(=O)[O-])c6F)c6ccc([nH]6)c(-c6cccc(S(=O)(=O)[O-])c6F)c6nc(c(-c7cccc(S(=O)(=O)[O-])c7F)c7ccc4[nH]7)C=C6)C=C5)cc3)ccc2Br)cc1
REMARK SMILES IDX 25 1 24 2 22 3 23 4 21 6 16 7 17 8 18 9 20 10 19 11 15 12
REMARK SMILES IDX 13 13 14 14 12 16 10 17 11 18 96 19 95 20 97 21 94 22 7 23
REMARK SMILES IDX 8 24 9 25 6 26 5 28 1 29 2 30 3 31 99 32 4 33 98 34 26 35
REMARK SMILES IDX 27 36 28 37 29 38 30 40 31 41 32 42 93 43 33 44 92 45 34 46
REMARK SMILES IDX 35 47 36 48 86 49 37 50 91 51 85 52 87 53 38 54 90 55 84 56
REMARK SMILES IDX 83 57 39 59 71 60 51 61 70 62 52 63 55 64 69 65 88 66 53 67
REMARK SMILES IDX 54 68 68 70 89 71 56 72 40 73 41 74 49 75 42 76 44 77 50 78
REMARK SMILES IDX 43 79 45 80 46 81 47 82 48 83 72 84 73 85 81 86 74 87 76 88
REMARK SMILES IDX 82 89 75 90 77 91 78 92 79 93 80 94 57 95 58 96 66 97 59 98
REMARK SMILES IDX 61 99 67 100 60 101 62 102 63 103 64 104 65 105
REMARK H PARENT 24 5 15 15 6 27 28 39 87 58 55 69
REMARK Flexibility Score: inf
ROOT
ATOM      1  C   UNL A   1      33.184  28.383  27.002  1.00  0.00     0.118 C 
ENDROOT
BRANCH   1   2
ATOM      2  N   UNL A   1      33.755  28.030  25.723  1.00  0.00    -0.352 N 
ATOM      3  C   UNL A   1      33.474  28.510  24.473  1.00  0.00     0.253 C 
ATOM      4  O   UNL A   1      34.316  28.368  23.591  1.00  0.00    -0.269 OA
ATOM      5  H   UNL A   1      34.453  27.337  25.756  1.00  0.00     0.163 HD
BRANCH   3   6
ATOM      6  C   UNL A   1      32.137  29.074  24.130  1.00  0.00     0.063 A 
ATOM      7  C   UNL A   1      31.312  28.444  22.630  1.00  0.00     0.054 A 
ATOM      8  C   UNL A   1      29.589  29.367  22.085  1.00  0.00     0.027 A 
ATOM      9  C   UNL A   1      28.895  30.645  23.148  1.00  0.00     0.002 A 
ATOM     10  C   UNL A   1      31.336  30.359  25.050  1.00  0.00     0.016 A 
ATOM     11  C   UNL A   1      29.780  31.091  24.587  1.00  0.00     0.001 A 
BRANCH   7  12
ATOM     12  N   UNL A   1      32.055  27.231  22.113  1.00  0.00    -0.321 N 
ATOM     13  C   UNL A   1      32.113  25.863  22.469  1.00  0.00     0.255 C 
ATOM     14  O   UNL A   1      32.778  25.114  21.746  1.00  0.00    -0.269 OA
ATOM     15  H   UNL A   1      32.635  27.444  21.346  1.00  0.00     0.170 HD
BRANCH  13  16
ATOM     16  C   UNL A   1      31.301  25.208  23.550  1.00  0.00     0.041 A 
ATOM     17  C   UNL A   1      31.244  23.259  25.010  1.00  0.00     0.102 A 
ATOM     18  C   UNL A   1      31.514  23.888  23.819  1.00  0.00     0.037 A 
ATOM     19  C   UNL A   1      30.311  23.845  25.835  1.00  0.00     0.038 A 
ATOM     20  C   UNL A   1      29.843  25.132  25.494  1.00  0.00     0.018 A 
ATOM     21  Br  UNL A   1      29.560  22.952  27.316  1.00  0.00    -0.049 Br
ATOM     22  C   UNL A   1      30.402  25.844  24.401  1.00  0.00     0.015 A 
BRANCH  17  23
ATOM     23  S   UNL A   1      32.384  21.949  25.429  1.00  0.00     0.263 S 
ATOM     24  O   UNL A   1      31.769  20.703  25.026  1.00  0.00    -0.201 OA
ATOM     25  O   UNL A   1      32.824  22.171  26.789  1.00  0.00    -0.201 OA
BRANCH  23  26
ATOM     26  N   UNL A   1      33.756  22.090  24.397  1.00  0.00    -0.280 N 
ATOM     27  H   UNL A   1      33.567  22.023  23.434  1.00  0.00     0.180 HD
BRANCH  26  28
ATOM     28  C   UNL A   1      35.226  22.303  24.762  1.00  0.00     0.049 A 
ATOM     29  C   UNL A   1      39.965  21.825  26.648  1.00  0.00     0.044 C 
ATOM     30  C   UNL A   1      38.660  22.014  25.927  1.00  0.00    -0.051 A 
ATOM     31  C   UNL A   1      37.786  20.617  25.252  1.00  0.00     0.005 A 
ATOM     32  C   UNL A   1      37.977  23.610  26.054  1.00  0.00     0.005 A 
ATOM     33  C   UNL A   1      36.113  20.715  24.662  1.00  0.00     0.027 A 
ATOM     34  C   UNL A   1      36.301  23.860  25.491  1.00  0.00     0.027 A 
ENDBRANCH  26  28
ENDBRANCH  23  26
ENDBRANCH  17  23
ENDBRANCH  13  16
ENDBRANCH   7  12
ENDBRANCH   3   6
ENDBRANCH   1   2
BRANCH   1  35
ATOM     35  C   UNL A   1      34.078  29.291  27.808  1.00  0.00     0.042 C 
BRANCH  35  36
ATOM     36  C   UNL A   1      34.834  30.257  26.934  1.00  0.00     0.118 C 
BRANCH  36  37
ATOM     37  N   UNL A   1      35.741  31.109  27.669  1.00  0.00    -0.352 N 
ATOM     38  C   UNL A   1      36.844  30.736  28.426  1.00  0.00     0.251 C 
ATOM     39  H   UNL A   1      35.553  32.075  27.627  1.00  0.00     0.163 HD
ATOM     40  O   UNL A   1      37.299  31.529  29.247  1.00  0.00    -0.269 OA
BRANCH  38  41
ATOM     41  C   UNL A   1      37.545  29.449  28.119  1.00  0.00     0.039 A 
ATOM     42  C   UNL A   1      37.687  28.604  29.223  1.00  0.00     0.014 A 
ATOM     43  C   UNL A   1      38.497  29.404  27.111  1.00  0.00     0.014 A 
ATOM     44  C   UNL A   1      38.960  28.181  29.566  1.00  0.00     0.010 A 
ATOM     45  C   UNL A   1      39.775  29.077  27.474  1.00  0.00     0.010 A 
ATOM     46  C   UNL A   1      40.008  28.604  28.766  1.00  0.00    -0.014 A 
BRANCH  46  47
ATOM     47  C   UNL A   1      41.391  28.275  28.997  1.00  0.00     0.031 A 
ATOM     48  C   UNL A   1      41.673  26.876  28.619  1.00  0.00     0.074 A 
ATOM     49  C   UNL A   1      42.236  29.313  29.216  1.00  0.00     0.049 A 
ATOM     50  N   UNL A   1      42.608  26.148  29.102  1.00  0.00    -0.248 NA
ATOM     51  C   UNL A   1      40.772  26.101  27.739  1.00  0.00     0.031 C 
ATOM     52  C   UNL A   1      43.651  29.441  28.896  1.00  0.00     0.029 A 
ATOM     53  N   UNL A   1      41.952  30.523  29.871  1.00  0.00    -0.354 N 
ATOM     54  C   UNL A   1      42.700  25.068  28.243  1.00  0.00     0.074 A 
ATOM     55  C   UNL A   1      41.405  24.932  27.653  1.00  0.00     0.031 C 
ATOM     56  C   UNL A   1      44.172  30.491  29.561  1.00  0.00     0.029 A 
ATOM     57  C   UNL A   1      43.141  31.021  30.438  1.00  0.00     0.049 A 
ATOM     58  H   UNL A   1      41.067  30.950  29.925  1.00  0.00     0.167 HD
ATOM     59  C   UNL A   1      43.942  24.651  27.874  1.00  0.00     0.034 A 
ATOM     60  C   UNL A   1      43.274  31.115  31.801  1.00  0.00     0.034 A 
ATOM     61  C   UNL A   1      44.935  25.489  28.576  1.00  0.00     0.049 A 
ATOM     62  C   UNL A   1      44.102  29.967  32.350  1.00  0.00     0.074 A 
ATOM     63  C   UNL A   1      45.679  26.589  28.180  1.00  0.00     0.029 A 
ATOM     64  N   UNL A   1      44.923  25.512  29.967  1.00  0.00    -0.354 N 
ATOM     65  N   UNL A   1      44.461  28.933  31.637  1.00  0.00    -0.248 NA
ATOM     66  C   UNL A   1      44.636  29.912  33.708  1.00  0.00     0.031 C 
ATOM     67  C   UNL A   1      46.057  27.305  29.356  1.00  0.00     0.029 A 
ATOM     68  C   UNL A   1      45.547  26.647  30.463  1.00  0.00     0.049 A 
ATOM     69  H   UNL A   1      44.522  24.811  30.529  1.00  0.00     0.167 HD
ATOM     70  C   UNL A   1      45.194  28.066  32.390  1.00  0.00     0.074 A 
ATOM     71  C   UNL A   1      45.321  28.754  33.668  1.00  0.00     0.031 C 
ATOM     72  C   UNL A   1      45.620  26.856  31.908  1.00  0.00     0.034 A 
BRANCH  59  73
ATOM     73  C   UNL A   1      44.302  23.747  26.703  1.00  0.00     0.023 A 
ATOM     74  C   UNL A   1      45.074  24.350  25.684  1.00  0.00     0.012 A 
ATOM     75  C   UNL A   1      43.975  22.379  26.494  1.00  0.00     0.148 A 
ATOM     76  C   UNL A   1      45.475  23.672  24.529  1.00  0.00     0.002 A 
ATOM     77  C   UNL A   1      44.380  21.696  25.337  1.00  0.00     0.091 A 
ATOM     78  F   UNL A   1      43.286  21.700  27.409  1.00  0.00    -0.205 F 
ATOM     79  C   UNL A   1      45.128  22.345  24.353  1.00  0.00     0.022 A 
BRANCH  77  80
ATOM     80  S   UNL A   1      43.993  19.960  25.019  1.00  0.00     0.127 S 
ATOM     81  O   UNL A   1      44.838  19.273  25.998  1.00  0.00    -0.237 OA
ATOM     82  O   UNL A   1      42.561  19.902  25.310  1.00  0.00    -0.237 OA
ATOM     83  O   UNL A   1      44.350  19.701  23.630  1.00  0.00    -0.744 OA
ENDBRANCH  77  80
ENDBRANCH  59  73
BRANCH  60  84
ATOM     84  C   UNL A   1      42.051  31.695  32.440  1.00  0.00     0.023 A 
ATOM     85  C   UNL A   1      41.559  32.896  31.860  1.00  0.00     0.012 A 
ATOM     86  C   UNL A   1      41.168  30.844  33.114  1.00  0.00     0.148 A 
ATOM     87  C   UNL A   1      40.187  33.117  31.744  1.00  0.00     0.002 A 
ATOM     88  C   UNL A   1      39.805  31.048  32.951  1.00  0.00     0.091 A 
ATOM     89  F   UNL A   1      41.662  29.793  33.781  1.00  0.00    -0.205 F 
ATOM     90  C   UNL A   1      39.315  32.158  32.236  1.00  0.00     0.022 A 
BRANCH  88  91
ATOM     91  S   UNL A   1      38.624  29.743  33.278  1.00  0.00     0.127 S 
ATOM     92  O   UNL A   1      38.330  29.930  34.694  1.00  0.00    -0.237 OA
ATOM     93  O   UNL A   1      37.546  30.152  32.386  1.00  0.00    -0.237 OA
ATOM     94  O   UNL A   1      39.292  28.500  32.926  1.00  0.00    -0.744 OA
ENDBRANCH  88  91
ENDBRANCH  60  84
BRANCH  72  95
ATOM     95  C   UNL A   1      46.195  25.752  32.772  1.00  0.00     0.023 A 
ATOM     96  C   UNL A   1      47.576  25.618  32.991  1.00  0.00     0.012 A 
ATOM     97  C   UNL A   1      45.350  24.865  33.492  1.00  0.00     0.148 A 
ATOM     98  C   UNL A   1      48.106  24.574  33.750  1.00  0.00     0.002 A 
ATOM     99  C   UNL A   1      45.877  23.934  34.375  1.00  0.00     0.091 A 
ATOM    100  F   UNL A   1      44.025  24.888  33.308  1.00  0.00    -0.205 F 
ATOM    101  C   UNL A   1      47.254  23.741  34.457  1.00  0.00     0.022 A 
BRANCH  99 102
ATOM    102  S   UNL A   1      44.839  23.035  35.532  1.00  0.00     0.127 S 
ATOM    103  O   UNL A   1      45.809  22.139  36.159  1.00  0.00    -0.237 OA
ATOM    104  O   UNL A   1      44.353  24.112  36.396  1.00  0.00    -0.237 OA
ATOM    105  O   UNL A   1      43.806  22.393  34.732  1.00  0.00    -0.744 OA
ENDBRANCH  99 102
ENDBRANCH  72  95
ENDBRANCH  46  47
ENDBRANCH  38  41
ENDBRANCH  36  37
ENDBRANCH  35  36
ENDBRANCH   1  35
TORSDOF 18
ENDMDL
MODEL 2
REMARK VINA RESULT:     -12.7      1.603      2.010
REMARK SMILES Cc1ccc(NS(=O)(=O)c2cc(C(=O)Nc3ccccc3C(=O)NCCCNC(=O)c3ccc(-c4c5nc(c(-c6cccc(S(=O)(=O)[O-])c6F)c6ccc([nH]6)c(-c6cccc(S(=O)(=O)[O-])c6F)c6nc(c(-c7cccc(S(=O)(=O)[O-])c7F)c7ccc4[nH]7)C=C6)C=C5)cc3)ccc2Br)cc1
REMARK SMILES IDX 25 1 24 2 22 3 23 4 21 6 16 7 17 8 18 9 20 10 19 11 15 12
REMARK SMILES IDX 13 13 14 14 12 16 10 17 11 18 96 19 95 20 97 21 94 22 7 23
REMARK SMILES IDX 8 24 9 25 6 26 5 28 1 29 2 30 3 31 99 32 4 33 98 34 26 35
REMARK SMILES IDX 27 36 28 37 29 38 30 40 31 41 32 42 93 43 33 44 92 45 34 46
REMARK SMILES IDX 35 47 36 48 86 49 37 50 91 51 85 52 87 53 38 54 90 55 84 56
REMARK SMILES IDX 83 57 39 59 71 60 51 61 70 62 52 63 55 64 69 65 88 66 53 67
REMARK SMILES IDX 54 68 68 70 89 71 56 72 40 73 41 74 49 75 42 76 44 77 50 78
REMARK SMILES IDX 43 79 45 80 46 81 47 82 48 83 72 84 73 85 81 86 74 87 76 88
REMARK SMILES IDX 82 89 75 90 77 91 78 92 79 93 80 94 57 95 58 96 66 97 59 98
REMARK SMILES IDX 61 99 67 100 60 101 62 102 63 103 64 104 65 105
REMARK H PARENT 24 5 15 15 6 27 28 39 87 58 55 69
REMARK Flexibility Score: inf
ROOT
ATOM      1  C   UNL A   1      33.299  28.377  26.968  1.00  0.00     0.118 C 
ENDROOT
BRANCH   1   2
ATOM      2  N   UNL A   1      33.853  28.089  25.666  1.00  0.00    -0.352 N 
ATOM      3  C   UNL A   1      33.530  28.604  24.440  1.00  0.00     0.253 C 
ATOM      4  O   UNL A   1      34.357  28.522  23.536  1.00  0.00    -0.269 OA
ATOM      5  H   UNL A   1      34.573  27.418  25.659  1.00  0.00     0.163 HD
BRANCH   3   6
ATOM      6  C   UNL A   1      32.169  29.136  24.145  1.00  0.00     0.063 A 
ATOM      7  C   UNL A   1      31.292  28.464  22.694  1.00  0.00     0.054 A 
ATOM      8  C   UNL A   1      29.529  29.344  22.208  1.00  0.00     0.027 A 
ATOM      9  C   UNL A   1      28.857  30.628  23.277  1.00  0.00     0.002 A 
ATOM     10  C   UNL A   1      31.383  30.423  25.076  1.00  0.00     0.016 A 
ATOM     11  C   UNL A   1      29.794  31.117  24.668  1.00  0.00     0.001 A 
BRANCH   7  12
ATOM     12  N   UNL A   1      32.035  27.255  22.167  1.00  0.00    -0.321 N 
ATOM     13  C   UNL A   1      32.092  25.884  22.510  1.00  0.00     0.255 C 
ATOM     14  O   UNL A   1      32.759  25.142  21.781  1.00  0.00    -0.269 OA
ATOM     15  H   UNL A   1      32.617  27.475  21.403  1.00  0.00     0.170 HD
BRANCH  13  16
ATOM     16  C   UNL A   1      31.279  25.219  23.584  1.00  0.00     0.041 A 
ATOM     17  C   UNL A   1      31.217  23.254  25.023  1.00  0.00     0.102 A 
ATOM     18  C   UNL A   1      31.490  23.895  23.839  1.00  0.00     0.037 A 
ATOM     19  C   UNL A   1      30.284  23.834  25.853  1.00  0.00     0.038 A 
ATOM     20  C   UNL A   1      29.819  25.125  25.525  1.00  0.00     0.018 A 
ATOM     21  Br  UNL A   1      29.531  22.926  27.325  1.00  0.00    -0.049 Br
ATOM     22  C   UNL A   1      30.381  25.848  24.441  1.00  0.00     0.015 A 
BRANCH  17  23
ATOM     23  S   UNL A   1      32.354  21.938  25.429  1.00  0.00     0.263 S 
ATOM     24  O   UNL A   1      31.722  20.695  25.045  1.00  0.00    -0.201 OA
ATOM     25  O   UNL A   1      32.821  22.165  26.778  1.00  0.00    -0.201 OA
BRANCH  23  26
ATOM     26  N   UNL A   1      33.708  22.062  24.371  1.00  0.00    -0.280 N 
ATOM     27  H   UNL A   1      33.497  22.022  23.410  1.00  0.00     0.180 HD
BRANCH  26  28
ATOM     28  C   UNL A   1      35.191  22.224  24.708  1.00  0.00     0.049 A 
ATOM     29  C   UNL A   1      39.927  21.620  26.565  1.00  0.00     0.044 C 
ATOM     30  C   UNL A   1      38.623  21.833  25.850  1.00  0.00    -0.051 A 
ATOM     31  C   UNL A   1      37.676  20.446  25.257  1.00  0.00     0.005 A 
ATOM     32  C   UNL A   1      38.017  23.464  25.902  1.00  0.00     0.005 A 
ATOM     33  C   UNL A   1      36.002  20.593  24.681  1.00  0.00     0.027 A 
ATOM     34  C   UNL A   1      36.347  23.764  25.344  1.00  0.00     0.027 A 
ENDBRANCH  26  28
ENDBRANCH  23  26
ENDBRANCH  17  23
ENDBRANCH  13  16
ENDBRANCH   7  12
ENDBRANCH   3   6
ENDBRANCH   1   2
BRANCH   1  35
ATOM     35  C   UNL A   1      34.165  29.310  27.776  1.00  0.00     0.042 C 
BRANCH  35  36
ATOM     36  C   UNL A   1      34.834  30.345  26.912  1.00  0.00     0.118 C 
BRANCH  36  37
ATOM     37  N   UNL A   1      35.794  31.157  27.625  1.00  0.00    -0.352 N 
ATOM     38  C   UNL A   1      36.946  30.745  28.282  1.00  0.00     0.251 C 
ATOM     39  H   UNL A   1      35.607  32.124  27.648  1.00  0.00     0.163 HD
ATOM     40  O   UNL A   1      37.460  31.493  29.110  1.00  0.00    -0.269 OA
BRANCH  38  41
ATOM     41  C   UNL A   1      37.619  29.475  27.859  1.00  0.00     0.039 A 
ATOM     42  C   UNL A   1      37.505  28.438  28.787  1.00  0.00     0.014 A 
ATOM     43  C   UNL A   1      38.738  29.527  27.041  1.00  0.00     0.014 A 
ATOM     44  C   UNL A   1      38.666  27.848  29.258  1.00  0.00     0.010 A 
ATOM     45  C   UNL A   1      39.906  29.026  27.549  1.00  0.00     0.010 A 
ATOM     46  C   UNL A   1      39.867  28.311  28.747  1.00  0.00    -0.014 A 
BRANCH  46  47
ATOM     47  C   UNL A   1      41.162  27.823  29.146  1.00  0.00     0.031 A 
ATOM     48  C   UNL A   1      41.387  26.451  28.648  1.00  0.00     0.074 A 
ATOM     49  C   UNL A   1      42.041  28.742  29.617  1.00  0.00     0.049 A 
ATOM     50  N   UNL A   1      42.168  25.586  29.177  1.00  0.00    -0.248 NA
ATOM     51  C   UNL A   1      40.583  25.869  27.552  1.00  0.00     0.031 C 
ATOM     52  C   UNL A   1      43.495  28.762  29.536  1.00  0.00     0.029 A 
ATOM     53  N   UNL A   1      41.752  29.897  30.363  1.00  0.00    -0.354 N 
ATOM     54  C   UNL A   1      42.312  24.601  28.216  1.00  0.00     0.074 A 
ATOM     55  C   UNL A   1      41.125  24.659  27.423  1.00  0.00     0.031 C 
ATOM     56  C   UNL A   1      43.983  29.678  30.396  1.00  0.00     0.029 A 
ATOM     57  C   UNL A   1      42.869  30.211  31.163  1.00  0.00     0.049 A 
ATOM     58  H   UNL A   1      40.908  30.402  30.332  1.00  0.00     0.167 HD
ATOM     59  C   UNL A   1      43.559  24.104  27.995  1.00  0.00     0.034 A 
ATOM     60  C   UNL A   1      42.783  30.144  32.531  1.00  0.00     0.034 A 
ATOM     61  C   UNL A   1      44.489  24.760  28.938  1.00  0.00     0.049 A 
ATOM     62  C   UNL A   1      43.414  28.867  33.057  1.00  0.00     0.074 A 
ATOM     63  C   UNL A   1      45.374  25.817  28.798  1.00  0.00     0.029 A 
ATOM     64  N   UNL A   1      44.251  24.635  30.303  1.00  0.00    -0.354 N 
ATOM     65  N   UNL A   1      43.800  27.885  32.286  1.00  0.00    -0.248 NA
ATOM     66  C   UNL A   1      43.712  28.613  34.464  1.00  0.00     0.031 C 
ATOM     67  C   UNL A   1      45.612  26.361  30.096  1.00  0.00     0.029 A 
ATOM     68  C   UNL A   1      44.875  25.642  31.023  1.00  0.00     0.049 A 
ATOM     69  H   UNL A   1      43.707  23.920  30.707  1.00  0.00     0.167 HD
ATOM     70  C   UNL A   1      44.327  26.873  33.031  1.00  0.00     0.074 A 
ATOM     71  C   UNL A   1      44.298  27.404  34.388  1.00  0.00     0.031 C 
ATOM     72  C   UNL A   1      44.727  25.686  32.477  1.00  0.00     0.034 A 
BRANCH  59  73
ATOM     73  C   UNL A   1      44.033  23.300  26.791  1.00  0.00     0.023 A 
ATOM     74  C   UNL A   1      44.821  24.010  25.857  1.00  0.00     0.012 A 
ATOM     75  C   UNL A   1      43.797  21.934  26.479  1.00  0.00     0.148 A 
ATOM     76  C   UNL A   1      45.321  23.432  24.687  1.00  0.00     0.002 A 
ATOM     77  C   UNL A   1      44.301  21.350  25.307  1.00  0.00     0.091 A 
ATOM     78  F   UNL A   1      43.101  21.160  27.310  1.00  0.00    -0.205 F 
ATOM     79  C   UNL A   1      45.060  22.102  24.409  1.00  0.00     0.022 A 
BRANCH  77  80
ATOM     80  S   UNL A   1      44.032  19.621  24.860  1.00  0.00     0.127 S 
ATOM     81  O   UNL A   1      42.598  19.458  25.112  1.00  0.00    -0.237 OA
ATOM     82  O   UNL A   1      44.402  19.604  23.445  1.00  0.00    -0.237 OA
ATOM     83  O   UNL A   1      44.889  18.826  25.730  1.00  0.00    -0.744 OA
ENDBRANCH  77  80
ENDBRANCH  59  73
BRANCH  60  84
ATOM     84  C   UNL A   1      41.523  30.771  33.040  1.00  0.00     0.023 A 
ATOM     85  C   UNL A   1      40.582  29.882  33.627  1.00  0.00     0.012 A 
ATOM     86  C   UNL A   1      41.544  32.112  33.439  1.00  0.00     0.148 A 
ATOM     87  C   UNL A   1      39.854  30.263  34.753  1.00  0.00     0.002 A 
ATOM     88  C   UNL A   1      40.852  32.467  34.588  1.00  0.00     0.091 A 
ATOM     89  F   UNL A   1      42.331  32.972  32.780  1.00  0.00    -0.205 F 
ATOM     90  C   UNL A   1      40.040  31.538  35.266  1.00  0.00     0.022 A 
BRANCH  88  91
ATOM     91  S   UNL A   1      41.249  33.964  35.488  1.00  0.00     0.127 S 
ATOM     92  O   UNL A   1      40.666  35.002  34.646  1.00  0.00    -0.237 OA
ATOM     93  O   UNL A   1      40.516  33.715  36.723  1.00  0.00    -0.237 OA
ATOM     94  O   UNL A   1      42.698  33.985  35.612  1.00  0.00    -0.744 OA
ENDBRANCH  88  91
ENDBRANCH  60  84
BRANCH  72  95
ATOM     95  C   UNL A   1      45.061  24.444  33.277  1.00  0.00     0.023 A 
ATOM     96  C   UNL A   1      44.164  23.368  33.394  1.00  0.00     0.012 A 
ATOM     97  C   UNL A   1      46.345  24.263  33.856  1.00  0.00     0.148 A 
ATOM     98  C   UNL A   1      44.456  22.244  34.168  1.00  0.00     0.002 A 
ATOM     99  C   UNL A   1      46.687  23.074  34.483  1.00  0.00     0.091 A 
ATOM    100  F   UNL A   1      47.246  25.253  33.835  1.00  0.00    -0.205 F 
ATOM    101  C   UNL A   1      45.726  22.089  34.700  1.00  0.00     0.022 A 
BRANCH  99 102
ATOM    102  S   UNL A   1      48.385  22.693  34.927  1.00  0.00     0.127 S 
ATOM    103  O   UNL A   1      48.526  23.417  36.189  1.00  0.00    -0.237 OA
ATOM    104  O   UNL A   1      48.339  21.236  35.058  1.00  0.00    -0.237 OA
ATOM    105  O   UNL A   1      49.207  23.172  33.825  1.00  0.00    -0.744 OA
ENDBRANCH  99 102
ENDBRANCH  72  95
ENDBRANCH  46  47
ENDBRANCH  38  41
ENDBRANCH  36  37
ENDBRANCH  35  36
ENDBRANCH   1  35
TORSDOF 18
ENDMDL
MODEL 3
REMARK VINA RESULT:     -12.5      5.809     10.682
REMARK SMILES Cc1ccc(NS(=O)(=O)c2cc(C(=O)Nc3ccccc3C(=O)NCCCNC(=O)c3ccc(-c4c5nc(c(-c6cccc(S(=O)(=O)[O-])c6F)c6ccc([nH]6)c(-c6cccc(S(=O)(=O)[O-])c6F)c6nc(c(-c7cccc(S(=O)(=O)[O-])c7F)c7ccc4[nH]7)C=C6)C=C5)cc3)ccc2Br)cc1
REMARK SMILES IDX 25 1 24 2 22 3 23 4 21 6 16 7 17 8 18 9 20 10 19 11 15 12
REMARK SMILES IDX 13 13 14 14 12 16 10 17 11 18 96 19 95 20 97 21 94 22 7 23
REMARK SMILES IDX 8 24 9 25 6 26 5 28 1 29 2 30 3 31 99 32 4 33 98 34 26 35
REMARK SMILES IDX 27 36 28 37 29 38 30 40 31 41 32 42 93 43 33 44 92 45 34 46
REMARK SMILES IDX 35 47 36 48 86 49 37 50 91 51 85 52 87 53 38 54 90 55 84 56
REMARK SMILES IDX 83 57 39 59 71 60 51 61 70 62 52 63 55 64 69 65 88 66 53 67
REMARK SMILES IDX 54 68 68 70 89 71 56 72 40 73 41 74 49 75 42 76 44 77 50 78
REMARK SMILES IDX 43 79 45 80 46 81 47 82 48 83 72 84 73 85 81 86 74 87 76 88
REMARK SMILES IDX 82 89 75 90 77 91 78 92 79 93 80 94 57 95 58 96 66 97 59 98
REMARK SMILES IDX 61 99 67 100 60 101 62 102 63 103 64 104 65 105
REMARK H PARENT 24 5 15 15 6 27 28 39 87 58 55 69
REMARK Flexibility Score: inf
ROOT
ATOM      1  C   UNL A   1      34.090  29.520  26.685  1.00  0.00     0.118 C 
ENDROOT
BRANCH   1   2
ATOM      2  N   UNL A   1      33.058  29.077  27.593  1.00  0.00    -0.352 N 
ATOM      3  C   UNL A   1      31.890  28.411  27.338  1.00  0.00     0.253 C 
ATOM      4  O   UNL A   1      31.355  27.799  28.258  1.00  0.00    -0.269 OA
ATOM      5  H   UNL A   1      33.218  29.289  28.541  1.00  0.00     0.163 HD
BRANCH   3   6
ATOM      6  C   UNL A   1      31.195  28.517  26.024  1.00  0.00     0.063 A 
ATOM      7  C   UNL A   1      30.642  26.971  25.230  1.00  0.00     0.054 A 
ATOM      8  C   UNL A   1      29.876  27.134  23.357  1.00  0.00     0.027 A 
ATOM      9  C   UNL A   1      29.657  28.767  22.630  1.00  0.00     0.002 A 
ATOM     10  C   UNL A   1      30.935  30.042  25.160  1.00  0.00     0.016 A 
ATOM     11  C   UNL A   1      30.184  30.157  23.549  1.00  0.00     0.001 A 
BRANCH   7  12
ATOM     12  N   UNL A   1      30.774  25.823  26.207  1.00  0.00    -0.321 N 
ATOM     13  C   UNL A   1      31.688  24.760  26.389  1.00  0.00     0.255 C 
ATOM     14  O   UNL A   1      31.533  24.039  27.380  1.00  0.00    -0.269 OA
ATOM     15  H   UNL A   1      30.051  25.816  26.876  1.00  0.00     0.170 HD
BRANCH  13  16
ATOM     16  C   UNL A   1      32.931  24.529  25.577  1.00  0.00     0.041 A 
ATOM     17  C   UNL A   1      34.764  22.958  25.254  1.00  0.00     0.102 A 
ATOM     18  C   UNL A   1      33.851  23.630  26.030  1.00  0.00     0.037 A 
ATOM     19  C   UNL A   1      35.092  23.517  24.040  1.00  0.00     0.038 A 
ATOM     20  C   UNL A   1      34.338  24.624  23.597  1.00  0.00     0.018 A 
ATOM     21  Br  UNL A   1      36.568  22.936  23.019  1.00  0.00    -0.049 Br
ATOM     22  C   UNL A   1      33.206  25.073  24.326  1.00  0.00     0.015 A 
BRANCH  17  23
ATOM     23  S   UNL A   1      35.136  21.304  25.817  1.00  0.00     0.263 S 
ATOM     24  O   UNL A   1      34.779  20.398  24.747  1.00  0.00    -0.201 OA
ATOM     25  O   UNL A   1      34.586  21.161  27.146  1.00  0.00    -0.201 OA
BRANCH  23  26
ATOM     26  N   UNL A   1      36.849  21.157  25.933  1.00  0.00    -0.280 N 
ATOM     27  H   UNL A   1      37.197  20.238  25.879  1.00  0.00     0.180 HD
BRANCH  26  28
ATOM     28  C   UNL A   1      37.906  22.248  26.109  1.00  0.00     0.049 A 
ATOM     29  C   UNL A   1      42.026  24.952  27.510  1.00  0.00     0.044 C 
ATOM     30  C   UNL A   1      40.853  24.221  26.919  1.00  0.00    -0.051 A 
ATOM     31  C   UNL A   1      40.976  22.493  26.505  1.00  0.00     0.005 A 
ATOM     32  C   UNL A   1      39.354  25.105  26.938  1.00  0.00     0.005 A 
ATOM     33  C   UNL A   1      39.565  21.494  26.094  1.00  0.00     0.027 A 
ATOM     34  C   UNL A   1      37.850  24.229  26.536  1.00  0.00     0.027 A 
ENDBRANCH  26  28
ENDBRANCH  23  26
ENDBRANCH  17  23
ENDBRANCH  13  16
ENDBRANCH   7  12
ENDBRANCH   3   6
ENDBRANCH   1   2
BRANCH   1  35
ATOM     35  C   UNL A   1      34.932  30.631  27.259  1.00  0.00     0.042 C 
BRANCH  35  36
ATOM     36  C   UNL A   1      35.510  30.264  28.600  1.00  0.00     0.118 C 
BRANCH  36  37
ATOM     37  N   UNL A   1      35.170  31.199  29.649  1.00  0.00    -0.352 N 
ATOM     38  C   UNL A   1      36.005  31.745  30.615  1.00  0.00     0.251 C 
ATOM     39  H   UNL A   1      34.228  31.483  29.683  1.00  0.00     0.163 HD
ATOM     40  O   UNL A   1      35.508  32.245  31.621  1.00  0.00    -0.269 OA
BRANCH  38  41
ATOM     41  C   UNL A   1      37.474  31.852  30.341  1.00  0.00     0.039 A 
ATOM     42  C   UNL A   1      38.261  31.019  31.138  1.00  0.00     0.014 A 
ATOM     43  C   UNL A   1      38.006  33.052  29.889  1.00  0.00     0.014 A 
ATOM     44  C   UNL A   1      39.267  31.596  31.896  1.00  0.00     0.010 A 
ATOM     45  C   UNL A   1      38.932  33.664  30.689  1.00  0.00     0.010 A 
ATOM     46  C   UNL A   1      39.443  32.965  31.784  1.00  0.00    -0.014 A 
BRANCH  46  47
ATOM     47  C   UNL A   1      40.426  33.721  32.517  1.00  0.00     0.031 A 
ATOM     48  C   UNL A   1      39.822  34.373  33.696  1.00  0.00     0.074 A 
ATOM     49  C   UNL A   1      41.727  33.485  32.213  1.00  0.00     0.049 A 
ATOM     50  N   UNL A   1      40.255  35.435  34.263  1.00  0.00    -0.248 NA
ATOM     51  C   UNL A   1      38.522  33.942  34.255  1.00  0.00     0.031 C 
ATOM     52  C   UNL A   1      42.906  33.562  33.063  1.00  0.00     0.029 A 
ATOM     53  N   UNL A   1      42.265  33.154  30.959  1.00  0.00    -0.354 N 
ATOM     54  C   UNL A   1      39.601  35.482  35.481  1.00  0.00     0.074 A 
ATOM     55  C   UNL A   1      38.378  34.767  35.291  1.00  0.00     0.031 C 
ATOM     56  C   UNL A   1      44.016  33.559  32.298  1.00  0.00     0.029 A 
ATOM     57  C   UNL A   1      43.600  33.600  30.906  1.00  0.00     0.049 A 
ATOM     58  H   UNL A   1      41.786  32.687  30.235  1.00  0.00     0.167 HD
ATOM     59  C   UNL A   1      40.330  35.807  36.583  1.00  0.00     0.034 A 
ATOM     60  C   UNL A   1      43.966  34.591  30.030  1.00  0.00     0.034 A 
ATOM     61  C   UNL A   1      41.714  36.092  36.152  1.00  0.00     0.049 A 
ATOM     62  C   UNL A   1      44.089  35.929  30.737  1.00  0.00     0.074 A 
ATOM     63  C   UNL A   1      42.873  35.333  36.164  1.00  0.00     0.029 A 
ATOM     64  N   UNL A   1      41.926  37.107  35.224  1.00  0.00    -0.354 N 
ATOM     65  N   UNL A   1      43.700  36.130  31.968  1.00  0.00    -0.248 NA
ATOM     66  C   UNL A   1      44.700  37.119  30.151  1.00  0.00     0.031 C 
ATOM     67  C   UNL A   1      43.758  35.874  35.182  1.00  0.00     0.029 A 
ATOM     68  C   UNL A   1      43.142  36.955  34.574  1.00  0.00     0.049 A 
ATOM     69  H   UNL A   1      41.294  37.840  35.051  1.00  0.00     0.167 HD
ATOM     70  C   UNL A   1      43.932  37.421  32.336  1.00  0.00     0.074 A 
ATOM     71  C   UNL A   1      44.611  37.985  31.177  1.00  0.00     0.031 C 
ATOM     72  C   UNL A   1      43.536  37.920  33.549  1.00  0.00     0.034 A 
BRANCH  59  73
ATOM     73  C   UNL A   1      39.946  35.590  38.041  1.00  0.00     0.023 A 
ATOM     74  C   UNL A   1      39.812  36.763  38.817  1.00  0.00     0.012 A 
ATOM     75  C   UNL A   1      39.698  34.371  38.729  1.00  0.00     0.148 A 
ATOM     76  C   UNL A   1      39.486  36.746  40.176  1.00  0.00     0.002 A 
ATOM     77  C   UNL A   1      39.366  34.351  40.092  1.00  0.00     0.091 A 
ATOM     78  F   UNL A   1      39.755  33.206  38.086  1.00  0.00    -0.205 F 
ATOM     79  C   UNL A   1      39.264  35.540  40.816  1.00  0.00     0.022 A 
BRANCH  77  80
ATOM     80  S   UNL A   1      39.042  32.833  41.016  1.00  0.00     0.127 S 
ATOM     81  O   UNL A   1      40.240  32.039  40.734  1.00  0.00    -0.237 OA
ATOM     82  O   UNL A   1      38.950  33.319  42.392  1.00  0.00    -0.237 OA
ATOM     83  O   UNL A   1      37.809  32.272  40.477  1.00  0.00    -0.744 OA
ENDBRANCH  77  80
ENDBRANCH  59  73
BRANCH  60  84
ATOM     84  C   UNL A   1      43.384  34.372  28.668  1.00  0.00     0.023 A 
ATOM     85  C   UNL A   1      42.490  35.376  28.208  1.00  0.00     0.012 A 
ATOM     86  C   UNL A   1      44.099  33.608  27.738  1.00  0.00     0.148 A 
ATOM     87  C   UNL A   1      42.495  35.771  26.871  1.00  0.00     0.002 A 
ATOM     88  C   UNL A   1      44.133  34.040  26.420  1.00  0.00     0.091 A 
ATOM     89  F   UNL A   1      44.826  32.571  28.174  1.00  0.00    -0.205 F 
ATOM     90  C   UNL A   1      43.365  35.141  25.994  1.00  0.00     0.022 A 
BRANCH  88  91
ATOM     91  S   UNL A   1      45.421  33.502  25.299  1.00  0.00     0.127 S 
ATOM     92  O   UNL A   1      45.208  32.061  25.241  1.00  0.00    -0.237 OA
ATOM     93  O   UNL A   1      45.016  34.215  24.093  1.00  0.00    -0.237 OA
ATOM     94  O   UNL A   1      46.676  33.937  25.891  1.00  0.00    -0.744 OA
ENDBRANCH  88  91
ENDBRANCH  60  84
BRANCH  72  95
ATOM     95  C   UNL A   1      43.523  39.394  33.899  1.00  0.00     0.023 A 
ATOM     96  C   UNL A   1      42.664  40.306  33.260  1.00  0.00     0.012 A 
ATOM     97  C   UNL A   1      44.302  39.904  34.972  1.00  0.00     0.148 A 
ATOM     98  C   UNL A   1      42.686  41.669  33.552  1.00  0.00     0.002 A 
ATOM     99  C   UNL A   1      44.196  41.229  35.367  1.00  0.00     0.091 A 
ATOM    100  F   UNL A   1      45.182  39.120  35.605  1.00  0.00    -0.205 F 
ATOM    101  C   UNL A   1      43.441  42.130  34.619  1.00  0.00     0.022 A 
BRANCH  99 102
ATOM    102  S   UNL A   1      44.909  41.817  36.906  1.00  0.00     0.127 S 
ATOM    103  O   UNL A   1      46.246  41.228  36.854  1.00  0.00    -0.237 OA
ATOM    104  O   UNL A   1      44.872  43.268  36.718  1.00  0.00    -0.237 OA
ATOM    105  O   UNL A   1      44.041  41.326  37.967  1.00  0.00    -0.744 OA
ENDBRANCH  99 102
ENDBRANCH  72  95
ENDBRANCH  46  47
ENDBRANCH  38  41
ENDBRANCH  36  37
ENDBRANCH  35  36
ENDBRANCH   1  35
TORSDOF 18
ENDMDL
