MODEL 1
REMARK VINA RESULT:     -13.5      0.000      0.000
REMARK SMILES Cc1ccc(C(=O)c2cccc(C)c2C(=O)NCCCNC(=O)c2ccc(-c3c4nc(c(-c5cccc(S(=O)(=O)[O-])c5F)c5ccc([nH]5)c(-c5cccc(S(=O)(=O)[O-])c5F)c5nc(c(-c6cccc(S(=O)(=O)[O-])c6F)c6ccc3[nH]6)C=C5)C=C4)cc2)c(C)c1
REMARK SMILES IDX 19 1 18 2 17 3 15 4 16 5 14 7 8 8 9 9 10 10 12 11 11 12
REMARK SMILES IDX 13 13 6 14 7 15 5 16 1 17 2 18 3 19 89 20 4 21 87 22 88 23
REMARK SMILES IDX 20 24 21 25 22 26 23 28 24 29 25 30 86 31 26 32 85 33 27 34
REMARK SMILES IDX 28 35 29 36 79 37 30 38 84 39 78 40 80 41 31 42 83 43 77 44
REMARK SMILES IDX 76 45 32 47 64 48 44 49 63 50 45 51 48 52 62 53 81 54 46 55
REMARK SMILES IDX 47 56 61 58 82 59 49 60 33 61 34 62 42 63 35 64 37 65 43 66
REMARK SMILES IDX 36 67 38 68 39 69 40 70 41 71 65 72 66 73 74 74 67 75 69 76
REMARK SMILES IDX 75 77 68 78 70 79 71 80 72 81 73 82 50 83 51 84 59 85 52 86
REMARK SMILES IDX 54 87 60 88 53 89 55 90 56 91 57 92 58 93
REMARK H PARENT 17 6 21 27 80 46 48 57
REMARK Flexibility Score: inf
ROOT
ATOM      1  C   UNL A   1      32.232  31.246  27.142  1.00  0.00     0.042 C 
ENDROOT
BRANCH   1   2
ATOM      2  C   UNL A   1      31.654  30.506  25.960  1.00  0.00     0.118 C 
BRANCH   2   3
ATOM      3  N   UNL A   1      32.589  29.832  25.088  1.00  0.00    -0.352 N 
ATOM      4  C   UNL A   1      32.330  28.859  24.143  1.00  0.00     0.252 C 
ATOM      5  O   UNL A   1      33.218  28.563  23.345  1.00  0.00    -0.269 OA
ATOM      6  H   UNL A   1      33.532  30.102  25.180  1.00  0.00     0.163 HD
BRANCH   4   7
ATOM      7  C   UNL A   1      31.058  28.066  24.159  1.00  0.00     0.053 A 
ATOM      8  C   UNL A   1      30.852  26.933  24.978  1.00  0.00     0.036 A 
ATOM      9  C   UNL A   1      29.654  26.202  24.890  1.00  0.00     0.013 A 
ATOM     10  C   UNL A   1      28.669  26.564  23.979  1.00  0.00     0.001 A 
ATOM     11  C   UNL A   1      30.000  28.487  23.305  1.00  0.00    -0.038 A 
ATOM     12  C   UNL A   1      28.831  27.711  23.210  1.00  0.00     0.004 A 
ATOM     13  C   UNL A   1      30.049  29.776  22.520  1.00  0.00     0.045 C 
BRANCH   8  14
ATOM     14  C   UNL A   1      31.794  26.554  26.062  1.00  0.00     0.194 C 
ATOM     15  O   UNL A   1      31.667  27.172  27.114  1.00  0.00    -0.289 OA
BRANCH  14  16
ATOM     16  C   UNL A   1      32.831  25.454  25.901  1.00  0.00     0.025 A 
ATOM     17  C   UNL A   1      35.741  22.310  25.214  1.00  0.00     0.044 C 
ATOM     18  C   UNL A   1      34.769  23.414  25.514  1.00  0.00    -0.051 A 
ATOM     19  C   UNL A   1      35.095  24.746  25.279  1.00  0.00     0.004 A 
ATOM     20  C   UNL A   1      33.499  23.111  26.013  1.00  0.00     0.007 A 
ATOM     21  C   UNL A   1      34.141  25.751  25.478  1.00  0.00     0.013 A 
ATOM     22  C   UNL A   1      32.535  24.115  26.246  1.00  0.00    -0.040 A 
ATOM     23  C   UNL A   1      31.240  23.690  26.888  1.00  0.00     0.045 C 
ENDBRANCH  14  16
ENDBRANCH   8  14
ENDBRANCH   4   7
ENDBRANCH   2   3
ENDBRANCH   1   2
BRANCH   1  24
ATOM     24  C   UNL A   1      33.606  30.740  27.550  1.00  0.00     0.118 C 
BRANCH  24  25
ATOM     25  N   UNL A   1      34.385  31.742  28.292  1.00  0.00    -0.352 N 
ATOM     26  C   UNL A   1      35.646  31.614  28.869  1.00  0.00     0.251 C 
ATOM     27  H   UNL A   1      33.957  32.622  28.395  1.00  0.00     0.163 HD
ATOM     28  O   UNL A   1      36.196  32.577  29.393  1.00  0.00    -0.269 OA
BRANCH  26  29
ATOM     29  C   UNL A   1      36.316  30.303  28.766  1.00  0.00     0.039 A 
ATOM     30  C   UNL A   1      36.634  29.633  29.950  1.00  0.00     0.014 A 
ATOM     31  C   UNL A   1      36.945  29.991  27.565  1.00  0.00     0.014 A 
ATOM     32  C   UNL A   1      37.795  28.866  29.997  1.00  0.00     0.010 A 
ATOM     33  C   UNL A   1      38.147  29.315  27.635  1.00  0.00     0.010 A 
ATOM     34  C   UNL A   1      38.612  28.840  28.870  1.00  0.00    -0.014 A 
BRANCH  34  35
ATOM     35  C   UNL A   1      40.021  28.470  28.893  1.00  0.00     0.031 A 
ATOM     36  C   UNL A   1      40.416  27.059  28.751  1.00  0.00     0.074 A 
ATOM     37  C   UNL A   1      40.973  29.433  28.872  1.00  0.00     0.049 A 
ATOM     38  N   UNL A   1      41.609  26.623  28.968  1.00  0.00    -0.248 NA
ATOM     39  C   UNL A   1      39.463  26.010  28.417  1.00  0.00     0.031 C 
ATOM     40  C   UNL A   1      42.372  29.283  28.483  1.00  0.00     0.029 A 
ATOM     41  N   UNL A   1      40.916  30.708  29.443  1.00  0.00    -0.354 N 
ATOM     42  C   UNL A   1      41.659  25.332  28.499  1.00  0.00     0.074 A 
ATOM     43  C   UNL A   1      40.279  24.958  28.322  1.00  0.00     0.031 C 
ATOM     44  C   UNL A   1      43.089  30.247  29.076  1.00  0.00     0.029 A 
ATOM     45  C   UNL A   1      42.197  30.944  29.981  1.00  0.00     0.049 A 
ATOM     46  H   UNL A   1      40.142  31.315  29.464  1.00  0.00     0.167 HD
ATOM     47  C   UNL A   1      42.876  24.812  28.173  1.00  0.00     0.034 A 
ATOM     48  C   UNL A   1      42.429  31.170  31.307  1.00  0.00     0.034 A 
ATOM     49  C   UNL A   1      43.970  25.647  28.709  1.00  0.00     0.049 A 
ATOM     50  C   UNL A   1      43.386  30.169  31.943  1.00  0.00     0.074 A 
ATOM     51  C   UNL A   1      44.927  26.491  28.169  1.00  0.00     0.029 A 
ATOM     52  N   UNL A   1      44.030  25.845  30.084  1.00  0.00    -0.354 N 
ATOM     53  N   UNL A   1      44.049  29.239  31.307  1.00  0.00    -0.248 NA
ATOM     54  C   UNL A   1      43.573  30.081  33.389  1.00  0.00     0.031 C 
ATOM     55  C   UNL A   1      45.535  27.223  29.237  1.00  0.00     0.029 A 
ATOM     56  C   UNL A   1      44.969  26.804  30.428  1.00  0.00     0.049 A 
ATOM     57  H   UNL A   1      43.472  25.362  30.735  1.00  0.00     0.167 HD
ATOM     58  C   UNL A   1      44.575  28.343  32.214  1.00  0.00     0.074 A 
ATOM     59  C   UNL A   1      44.279  28.945  33.506  1.00  0.00     0.031 C 
ATOM     60  C   UNL A   1      45.126  27.140  31.842  1.00  0.00     0.034 A 
BRANCH  47  61
ATOM     61  C   UNL A   1      43.112  23.661  27.195  1.00  0.00     0.023 A 
ATOM     62  C   UNL A   1      43.860  23.946  26.029  1.00  0.00     0.012 A 
ATOM     63  C   UNL A   1      42.571  22.352  27.261  1.00  0.00     0.148 A 
ATOM     64  C   UNL A   1      44.006  23.026  24.981  1.00  0.00     0.002 A 
ATOM     65  C   UNL A   1      42.720  21.429  26.222  1.00  0.00     0.091 A 
ATOM     66  F   UNL A   1      41.876  21.959  28.323  1.00  0.00    -0.205 F 
ATOM     67  C   UNL A   1      43.428  21.769  25.070  1.00  0.00     0.022 A 
BRANCH  65  68
ATOM     68  S   UNL A   1      41.974  19.785  26.274  1.00  0.00     0.127 S 
ATOM     69  O   UNL A   1      40.547  20.096  26.178  1.00  0.00    -0.237 OA
ATOM     70  O   UNL A   1      42.539  19.148  25.085  1.00  0.00    -0.237 OA
ATOM     71  O   UNL A   1      42.374  19.182  27.540  1.00  0.00    -0.744 OA
ENDBRANCH  65  68
ENDBRANCH  47  61
BRANCH  48  72
ATOM     72  C   UNL A   1      41.285  31.839  31.996  1.00  0.00     0.023 A 
ATOM     73  C   UNL A   1      40.984  33.164  31.597  1.00  0.00     0.012 A 
ATOM     74  C   UNL A   1      40.312  31.111  32.702  1.00  0.00     0.148 A 
ATOM     75  C   UNL A   1      39.709  33.700  31.781  1.00  0.00     0.002 A 
ATOM     76  C   UNL A   1      39.045  31.659  32.897  1.00  0.00     0.091 A 
ATOM     77  F   UNL A   1      40.602  29.865  33.098  1.00  0.00    -0.205 F 
ATOM     78  C   UNL A   1      38.730  32.934  32.404  1.00  0.00     0.022 A 
BRANCH  76  79
ATOM     79  S   UNL A   1      37.724  30.705  33.659  1.00  0.00     0.127 S 
ATOM     80  O   UNL A   1      37.841  31.109  35.057  1.00  0.00    -0.237 OA
ATOM     81  O   UNL A   1      36.536  31.207  32.968  1.00  0.00    -0.237 OA
ATOM     82  O   UNL A   1      38.048  29.320  33.355  1.00  0.00    -0.744 OA
ENDBRANCH  76  79
ENDBRANCH  48  72
BRANCH  60  83
ATOM     83  C   UNL A   1      45.748  26.105  32.790  1.00  0.00     0.023 A 
ATOM     84  C   UNL A   1      47.130  25.834  32.814  1.00  0.00     0.012 A 
ATOM     85  C   UNL A   1      44.954  25.306  33.661  1.00  0.00     0.148 A 
ATOM     86  C   UNL A   1      47.710  24.963  33.748  1.00  0.00     0.002 A 
ATOM     87  C   UNL A   1      45.528  24.430  34.583  1.00  0.00     0.091 A 
ATOM     88  F   UNL A   1      43.620  25.329  33.563  1.00  0.00    -0.205 F 
ATOM     89  C   UNL A   1      46.911  24.282  34.653  1.00  0.00     0.022 A 
BRANCH  87  90
ATOM     90  S   UNL A   1      44.530  23.454  35.720  1.00  0.00     0.127 S 
ATOM     91  O   UNL A   1      43.842  22.545  34.803  1.00  0.00    -0.237 OA
ATOM     92  O   UNL A   1      45.549  22.817  36.556  1.00  0.00    -0.237 OA
ATOM     93  O   UNL A   1      43.684  24.405  36.425  1.00  0.00    -0.744 OA
ENDBRANCH  87  90
ENDBRANCH  60  83
ENDBRANCH  34  35
ENDBRANCH  26  29
ENDBRANCH  24  25
ENDBRANCH   1  24
TORSDOF 15
ENDMDL
MODEL 2
REMARK VINA RESULT:     -13.5      4.035      9.562
REMARK SMILES Cc1ccc(C(=O)c2cccc(C)c2C(=O)NCCCNC(=O)c2ccc(-c3c4nc(c(-c5cccc(S(=O)(=O)[O-])c5F)c5ccc([nH]5)c(-c5cccc(S(=O)(=O)[O-])c5F)c5nc(c(-c6cccc(S(=O)(=O)[O-])c6F)c6ccc3[nH]6)C=C5)C=C4)cc2)c(C)c1
REMARK SMILES IDX 19 1 18 2 17 3 15 4 16 5 14 7 8 8 9 9 10 10 12 11 11 12
REMARK SMILES IDX 13 13 6 14 7 15 5 16 1 17 2 18 3 19 89 20 4 21 87 22 88 23
REMARK SMILES IDX 20 24 21 25 22 26 23 28 24 29 25 30 86 31 26 32 85 33 27 34
REMARK SMILES IDX 28 35 29 36 79 37 30 38 84 39 78 40 80 41 31 42 83 43 77 44
REMARK SMILES IDX 76 45 32 47 64 48 44 49 63 50 45 51 48 52 62 53 81 54 46 55
REMARK SMILES IDX 47 56 61 58 82 59 49 60 33 61 34 62 42 63 35 64 37 65 43 66
REMARK SMILES IDX 36 67 38 68 39 69 40 70 41 71 65 72 66 73 74 74 67 75 69 76
REMARK SMILES IDX 75 77 68 78 70 79 71 80 72 81 73 82 50 83 51 84 59 85 52 86
REMARK SMILES IDX 54 87 60 88 53 89 55 90 56 91 57 92 58 93
REMARK H PARENT 17 6 21 27 80 46 48 57
REMARK Flexibility Score: inf
ROOT
ATOM      1  C   UNL A   1      38.116  20.918  25.002  1.00  0.00     0.042 C 
ENDROOT
BRANCH   1   2
ATOM      2  C   UNL A   1      36.623  20.695  24.970  1.00  0.00     0.118 C 
BRANCH   2   3
ATOM      3  N   UNL A   1      35.824  21.480  25.883  1.00  0.00    -0.352 N 
ATOM      4  C   UNL A   1      34.470  21.746  25.825  1.00  0.00     0.252 C 
ATOM      5  O   UNL A   1      33.926  22.248  26.807  1.00  0.00    -0.269 OA
ATOM      6  H   UNL A   1      36.307  21.875  26.644  1.00  0.00     0.163 HD
BRANCH   4   7
ATOM      7  C   UNL A   1      33.688  21.572  24.557  1.00  0.00     0.053 A 
ATOM      8  C   UNL A   1      33.596  22.562  23.552  1.00  0.00     0.036 A 
ATOM      9  C   UNL A   1      32.790  22.350  22.420  1.00  0.00     0.013 A 
ATOM     10  C   UNL A   1      32.053  21.180  22.285  1.00  0.00     0.001 A 
ATOM     11  C   UNL A   1      33.010  20.337  24.357  1.00  0.00    -0.038 A 
ATOM     12  C   UNL A   1      32.180  20.172  23.234  1.00  0.00     0.004 A 
ATOM     13  C   UNL A   1      33.180  19.154  25.279  1.00  0.00     0.045 C 
BRANCH   8  14
ATOM     14  C   UNL A   1      34.445  23.780  23.557  1.00  0.00     0.194 C 
ATOM     15  O   UNL A   1      35.560  23.651  23.061  1.00  0.00    -0.289 OA
BRANCH  14  16
ATOM     16  C   UNL A   1      33.965  25.114  24.107  1.00  0.00     0.025 A 
ATOM     17  C   UNL A   1      32.409  28.809  25.764  1.00  0.00     0.044 C 
ATOM     18  C   UNL A   1      33.013  27.562  25.188  1.00  0.00    -0.051 A 
ATOM     19  C   UNL A   1      33.734  26.676  25.983  1.00  0.00     0.004 A 
ATOM     20  C   UNL A   1      32.834  27.257  23.835  1.00  0.00     0.007 A 
ATOM     21  C   UNL A   1      34.209  25.473  25.447  1.00  0.00     0.013 A 
ATOM     22  C   UNL A   1      33.331  26.063  23.273  1.00  0.00    -0.040 A 
ATOM     23  C   UNL A   1      33.177  25.888  21.784  1.00  0.00     0.045 C 
ENDBRANCH  14  16
ENDBRANCH   8  14
ENDBRANCH   4   7
ENDBRANCH   2   3
ENDBRANCH   1   2
BRANCH   1  24
ATOM     24  C   UNL A   1      38.522  22.131  25.823  1.00  0.00     0.118 C 
BRANCH  24  25
ATOM     25  N   UNL A   1      39.953  22.140  26.158  1.00  0.00    -0.352 N 
ATOM     26  C   UNL A   1      40.740  23.203  26.594  1.00  0.00     0.251 C 
ATOM     27  H   UNL A   1      40.418  21.278  26.060  1.00  0.00     0.163 HD
ATOM     28  O   UNL A   1      41.913  23.027  26.907  1.00  0.00    -0.269 OA
BRANCH  26  29
ATOM     29  C   UNL A   1      40.094  24.523  26.728  1.00  0.00     0.039 A 
ATOM     30  C   UNL A   1      40.699  25.617  26.103  1.00  0.00     0.014 A 
ATOM     31  C   UNL A   1      39.179  24.694  27.762  1.00  0.00     0.014 A 
ATOM     32  C   UNL A   1      40.624  26.865  26.715  1.00  0.00     0.010 A 
ATOM     33  C   UNL A   1      39.187  25.905  28.423  1.00  0.00     0.010 A 
ATOM     34  C   UNL A   1      39.986  26.956  27.949  1.00  0.00    -0.014 A 
BRANCH  34  35
ATOM     35  C   UNL A   1      40.195  28.043  28.896  1.00  0.00     0.031 A 
ATOM     36  C   UNL A   1      39.374  29.262  28.814  1.00  0.00     0.074 A 
ATOM     37  C   UNL A   1      41.020  27.867  29.955  1.00  0.00     0.049 A 
ATOM     38  N   UNL A   1      39.628  30.344  29.466  1.00  0.00    -0.248 NA
ATOM     39  C   UNL A   1      38.229  29.375  27.920  1.00  0.00     0.031 C 
ATOM     40  C   UNL A   1      41.043  28.639  31.195  1.00  0.00     0.029 A 
ATOM     41  N   UNL A   1      42.183  27.094  30.017  1.00  0.00    -0.354 N 
ATOM     42  C   UNL A   1      38.530  31.161  29.339  1.00  0.00     0.074 A 
ATOM     43  C   UNL A   1      37.777  30.587  28.253  1.00  0.00     0.031 C 
ATOM     44  C   UNL A   1      42.265  28.546  31.736  1.00  0.00     0.029 A 
ATOM     45  C   UNL A   1      43.099  27.842  30.783  1.00  0.00     0.049 A 
ATOM     46  H   UNL A   1      42.331  26.210  29.611  1.00  0.00     0.167 HD
ATOM     47  C   UNL A   1      38.332  32.125  30.281  1.00  0.00     0.034 A 
ATOM     48  C   UNL A   1      44.302  28.278  30.307  1.00  0.00     0.034 A 
ATOM     49  C   UNL A   1      39.544  32.323  31.101  1.00  0.00     0.049 A 
ATOM     50  C   UNL A   1      44.473  29.792  30.362  1.00  0.00     0.074 A 
ATOM     51  C   UNL A   1      39.909  32.053  32.411  1.00  0.00     0.029 A 
ATOM     52  N   UNL A   1      40.717  32.698  30.457  1.00  0.00    -0.354 N 
ATOM     53  N   UNL A   1      43.639  30.632  30.915  1.00  0.00    -0.248 NA
ATOM     54  C   UNL A   1      45.569  30.477  29.682  1.00  0.00     0.031 C 
ATOM     55  C   UNL A   1      41.322  32.238  32.530  1.00  0.00     0.029 A 
ATOM     56  C   UNL A   1      41.813  32.648  31.304  1.00  0.00     0.049 A 
ATOM     57  H   UNL A   1      40.764  32.968  29.511  1.00  0.00     0.167 HD
ATOM     58  C   UNL A   1      43.951  31.919  30.525  1.00  0.00     0.074 A 
ATOM     59  C   UNL A   1      45.195  31.763  29.786  1.00  0.00     0.031 C 
ATOM     60  C   UNL A   1      43.124  32.991  30.758  1.00  0.00     0.034 A 
BRANCH  47  61
ATOM     61  C   UNL A   1      36.986  32.764  30.622  1.00  0.00     0.023 A 
ATOM     62  C   UNL A   1      36.494  32.577  31.934  1.00  0.00     0.012 A 
ATOM     63  C   UNL A   1      36.105  33.437  29.737  1.00  0.00     0.148 A 
ATOM     64  C   UNL A   1      35.205  32.969  32.323  1.00  0.00     0.002 A 
ATOM     65  C   UNL A   1      34.822  33.837  30.121  1.00  0.00     0.091 A 
ATOM     66  F   UNL A   1      36.470  33.697  28.487  1.00  0.00    -0.205 F 
ATOM     67  C   UNL A   1      34.362  33.591  31.414  1.00  0.00     0.022 A 
BRANCH  65  68
ATOM     68  S   UNL A   1      33.673  34.632  28.976  1.00  0.00     0.127 S 
ATOM     69  O   UNL A   1      33.386  33.551  28.033  1.00  0.00    -0.237 OA
ATOM     70  O   UNL A   1      32.557  34.989  29.851  1.00  0.00    -0.237 OA
ATOM     71  O   UNL A   1      34.380  35.767  28.393  1.00  0.00    -0.744 OA
ENDBRANCH  65  68
ENDBRANCH  47  61
BRANCH  48  72
ATOM     72  C   UNL A   1      44.883  27.374  29.269  1.00  0.00     0.023 A 
ATOM     73  C   UNL A   1      45.285  26.085  29.696  1.00  0.00     0.012 A 
ATOM     74  C   UNL A   1      44.698  27.602  27.895  1.00  0.00     0.148 A 
ATOM     75  C   UNL A   1      45.371  25.023  28.796  1.00  0.00     0.002 A 
ATOM     76  C   UNL A   1      44.801  26.538  26.999  1.00  0.00     0.091 A 
ATOM     77  F   UNL A   1      44.339  28.825  27.487  1.00  0.00    -0.205 F 
ATOM     78  C   UNL A   1      45.098  25.243  27.450  1.00  0.00     0.022 A 
BRANCH  76  79
ATOM     79  S   UNL A   1      44.422  26.750  25.253  1.00  0.00     0.127 S 
ATOM     80  O   UNL A   1      43.821  25.461  24.926  1.00  0.00    -0.237 OA
ATOM     81  O   UNL A   1      43.492  27.879  25.269  1.00  0.00    -0.237 OA
ATOM     82  O   UNL A   1      45.704  27.045  24.632  1.00  0.00    -0.744 OA
ENDBRANCH  76  79
ENDBRANCH  48  72
BRANCH  60  83
ATOM     83  C   UNL A   1      43.414  34.449  30.374  1.00  0.00     0.023 A 
ATOM     84  C   UNL A   1      43.590  35.464  31.333  1.00  0.00     0.012 A 
ATOM     85  C   UNL A   1      43.459  34.877  29.016  1.00  0.00     0.148 A 
ATOM     86  C   UNL A   1      43.954  36.774  30.986  1.00  0.00     0.002 A 
ATOM     87  C   UNL A   1      43.808  36.182  28.668  1.00  0.00     0.091 A 
ATOM     88  F   UNL A   1      43.093  34.043  28.038  1.00  0.00    -0.205 F 
ATOM     89  C   UNL A   1      44.091  37.126  29.653  1.00  0.00     0.022 A 
BRANCH  87  90
ATOM     90  S   UNL A   1      43.914  36.716  26.952  1.00  0.00     0.127 S 
ATOM     91  O   UNL A   1      45.199  36.149  26.545  1.00  0.00    -0.237 OA
ATOM     92  O   UNL A   1      42.746  36.066  26.355  1.00  0.00    -0.237 OA
ATOM     93  O   UNL A   1      43.841  38.169  26.982  1.00  0.00    -0.744 OA
ENDBRANCH  87  90
ENDBRANCH  60  83
ENDBRANCH  34  35
ENDBRANCH  26  29
ENDBRANCH  24  25
ENDBRANCH   1  24
TORSDOF 15
ENDMDL
MODEL 3
REMARK VINA RESULT:     -13.0      1.601      2.005
REMARK SMILES Cc1ccc(C(=O)c2cccc(C)c2C(=O)NCCCNC(=O)c2ccc(-c3c4nc(c(-c5cccc(S(=O)(=O)[O-])c5F)c5ccc([nH]5)c(-c5cccc(S(=O)(=O)[O-])c5F)c5nc(c(-c6cccc(S(=O)(=O)[O-])c6F)c6ccc3[nH]6)C=C5)C=C4)cc2)c(C)c1
REMARK SMILES IDX 19 1 18 2 17 3 15 4 16 5 14 7 8 8 9 9 10 10 12 11 11 12
REMARK SMILES IDX 13 13 6 14 7 15 5 16 1 17 2 18 3 19 89 20 4 21 87 22 88 23
REMARK SMILES IDX 20 24 21 25 22 26 23 28 24 29 25 30 86 31 26 32 85 33 27 34
REMARK SMILES IDX 28 35 29 36 79 37 30 38 84 39 78 40 80 41 31 42 83 43 77 44
REMARK SMILES IDX 76 45 32 47 64 48 44 49 63 50 45 51 48 52 62 53 81 54 46 55
REMARK SMILES IDX 47 56 61 58 82 59 49 60 33 61 34 62 42 63 35 64 37 65 43 66
REMARK SMILES IDX 36 67 38 68 39 69 40 70 41 71 65 72 66 73 74 74 67 75 69 76
REMARK SMILES IDX 75 77 68 78 70 79 71 80 72 81 73 82 50 83 51 84 59 85 52 86
REMARK SMILES IDX 54 87 60 88 53 89 55 90 56 91 57 92 58 93
REMARK H PARENT 17 6 21 27 80 46 48 57
REMARK Flexibility Score: inf
ROOT
ATOM      1  C   UNL A   1      32.504  31.231  26.940  1.00  0.00     0.042 C 
ENDROOT
BRANCH   1   2
ATOM      2  C   UNL A   1      31.867  30.416  25.842  1.00  0.00     0.118 C 
BRANCH   2   3
ATOM      3  N   UNL A   1      32.756  29.678  24.974  1.00  0.00    -0.352 N 
ATOM      4  C   UNL A   1      32.438  28.704  24.048  1.00  0.00     0.252 C 
ATOM      5  O   UNL A   1      33.301  28.347  23.248  1.00  0.00    -0.269 OA
ATOM      6  H   UNL A   1      33.713  29.899  25.052  1.00  0.00     0.163 HD
BRANCH   4   7
ATOM      7  C   UNL A   1      31.126  27.979  24.089  1.00  0.00     0.053 A 
ATOM      8  C   UNL A   1      30.862  26.884  24.944  1.00  0.00     0.036 A 
ATOM      9  C   UNL A   1      29.628  26.215  24.879  1.00  0.00     0.013 A 
ATOM     10  C   UNL A   1      28.661  26.600  23.958  1.00  0.00     0.001 A 
ATOM     11  C   UNL A   1      30.090  28.429  23.223  1.00  0.00    -0.038 A 
ATOM     12  C   UNL A   1      28.881  27.713  23.153  1.00  0.00     0.004 A 
ATOM     13  C   UNL A   1      30.204  29.688  22.398  1.00  0.00     0.045 C 
BRANCH   8  14
ATOM     14  C   UNL A   1      31.786  26.491  26.038  1.00  0.00     0.194 C 
ATOM     15  O   UNL A   1      31.628  27.080  27.102  1.00  0.00    -0.289 OA
BRANCH  14  16
ATOM     16  C   UNL A   1      32.840  25.408  25.873  1.00  0.00     0.025 A 
ATOM     17  C   UNL A   1      35.804  22.318  25.173  1.00  0.00     0.044 C 
ATOM     18  C   UNL A   1      34.812  23.402  25.479  1.00  0.00    -0.051 A 
ATOM     19  C   UNL A   1      35.124  24.743  25.279  1.00  0.00     0.004 A 
ATOM     20  C   UNL A   1      33.537  23.072  25.947  1.00  0.00     0.007 A 
ATOM     21  C   UNL A   1      34.154  25.731  25.482  1.00  0.00     0.013 A 
ATOM     22  C   UNL A   1      32.556  24.058  26.182  1.00  0.00    -0.040 A 
ATOM     23  C   UNL A   1      31.254  23.602  26.790  1.00  0.00     0.045 C 
ENDBRANCH  14  16
ENDBRANCH   8  14
ENDBRANCH   4   7
ENDBRANCH   2   3
ENDBRANCH   1   2
BRANCH   1  24
ATOM     24  C   UNL A   1      33.815  30.645  27.437  1.00  0.00     0.118 C 
BRANCH  24  25
ATOM     25  N   UNL A   1      34.740  31.667  27.949  1.00  0.00    -0.352 N 
ATOM     26  C   UNL A   1      36.065  31.522  28.348  1.00  0.00     0.251 C 
ATOM     27  H   UNL A   1      34.370  32.577  28.019  1.00  0.00     0.163 HD
ATOM     28  O   UNL A   1      36.729  32.498  28.684  1.00  0.00    -0.269 OA
BRANCH  26  29
ATOM     29  C   UNL A   1      36.654  30.170  28.290  1.00  0.00     0.039 A 
ATOM     30  C   UNL A   1      36.704  29.423  29.470  1.00  0.00     0.014 A 
ATOM     31  C   UNL A   1      37.471  29.868  27.205  1.00  0.00     0.014 A 
ATOM     32  C   UNL A   1      37.783  28.569  29.678  1.00  0.00     0.010 A 
ATOM     33  C   UNL A   1      38.592  29.100  27.450  1.00  0.00     0.010 A 
ATOM     34  C   UNL A   1      38.790  28.534  28.718  1.00  0.00    -0.014 A 
BRANCH  34  35
ATOM     35  C   UNL A   1      40.143  28.057  28.972  1.00  0.00     0.031 A 
ATOM     36  C   UNL A   1      40.503  26.662  28.668  1.00  0.00     0.074 A 
ATOM     37  C   UNL A   1      41.113  28.933  29.324  1.00  0.00     0.049 A 
ATOM     38  N   UNL A   1      41.600  26.105  29.052  1.00  0.00    -0.248 NA
ATOM     39  C   UNL A   1      39.607  25.759  27.960  1.00  0.00     0.031 C 
ATOM     40  C   UNL A   1      42.557  28.742  29.219  1.00  0.00     0.029 A 
ATOM     41  N   UNL A   1      40.982  30.097  30.087  1.00  0.00    -0.354 N 
ATOM     42  C   UNL A   1      41.702  24.909  28.383  1.00  0.00     0.074 A 
ATOM     43  C   UNL A   1      40.382  24.677  27.855  1.00  0.00     0.031 C 
ATOM     44  C   UNL A   1      43.163  29.536  30.112  1.00  0.00     0.029 A 
ATOM     45  C   UNL A   1      42.120  30.142  30.917  1.00  0.00     0.049 A 
ATOM     46  H   UNL A   1      40.247  30.751  30.051  1.00  0.00     0.167 HD
ATOM     47  C   UNL A   1      42.939  24.357  28.235  1.00  0.00     0.034 A 
ATOM     48  C   UNL A   1      42.061  30.128  32.281  1.00  0.00     0.034 A 
ATOM     49  C   UNL A   1      43.919  25.005  29.130  1.00  0.00     0.049 A 
ATOM     50  C   UNL A   1      42.813  28.965  32.917  1.00  0.00     0.074 A 
ATOM     51  C   UNL A   1      45.005  25.850  28.963  1.00  0.00     0.029 A 
ATOM     52  N   UNL A   1      43.681  24.969  30.499  1.00  0.00    -0.354 N 
ATOM     53  N   UNL A   1      43.563  28.104  32.281  1.00  0.00    -0.248 NA
ATOM     54  C   UNL A   1      42.671  28.626  34.331  1.00  0.00     0.031 C 
ATOM     55  C   UNL A   1      45.389  26.346  30.248  1.00  0.00     0.029 A 
ATOM     56  C   UNL A   1      44.558  25.783  31.198  1.00  0.00     0.049 A 
ATOM     57  H   UNL A   1      42.973  24.430  30.921  1.00  0.00     0.167 HD
ATOM     58  C   UNL A   1      43.839  27.032  33.105  1.00  0.00     0.074 A 
ATOM     59  C   UNL A   1      43.288  27.435  34.390  1.00  0.00     0.031 C 
ATOM     60  C   UNL A   1      44.410  25.868  32.649  1.00  0.00     0.034 A 
BRANCH  47  61
ATOM     61  C   UNL A   1      43.340  23.368  27.141  1.00  0.00     0.023 A 
ATOM     62  C   UNL A   1      44.101  23.872  26.061  1.00  0.00     0.012 A 
ATOM     63  C   UNL A   1      42.942  22.012  27.019  1.00  0.00     0.148 A 
ATOM     64  C   UNL A   1      44.391  23.110  24.919  1.00  0.00     0.002 A 
ATOM     65  C   UNL A   1      43.235  21.247  25.886  1.00  0.00     0.091 A 
ATOM     66  F   UNL A   1      42.249  21.421  27.985  1.00  0.00    -0.205 F 
ATOM     67  C   UNL A   1      43.950  21.799  24.825  1.00  0.00     0.022 A 
BRANCH  65  68
ATOM     68  S   UNL A   1      42.670  19.541  25.700  1.00  0.00     0.127 S 
ATOM     69  O   UNL A   1      43.346  19.129  24.469  1.00  0.00    -0.237 OA
ATOM     70  O   UNL A   1      43.179  18.909  26.916  1.00  0.00    -0.237 OA
ATOM     71  O   UNL A   1      41.216  19.589  25.599  1.00  0.00    -0.744 OA
ENDBRANCH  65  68
ENDBRANCH  47  61
BRANCH  48  72
ATOM     72  C   UNL A   1      40.820  30.761  32.819  1.00  0.00     0.023 A 
ATOM     73  C   UNL A   1      39.707  29.910  33.027  1.00  0.00     0.012 A 
ATOM     74  C   UNL A   1      40.838  32.015  33.453  1.00  0.00     0.148 A 
ATOM     75  C   UNL A   1      38.707  30.243  33.941  1.00  0.00     0.002 A 
ATOM     76  C   UNL A   1      39.826  32.347  34.354  1.00  0.00     0.091 A 
ATOM     77  F   UNL A   1      41.878  32.829  33.241  1.00  0.00    -0.205 F 
ATOM     78  C   UNL A   1      38.784  31.450  34.628  1.00  0.00     0.022 A 
BRANCH  76  79
ATOM     79  S   UNL A   1      39.889  33.874  35.303  1.00  0.00     0.127 S 
ATOM     80  O   UNL A   1      38.719  33.731  36.164  1.00  0.00    -0.237 OA
ATOM     81  O   UNL A   1      41.177  33.766  35.986  1.00  0.00    -0.237 OA
ATOM     82  O   UNL A   1      39.833  34.931  34.304  1.00  0.00    -0.744 OA
ENDBRANCH  76  79
ENDBRANCH  48  72
BRANCH  60  83
ATOM     83  C   UNL A   1      44.766  24.646  33.509  1.00  0.00     0.023 A 
ATOM     84  C   UNL A   1      43.811  23.685  33.889  1.00  0.00     0.012 A 
ATOM     85  C   UNL A   1      46.076  24.445  34.029  1.00  0.00     0.148 A 
ATOM     86  C   UNL A   1      44.154  22.518  34.588  1.00  0.00     0.002 A 
ATOM     87  C   UNL A   1      46.418  23.291  34.735  1.00  0.00     0.091 A 
ATOM     88  F   UNL A   1      47.000  25.405  33.910  1.00  0.00    -0.205 F 
ATOM     89  C   UNL A   1      45.464  22.307  34.986  1.00  0.00     0.022 A 
BRANCH  87  90
ATOM     90  S   UNL A   1      48.085  23.009  35.354  1.00  0.00     0.127 S 
ATOM     91  O   UNL A   1      48.199  24.047  36.378  1.00  0.00    -0.237 OA
ATOM     92  O   UNL A   1      47.993  21.646  35.878  1.00  0.00    -0.237 OA
ATOM     93  O   UNL A   1      48.965  23.152  34.204  1.00  0.00    -0.744 OA
ENDBRANCH  87  90
ENDBRANCH  60  83
ENDBRANCH  34  35
ENDBRANCH  26  29
ENDBRANCH  24  25
ENDBRANCH   1  24
TORSDOF 15
ENDMDL
