MODEL 1
REMARK VINA RESULT:     -11.1      0.000      0.000
REMARK SMILES CC(C)C[C@H](NC(=O)[C@H](Cc1ccccc1)NC(=O)CNC(=O)C[NH3+])C(=O)NCCCNC(=O)c1ccc(-c2c3nc(c(-c4cccc(S(=O)(=O)[O-])c4F)c4ccc([nH]4)c(-c4cccc(S(=O)(=O)[O-])c4F)c4nc(c(-c5cccc(S(=O)(=O)[O-])c5F)c5ccc2[nH]5)C=C4)C=C3)cc1
REMARK SMILES IDX 26 1 27 2 28 3 5 5 4 6 2 7 1 8 3 9 6 10 7 11 8 13 9 14 17 15
REMARK SMILES IDX 18 16 19 18 20 19 21 20 22 21 23 23 24 24 25 25 10 29 11 30
REMARK SMILES IDX 12 31 16 32 13 33 15 34 14 35 29 36 30 37 31 38 32 39 33 40
REMARK SMILES IDX 34 42 35 43 36 44 97 45 37 46 96 47 38 48 39 49 40 50 90 51
REMARK SMILES IDX 41 52 95 53 89 54 91 55 42 56 94 57 88 58 87 59 43 61 75 62
REMARK SMILES IDX 55 63 74 64 56 65 59 66 73 67 92 68 57 69 58 70 72 72 93 73
REMARK SMILES IDX 60 74 44 75 45 76 53 77 46 78 48 79 54 80 47 81 49 82 50 83
REMARK SMILES IDX 51 84 52 85 76 86 77 87 85 88 78 89 80 90 86 91 79 92 81 93
REMARK SMILES IDX 82 94 83 95 84 96 61 97 62 98 70 99 63 100 65 101 71 102
REMARK SMILES IDX 64 103 66 104 67 105 68 106 69 107
REMARK H PARENT 28 4 6 12 17 17 21 22 25 26 25 27 25 28 32 41 91 60 59 71
REMARK Flexibility Score: inf
ROOT
ATOM      1  C   UNL A   1      34.382  22.134  26.940  1.00  0.00     0.242 C 
ATOM      2  O   UNL A   1      34.332  22.657  28.061  1.00  0.00    -0.273 OA
ATOM      3  N   UNL A   1      35.622  21.924  26.433  1.00  0.00    -0.354 N 
ATOM      4  H   UNL A   1      36.334  22.435  26.881  1.00  0.00     0.163 HD
ENDROOT
BRANCH   1   5
ATOM      5  C   UNL A   1      33.085  21.663  26.261  1.00  0.00     0.171 C 
BRANCH   5   6
ATOM      6  C   UNL A   1      33.093  21.711  24.716  1.00  0.00     0.038 C 
BRANCH   6   7
ATOM      7  C   UNL A   1      32.285  20.643  23.953  1.00  0.00    -0.015 C 
ATOM      8  C   UNL A   1      32.181  20.964  22.458  1.00  0.00     0.007 C 
ATOM      9  C   UNL A   1      32.945  19.265  24.101  1.00  0.00     0.007 C 
ENDBRANCH   6   7
ENDBRANCH   5   6
BRANCH   5  10
ATOM     10  N   UNL A   1      31.848  22.176  26.842  1.00  0.00    -0.343 N 
ATOM     11  C   UNL A   1      31.197  23.361  26.705  1.00  0.00     0.243 C 
ATOM     12  H   UNL A   1      31.402  21.542  27.449  1.00  0.00     0.164 HD
ATOM     13  O   UNL A   1      30.121  23.439  27.312  1.00  0.00    -0.273 OA
BRANCH  11  14
ATOM     14  C   UNL A   1      31.707  24.561  25.857  1.00  0.00     0.175 C 
BRANCH  14  15
ATOM     15  N   UNL A   1      30.548  25.403  25.486  1.00  0.00    -0.342 N 
ATOM     16  C   UNL A   1      29.997  25.702  24.281  1.00  0.00     0.240 C 
ATOM     17  H   UNL A   1      30.094  25.823  26.251  1.00  0.00     0.164 HD
ATOM     18  O   UNL A   1      29.114  26.564  24.248  1.00  0.00    -0.273 OA
BRANCH  16  19
ATOM     19  C   UNL A   1      30.322  24.887  23.027  1.00  0.00     0.216 C 
BRANCH  19  20
ATOM     20  N   UNL A   1      31.681  24.382  22.923  1.00  0.00    -0.342 N 
ATOM     21  C   UNL A   1      32.676  24.833  22.103  1.00  0.00     0.275 C 
ATOM     22  H   UNL A   1      31.909  23.626  23.511  1.00  0.00     0.164 HD
ATOM     23  O   UNL A   1      33.772  24.270  22.135  1.00  0.00    -0.268 OA
BRANCH  21  24
ATOM     24  C   UNL A   1      32.391  25.999  21.148  1.00  0.00     0.360 C 
BRANCH  24  25
ATOM     25  N   UNL A   1      32.357  25.516  19.762  1.00  0.00    -0.350 N 
ATOM     26  H   UNL A   1      32.914  24.664  19.685  1.00  0.00     0.344 HD
ATOM     27  H   UNL A   1      32.742  26.230  19.143  1.00  0.00     0.344 HD
ATOM     28  H   UNL A   1      31.394  25.317  19.494  1.00  0.00     0.344 HD
ENDBRANCH  24  25
ENDBRANCH  21  24
ENDBRANCH  19  20
ENDBRANCH  16  19
ENDBRANCH  14  15
BRANCH  14  29
ATOM     29  C   UNL A   1      32.762  25.507  26.463  1.00  0.00     0.070 C 
BRANCH  29  30
ATOM     30  C   UNL A   1      32.698  26.999  26.198  1.00  0.00    -0.045 A 
ATOM     31  C   UNL A   1      33.252  27.638  25.082  1.00  0.00     0.004 A 
ATOM     32  C   UNL A   1      32.032  27.794  27.147  1.00  0.00     0.004 A 
ATOM     33  C   UNL A   1      33.104  29.013  24.892  1.00  0.00     0.000 A 
ATOM     34  C   UNL A   1      31.905  29.173  26.971  1.00  0.00     0.000 A 
ATOM     35  C   UNL A   1      32.431  29.781  25.835  1.00  0.00     0.000 A 
ENDBRANCH  29  30
ENDBRANCH  14  29
ENDBRANCH  11  14
ENDBRANCH   5  10
ENDBRANCH   1   5
BRANCH   3  36
ATOM     36  C   UNL A   1      36.085  21.078  25.349  1.00  0.00     0.117 C 
BRANCH  36  37
ATOM     37  C   UNL A   1      37.437  21.495  24.799  1.00  0.00     0.042 C 
BRANCH  37  38
ATOM     38  C   UNL A   1      38.311  22.231  25.807  1.00  0.00     0.118 C 
BRANCH  38  39
ATOM     39  N   UNL A   1      39.688  21.742  25.860  1.00  0.00    -0.352 N 
ATOM     40  C   UNL A   1      40.859  22.386  26.191  1.00  0.00     0.251 C 
ATOM     41  H   UNL A   1      39.796  20.794  25.619  1.00  0.00     0.163 HD
ATOM     42  O   UNL A   1      41.937  21.825  26.013  1.00  0.00    -0.269 OA
BRANCH  40  43
ATOM     43  C   UNL A   1      40.817  23.764  26.721  1.00  0.00     0.039 A 
ATOM     44  C   UNL A   1      41.032  23.987  28.084  1.00  0.00     0.014 A 
ATOM     45  C   UNL A   1      40.615  24.841  25.862  1.00  0.00     0.014 A 
ATOM     46  C   UNL A   1      41.167  25.297  28.555  1.00  0.00     0.010 A 
ATOM     47  C   UNL A   1      40.882  26.127  26.304  1.00  0.00     0.010 A 
ATOM     48  C   UNL A   1      41.164  26.374  27.655  1.00  0.00    -0.014 A 
BRANCH  48  49
ATOM     49  C   UNL A   1      41.477  27.767  28.073  1.00  0.00     0.031 A 
ATOM     50  C   UNL A   1      42.909  28.237  28.104  1.00  0.00     0.074 A 
ATOM     51  C   UNL A   1      40.499  28.553  28.568  1.00  0.00     0.049 A 
ATOM     52  N   UNL A   1      43.407  29.335  28.608  1.00  0.00    -0.248 NA
ATOM     53  C   UNL A   1      43.922  27.325  27.544  1.00  0.00     0.031 C 
ATOM     54  C   UNL A   1      39.087  28.179  28.691  1.00  0.00     0.029 A 
ATOM     55  N   UNL A   1      40.550  29.818  29.099  1.00  0.00    -0.354 N 
ATOM     56  C   UNL A   1      44.787  29.215  28.488  1.00  0.00     0.074 A 
ATOM     57  C   UNL A   1      45.050  27.921  27.900  1.00  0.00     0.031 C 
ATOM     58  C   UNL A   1      38.406  29.195  29.246  1.00  0.00     0.029 A 
ATOM     59  C   UNL A   1      39.334  30.276  29.557  1.00  0.00     0.049 A 
ATOM     60  H   UNL A   1      41.377  30.349  29.147  1.00  0.00     0.167 HD
ATOM     61  C   UNL A   1      45.749  30.115  28.803  1.00  0.00     0.034 A 
ATOM     62  C   UNL A   1      39.006  31.432  30.167  1.00  0.00     0.034 A 
ATOM     63  C   UNL A   1      45.477  31.435  29.297  1.00  0.00     0.049 A 
ATOM     64  C   UNL A   1      40.082  32.452  30.419  1.00  0.00     0.074 A 
ATOM     65  C   UNL A   1      46.366  32.469  29.525  1.00  0.00     0.029 A 
ATOM     66  N   UNL A   1      44.216  31.910  29.627  1.00  0.00    -0.354 N 
ATOM     67  N   UNL A   1      41.363  32.383  30.148  1.00  0.00    -0.248 NA
ATOM     68  C   UNL A   1      39.665  33.722  31.031  1.00  0.00     0.031 C 
ATOM     69  C   UNL A   1      45.644  33.569  29.998  1.00  0.00     0.029 A 
ATOM     70  C   UNL A   1      44.304  33.222  30.057  1.00  0.00     0.049 A 
ATOM     71  H   UNL A   1      43.383  31.391  29.564  1.00  0.00     0.167 HD
ATOM     72  C   UNL A   1      41.900  33.607  30.529  1.00  0.00     0.074 A 
ATOM     73  C   UNL A   1      40.799  34.409  31.026  1.00  0.00     0.031 C 
ATOM     74  C   UNL A   1      43.189  34.023  30.492  1.00  0.00     0.034 A 
BRANCH  61  75
ATOM     75  C   UNL A   1      47.180  29.725  28.546  1.00  0.00     0.023 A 
ATOM     76  C   UNL A   1      47.782  30.070  27.318  1.00  0.00     0.012 A 
ATOM     77  C   UNL A   1      47.944  29.059  29.524  1.00  0.00     0.148 A 
ATOM     78  C   UNL A   1      49.105  29.723  27.050  1.00  0.00     0.002 A 
ATOM     79  C   UNL A   1      49.277  28.756  29.268  1.00  0.00     0.091 A 
ATOM     80  F   UNL A   1      47.351  28.718  30.678  1.00  0.00    -0.205 F 
ATOM     81  C   UNL A   1      49.855  29.076  28.029  1.00  0.00     0.022 A 
BRANCH  79  82
ATOM     82  S   UNL A   1      50.348  27.991  30.491  1.00  0.00     0.127 S 
ATOM     83  O   UNL A   1      51.539  27.695  29.695  1.00  0.00    -0.237 OA
ATOM     84  O   UNL A   1      50.520  29.066  31.468  1.00  0.00    -0.237 OA
ATOM     85  O   UNL A   1      49.622  26.831  30.989  1.00  0.00    -0.744 OA
ENDBRANCH  79  82
ENDBRANCH  61  75
BRANCH  62  86
ATOM     86  C   UNL A   1      37.584  31.717  30.508  1.00  0.00     0.023 A 
ATOM     87  C   UNL A   1      37.092  31.327  31.769  1.00  0.00     0.012 A 
ATOM     88  C   UNL A   1      36.730  32.399  29.621  1.00  0.00     0.148 A 
ATOM     89  C   UNL A   1      35.768  31.584  32.128  1.00  0.00     0.002 A 
ATOM     90  C   UNL A   1      35.429  32.699  30.005  1.00  0.00     0.091 A 
ATOM     91  F   UNL A   1      37.213  32.753  28.420  1.00  0.00    -0.205 F 
ATOM     92  C   UNL A   1      34.940  32.278  31.252  1.00  0.00     0.022 A 
BRANCH  90  93
ATOM     93  S   UNL A   1      34.336  33.708  28.995  1.00  0.00     0.127 S 
ATOM     94  O   UNL A   1      33.424  34.255  29.997  1.00  0.00    -0.237 OA
ATOM     95  O   UNL A   1      35.268  34.676  28.414  1.00  0.00    -0.237 OA
ATOM     96  O   UNL A   1      33.748  32.791  28.029  1.00  0.00    -0.744 OA
ENDBRANCH  90  93
ENDBRANCH  62  86
BRANCH  74  97
ATOM     97  C   UNL A   1      43.486  35.415  30.979  1.00  0.00     0.023 A 
ATOM     98  C   UNL A   1      43.861  35.616  32.321  1.00  0.00     0.012 A 
ATOM     99  C   UNL A   1      43.478  36.507  30.088  1.00  0.00     0.148 A 
ATOM    100  C   UNL A   1      44.200  36.889  32.778  1.00  0.00     0.002 A 
ATOM    101  C   UNL A   1      43.861  37.765  30.540  1.00  0.00     0.091 A 
ATOM    102  F   UNL A   1      43.098  36.297  28.820  1.00  0.00    -0.205 F 
ATOM    103  C   UNL A   1      44.213  37.958  31.886  1.00  0.00     0.022 A 
BRANCH 101 104
ATOM    104  S   UNL A   1      43.997  39.178  29.441  1.00  0.00     0.127 S 
ATOM    105  O   UNL A   1      44.458  40.222  30.353  1.00  0.00    -0.237 OA
ATOM    106  O   UNL A   1      45.000  38.726  28.475  1.00  0.00    -0.237 OA
ATOM    107  O   UNL A   1      42.668  39.377  28.879  1.00  0.00    -0.744 OA
ENDBRANCH 101 104
ENDBRANCH  74  97
ENDBRANCH  48  49
ENDBRANCH  40  43
ENDBRANCH  38  39
ENDBRANCH  37  38
ENDBRANCH  36  37
ENDBRANCH   3  36
TORSDOF 24
ENDMDL
MODEL 2
REMARK VINA RESULT:     -11.0      2.982      8.043
REMARK SMILES CC(C)C[C@H](NC(=O)[C@H](Cc1ccccc1)NC(=O)CNC(=O)C[NH3+])C(=O)NCCCNC(=O)c1ccc(-c2c3nc(c(-c4cccc(S(=O)(=O)[O-])c4F)c4ccc([nH]4)c(-c4cccc(S(=O)(=O)[O-])c4F)c4nc(c(-c5cccc(S(=O)(=O)[O-])c5F)c5ccc2[nH]5)C=C4)C=C3)cc1
REMARK SMILES IDX 26 1 27 2 28 3 5 5 4 6 2 7 1 8 3 9 6 10 7 11 8 13 9 14 17 15
REMARK SMILES IDX 18 16 19 18 20 19 21 20 22 21 23 23 24 24 25 25 10 29 11 30
REMARK SMILES IDX 12 31 16 32 13 33 15 34 14 35 29 36 30 37 31 38 32 39 33 40
REMARK SMILES IDX 34 42 35 43 36 44 97 45 37 46 96 47 38 48 39 49 40 50 90 51
REMARK SMILES IDX 41 52 95 53 89 54 91 55 42 56 94 57 88 58 87 59 43 61 75 62
REMARK SMILES IDX 55 63 74 64 56 65 59 66 73 67 92 68 57 69 58 70 72 72 93 73
REMARK SMILES IDX 60 74 44 75 45 76 53 77 46 78 48 79 54 80 47 81 49 82 50 83
REMARK SMILES IDX 51 84 52 85 76 86 77 87 85 88 78 89 80 90 86 91 79 92 81 93
REMARK SMILES IDX 82 94 83 95 84 96 61 97 62 98 70 99 63 100 65 101 71 102
REMARK SMILES IDX 64 103 66 104 67 105 68 106 69 107
REMARK H PARENT 28 4 6 12 17 17 21 22 25 26 25 27 25 28 32 41 91 60 59 71
REMARK Flexibility Score: inf
ROOT
ATOM      1  C   UNL A   1      34.367  21.433  26.289  1.00  0.00     0.242 C 
ATOM      2  O   UNL A   1      34.097  22.080  27.309  1.00  0.00    -0.273 OA
ATOM      3  N   UNL A   1      35.678  21.376  25.947  1.00  0.00    -0.354 N 
ATOM      4  H   UNL A   1      36.239  22.057  26.383  1.00  0.00     0.163 HD
ENDROOT
BRANCH   1   5
ATOM      5  C   UNL A   1      33.255  20.661  25.559  1.00  0.00     0.171 C 
BRANCH   5   6
ATOM      6  C   UNL A   1      33.230  19.138  25.816  1.00  0.00     0.038 C 
BRANCH   6   7
ATOM      7  C   UNL A   1      33.023  18.201  24.609  1.00  0.00    -0.015 C 
ATOM      8  C   UNL A   1      34.354  17.696  24.043  1.00  0.00     0.007 C 
ATOM      9  C   UNL A   1      32.184  16.982  25.016  1.00  0.00     0.007 C 
ENDBRANCH   6   7
ENDBRANCH   5   6
BRANCH   5  10
ATOM     10  N   UNL A   1      33.068  21.007  24.153  1.00  0.00    -0.343 N 
ATOM     11  C   UNL A   1      32.719  22.167  23.537  1.00  0.00     0.243 C 
ATOM     12  H   UNL A   1      33.225  20.258  23.535  1.00  0.00     0.164 HD
ATOM     13  O   UNL A   1      32.711  22.119  22.300  1.00  0.00    -0.273 OA
BRANCH  11  14
ATOM     14  C   UNL A   1      32.358  23.489  24.273  1.00  0.00     0.175 C 
BRANCH  14  15
ATOM     15  N   UNL A   1      31.612  23.154  25.506  1.00  0.00    -0.342 N 
ATOM     16  C   UNL A   1      30.953  23.931  26.403  1.00  0.00     0.240 C 
ATOM     17  H   UNL A   1      31.590  22.192  25.715  1.00  0.00     0.164 HD
ATOM     18  O   UNL A   1      30.542  23.397  27.437  1.00  0.00    -0.273 OA
BRANCH  16  19
ATOM     19  C   UNL A   1      30.571  25.378  26.082  1.00  0.00     0.216 C 
BRANCH  19  20
ATOM     20  N   UNL A   1      29.315  25.570  25.378  1.00  0.00    -0.342 N 
ATOM     21  C   UNL A   1      29.072  26.404  24.323  1.00  0.00     0.275 C 
ATOM     22  H   UNL A   1      28.551  25.037  25.697  1.00  0.00     0.164 HD
ATOM     23  O   UNL A   1      27.933  26.453  23.856  1.00  0.00    -0.268 OA
BRANCH  21  24
ATOM     24  C   UNL A   1      30.209  27.276  23.777  1.00  0.00     0.360 C 
BRANCH  24  25
ATOM     25  N   UNL A   1      29.692  28.196  22.757  1.00  0.00    -0.350 N 
ATOM     26  H   UNL A   1      30.450  28.794  22.423  1.00  0.00     0.344 HD
ATOM     27  H   UNL A   1      28.957  28.775  23.161  1.00  0.00     0.344 HD
ATOM     28  H   UNL A   1      29.314  27.661  21.976  1.00  0.00     0.344 HD
ENDBRANCH  24  25
ENDBRANCH  21  24
ENDBRANCH  19  20
ENDBRANCH  16  19
ENDBRANCH  14  15
BRANCH  14  29
ATOM     29  C   UNL A   1      33.494  24.443  24.691  1.00  0.00     0.070 C 
BRANCH  29  30
ATOM     30  C   UNL A   1      33.621  25.812  24.050  1.00  0.00    -0.045 A 
ATOM     31  C   UNL A   1      33.571  26.059  22.673  1.00  0.00     0.004 A 
ATOM     32  C   UNL A   1      33.805  26.910  24.908  1.00  0.00     0.004 A 
ATOM     33  C   UNL A   1      33.648  27.360  22.170  1.00  0.00     0.000 A 
ATOM     34  C   UNL A   1      33.908  28.208  24.406  1.00  0.00     0.000 A 
ATOM     35  C   UNL A   1      33.817  28.435  23.036  1.00  0.00     0.000 A 
ENDBRANCH  29  30
ENDBRANCH  14  29
ENDBRANCH  11  14
ENDBRANCH   5  10
ENDBRANCH   1   5
BRANCH   3  36
ATOM     36  C   UNL A   1      36.399  20.490  25.052  1.00  0.00     0.117 C 
BRANCH  36  37
ATOM     37  C   UNL A   1      37.785  20.997  24.695  1.00  0.00     0.042 C 
BRANCH  37  38
ATOM     38  C   UNL A   1      38.750  21.031  25.874  1.00  0.00     0.118 C 
BRANCH  38  39
ATOM     39  N   UNL A   1      39.637  19.871  25.942  1.00  0.00    -0.352 N 
ATOM     40  C   UNL A   1      41.001  19.791  26.110  1.00  0.00     0.251 C 
ATOM     41  H   UNL A   1      39.183  19.002  25.852  1.00  0.00     0.163 HD
ATOM     42  O   UNL A   1      41.572  18.711  25.976  1.00  0.00    -0.269 OA
BRANCH  40  43
ATOM     43  C   UNL A   1      41.779  21.009  26.412  1.00  0.00     0.039 A 
ATOM     44  C   UNL A   1      42.160  21.862  25.372  1.00  0.00     0.014 A 
ATOM     45  C   UNL A   1      42.091  21.335  27.729  1.00  0.00     0.014 A 
ATOM     46  C   UNL A   1      42.740  23.098  25.672  1.00  0.00     0.010 A 
ATOM     47  C   UNL A   1      42.542  22.611  28.030  1.00  0.00     0.010 A 
ATOM     48  C   UNL A   1      42.870  23.512  27.006  1.00  0.00    -0.014 A 
BRANCH  48  49
ATOM     49  C   UNL A   1      43.316  24.881  27.381  1.00  0.00     0.031 A 
ATOM     50  C   UNL A   1      42.339  25.843  28.006  1.00  0.00     0.074 A 
ATOM     51  C   UNL A   1      44.544  25.306  27.020  1.00  0.00     0.049 A 
ATOM     52  N   UNL A   1      42.471  27.124  28.231  1.00  0.00    -0.248 NA
ATOM     53  C   UNL A   1      41.018  25.306  28.374  1.00  0.00     0.031 C 
ATOM     54  C   UNL A   1      45.550  24.506  26.316  1.00  0.00     0.029 A 
ATOM     55  N   UNL A   1      45.144  26.534  27.161  1.00  0.00    -0.354 N 
ATOM     56  C   UNL A   1      41.235  27.555  28.701  1.00  0.00     0.074 A 
ATOM     57  C   UNL A   1      40.355  26.409  28.691  1.00  0.00     0.031 C 
ATOM     58  C   UNL A   1      46.643  25.256  26.100  1.00  0.00     0.029 A 
ATOM     59  C   UNL A   1      46.405  26.601  26.612  1.00  0.00     0.049 A 
ATOM     60  H   UNL A   1      44.713  27.294  27.614  1.00  0.00     0.167 HD
ATOM     61  C   UNL A   1      40.874  28.785  29.137  1.00  0.00     0.034 A 
ATOM     62  C   UNL A   1      47.268  27.632  26.521  1.00  0.00     0.034 A 
ATOM     63  C   UNL A   1      41.779  29.895  29.236  1.00  0.00     0.049 A 
ATOM     64  C   UNL A   1      46.874  28.963  27.100  1.00  0.00     0.074 A 
ATOM     65  C   UNL A   1      41.552  31.144  29.783  1.00  0.00     0.029 A 
ATOM     66  N   UNL A   1      43.091  29.886  28.787  1.00  0.00    -0.354 N 
ATOM     67  N   UNL A   1      45.754  29.307  27.689  1.00  0.00    -0.248 NA
ATOM     68  C   UNL A   1      47.873  30.039  27.032  1.00  0.00     0.031 C 
ATOM     69  C   UNL A   1      42.726  31.894  29.662  1.00  0.00     0.029 A 
ATOM     70  C   UNL A   1      43.687  31.108  29.045  1.00  0.00     0.049 A 
ATOM     71  H   UNL A   1      43.533  29.124  28.349  1.00  0.00     0.167 HD
ATOM     72  C   UNL A   1      45.922  30.627  28.086  1.00  0.00     0.074 A 
ATOM     73  C   UNL A   1      47.264  31.014  27.694  1.00  0.00     0.031 C 
ATOM     74  C   UNL A   1      45.042  31.454  28.700  1.00  0.00     0.034 A 
BRANCH  61  75
ATOM     75  C   UNL A   1      39.458  28.967  29.616  1.00  0.00     0.023 A 
ATOM     76  C   UNL A   1      39.112  28.566  30.923  1.00  0.00     0.012 A 
ATOM     77  C   UNL A   1      38.482  29.570  28.798  1.00  0.00     0.148 A 
ATOM     78  C   UNL A   1      37.809  28.723  31.395  1.00  0.00     0.002 A 
ATOM     79  C   UNL A   1      37.196  29.763  29.292  1.00  0.00     0.091 A 
ATOM     80  F   UNL A   1      38.821  29.925  27.550  1.00  0.00    -0.205 F 
ATOM     81  C   UNL A   1      36.855  29.330  30.583  1.00  0.00     0.022 A 
BRANCH  79  82
ATOM     82  S   UNL A   1      35.916  30.604  28.353  1.00  0.00     0.127 S 
ATOM     83  O   UNL A   1      34.895  30.822  29.377  1.00  0.00    -0.237 OA
ATOM     84  O   UNL A   1      36.603  31.818  27.910  1.00  0.00    -0.237 OA
ATOM     85  O   UNL A   1      35.543  29.693  27.279  1.00  0.00    -0.744 OA
ENDBRANCH  79  82
ENDBRANCH  61  75
BRANCH  62  86
ATOM     86  C   UNL A   1      48.619  27.422  25.928  1.00  0.00     0.023 A 
ATOM     87  C   UNL A   1      49.664  26.964  26.755  1.00  0.00     0.012 A 
ATOM     88  C   UNL A   1      48.871  27.633  24.560  1.00  0.00     0.148 A 
ATOM     89  C   UNL A   1      50.941  26.749  26.236  1.00  0.00     0.002 A 
ATOM     90  C   UNL A   1      50.132  27.365  24.039  1.00  0.00     0.091 A 
ATOM     91  F   UNL A   1      47.868  28.081  23.791  1.00  0.00    -0.205 F 
ATOM     92  C   UNL A   1      51.173  26.938  24.878  1.00  0.00     0.022 A 
BRANCH  90  93
ATOM     93  S   UNL A   1      50.482  27.452  22.278  1.00  0.00     0.127 S 
ATOM     94  O   UNL A   1      51.812  26.852  22.208  1.00  0.00    -0.237 OA
ATOM     95  O   UNL A   1      49.406  26.636  21.714  1.00  0.00    -0.237 OA
ATOM     96  O   UNL A   1      50.401  28.866  21.938  1.00  0.00    -0.744 OA
ENDBRANCH  90  93
ENDBRANCH  62  86
BRANCH  74  97
ATOM     97  C   UNL A   1      45.498  32.853  29.011  1.00  0.00     0.023 A 
ATOM     98  C   UNL A   1      46.197  33.106  30.207  1.00  0.00     0.012 A 
ATOM     99  C   UNL A   1      45.312  33.895  28.081  1.00  0.00     0.148 A 
ATOM    100  C   UNL A   1      46.682  34.383  30.486  1.00  0.00     0.002 A 
ATOM    101  C   UNL A   1      45.838  35.154  28.346  1.00  0.00     0.091 A 
ATOM    102  F   UNL A   1      44.626  33.637  26.959  1.00  0.00    -0.205 F 
ATOM    103  C   UNL A   1      46.515  35.401  29.551  1.00  0.00     0.022 A 
BRANCH 101 104
ATOM    104  S   UNL A   1      45.752  36.498  27.159  1.00  0.00     0.127 S 
ATOM    105  O   UNL A   1      44.310  36.710  27.051  1.00  0.00    -0.237 OA
ATOM    106  O   UNL A   1      46.476  37.570  27.846  1.00  0.00    -0.237 OA
ATOM    107  O   UNL A   1      46.406  36.009  25.953  1.00  0.00    -0.744 OA
ENDBRANCH 101 104
ENDBRANCH  74  97
ENDBRANCH  48  49
ENDBRANCH  40  43
ENDBRANCH  38  39
ENDBRANCH  37  38
ENDBRANCH  36  37
ENDBRANCH   3  36
TORSDOF 24
ENDMDL
MODEL 3
REMARK VINA RESULT:      -9.3      2.372      8.252
REMARK SMILES CC(C)C[C@H](NC(=O)[C@H](Cc1ccccc1)NC(=O)CNC(=O)C[NH3+])C(=O)NCCCNC(=O)c1ccc(-c2c3nc(c(-c4cccc(S(=O)(=O)[O-])c4F)c4ccc([nH]4)c(-c4cccc(S(=O)(=O)[O-])c4F)c4nc(c(-c5cccc(S(=O)(=O)[O-])c5F)c5ccc2[nH]5)C=C4)C=C3)cc1
REMARK SMILES IDX 26 1 27 2 28 3 5 5 4 6 2 7 1 8 3 9 6 10 7 11 8 13 9 14 17 15
REMARK SMILES IDX 18 16 19 18 20 19 21 20 22 21 23 23 24 24 25 25 10 29 11 30
REMARK SMILES IDX 12 31 16 32 13 33 15 34 14 35 29 36 30 37 31 38 32 39 33 40
REMARK SMILES IDX 34 42 35 43 36 44 97 45 37 46 96 47 38 48 39 49 40 50 90 51
REMARK SMILES IDX 41 52 95 53 89 54 91 55 42 56 94 57 88 58 87 59 43 61 75 62
REMARK SMILES IDX 55 63 74 64 56 65 59 66 73 67 92 68 57 69 58 70 72 72 93 73
REMARK SMILES IDX 60 74 44 75 45 76 53 77 46 78 48 79 54 80 47 81 49 82 50 83
REMARK SMILES IDX 51 84 52 85 76 86 77 87 85 88 78 89 80 90 86 91 79 92 81 93
REMARK SMILES IDX 82 94 83 95 84 96 61 97 62 98 70 99 63 100 65 101 71 102
REMARK SMILES IDX 64 103 66 104 67 105 68 106 69 107
REMARK H PARENT 28 4 6 12 17 17 21 22 25 26 25 27 25 28 32 41 91 60 59 71
REMARK Flexibility Score: inf
ROOT
ATOM      1  C   UNL A   1      35.550  23.734  25.963  1.00  0.00     0.242 C 
ATOM      2  O   UNL A   1      34.658  24.348  26.562  1.00  0.00    -0.273 OA
ATOM      3  N   UNL A   1      36.809  24.216  26.110  1.00  0.00    -0.354 N 
ATOM      4  H   UNL A   1      36.852  25.138  26.455  1.00  0.00     0.163 HD
ENDROOT
BRANCH   1   5
ATOM      5  C   UNL A   1      35.210  22.438  25.209  1.00  0.00     0.171 C 
BRANCH   5   6
ATOM      6  C   UNL A   1      35.899  21.162  25.743  1.00  0.00     0.038 C 
BRANCH   6   7
ATOM      7  C   UNL A   1      36.634  20.258  24.734  1.00  0.00    -0.015 C 
ATOM      8  C   UNL A   1      38.124  20.125  25.066  1.00  0.00     0.007 C 
ATOM      9  C   UNL A   1      36.019  18.852  24.729  1.00  0.00     0.007 C 
ENDBRANCH   6   7
ENDBRANCH   5   6
BRANCH   5  10
ATOM     10  N   UNL A   1      35.234  22.534  23.752  1.00  0.00    -0.343 N 
ATOM     11  C   UNL A   1      34.343  23.034  22.855  1.00  0.00     0.243 C 
ATOM     12  H   UNL A   1      36.050  22.168  23.343  1.00  0.00     0.164 HD
ATOM     13  O   UNL A   1      34.718  23.005  21.676  1.00  0.00    -0.273 OA
BRANCH  11  14
ATOM     14  C   UNL A   1      32.949  23.619  23.221  1.00  0.00     0.175 C 
BRANCH  14  15
ATOM     15  N   UNL A   1      32.527  24.541  22.143  1.00  0.00    -0.342 N 
ATOM     16  C   UNL A   1      31.733  25.643  22.155  1.00  0.00     0.240 C 
ATOM     17  H   UNL A   1      32.885  24.313  21.255  1.00  0.00     0.164 HD
ATOM     18  O   UNL A   1      31.421  26.141  21.069  1.00  0.00    -0.273 OA
BRANCH  16  19
ATOM     19  C   UNL A   1      31.374  26.358  23.459  1.00  0.00     0.216 C 
BRANCH  19  20
ATOM     20  N   UNL A   1      32.309  27.373  23.914  1.00  0.00    -0.342 N 
ATOM     21  C   UNL A   1      32.157  28.731  23.851  1.00  0.00     0.275 C 
ATOM     22  H   UNL A   1      33.148  27.046  24.311  1.00  0.00     0.164 HD
ATOM     23  O   UNL A   1      33.066  29.448  24.271  1.00  0.00    -0.268 OA
BRANCH  21  24
ATOM     24  C   UNL A   1      30.882  29.316  23.233  1.00  0.00     0.360 C 
BRANCH  24  25
ATOM     25  N   UNL A   1      31.112  29.644  21.821  1.00  0.00    -0.350 N 
ATOM     26  H   UNL A   1      30.794  30.597  21.637  1.00  0.00     0.344 HD
ATOM     27  H   UNL A   1      30.593  28.994  21.231  1.00  0.00     0.344 HD
ATOM     28  H   UNL A   1      32.108  29.572  21.612  1.00  0.00     0.344 HD
ENDBRANCH  24  25
ENDBRANCH  21  24
ENDBRANCH  19  20
ENDBRANCH  16  19
ENDBRANCH  14  15
BRANCH  14  29
ATOM     29  C   UNL A   1      31.773  22.651  23.459  1.00  0.00     0.070 C 
BRANCH  29  30
ATOM     30  C   UNL A   1      32.028  21.170  23.662  1.00  0.00    -0.045 A 
ATOM     31  C   UNL A   1      32.087  20.220  22.635  1.00  0.00     0.004 A 
ATOM     32  C   UNL A   1      32.216  20.724  24.982  1.00  0.00     0.004 A 
ATOM     33  C   UNL A   1      32.375  18.881  22.908  1.00  0.00     0.000 A 
ATOM     34  C   UNL A   1      32.478  19.381  25.258  1.00  0.00     0.000 A 
ATOM     35  C   UNL A   1      32.570  18.461  24.219  1.00  0.00     0.000 A 
ENDBRANCH  29  30
ENDBRANCH  14  29
ENDBRANCH  11  14
ENDBRANCH   5  10
ENDBRANCH   1   5
BRANCH   3  36
ATOM     36  C   UNL A   1      38.104  23.615  25.849  1.00  0.00     0.117 C 
BRANCH  36  37
ATOM     37  C   UNL A   1      39.203  24.143  26.754  1.00  0.00     0.042 C 
BRANCH  37  38
ATOM     38  C   UNL A   1      40.154  23.065  27.260  1.00  0.00     0.118 C 
BRANCH  38  39
ATOM     39  N   UNL A   1      41.090  22.583  26.246  1.00  0.00    -0.352 N 
ATOM     40  C   UNL A   1      42.197  23.180  25.686  1.00  0.00     0.251 C 
ATOM     41  H   UNL A   1      40.896  21.679  25.906  1.00  0.00     0.163 HD
ATOM     42  O   UNL A   1      42.754  22.656  24.724  1.00  0.00    -0.269 OA
BRANCH  40  43
ATOM     43  C   UNL A   1      42.687  24.467  26.217  1.00  0.00     0.039 A 
ATOM     44  C   UNL A   1      42.435  25.648  25.512  1.00  0.00     0.014 A 
ATOM     45  C   UNL A   1      43.355  24.515  27.438  1.00  0.00     0.014 A 
ATOM     46  C   UNL A   1      42.742  26.880  26.098  1.00  0.00     0.010 A 
ATOM     47  C   UNL A   1      43.536  25.734  28.072  1.00  0.00     0.010 A 
ATOM     48  C   UNL A   1      43.230  26.934  27.413  1.00  0.00    -0.014 A 
BRANCH  48  49
ATOM     49  C   UNL A   1      43.410  28.215  28.148  1.00  0.00     0.031 A 
ATOM     50  C   UNL A   1      42.226  28.871  28.810  1.00  0.00     0.074 A 
ATOM     51  C   UNL A   1      44.593  28.859  28.090  1.00  0.00     0.049 A 
ATOM     52  N   UNL A   1      42.130  30.065  29.333  1.00  0.00    -0.248 NA
ATOM     53  C   UNL A   1      40.967  28.106  28.837  1.00  0.00     0.031 C 
ATOM     54  C   UNL A   1      45.790  28.381  27.392  1.00  0.00     0.029 A 
ATOM     55  N   UNL A   1      44.974  30.079  28.593  1.00  0.00    -0.354 N 
ATOM     56  C   UNL A   1      40.793  30.217  29.686  1.00  0.00     0.074 A 
ATOM     57  C   UNL A   1      40.108  29.010  29.283  1.00  0.00     0.031 C 
ATOM     58  C   UNL A   1      46.772  29.287  27.524  1.00  0.00     0.029 A 
ATOM     59  C   UNL A   1      46.268  30.428  28.278  1.00  0.00     0.049 A 
ATOM     60  H   UNL A   1      44.378  30.649  29.130  1.00  0.00     0.167 HD
ATOM     61  C   UNL A   1      40.195  31.252  30.324  1.00  0.00     0.034 A 
ATOM     62  C   UNL A   1      46.966  31.547  28.556  1.00  0.00     0.034 A 
ATOM     63  C   UNL A   1      40.899  32.405  30.809  1.00  0.00     0.049 A 
ATOM     64  C   UNL A   1      46.303  32.640  29.349  1.00  0.00     0.074 A 
ATOM     65  C   UNL A   1      40.415  33.447  31.578  1.00  0.00     0.029 A 
ATOM     66  N   UNL A   1      42.242  32.664  30.581  1.00  0.00    -0.354 N 
ATOM     67  N   UNL A   1      45.079  32.693  29.815  1.00  0.00    -0.248 NA
ATOM     68  C   UNL A   1      47.125  33.813  29.680  1.00  0.00     0.031 C 
ATOM     69  C   UNL A   1      41.466  34.340  31.813  1.00  0.00     0.029 A 
ATOM     70  C   UNL A   1      42.606  33.849  31.196  1.00  0.00     0.049 A 
ATOM     71  H   UNL A   1      42.847  32.089  30.060  1.00  0.00     0.167 HD
ATOM     72  C   UNL A   1      44.990  33.888  30.518  1.00  0.00     0.074 A 
ATOM     73  C   UNL A   1      46.295  34.517  30.438  1.00  0.00     0.031 C 
ATOM     74  C   UNL A   1      43.924  34.429  31.154  1.00  0.00     0.034 A 
BRANCH  61  75
ATOM     75  C   UNL A   1      38.719  31.140  30.602  1.00  0.00     0.023 A 
ATOM     76  C   UNL A   1      38.275  30.338  31.674  1.00  0.00     0.012 A 
ATOM     77  C   UNL A   1      37.776  31.855  29.839  1.00  0.00     0.148 A 
ATOM     78  C   UNL A   1      36.916  30.216  31.956  1.00  0.00     0.002 A 
ATOM     79  C   UNL A   1      36.425  31.764  30.155  1.00  0.00     0.091 A 
ATOM     80  F   UNL A   1      38.212  32.596  28.810  1.00  0.00    -0.205 F 
ATOM     81  C   UNL A   1      35.992  30.936  31.204  1.00  0.00     0.022 A 
BRANCH  79  82
ATOM     82  S   UNL A   1      35.163  32.711  29.295  1.00  0.00     0.127 S 
ATOM     83  O   UNL A   1      34.795  31.797  28.214  1.00  0.00    -0.237 OA
ATOM     84  O   UNL A   1      34.141  32.876  30.328  1.00  0.00    -0.237 OA
ATOM     85  O   UNL A   1      35.807  33.948  28.877  1.00  0.00    -0.744 OA
ENDBRANCH  79  82
ENDBRANCH  61  75
BRANCH  62  86
ATOM     86  C   UNL A   1      48.397  31.652  28.152  1.00  0.00     0.023 A 
ATOM     87  C   UNL A   1      48.723  32.344  26.969  1.00  0.00     0.012 A 
ATOM     88  C   UNL A   1      49.432  31.114  28.939  1.00  0.00     0.148 A 
ATOM     89  C   UNL A   1      50.052  32.471  26.562  1.00  0.00     0.002 A 
ATOM     90  C   UNL A   1      50.757  31.290  28.555  1.00  0.00     0.091 A 
ATOM     91  F   UNL A   1      49.102  30.448  30.055  1.00  0.00    -0.205 F 
ATOM     92  C   UNL A   1      51.069  31.955  27.358  1.00  0.00     0.022 A 
BRANCH  90  93
ATOM     93  S   UNL A   1      52.134  30.776  29.589  1.00  0.00     0.127 S 
ATOM     94  O   UNL A   1      53.255  31.468  28.959  1.00  0.00    -0.237 OA
ATOM     95  O   UNL A   1      51.742  31.300  30.899  1.00  0.00    -0.237 OA
ATOM     96  O   UNL A   1      52.154  29.322  29.510  1.00  0.00    -0.744 OA
ENDBRANCH  90  93
ENDBRANCH  62  86
BRANCH  74  97
ATOM     97  C   UNL A   1      44.117  35.755  31.837  1.00  0.00     0.023 A 
ATOM     98  C   UNL A   1      43.978  36.944  31.096  1.00  0.00     0.012 A 
ATOM     99  C   UNL A   1      44.349  35.824  33.226  1.00  0.00     0.148 A 
ATOM    100  C   UNL A   1      44.093  38.185  31.722  1.00  0.00     0.002 A 
ATOM    101  C   UNL A   1      44.416  37.064  33.850  1.00  0.00     0.091 A 
ATOM    102  F   UNL A   1      44.498  34.680  33.908  1.00  0.00    -0.205 F 
ATOM    103  C   UNL A   1      44.298  38.244  33.098  1.00  0.00     0.022 A 
BRANCH 101 104
ATOM    104  S   UNL A   1      44.584  37.233  35.630  1.00  0.00     0.127 S 
ATOM    105  O   UNL A   1      44.613  38.685  35.790  1.00  0.00    -0.237 OA
ATOM    106  O   UNL A   1      43.364  36.589  36.121  1.00  0.00    -0.237 OA
ATOM    107  O   UNL A   1      45.815  36.538  35.983  1.00  0.00    -0.744 OA
ENDBRANCH 101 104
ENDBRANCH  74  97
ENDBRANCH  48  49
ENDBRANCH  40  43
ENDBRANCH  38  39
ENDBRANCH  37  38
ENDBRANCH  36  37
ENDBRANCH   3  36
TORSDOF 24
ENDMDL
