MODEL 1
REMARK VINA RESULT:     -11.3      0.000      0.000
REMARK SMILES CCCC[C@H](C(=O)NCCCNC(=O)c1ccc(-c2c3nc(c(-c4cccc(S(=O)(=O)[O-])c4F)c4ccc([nH]4)c(-c4cccc(S(=O)(=O)[O-])c4F)c4nc(c(-c5cccc(S(=O)(=O)[O-])c5F)c5ccc2[nH]5)C=C4)C=C3)cc1)[C@H](O)c1ccc(C(F)(F)F)cc1
REMARK SMILES IDX 10 1 9 2 8 3 6 4 7 5 5 7 4 8 3 9 2 10 1 11 78 12 80 13 81 14
REMARK SMILES IDX 89 15 82 16 88 17 83 18 84 19 85 20 86 21 87 22 79 23 11 25
REMARK SMILES IDX 12 26 13 27 14 29 15 30 16 31 77 32 17 33 76 34 18 35 19 36
REMARK SMILES IDX 20 37 70 38 21 39 75 40 69 41 71 42 22 43 74 44 68 45 67 46
REMARK SMILES IDX 23 48 55 49 35 50 54 51 36 52 39 53 53 54 72 55 37 56 38 57
REMARK SMILES IDX 52 59 73 60 40 61 24 62 25 63 33 64 26 65 28 66 34 67 27 68
REMARK SMILES IDX 29 69 30 70 31 71 32 72 56 73 57 74 65 75 58 76 60 77 66 78
REMARK SMILES IDX 59 79 61 80 62 81 63 82 64 83 41 84 42 85 50 86 43 87 45 88
REMARK SMILES IDX 51 89 44 90 46 91 47 92 48 93 49 94
REMARK H PARENT 8 6 79 24 12 28 71 47 39 58
REMARK Flexibility Score: inf
ROOT
ATOM      1  C   UNL A   1      31.703  28.925  26.744  1.00  0.00     0.042 C 
ENDROOT
BRANCH   1   2
ATOM      2  C   UNL A   1      31.457  27.597  26.058  1.00  0.00     0.117 C 
BRANCH   2   3
ATOM      3  N   UNL A   1      32.653  27.059  25.442  1.00  0.00    -0.356 N 
ATOM      4  C   UNL A   1      32.861  26.329  24.326  1.00  0.00     0.226 C 
ATOM      5  O   UNL A   1      34.045  26.190  23.993  1.00  0.00    -0.275 OA
ATOM      6  H   UNL A   1      33.478  27.265  25.937  1.00  0.00     0.163 HD
BRANCH   4   7
ATOM      7  C   UNL A   1      31.780  25.635  23.502  1.00  0.00     0.111 C 
BRANCH   7   8
ATOM      8  C   UNL A   1      30.891  24.798  24.467  1.00  0.00     0.016 C 
BRANCH   8   9
ATOM      9  C   UNL A   1      31.033  23.270  24.478  1.00  0.00     0.001 C 
BRANCH   9  10
ATOM     10  C   UNL A   1      31.446  22.599  25.792  1.00  0.00    -0.003 C 
ATOM     11  C   UNL A   1      31.900  23.556  26.884  1.00  0.00     0.004 C 
ENDBRANCH   9  10
ENDBRANCH   8   9
ENDBRANCH   7   8
BRANCH   7  12
ATOM     12  C   UNL A   1      31.039  26.369  22.368  1.00  0.00     0.157 C 
BRANCH  12  13
ATOM     13  C   UNL A   1      30.261  27.649  22.665  1.00  0.00    -0.019 A 
ATOM     14  C   UNL A   1      30.854  28.892  22.370  1.00  0.00     0.007 A 
ATOM     15  C   UNL A   1      28.939  27.674  23.128  1.00  0.00     0.007 A 
ATOM     16  C   UNL A   1      30.187  30.100  22.594  1.00  0.00     0.013 A 
ATOM     17  C   UNL A   1      28.257  28.880  23.333  1.00  0.00     0.013 A 
ATOM     18  C   UNL A   1      28.879  30.106  23.086  1.00  0.00     0.056 A 
BRANCH  18  19
ATOM     19  C   UNL A   1      28.183  31.410  23.377  1.00  0.00     0.416 C 
ATOM     20  F   UNL A   1      27.652  31.970  22.253  1.00  0.00    -0.166 F 
ATOM     21  F   UNL A   1      27.147  31.277  24.250  1.00  0.00    -0.166 F 
ATOM     22  F   UNL A   1      29.002  32.360  23.912  1.00  0.00    -0.166 F 
ENDBRANCH  18  19
ENDBRANCH  12  13
BRANCH  12  23
ATOM     23  O   UNL A   1      32.003  26.690  21.344  1.00  0.00    -0.388 OA
ATOM     24  H   UNL A   1      31.754  27.525  20.916  1.00  0.00     0.211 HD
ENDBRANCH  12  23
ENDBRANCH   7  12
ENDBRANCH   4   7
ENDBRANCH   2   3
ENDBRANCH   1   2
BRANCH   1  25
ATOM     25  C   UNL A   1      32.713  29.801  26.023  1.00  0.00     0.118 C 
BRANCH  25  26
ATOM     26  N   UNL A   1      32.561  31.215  26.349  1.00  0.00    -0.352 N 
ATOM     27  C   UNL A   1      33.273  31.987  27.233  1.00  0.00     0.251 C 
ATOM     28  H   UNL A   1      31.843  31.683  25.864  1.00  0.00     0.163 HD
ATOM     29  O   UNL A   1      32.860  33.105  27.540  1.00  0.00    -0.269 OA
BRANCH  27  30
ATOM     30  C   UNL A   1      34.523  31.465  27.822  1.00  0.00     0.039 A 
ATOM     31  C   UNL A   1      35.607  32.323  28.009  1.00  0.00     0.014 A 
ATOM     32  C   UNL A   1      34.610  30.125  28.206  1.00  0.00     0.014 A 
ATOM     33  C   UNL A   1      36.755  31.850  28.650  1.00  0.00     0.010 A 
ATOM     34  C   UNL A   1      35.702  29.691  28.944  1.00  0.00     0.010 A 
ATOM     35  C   UNL A   1      36.795  30.542  29.159  1.00  0.00    -0.014 A 
BRANCH  35  36
ATOM     36  C   UNL A   1      37.970  30.031  29.908  1.00  0.00     0.031 A 
ATOM     37  C   UNL A   1      38.242  30.530  31.304  1.00  0.00     0.074 A 
ATOM     38  C   UNL A   1      38.838  29.197  29.302  1.00  0.00     0.049 A 
ATOM     39  N   UNL A   1      39.253  30.267  32.090  1.00  0.00    -0.248 NA
ATOM     40  C   UNL A   1      37.271  31.478  31.879  1.00  0.00     0.031 C 
ATOM     41  C   UNL A   1      38.727  28.713  27.924  1.00  0.00     0.029 A 
ATOM     42  N   UNL A   1      40.000  28.630  29.758  1.00  0.00    -0.354 N 
ATOM     43  C   UNL A   1      39.061  31.042  33.227  1.00  0.00     0.074 A 
ATOM     44  C   UNL A   1      37.862  31.820  33.013  1.00  0.00     0.031 C 
ATOM     45  C   UNL A   1      39.770  27.914  27.652  1.00  0.00     0.029 A 
ATOM     46  C   UNL A   1      40.644  27.858  28.818  1.00  0.00     0.049 A 
ATOM     47  H   UNL A   1      40.343  28.763  30.672  1.00  0.00     0.167 HD
ATOM     48  C   UNL A   1      39.796  31.078  34.363  1.00  0.00     0.034 A 
ATOM     49  C   UNL A   1      41.812  27.190  28.888  1.00  0.00     0.034 A 
ATOM     50  C   UNL A   1      40.960  30.267  34.588  1.00  0.00     0.049 A 
ATOM     51  C   UNL A   1      42.589  27.217  30.175  1.00  0.00     0.074 A 
ATOM     52  C   UNL A   1      41.724  30.160  35.735  1.00  0.00     0.029 A 
ATOM     53  N   UNL A   1      41.533  29.430  33.642  1.00  0.00    -0.354 N 
ATOM     54  N   UNL A   1      42.306  27.836  31.297  1.00  0.00    -0.248 NA
ATOM     55  C   UNL A   1      43.825  26.425  30.222  1.00  0.00     0.031 C 
ATOM     56  C   UNL A   1      42.780  29.282  35.473  1.00  0.00     0.029 A 
ATOM     57  C   UNL A   1      42.649  28.810  34.176  1.00  0.00     0.049 A 
ATOM     58  H   UNL A   1      41.195  29.295  32.728  1.00  0.00     0.167 HD
ATOM     59  C   UNL A   1      43.307  27.476  32.192  1.00  0.00     0.074 A 
ATOM     60  C   UNL A   1      44.190  26.571  31.488  1.00  0.00     0.031 C 
ATOM     61  C   UNL A   1      43.487  27.871  33.477  1.00  0.00     0.034 A 
BRANCH  48  62
ATOM     62  C   UNL A   1      39.333  31.990  35.470  1.00  0.00     0.023 A 
ATOM     63  C   UNL A   1      38.418  31.513  36.433  1.00  0.00     0.012 A 
ATOM     64  C   UNL A   1      39.846  33.296  35.594  1.00  0.00     0.148 A 
ATOM     65  C   UNL A   1      37.993  32.332  37.477  1.00  0.00     0.002 A 
ATOM     66  C   UNL A   1      39.456  34.089  36.667  1.00  0.00     0.091 A 
ATOM     67  F   UNL A   1      40.697  33.739  34.659  1.00  0.00    -0.205 F 
ATOM     68  C   UNL A   1      38.520  33.614  37.601  1.00  0.00     0.022 A 
BRANCH  66  69
ATOM     69  S   UNL A   1      40.138  35.724  36.963  1.00  0.00     0.127 S 
ATOM     70  O   UNL A   1      39.651  36.462  35.799  1.00  0.00    -0.237 OA
ATOM     71  O   UNL A   1      39.504  36.094  38.228  1.00  0.00    -0.237 OA
ATOM     72  O   UNL A   1      41.582  35.552  37.032  1.00  0.00    -0.744 OA
ENDBRANCH  66  69
ENDBRANCH  48  62
BRANCH  49  73
ATOM     73  C   UNL A   1      42.289  26.394  27.721  1.00  0.00     0.023 A 
ATOM     74  C   UNL A   1      43.140  26.994  26.772  1.00  0.00     0.012 A 
ATOM     75  C   UNL A   1      41.920  25.045  27.554  1.00  0.00     0.148 A 
ATOM     76  C   UNL A   1      43.582  26.278  25.659  1.00  0.00     0.002 A 
ATOM     77  C   UNL A   1      42.410  24.321  26.474  1.00  0.00     0.091 A 
ATOM     78  F   UNL A   1      41.103  24.493  28.463  1.00  0.00    -0.205 F 
ATOM     79  C   UNL A   1      43.224  24.941  25.514  1.00  0.00     0.022 A 
BRANCH  77  80
ATOM     80  S   UNL A   1      42.110  22.561  26.277  1.00  0.00     0.127 S 
ATOM     81  O   UNL A   1      40.651  22.509  26.234  1.00  0.00    -0.237 OA
ATOM     82  O   UNL A   1      42.776  22.282  25.005  1.00  0.00    -0.237 OA
ATOM     83  O   UNL A   1      42.732  21.926  27.432  1.00  0.00    -0.744 OA
ENDBRANCH  77  80
ENDBRANCH  49  73
BRANCH  61  84
ATOM     84  C   UNL A   1      44.655  27.290  34.228  1.00  0.00     0.023 A 
ATOM     85  C   UNL A   1      45.887  27.972  34.256  1.00  0.00     0.012 A 
ATOM     86  C   UNL A   1      44.503  26.103  34.972  1.00  0.00     0.148 A 
ATOM     87  C   UNL A   1      46.962  27.461  34.981  1.00  0.00     0.002 A 
ATOM     88  C   UNL A   1      45.562  25.629  35.737  1.00  0.00     0.091 A 
ATOM     89  F   UNL A   1      43.327  25.461  34.919  1.00  0.00    -0.205 F 
ATOM     90  C   UNL A   1      46.796  26.299  35.731  1.00  0.00     0.022 A 
BRANCH  88  91
ATOM     91  S   UNL A   1      45.409  24.200  36.813  1.00  0.00     0.127 S 
ATOM     92  O   UNL A   1      46.789  24.016  37.261  1.00  0.00    -0.237 OA
ATOM     93  O   UNL A   1      44.492  24.686  37.843  1.00  0.00    -0.237 OA
ATOM     94  O   UNL A   1      44.875  23.126  35.984  1.00  0.00    -0.744 OA
ENDBRANCH  88  91
ENDBRANCH  61  84
ENDBRANCH  35  36
ENDBRANCH  27  30
ENDBRANCH  25  26
ENDBRANCH   1  25
TORSDOF 20
ENDMDL
MODEL 2
REMARK VINA RESULT:     -11.3      2.852      3.988
REMARK SMILES CCCC[C@H](C(=O)NCCCNC(=O)c1ccc(-c2c3nc(c(-c4cccc(S(=O)(=O)[O-])c4F)c4ccc([nH]4)c(-c4cccc(S(=O)(=O)[O-])c4F)c4nc(c(-c5cccc(S(=O)(=O)[O-])c5F)c5ccc2[nH]5)C=C4)C=C3)cc1)[C@H](O)c1ccc(C(F)(F)F)cc1
REMARK SMILES IDX 10 1 9 2 8 3 6 4 7 5 5 7 4 8 3 9 2 10 1 11 78 12 80 13 81 14
REMARK SMILES IDX 89 15 82 16 88 17 83 18 84 19 85 20 86 21 87 22 79 23 11 25
REMARK SMILES IDX 12 26 13 27 14 29 15 30 16 31 77 32 17 33 76 34 18 35 19 36
REMARK SMILES IDX 20 37 70 38 21 39 75 40 69 41 71 42 22 43 74 44 68 45 67 46
REMARK SMILES IDX 23 48 55 49 35 50 54 51 36 52 39 53 53 54 72 55 37 56 38 57
REMARK SMILES IDX 52 59 73 60 40 61 24 62 25 63 33 64 26 65 28 66 34 67 27 68
REMARK SMILES IDX 29 69 30 70 31 71 32 72 56 73 57 74 65 75 58 76 60 77 66 78
REMARK SMILES IDX 59 79 61 80 62 81 63 82 64 83 41 84 42 85 50 86 43 87 45 88
REMARK SMILES IDX 51 89 44 90 46 91 47 92 48 93 49 94
REMARK H PARENT 8 6 79 24 12 28 71 47 39 58
REMARK Flexibility Score: inf
ROOT
ATOM      1  C   UNL A   1      33.230  28.776  23.933  1.00  0.00     0.042 C 
ENDROOT
BRANCH   1   2
ATOM      2  C   UNL A   1      31.794  28.538  23.512  1.00  0.00     0.117 C 
BRANCH   2   3
ATOM      3  N   UNL A   1      31.694  27.834  22.250  1.00  0.00    -0.356 N 
ATOM      4  C   UNL A   1      31.711  26.523  21.926  1.00  0.00     0.226 C 
ATOM      5  O   UNL A   1      31.418  26.260  20.753  1.00  0.00    -0.275 OA
ATOM      6  H   UNL A   1      31.594  28.430  21.473  1.00  0.00     0.163 HD
BRANCH   4   7
ATOM      7  C   UNL A   1      32.111  25.383  22.856  1.00  0.00     0.111 C 
BRANCH   7   8
ATOM      8  C   UNL A   1      30.828  24.840  23.549  1.00  0.00     0.016 C 
BRANCH   8   9
ATOM      9  C   UNL A   1      30.641  25.060  25.056  1.00  0.00     0.001 C 
BRANCH   9  10
ATOM     10  C   UNL A   1      31.323  24.077  26.013  1.00  0.00    -0.003 C 
ATOM     11  C   UNL A   1      30.643  22.721  26.129  1.00  0.00     0.004 C 
ENDBRANCH   9  10
ENDBRANCH   8   9
ENDBRANCH   7   8
BRANCH   7  12
ATOM     12  C   UNL A   1      33.145  24.323  22.429  1.00  0.00     0.157 C 
BRANCH  12  13
ATOM     13  C   UNL A   1      33.144  22.944  23.087  1.00  0.00    -0.019 A 
ATOM     14  C   UNL A   1      32.273  21.953  22.593  1.00  0.00     0.007 A 
ATOM     15  C   UNL A   1      34.031  22.558  24.101  1.00  0.00     0.007 A 
ATOM     16  C   UNL A   1      32.241  20.663  23.133  1.00  0.00     0.013 A 
ATOM     17  C   UNL A   1      34.019  21.261  24.631  1.00  0.00     0.013 A 
ATOM     18  C   UNL A   1      33.111  20.306  24.167  1.00  0.00     0.056 A 
BRANCH  18  19
ATOM     19  C   UNL A   1      33.036  18.934  24.782  1.00  0.00     0.416 C 
ATOM     20  F   UNL A   1      32.907  18.985  26.137  1.00  0.00    -0.166 F 
ATOM     21  F   UNL A   1      31.974  18.208  24.336  1.00  0.00    -0.166 F 
ATOM     22  F   UNL A   1      34.137  18.166  24.544  1.00  0.00    -0.166 F 
ENDBRANCH  18  19
ENDBRANCH  12  13
BRANCH  12  23
ATOM     23  O   UNL A   1      33.001  24.112  21.009  1.00  0.00    -0.388 OA
ATOM     24  H   UNL A   1      32.505  24.851  20.621  1.00  0.00     0.211 HD
ENDBRANCH  12  23
ENDBRANCH   7  12
ENDBRANCH   4   7
ENDBRANCH   2   3
ENDBRANCH   1   2
BRANCH   1  25
ATOM     25  C   UNL A   1      33.381  29.102  25.409  1.00  0.00     0.118 C 
BRANCH  25  26
ATOM     26  N   UNL A   1      32.908  30.443  25.736  1.00  0.00    -0.352 N 
ATOM     27  C   UNL A   1      33.229  31.245  26.803  1.00  0.00     0.251 C 
ATOM     28  H   UNL A   1      32.265  30.829  25.098  1.00  0.00     0.163 HD
ATOM     29  O   UNL A   1      32.565  32.254  27.033  1.00  0.00    -0.269 OA
BRANCH  27  30
ATOM     30  C   UNL A   1      34.362  30.882  27.679  1.00  0.00     0.039 A 
ATOM     31  C   UNL A   1      34.351  29.657  28.347  1.00  0.00     0.014 A 
ATOM     32  C   UNL A   1      35.445  31.752  27.821  1.00  0.00     0.014 A 
ATOM     33  C   UNL A   1      35.463  29.275  29.101  1.00  0.00     0.010 A 
ATOM     34  C   UNL A   1      36.592  31.322  28.472  1.00  0.00     0.010 A 
ATOM     35  C   UNL A   1      36.609  30.088  29.135  1.00  0.00    -0.014 A 
BRANCH  35  36
ATOM     36  C   UNL A   1      37.834  29.678  29.866  1.00  0.00     0.031 A 
ATOM     37  C   UNL A   1      38.113  30.241  31.236  1.00  0.00     0.074 A 
ATOM     38  C   UNL A   1      38.737  28.880  29.262  1.00  0.00     0.049 A 
ATOM     39  N   UNL A   1      39.159  30.069  32.000  1.00  0.00    -0.248 NA
ATOM     40  C   UNL A   1      37.099  31.145  31.808  1.00  0.00     0.031 C 
ATOM     41  C   UNL A   1      38.619  28.343  27.904  1.00  0.00     0.029 A 
ATOM     42  N   UNL A   1      39.946  28.403  29.702  1.00  0.00    -0.354 N 
ATOM     43  C   UNL A   1      38.949  30.869  33.117  1.00  0.00     0.074 A 
ATOM     44  C   UNL A   1      37.698  31.563  32.912  1.00  0.00     0.031 C 
ATOM     45  C   UNL A   1      39.704  27.602  27.628  1.00  0.00     0.029 A 
ATOM     46  C   UNL A   1      40.611  27.641  28.769  1.00  0.00     0.049 A 
ATOM     47  H   UNL A   1      40.304  28.589  30.601  1.00  0.00     0.167 HD
ATOM     48  C   UNL A   1      39.711  30.991  34.229  1.00  0.00     0.034 A 
ATOM     49  C   UNL A   1      41.820  27.050  28.826  1.00  0.00     0.034 A 
ATOM     50  C   UNL A   1      40.930  30.263  34.445  1.00  0.00     0.049 A 
ATOM     51  C   UNL A   1      42.629  27.171  30.089  1.00  0.00     0.074 A 
ATOM     52  C   UNL A   1      41.731  30.244  35.572  1.00  0.00     0.029 A 
ATOM     53  N   UNL A   1      41.529  29.431  33.511  1.00  0.00    -0.354 N 
ATOM     54  N   UNL A   1      42.339  27.809  31.198  1.00  0.00    -0.248 NA
ATOM     55  C   UNL A   1      43.915  26.460  30.124  1.00  0.00     0.031 C 
ATOM     56  C   UNL A   1      42.833  29.425  35.308  1.00  0.00     0.029 A 
ATOM     57  C   UNL A   1      42.697  28.901  34.032  1.00  0.00     0.049 A 
ATOM     58  H   UNL A   1      41.177  29.244  32.612  1.00  0.00     0.167 HD
ATOM     59  C   UNL A   1      43.385  27.544  32.074  1.00  0.00     0.074 A 
ATOM     60  C   UNL A   1      44.304  26.672  31.374  1.00  0.00     0.031 C 
ATOM     61  C   UNL A   1      43.574  27.994  33.339  1.00  0.00     0.034 A 
BRANCH  48  62
ATOM     62  C   UNL A   1      39.222  31.909  35.319  1.00  0.00     0.023 A 
ATOM     63  C   UNL A   1      38.280  31.440  36.259  1.00  0.00     0.012 A 
ATOM     64  C   UNL A   1      39.735  33.214  35.450  1.00  0.00     0.148 A 
ATOM     65  C   UNL A   1      37.829  32.266  37.287  1.00  0.00     0.002 A 
ATOM     66  C   UNL A   1      39.319  34.014  36.508  1.00  0.00     0.091 A 
ATOM     67  F   UNL A   1      40.613  33.650  34.536  1.00  0.00    -0.205 F 
ATOM     68  C   UNL A   1      38.357  33.546  37.419  1.00  0.00     0.022 A 
BRANCH  66  69
ATOM     69  S   UNL A   1      39.999  35.648  36.815  1.00  0.00     0.127 S 
ATOM     70  O   UNL A   1      39.322  36.019  38.057  1.00  0.00    -0.237 OA
ATOM     71  O   UNL A   1      41.426  35.363  36.961  1.00  0.00    -0.237 OA
ATOM     72  O   UNL A   1      39.653  36.454  35.653  1.00  0.00    -0.744 OA
ENDBRANCH  66  69
ENDBRANCH  48  62
BRANCH  49  73
ATOM     73  C   UNL A   1      42.316  26.246  27.673  1.00  0.00     0.023 A 
ATOM     74  C   UNL A   1      43.204  26.831  26.749  1.00  0.00     0.012 A 
ATOM     75  C   UNL A   1      41.926  24.905  27.493  1.00  0.00     0.148 A 
ATOM     76  C   UNL A   1      43.664  26.108  25.647  1.00  0.00     0.002 A 
ATOM     77  C   UNL A   1      42.432  24.173  26.427  1.00  0.00     0.091 A 
ATOM     78  F   UNL A   1      41.073  24.367  28.378  1.00  0.00    -0.205 F 
ATOM     79  C   UNL A   1      43.285  24.778  25.491  1.00  0.00     0.022 A 
BRANCH  77  80
ATOM     80  S   UNL A   1      42.105  22.418  26.220  1.00  0.00     0.127 S 
ATOM     81  O   UNL A   1      42.644  21.865  27.460  1.00  0.00    -0.237 OA
ATOM     82  O   UNL A   1      40.646  22.395  26.116  1.00  0.00    -0.237 OA
ATOM     83  O   UNL A   1      42.798  22.031  24.999  1.00  0.00    -0.744 OA
ENDBRANCH  77  80
ENDBRANCH  49  73
BRANCH  61  84
ATOM     84  C   UNL A   1      44.796  27.513  34.075  1.00  0.00     0.023 A 
ATOM     85  C   UNL A   1      45.982  28.273  34.047  1.00  0.00     0.012 A 
ATOM     86  C   UNL A   1      44.743  26.343  34.857  1.00  0.00     0.148 A 
ATOM     87  C   UNL A   1      47.107  27.857  34.756  1.00  0.00     0.002 A 
ATOM     88  C   UNL A   1      45.850  25.963  35.606  1.00  0.00     0.091 A 
ATOM     89  F   UNL A   1      43.610  25.625  34.857  1.00  0.00    -0.205 F 
ATOM     90  C   UNL A   1      47.037  26.710  35.545  1.00  0.00     0.022 A 
BRANCH  88  91
ATOM     91  S   UNL A   1      45.819  24.562  36.728  1.00  0.00     0.127 S 
ATOM     92  O   UNL A   1      45.639  23.444  35.802  1.00  0.00    -0.237 OA
ATOM     93  O   UNL A   1      47.140  24.634  37.349  1.00  0.00    -0.237 OA
ATOM     94  O   UNL A   1      44.707  24.799  37.640  1.00  0.00    -0.744 OA
ENDBRANCH  88  91
ENDBRANCH  61  84
ENDBRANCH  35  36
ENDBRANCH  27  30
ENDBRANCH  25  26
ENDBRANCH   1  25
TORSDOF 20
ENDMDL
MODEL 3
REMARK VINA RESULT:     -11.3      5.041      7.648
REMARK SMILES CCCC[C@H](C(=O)NCCCNC(=O)c1ccc(-c2c3nc(c(-c4cccc(S(=O)(=O)[O-])c4F)c4ccc([nH]4)c(-c4cccc(S(=O)(=O)[O-])c4F)c4nc(c(-c5cccc(S(=O)(=O)[O-])c5F)c5ccc2[nH]5)C=C4)C=C3)cc1)[C@H](O)c1ccc(C(F)(F)F)cc1
REMARK SMILES IDX 10 1 9 2 8 3 6 4 7 5 5 7 4 8 3 9 2 10 1 11 78 12 80 13 81 14
REMARK SMILES IDX 89 15 82 16 88 17 83 18 84 19 85 20 86 21 87 22 79 23 11 25
REMARK SMILES IDX 12 26 13 27 14 29 15 30 16 31 77 32 17 33 76 34 18 35 19 36
REMARK SMILES IDX 20 37 70 38 21 39 75 40 69 41 71 42 22 43 74 44 68 45 67 46
REMARK SMILES IDX 23 48 55 49 35 50 54 51 36 52 39 53 53 54 72 55 37 56 38 57
REMARK SMILES IDX 52 59 73 60 40 61 24 62 25 63 33 64 26 65 28 66 34 67 27 68
REMARK SMILES IDX 29 69 30 70 31 71 32 72 56 73 57 74 65 75 58 76 60 77 66 78
REMARK SMILES IDX 59 79 61 80 62 81 63 82 64 83 41 84 42 85 50 86 43 87 45 88
REMARK SMILES IDX 51 89 44 90 46 91 47 92 48 93 49 94
REMARK H PARENT 8 6 79 24 12 28 71 47 39 58
REMARK Flexibility Score: inf
ROOT
ATOM      1  C   UNL A   1      35.540  21.775  26.063  1.00  0.00     0.042 C 
ENDROOT
BRANCH   1   2
ATOM      2  C   UNL A   1      34.710  23.043  26.066  1.00  0.00     0.117 C 
BRANCH   2   3
ATOM      3  N   UNL A   1      33.461  22.889  26.784  1.00  0.00    -0.356 N 
ATOM      4  C   UNL A   1      32.243  23.451  26.637  1.00  0.00     0.226 C 
ATOM      5  O   UNL A   1      31.339  22.952  27.320  1.00  0.00    -0.275 OA
ATOM      6  H   UNL A   1      33.511  22.246  27.528  1.00  0.00     0.163 HD
BRANCH   4   7
ATOM      7  C   UNL A   1      31.921  24.659  25.762  1.00  0.00     0.111 C 
BRANCH   7   8
ATOM      8  C   UNL A   1      32.007  24.222  24.271  1.00  0.00     0.016 C 
BRANCH   8   9
ATOM      9  C   UNL A   1      33.200  24.683  23.424  1.00  0.00     0.001 C 
BRANCH   9  10
ATOM     10  C   UNL A   1      33.024  25.936  22.560  1.00  0.00    -0.003 C 
ATOM     11  C   UNL A   1      31.812  25.914  21.640  1.00  0.00     0.004 C 
ENDBRANCH   9  10
ENDBRANCH   8   9
ENDBRANCH   7   8
BRANCH   7  12
ATOM     12  C   UNL A   1      30.773  25.624  26.116  1.00  0.00     0.157 C 
BRANCH  12  13
ATOM     13  C   UNL A   1      30.340  26.697  25.119  1.00  0.00    -0.019 A 
ATOM     14  C   UNL A   1      31.139  27.847  24.963  1.00  0.00     0.007 A 
ATOM     15  C   UNL A   1      29.236  26.573  24.265  1.00  0.00     0.007 A 
ATOM     16  C   UNL A   1      30.812  28.854  24.050  1.00  0.00     0.013 A 
ATOM     17  C   UNL A   1      28.916  27.568  23.332  1.00  0.00     0.013 A 
ATOM     18  C   UNL A   1      29.689  28.728  23.227  1.00  0.00     0.056 A 
BRANCH  18  19
ATOM     19  C   UNL A   1      29.310  29.839  22.284  1.00  0.00     0.416 C 
ATOM     20  F   UNL A   1      28.194  29.540  21.561  1.00  0.00    -0.166 F 
ATOM     21  F   UNL A   1      29.036  31.009  22.923  1.00  0.00    -0.166 F 
ATOM     22  F   UNL A   1      30.277  30.132  21.368  1.00  0.00    -0.166 F 
ENDBRANCH  18  19
ENDBRANCH  12  13
BRANCH  12  23
ATOM     23  O   UNL A   1      29.605  24.832  26.415  1.00  0.00    -0.388 OA
ATOM     24  H   UNL A   1      28.810  25.382  26.327  1.00  0.00     0.211 HD
ENDBRANCH  12  23
ENDBRANCH   7  12
ENDBRANCH   4   7
ENDBRANCH   2   3
ENDBRANCH   1   2
BRANCH   1  25
ATOM     25  C   UNL A   1      36.862  21.918  25.330  1.00  0.00     0.118 C 
BRANCH  25  26
ATOM     26  N   UNL A   1      37.788  20.832  25.632  1.00  0.00    -0.352 N 
ATOM     27  C   UNL A   1      39.089  20.891  26.068  1.00  0.00     0.251 C 
ATOM     28  H   UNL A   1      37.427  19.924  25.506  1.00  0.00     0.163 HD
ATOM     29  O   UNL A   1      39.785  19.876  26.057  1.00  0.00    -0.269 OA
BRANCH  27  30
ATOM     30  C   UNL A   1      39.649  22.175  26.533  1.00  0.00     0.039 A 
ATOM     31  C   UNL A   1      40.718  22.176  27.430  1.00  0.00     0.014 A 
ATOM     32  C   UNL A   1      39.124  23.381  26.063  1.00  0.00     0.014 A 
ATOM     33  C   UNL A   1      41.306  23.389  27.797  1.00  0.00     0.010 A 
ATOM     34  C   UNL A   1      39.781  24.571  26.336  1.00  0.00     0.010 A 
ATOM     35  C   UNL A   1      40.868  24.592  27.221  1.00  0.00    -0.014 A 
BRANCH  35  36
ATOM     36  C   UNL A   1      41.518  25.890  27.534  1.00  0.00     0.031 A 
ATOM     37  C   UNL A   1      40.782  26.918  28.353  1.00  0.00     0.074 A 
ATOM     38  C   UNL A   1      42.723  26.178  27.003  1.00  0.00     0.049 A 
ATOM     39  N   UNL A   1      41.145  28.134  28.668  1.00  0.00    -0.248 NA
ATOM     40  C   UNL A   1      39.449  26.545  28.857  1.00  0.00     0.031 C 
ATOM     41  C   UNL A   1      43.494  25.296  26.123  1.00  0.00     0.029 A 
ATOM     42  N   UNL A   1      43.500  27.304  27.105  1.00  0.00    -0.354 N 
ATOM     43  C   UNL A   1      40.075  28.681  29.366  1.00  0.00     0.074 A 
ATOM     44  C   UNL A   1      39.031  27.682  29.392  1.00  0.00     0.031 C 
ATOM     45  C   UNL A   1      44.636  25.910  25.776  1.00  0.00     0.029 A 
ATOM     46  C   UNL A   1      44.664  27.240  26.374  1.00  0.00     0.049 A 
ATOM     47  H   UNL A   1      43.247  28.085  27.649  1.00  0.00     0.167 HD
ATOM     48  C   UNL A   1      39.981  29.892  29.962  1.00  0.00     0.034 A 
ATOM     49  C   UNL A   1      45.637  28.155  26.200  1.00  0.00     0.034 A 
ATOM     50  C   UNL A   1      41.040  30.862  29.972  1.00  0.00     0.049 A 
ATOM     51  C   UNL A   1      45.525  29.478  26.905  1.00  0.00     0.074 A 
ATOM     52  C   UNL A   1      41.083  32.082  30.622  1.00  0.00     0.029 A 
ATOM     53  N   UNL A   1      42.242  30.725  29.293  1.00  0.00    -0.354 N 
ATOM     54  N   UNL A   1      44.570  29.917  27.691  1.00  0.00    -0.248 NA
ATOM     55  C   UNL A   1      46.639  30.420  26.732  1.00  0.00     0.031 C 
ATOM     56  C   UNL A   1      42.298  32.698  30.309  1.00  0.00     0.029 A 
ATOM     57  C   UNL A   1      43.029  31.844  29.498  1.00  0.00     0.049 A 
ATOM     58  H   UNL A   1      42.497  29.948  28.746  1.00  0.00     0.167 HD
ATOM     59  C   UNL A   1      44.987  31.166  28.136  1.00  0.00     0.074 A 
ATOM     60  C   UNL A   1      46.289  31.404  27.548  1.00  0.00     0.031 C 
ATOM     61  C   UNL A   1      44.345  32.043  28.947  1.00  0.00     0.034 A 
BRANCH  48  62
ATOM     62  C   UNL A   1      38.706  30.216  30.696  1.00  0.00     0.023 A 
ATOM     63  C   UNL A   1      38.536  29.786  32.029  1.00  0.00     0.012 A 
ATOM     64  C   UNL A   1      37.701  30.996  30.091  1.00  0.00     0.148 A 
ATOM     65  C   UNL A   1      37.374  30.092  32.734  1.00  0.00     0.002 A 
ATOM     66  C   UNL A   1      36.567  31.341  30.817  1.00  0.00     0.091 A 
ATOM     67  F   UNL A   1      37.869  31.379  28.818  1.00  0.00    -0.205 F 
ATOM     68  C   UNL A   1      36.396  30.879  32.134  1.00  0.00     0.022 A 
BRANCH  66  69
ATOM     69  S   UNL A   1      35.287  32.418  30.165  1.00  0.00     0.127 S 
ATOM     70  O   UNL A   1      36.056  33.613  29.819  1.00  0.00    -0.237 OA
ATOM     71  O   UNL A   1      34.800  31.654  29.017  1.00  0.00    -0.237 OA
ATOM     72  O   UNL A   1      34.318  32.590  31.238  1.00  0.00    -0.744 OA
ENDBRANCH  66  69
ENDBRANCH  48  62
BRANCH  49  73
ATOM     73  C   UNL A   1      46.829  27.830  25.365  1.00  0.00     0.023 A 
ATOM     74  C   UNL A   1      46.778  28.036  23.972  1.00  0.00     0.012 A 
ATOM     75  C   UNL A   1      48.015  27.335  25.942  1.00  0.00     0.148 A 
ATOM     76  C   UNL A   1      47.871  27.717  23.165  1.00  0.00     0.002 A 
ATOM     77  C   UNL A   1      49.119  27.074  25.140  1.00  0.00     0.091 A 
ATOM     78  F   UNL A   1      48.042  27.138  27.268  1.00  0.00    -0.205 F 
ATOM     79  C   UNL A   1      49.043  27.245  23.749  1.00  0.00     0.022 A 
BRANCH  77  80
ATOM     80  S   UNL A   1      50.710  26.589  25.818  1.00  0.00     0.127 S 
ATOM     81  O   UNL A   1      51.517  26.437  24.610  1.00  0.00    -0.237 OA
ATOM     82  O   UNL A   1      51.049  27.747  26.646  1.00  0.00    -0.237 OA
ATOM     83  O   UNL A   1      50.460  25.367  26.571  1.00  0.00    -0.744 OA
ENDBRANCH  77  80
ENDBRANCH  49  73
BRANCH  61  84
ATOM     84  C   UNL A   1      45.056  33.323  29.292  1.00  0.00     0.023 A 
ATOM     85  C   UNL A   1      45.881  33.388  30.432  1.00  0.00     0.012 A 
ATOM     86  C   UNL A   1      44.964  34.442  28.440  1.00  0.00     0.148 A 
ATOM     87  C   UNL A   1      46.575  34.557  30.738  1.00  0.00     0.002 A 
ATOM     88  C   UNL A   1      45.701  35.585  28.722  1.00  0.00     0.091 A 
ATOM     89  F   UNL A   1      44.160  34.365  27.369  1.00  0.00    -0.205 F 
ATOM     90  C   UNL A   1      46.495  35.650  29.878  1.00  0.00     0.022 A 
BRANCH  88  91
ATOM     91  S   UNL A   1      45.741  37.001  27.618  1.00  0.00     0.127 S 
ATOM     92  O   UNL A   1      46.213  36.395  26.374  1.00  0.00    -0.237 OA
ATOM     93  O   UNL A   1      44.339  37.419  27.601  1.00  0.00    -0.237 OA
ATOM     94  O   UNL A   1      46.651  37.962  28.227  1.00  0.00    -0.744 OA
ENDBRANCH  88  91
ENDBRANCH  61  84
ENDBRANCH  35  36
ENDBRANCH  27  30
ENDBRANCH  25  26
ENDBRANCH   1  25
TORSDOF 20
ENDMDL
