MODEL 1
REMARK VINA RESULT:     -10.3      0.000      0.000
REMARK SMILES C[N@@H+](CC(=O)NCCCNC(=O)c1ccc(-c2c3nc(c(-c4cccc(S(=O)(=O)[O-])c4F)c4ccc([nH]4)c(-c4cccc(S(=O)(=O)[O-])c4F)c4nc(c(-c5cccc(S(=O)(=O)[O-])c5F)c5ccc2[nH]5)C=C4)C=C3)cc1)Cc1nccs1
REMARK SMILES IDX 8 1 7 2 6 3 4 4 5 5 3 7 2 8 1 9 76 11 77 12 78 13 81 14
REMARK SMILES IDX 79 15 80 16 9 17 10 18 11 19 12 21 13 22 14 23 75 24 15 25
REMARK SMILES IDX 74 26 16 27 17 28 18 29 68 30 19 31 73 32 67 33 69 34 20 35
REMARK SMILES IDX 72 36 66 37 65 38 21 40 53 41 33 42 52 43 34 44 37 45 51 46
REMARK SMILES IDX 70 47 35 48 36 49 50 51 71 52 38 53 22 54 23 55 31 56 24 57
REMARK SMILES IDX 26 58 32 59 25 60 27 61 28 62 29 63 30 64 54 65 55 66 63 67
REMARK SMILES IDX 56 68 58 69 64 70 57 71 59 72 60 73 61 74 62 75 39 76 40 77
REMARK SMILES IDX 48 78 41 79 43 80 49 81 42 82 44 83 45 84 46 85 47 86
REMARK H PARENT 6 6 2 10 10 20 69 39 37 50
REMARK Flexibility Score: inf
ROOT
ATOM      1  C   UNL A   1      31.339  32.226  26.757  1.00  0.00     0.042 C 
ENDROOT
BRANCH   1   2
ATOM      2  C   UNL A   1      31.453  30.928  25.965  1.00  0.00     0.118 C 
BRANCH   2   3
ATOM      3  N   UNL A   1      32.558  30.088  26.380  1.00  0.00    -0.351 N 
ATOM      4  C   UNL A   1      33.325  29.219  25.664  1.00  0.00     0.275 C 
ATOM      5  O   UNL A   1      34.414  28.902  26.156  1.00  0.00    -0.269 OA
ATOM      6  H   UNL A   1      32.792  30.156  27.334  1.00  0.00     0.163 HD
BRANCH   4   7
ATOM      7  C   UNL A   1      32.927  28.736  24.270  1.00  0.00     0.363 C 
BRANCH   7   8
ATOM      8  N   UNL A   1      31.683  27.972  24.146  1.00  0.00    -0.324 N 
ATOM      9  C   UNL A   1      31.449  26.901  25.084  1.00  0.00     0.333 C 
ATOM     10  H   UNL A   1      31.081  28.703  24.525  1.00  0.00     0.348 HD
BRANCH   8  11
ATOM     11  C   UNL A   1      31.068  27.820  22.822  1.00  0.00     0.331 C 
BRANCH  11  12
ATOM     12  C   UNL A   1      29.965  28.781  22.450  1.00  0.00     0.147 A 
ATOM     13  N   UNL A   1      30.147  29.841  21.687  1.00  0.00    -0.244 NA
ATOM     14  S   UNL A   1      28.366  28.603  23.064  1.00  0.00    -0.122 S 
ATOM     15  C   UNL A   1      28.948  30.483  21.471  1.00  0.00     0.123 A 
ATOM     16  C   UNL A   1      27.863  29.947  22.127  1.00  0.00     0.087 A 
ENDBRANCH  11  12
ENDBRANCH   8  11
ENDBRANCH   7   8
ENDBRANCH   4   7
ENDBRANCH   2   3
ENDBRANCH   1   2
BRANCH   1  17
ATOM     17  C   UNL A   1      32.655  32.801  27.261  1.00  0.00     0.118 C 
BRANCH  17  18
ATOM     18  N   UNL A   1      32.532  34.185  27.692  1.00  0.00    -0.352 N 
ATOM     19  C   UNL A   1      33.158  34.845  28.723  1.00  0.00     0.251 C 
ATOM     20  H   UNL A   1      31.906  34.731  27.164  1.00  0.00     0.163 HD
ATOM     21  O   UNL A   1      32.759  35.959  29.050  1.00  0.00    -0.269 OA
BRANCH  19  22
ATOM     22  C   UNL A   1      34.292  34.225  29.453  1.00  0.00     0.039 A 
ATOM     23  C   UNL A   1      35.598  34.515  29.040  1.00  0.00     0.014 A 
ATOM     24  C   UNL A   1      34.087  33.323  30.501  1.00  0.00     0.014 A 
ATOM     25  C   UNL A   1      36.688  33.943  29.706  1.00  0.00     0.010 A 
ATOM     26  C   UNL A   1      35.175  32.815  31.212  1.00  0.00     0.010 A 
ATOM     27  C   UNL A   1      36.489  33.106  30.814  1.00  0.00    -0.014 A 
BRANCH  27  28
ATOM     28  C   UNL A   1      37.634  32.504  31.551  1.00  0.00     0.031 A 
ATOM     29  C   UNL A   1      38.395  31.346  30.955  1.00  0.00     0.074 A 
ATOM     30  C   UNL A   1      37.951  32.949  32.784  1.00  0.00     0.049 A 
ATOM     31  N   UNL A   1      39.371  30.645  31.471  1.00  0.00    -0.248 NA
ATOM     32  C   UNL A   1      37.989  30.904  29.610  1.00  0.00     0.031 C 
ATOM     33  C   UNL A   1      37.261  34.022  33.501  1.00  0.00     0.029 A 
ATOM     34  N   UNL A   1      38.924  32.537  33.663  1.00  0.00    -0.354 N 
ATOM     35  C   UNL A   1      39.674  29.665  30.532  1.00  0.00     0.074 A 
ATOM     36  C   UNL A   1      38.753  29.836  29.431  1.00  0.00     0.031 C 
ATOM     37  C   UNL A   1      37.833  34.187  34.706  1.00  0.00     0.029 A 
ATOM     38  C   UNL A   1      38.910  33.215  34.861  1.00  0.00     0.049 A 
ATOM     39  H   UNL A   1      39.569  31.823  33.455  1.00  0.00     0.167 HD
ATOM     40  C   UNL A   1      40.654  28.729  30.562  1.00  0.00     0.034 A 
ATOM     41  C   UNL A   1      39.675  33.066  35.962  1.00  0.00     0.034 A 
ATOM     42  C   UNL A   1      41.603  28.588  31.635  1.00  0.00     0.049 A 
ATOM     43  C   UNL A   1      40.769  32.031  35.960  1.00  0.00     0.074 A 
ATOM     44  C   UNL A   1      42.666  27.708  31.732  1.00  0.00     0.029 A 
ATOM     45  N   UNL A   1      41.606  29.348  32.792  1.00  0.00    -0.354 N 
ATOM     46  N   UNL A   1      41.123  31.204  35.005  1.00  0.00    -0.248 NA
ATOM     47  C   UNL A   1      41.593  31.932  37.174  1.00  0.00     0.031 C 
ATOM     48  C   UNL A   1      43.308  27.930  32.955  1.00  0.00     0.029 A 
ATOM     49  C   UNL A   1      42.655  28.962  33.610  1.00  0.00     0.049 A 
ATOM     50  H   UNL A   1      40.959  30.059  33.004  1.00  0.00     0.167 HD
ATOM     51  C   UNL A   1      42.236  30.522  35.486  1.00  0.00     0.074 A 
ATOM     52  C   UNL A   1      42.508  31.044  36.809  1.00  0.00     0.031 C 
ATOM     53  C   UNL A   1      42.958  29.539  34.893  1.00  0.00     0.034 A 
BRANCH  40  54
ATOM     54  C   UNL A   1      40.798  27.827  29.364  1.00  0.00     0.023 A 
ATOM     55  C   UNL A   1      39.990  26.676  29.268  1.00  0.00     0.012 A 
ATOM     56  C   UNL A   1      41.674  28.146  28.307  1.00  0.00     0.148 A 
ATOM     57  C   UNL A   1      40.075  25.836  28.159  1.00  0.00     0.002 A 
ATOM     58  C   UNL A   1      41.720  27.327  27.183  1.00  0.00     0.091 A 
ATOM     59  F   UNL A   1      42.446  29.235  28.422  1.00  0.00    -0.205 F 
ATOM     60  C   UNL A   1      40.931  26.167  27.113  1.00  0.00     0.022 A 
BRANCH  58  61
ATOM     61  S   UNL A   1      42.734  27.705  25.748  1.00  0.00     0.127 S 
ATOM     62  O   UNL A   1      42.269  26.704  24.788  1.00  0.00    -0.237 OA
ATOM     63  O   UNL A   1      42.332  29.077  25.440  1.00  0.00    -0.237 OA
ATOM     64  O   UNL A   1      44.116  27.559  26.183  1.00  0.00    -0.744 OA
ENDBRANCH  58  61
ENDBRANCH  40  54
BRANCH  41  65
ATOM     65  C   UNL A   1      39.486  33.966  37.136  1.00  0.00     0.023 A 
ATOM     66  C   UNL A   1      39.890  35.312  37.043  1.00  0.00     0.012 A 
ATOM     67  C   UNL A   1      38.913  33.505  38.336  1.00  0.00     0.148 A 
ATOM     68  C   UNL A   1      39.763  36.172  38.134  1.00  0.00     0.002 A 
ATOM     69  C   UNL A   1      38.738  34.381  39.403  1.00  0.00     0.091 A 
ATOM     70  F   UNL A   1      38.550  32.216  38.415  1.00  0.00    -0.205 F 
ATOM     71  C   UNL A   1      39.180  35.710  39.310  1.00  0.00     0.022 A 
BRANCH  69  72
ATOM     72  S   UNL A   1      37.877  33.901  40.904  1.00  0.00     0.127 S 
ATOM     73  O   UNL A   1      38.863  33.044  41.555  1.00  0.00    -0.237 OA
ATOM     74  O   UNL A   1      37.652  35.191  41.555  1.00  0.00    -0.237 OA
ATOM     75  O   UNL A   1      36.656  33.242  40.455  1.00  0.00    -0.744 OA
ENDBRANCH  69  72
ENDBRANCH  41  65
BRANCH  53  76
ATOM     76  C   UNL A   1      44.146  28.994  35.639  1.00  0.00     0.023 A 
ATOM     77  C   UNL A   1      45.413  29.587  35.471  1.00  0.00     0.012 A 
ATOM     78  C   UNL A   1      43.991  27.945  36.567  1.00  0.00     0.148 A 
ATOM     79  C   UNL A   1      46.513  29.124  36.192  1.00  0.00     0.002 A 
ATOM     80  C   UNL A   1      45.082  27.521  37.317  1.00  0.00     0.091 A 
ATOM     81  F   UNL A   1      42.781  27.382  36.700  1.00  0.00    -0.205 F 
ATOM     82  C   UNL A   1      46.345  28.101  37.122  1.00  0.00     0.022 A 
BRANCH  80  83
ATOM     83  S   UNL A   1      44.940  26.276  38.605  1.00  0.00     0.127 S 
ATOM     84  O   UNL A   1      43.986  25.341  38.012  1.00  0.00    -0.237 OA
ATOM     85  O   UNL A   1      46.309  25.772  38.702  1.00  0.00    -0.237 OA
ATOM     86  O   UNL A   1      44.471  26.979  39.792  1.00  0.00    -0.744 OA
ENDBRANCH  80  83
ENDBRANCH  53  76
ENDBRANCH  27  28
ENDBRANCH  19  22
ENDBRANCH  17  18
ENDBRANCH   1  17
TORSDOF 16
ENDMDL
MODEL 2
REMARK VINA RESULT:     -10.2      2.886      4.277
REMARK SMILES C[N@@H+](CC(=O)NCCCNC(=O)c1ccc(-c2c3nc(c(-c4cccc(S(=O)(=O)[O-])c4F)c4ccc([nH]4)c(-c4cccc(S(=O)(=O)[O-])c4F)c4nc(c(-c5cccc(S(=O)(=O)[O-])c5F)c5ccc2[nH]5)C=C4)C=C3)cc1)Cc1nccs1
REMARK SMILES IDX 8 1 7 2 6 3 4 4 5 5 3 7 2 8 1 9 76 11 77 12 78 13 81 14
REMARK SMILES IDX 79 15 80 16 9 17 10 18 11 19 12 21 13 22 14 23 75 24 15 25
REMARK SMILES IDX 74 26 16 27 17 28 18 29 68 30 19 31 73 32 67 33 69 34 20 35
REMARK SMILES IDX 72 36 66 37 65 38 21 40 53 41 33 42 52 43 34 44 37 45 51 46
REMARK SMILES IDX 70 47 35 48 36 49 50 51 71 52 38 53 22 54 23 55 31 56 24 57
REMARK SMILES IDX 26 58 32 59 25 60 27 61 28 62 29 63 30 64 54 65 55 66 63 67
REMARK SMILES IDX 56 68 58 69 64 70 57 71 59 72 60 73 61 74 62 75 39 76 40 77
REMARK SMILES IDX 48 78 41 79 43 80 49 81 42 82 44 83 45 84 46 85 47 86
REMARK H PARENT 6 6 2 10 10 20 69 39 37 50
REMARK Flexibility Score: inf
ROOT
ATOM      1  C   UNL A   1      32.455  27.637  25.100  1.00  0.00     0.042 C 
ENDROOT
BRANCH   1   2
ATOM      2  C   UNL A   1      31.657  27.085  23.923  1.00  0.00     0.118 C 
BRANCH   2   3
ATOM      3  N   UNL A   1      32.428  26.963  22.703  1.00  0.00    -0.351 N 
ATOM      4  C   UNL A   1      32.988  25.868  22.118  1.00  0.00     0.275 C 
ATOM      5  O   UNL A   1      33.278  25.964  20.920  1.00  0.00    -0.269 OA
ATOM      6  H   UNL A   1      32.571  27.808  22.218  1.00  0.00     0.163 HD
BRANCH   4   7
ATOM      7  C   UNL A   1      33.154  24.541  22.858  1.00  0.00     0.363 C 
BRANCH   7   8
ATOM      8  N   UNL A   1      34.423  24.305  23.550  1.00  0.00    -0.324 N 
ATOM      9  C   UNL A   1      35.221  23.175  23.138  1.00  0.00     0.333 C 
ATOM     10  H   UNL A   1      34.922  25.074  23.105  1.00  0.00     0.348 HD
BRANCH   8  11
ATOM     11  C   UNL A   1      34.558  24.715  24.953  1.00  0.00     0.331 C 
BRANCH  11  12
ATOM     12  C   UNL A   1      34.030  23.776  26.009  1.00  0.00     0.147 A 
ATOM     13  N   UNL A   1      34.768  22.862  26.608  1.00  0.00    -0.244 NA
ATOM     14  S   UNL A   1      32.372  23.777  26.473  1.00  0.00    -0.122 S 
ATOM     15  C   UNL A   1      34.029  22.206  27.568  1.00  0.00     0.123 A 
ATOM     16  C   UNL A   1      32.706  22.578  27.651  1.00  0.00     0.087 A 
ENDBRANCH  11  12
ENDBRANCH   8  11
ENDBRANCH   7   8
ENDBRANCH   4   7
ENDBRANCH   2   3
ENDBRANCH   1   2
BRANCH   1  17
ATOM     17  C   UNL A   1      33.210  28.931  24.827  1.00  0.00     0.118 C 
BRANCH  17  18
ATOM     18  N   UNL A   1      32.521  30.100  25.351  1.00  0.00    -0.352 N 
ATOM     19  C   UNL A   1      32.766  30.828  26.492  1.00  0.00     0.251 C 
ATOM     20  H   UNL A   1      31.766  30.418  24.806  1.00  0.00     0.163 HD
ATOM     21  O   UNL A   1      31.938  31.655  26.862  1.00  0.00    -0.269 OA
BRANCH  19  22
ATOM     22  C   UNL A   1      34.002  30.617  27.286  1.00  0.00     0.039 A 
ATOM     23  C   UNL A   1      34.295  29.329  27.748  1.00  0.00     0.014 A 
ATOM     24  C   UNL A   1      34.846  31.678  27.626  1.00  0.00     0.014 A 
ATOM     25  C   UNL A   1      35.451  29.099  28.502  1.00  0.00     0.010 A 
ATOM     26  C   UNL A   1      36.037  31.434  28.311  1.00  0.00     0.010 A 
ATOM     27  C   UNL A   1      36.347  30.145  28.772  1.00  0.00    -0.014 A 
BRANCH  27  28
ATOM     28  C   UNL A   1      37.594  29.921  29.553  1.00  0.00     0.031 A 
ATOM     29  C   UNL A   1      38.677  29.021  29.011  1.00  0.00     0.074 A 
ATOM     30  C   UNL A   1      37.732  30.469  30.778  1.00  0.00     0.049 A 
ATOM     31  N   UNL A   1      39.798  28.647  29.570  1.00  0.00    -0.248 NA
ATOM     32  C   UNL A   1      38.457  28.448  27.672  1.00  0.00     0.031 C 
ATOM     33  C   UNL A   1      36.738  31.312  31.445  1.00  0.00     0.029 A 
ATOM     34  N   UNL A   1      38.755  30.380  31.690  1.00  0.00    -0.354 N 
ATOM     35  C   UNL A   1      40.402  27.776  28.670  1.00  0.00     0.074 A 
ATOM     36  C   UNL A   1      39.504  27.645  27.544  1.00  0.00     0.031 C 
ATOM     37  C   UNL A   1      37.201  31.666  32.656  1.00  0.00     0.029 A 
ATOM     38  C   UNL A   1      38.509  31.053  32.865  1.00  0.00     0.049 A 
ATOM     39  H   UNL A   1      39.586  29.881  31.520  1.00  0.00     0.167 HD
ATOM     40  C   UNL A   1      41.610  27.167  28.751  1.00  0.00     0.034 A 
ATOM     41  C   UNL A   1      39.251  31.160  33.986  1.00  0.00     0.034 A 
ATOM     42  C   UNL A   1      42.526  27.334  29.848  1.00  0.00     0.049 A 
ATOM     43  C   UNL A   1      40.598  30.489  34.041  1.00  0.00     0.074 A 
ATOM     44  C   UNL A   1      43.796  26.805  29.997  1.00  0.00     0.029 A 
ATOM     45  N   UNL A   1      42.273  28.091  30.981  1.00  0.00    -0.354 N 
ATOM     46  N   UNL A   1      41.205  29.779  33.122  1.00  0.00    -0.248 NA
ATOM     47  C   UNL A   1      41.378  30.665  35.276  1.00  0.00     0.031 C 
ATOM     48  C   UNL A   1      44.308  27.235  31.225  1.00  0.00     0.029 A 
ATOM     49  C   UNL A   1      43.364  28.047  31.833  1.00  0.00     0.049 A 
ATOM     50  H   UNL A   1      41.441  28.588  31.155  1.00  0.00     0.167 HD
ATOM     51  C   UNL A   1      42.453  29.462  33.648  1.00  0.00     0.074 A 
ATOM     52  C   UNL A   1      42.522  30.073  34.960  1.00  0.00     0.031 C 
ATOM     53  C   UNL A   1      43.447  28.718  33.103  1.00  0.00     0.034 A 
BRANCH  40  54
ATOM     54  C   UNL A   1      42.046  26.318  27.586  1.00  0.00     0.023 A 
ATOM     55  C   UNL A   1      42.828  26.897  26.566  1.00  0.00     0.012 A 
ATOM     56  C   UNL A   1      41.745  24.943  27.528  1.00  0.00     0.148 A 
ATOM     57  C   UNL A   1      43.274  26.132  25.489  1.00  0.00     0.002 A 
ATOM     58  C   UNL A   1      42.231  24.176  26.474  1.00  0.00     0.091 A 
ATOM     59  F   UNL A   1      40.986  24.412  28.498  1.00  0.00    -0.205 F 
ATOM     60  C   UNL A   1      42.986  24.772  25.449  1.00  0.00     0.022 A 
BRANCH  58  61
ATOM     61  S   UNL A   1      41.980  22.400  26.367  1.00  0.00     0.127 S 
ATOM     62  O   UNL A   1      42.783  22.060  25.192  1.00  0.00    -0.237 OA
ATOM     63  O   UNL A   1      42.532  21.934  27.638  1.00  0.00    -0.237 OA
ATOM     64  O   UNL A   1      40.544  22.206  26.219  1.00  0.00    -0.744 OA
ENDBRANCH  58  61
ENDBRANCH  40  54
BRANCH  41  65
ATOM     65  C   UNL A   1      38.773  31.994  35.127  1.00  0.00     0.023 A 
ATOM     66  C   UNL A   1      38.823  33.399  35.021  1.00  0.00     0.012 A 
ATOM     67  C   UNL A   1      38.272  31.415  36.308  1.00  0.00     0.148 A 
ATOM     68  C   UNL A   1      38.420  34.209  36.083  1.00  0.00     0.002 A 
ATOM     69  C   UNL A   1      37.820  32.229  37.342  1.00  0.00     0.091 A 
ATOM     70  F   UNL A   1      38.247  30.077  36.401  1.00  0.00    -0.205 F 
ATOM     71  C   UNL A   1      37.911  33.625  37.239  1.00  0.00     0.022 A 
BRANCH  69  72
ATOM     72  S   UNL A   1      37.029  31.560  38.810  1.00  0.00     0.127 S 
ATOM     73  O   UNL A   1      35.812  32.362  38.887  1.00  0.00    -0.237 OA
ATOM     74  O   UNL A   1      36.825  30.161  38.438  1.00  0.00    -0.237 OA
ATOM     75  O   UNL A   1      37.991  31.754  39.890  1.00  0.00    -0.744 OA
ENDBRANCH  69  72
ENDBRANCH  41  65
BRANCH  53  76
ATOM     76  C   UNL A   1      44.720  28.561  33.892  1.00  0.00     0.023 A 
ATOM     77  C   UNL A   1      45.762  29.496  33.735  1.00  0.00     0.012 A 
ATOM     78  C   UNL A   1      44.849  27.533  34.847  1.00  0.00     0.148 A 
ATOM     79  C   UNL A   1      46.927  29.390  34.494  1.00  0.00     0.002 A 
ATOM     80  C   UNL A   1      45.993  27.463  35.634  1.00  0.00     0.091 A 
ATOM     81  F   UNL A   1      43.853  26.643  34.968  1.00  0.00    -0.205 F 
ATOM     82  C   UNL A   1      47.037  28.383  35.450  1.00  0.00     0.022 A 
BRANCH  80  83
ATOM     83  S   UNL A   1      46.182  26.260  36.954  1.00  0.00     0.127 S 
ATOM     84  O   UNL A   1      47.499  26.604  37.485  1.00  0.00    -0.237 OA
ATOM     85  O   UNL A   1      45.062  26.588  37.836  1.00  0.00    -0.237 OA
ATOM     86  O   UNL A   1      46.086  24.951  36.320  1.00  0.00    -0.744 OA
ENDBRANCH  80  83
ENDBRANCH  53  76
ENDBRANCH  27  28
ENDBRANCH  19  22
ENDBRANCH  17  18
ENDBRANCH   1  17
TORSDOF 16
ENDMDL
MODEL 3
REMARK VINA RESULT:     -10.2      4.122      9.571
REMARK SMILES C[N@@H+](CC(=O)NCCCNC(=O)c1ccc(-c2c3nc(c(-c4cccc(S(=O)(=O)[O-])c4F)c4ccc([nH]4)c(-c4cccc(S(=O)(=O)[O-])c4F)c4nc(c(-c5cccc(S(=O)(=O)[O-])c5F)c5ccc2[nH]5)C=C4)C=C3)cc1)Cc1nccs1
REMARK SMILES IDX 8 1 7 2 6 3 4 4 5 5 3 7 2 8 1 9 76 11 77 12 78 13 81 14
REMARK SMILES IDX 79 15 80 16 9 17 10 18 11 19 12 21 13 22 14 23 75 24 15 25
REMARK SMILES IDX 74 26 16 27 17 28 18 29 68 30 19 31 73 32 67 33 69 34 20 35
REMARK SMILES IDX 72 36 66 37 65 38 21 40 53 41 33 42 52 43 34 44 37 45 51 46
REMARK SMILES IDX 70 47 35 48 36 49 50 51 71 52 38 53 22 54 23 55 31 56 24 57
REMARK SMILES IDX 26 58 32 59 25 60 27 61 28 62 29 63 30 64 54 65 55 66 63 67
REMARK SMILES IDX 56 68 58 69 64 70 57 71 59 72 60 73 61 74 62 75 39 76 40 77
REMARK SMILES IDX 48 78 41 79 43 80 49 81 42 82 44 83 45 84 46 85 47 86
REMARK H PARENT 6 6 2 10 10 20 69 39 37 50
REMARK Flexibility Score: inf
ROOT
ATOM      1  C   UNL A   1      32.344  27.821  27.354  1.00  0.00     0.042 C 
ENDROOT
BRANCH   1   2
ATOM      2  C   UNL A   1      31.524  27.183  26.238  1.00  0.00     0.118 C 
BRANCH   2   3
ATOM      3  N   UNL A   1      31.013  25.868  26.571  1.00  0.00    -0.351 N 
ATOM      4  C   UNL A   1      31.638  24.657  26.593  1.00  0.00     0.275 C 
ATOM      5  O   UNL A   1      31.093  23.761  27.247  1.00  0.00    -0.269 OA
ATOM      6  H   UNL A   1      30.062  25.846  26.821  1.00  0.00     0.163 HD
BRANCH   4   7
ATOM      7  C   UNL A   1      33.001  24.430  25.941  1.00  0.00     0.363 C 
BRANCH   7   8
ATOM      8  N   UNL A   1      33.040  23.637  24.709  1.00  0.00    -0.324 N 
ATOM      9  C   UNL A   1      32.156  24.012  23.633  1.00  0.00     0.333 C 
ATOM     10  H   UNL A   1      33.928  24.014  24.378  1.00  0.00     0.348 HD
BRANCH   8  11
ATOM     11  C   UNL A   1      33.400  22.217  24.787  1.00  0.00     0.331 C 
BRANCH  11  12
ATOM     12  C   UNL A   1      34.868  21.866  24.771  1.00  0.00     0.147 A 
ATOM     13  N   UNL A   1      35.360  20.759  25.292  1.00  0.00    -0.244 NA
ATOM     14  S   UNL A   1      36.047  22.940  24.120  1.00  0.00    -0.122 S 
ATOM     15  C   UNL A   1      36.717  20.688  25.065  1.00  0.00     0.123 A 
ATOM     16  C   UNL A   1      37.268  21.778  24.429  1.00  0.00     0.087 A 
ENDBRANCH  11  12
ENDBRANCH   8  11
ENDBRANCH   7   8
ENDBRANCH   4   7
ENDBRANCH   2   3
ENDBRANCH   1   2
BRANCH   1  17
ATOM     17  C   UNL A   1      33.631  28.504  26.910  1.00  0.00     0.118 C 
BRANCH  17  18
ATOM     18  N   UNL A   1      33.584  29.948  27.079  1.00  0.00    -0.352 N 
ATOM     19  C   UNL A   1      34.464  30.788  27.720  1.00  0.00     0.251 C 
ATOM     20  H   UNL A   1      32.804  30.390  26.673  1.00  0.00     0.163 HD
ATOM     21  O   UNL A   1      34.135  31.952  27.929  1.00  0.00    -0.269 OA
BRANCH  19  22
ATOM     22  C   UNL A   1      35.793  30.306  28.173  1.00  0.00     0.039 A 
ATOM     23  C   UNL A   1      35.900  29.718  29.439  1.00  0.00     0.014 A 
ATOM     24  C   UNL A   1      36.940  30.474  27.393  1.00  0.00     0.014 A 
ATOM     25  C   UNL A   1      37.141  29.258  29.896  1.00  0.00     0.010 A 
ATOM     26  C   UNL A   1      38.160  29.944  27.817  1.00  0.00     0.010 A 
ATOM     27  C   UNL A   1      38.279  29.345  29.080  1.00  0.00    -0.014 A 
BRANCH  27  28
ATOM     28  C   UNL A   1      39.604  28.841  29.535  1.00  0.00     0.031 A 
ATOM     29  C   UNL A   1      40.350  29.558  30.634  1.00  0.00     0.074 A 
ATOM     30  C   UNL A   1      40.171  27.782  28.923  1.00  0.00     0.049 A 
ATOM     31  N   UNL A   1      41.541  29.316  31.118  1.00  0.00    -0.248 NA
ATOM     32  C   UNL A   1      39.677  30.712  31.253  1.00  0.00     0.031 C 
ATOM     33  C   UNL A   1      39.584  27.034  27.809  1.00  0.00     0.029 A 
ATOM     34  N   UNL A   1      41.380  27.165  29.134  1.00  0.00    -0.354 N 
ATOM     35  C   UNL A   1      41.772  30.301  32.072  1.00  0.00     0.074 A 
ATOM     36  C   UNL A   1      40.615  31.167  32.072  1.00  0.00     0.031 C 
ATOM     37  C   UNL A   1      40.431  26.058  27.439  1.00  0.00     0.029 A 
ATOM     38  C   UNL A   1      41.631  26.127  28.266  1.00  0.00     0.049 A 
ATOM     39  H   UNL A   1      42.009  27.441  29.840  1.00  0.00     0.167 HD
ATOM     40  C   UNL A   1      42.832  30.453  32.902  1.00  0.00     0.034 A 
ATOM     41  C   UNL A   1      42.709  25.325  28.147  1.00  0.00     0.034 A 
ATOM     42  C   UNL A   1      43.963  29.564  32.938  1.00  0.00     0.049 A 
ATOM     43  C   UNL A   1      43.865  25.504  29.095  1.00  0.00     0.074 A 
ATOM     44  C   UNL A   1      45.060  29.601  33.780  1.00  0.00     0.029 A 
ATOM     45  N   UNL A   1      44.140  28.476  32.099  1.00  0.00    -0.354 N 
ATOM     46  N   UNL A   1      44.002  26.360  30.079  1.00  0.00    -0.248 NA
ATOM     47  C   UNL A   1      45.001  24.583  28.940  1.00  0.00     0.031 C 
ATOM     48  C   UNL A   1      45.906  28.539  33.444  1.00  0.00     0.029 A 
ATOM     49  C   UNL A   1      45.326  27.830  32.404  1.00  0.00     0.049 A 
ATOM     50  H   UNL A   1      43.515  28.201  31.389  1.00  0.00     0.167 HD
ATOM     51  C   UNL A   1      45.214  26.051  30.686  1.00  0.00     0.074 A 
ATOM     52  C   UNL A   1      45.765  24.918  29.971  1.00  0.00     0.031 C 
ATOM     53  C   UNL A   1      45.826  26.660  31.732  1.00  0.00     0.034 A 
BRANCH  40  54
ATOM     54  C   UNL A   1      42.788  31.585  33.895  1.00  0.00     0.023 A 
ATOM     55  C   UNL A   1      43.283  32.851  33.518  1.00  0.00     0.012 A 
ATOM     56  C   UNL A   1      42.203  31.423  35.166  1.00  0.00     0.148 A 
ATOM     57  C   UNL A   1      43.229  33.928  34.401  1.00  0.00     0.002 A 
ATOM     58  C   UNL A   1      42.112  32.514  36.024  1.00  0.00     0.091 A 
ATOM     59  F   UNL A   1      41.753  30.210  35.514  1.00  0.00    -0.205 F 
ATOM     60  C   UNL A   1      42.635  33.763  35.648  1.00  0.00     0.022 A 
BRANCH  58  61
ATOM     61  S   UNL A   1      41.298  32.427  37.624  1.00  0.00     0.127 S 
ATOM     62  O   UNL A   1      41.262  33.836  38.014  1.00  0.00    -0.237 OA
ATOM     63  O   UNL A   1      39.996  31.857  37.277  1.00  0.00    -0.237 OA
ATOM     64  O   UNL A   1      42.134  31.571  38.454  1.00  0.00    -0.744 OA
ENDBRANCH  58  61
ENDBRANCH  40  54
BRANCH  41  65
ATOM     65  C   UNL A   1      42.722  24.229  27.135  1.00  0.00     0.023 A 
ATOM     66  C   UNL A   1      43.376  24.437  25.904  1.00  0.00     0.012 A 
ATOM     67  C   UNL A   1      42.098  22.991  27.378  1.00  0.00     0.148 A 
ATOM     68  C   UNL A   1      43.375  23.448  24.920  1.00  0.00     0.002 A 
ATOM     69  C   UNL A   1      42.148  21.989  26.414  1.00  0.00     0.091 A 
ATOM     70  F   UNL A   1      41.464  22.815  28.547  1.00  0.00    -0.205 F 
ATOM     71  C   UNL A   1      42.769  22.222  25.178  1.00  0.00     0.022 A 
BRANCH  69  72
ATOM     72  S   UNL A   1      41.507  20.338  26.717  1.00  0.00     0.127 S 
ATOM     73  O   UNL A   1      42.349  19.887  27.821  1.00  0.00    -0.237 OA
ATOM     74  O   UNL A   1      40.114  20.609  27.071  1.00  0.00    -0.237 OA
ATOM     75  O   UNL A   1      41.671  19.622  25.456  1.00  0.00    -0.744 OA
ENDBRANCH  69  72
ENDBRANCH  41  65
BRANCH  53  76
ATOM     76  C   UNL A   1      47.136  26.089  32.208  1.00  0.00     0.023 A 
ATOM     77  C   UNL A   1      48.347  26.564  31.666  1.00  0.00     0.012 A 
ATOM     78  C   UNL A   1      47.169  25.140  33.249  1.00  0.00     0.148 A 
ATOM     79  C   UNL A   1      49.568  26.080  32.131  1.00  0.00     0.002 A 
ATOM     80  C   UNL A   1      48.392  24.698  33.740  1.00  0.00     0.091 A 
ATOM     81  F   UNL A   1      46.005  24.688  33.739  1.00  0.00    -0.205 F 
ATOM     82  C   UNL A   1      49.592  25.157  33.175  1.00  0.00     0.022 A 
BRANCH  80  83
ATOM     83  S   UNL A   1      48.520  23.585  35.144  1.00  0.00     0.127 S 
ATOM     84  O   UNL A   1      47.725  22.444  34.693  1.00  0.00    -0.237 OA
ATOM     85  O   UNL A   1      49.959  23.337  35.214  1.00  0.00    -0.237 OA
ATOM     86  O   UNL A   1      47.977  24.313  36.284  1.00  0.00    -0.744 OA
ENDBRANCH  80  83
ENDBRANCH  53  76
ENDBRANCH  27  28
ENDBRANCH  19  22
ENDBRANCH  17  18
ENDBRANCH   1  17
TORSDOF 16
ENDMDL
