MODEL 1
REMARK VINA RESULT:     -11.5      0.000      0.000
REMARK SMILES C[C@@H](C(=O)NCCCNC(=O)c1ccc(-c2c3nc(c(-c4cccc(S(=O)(=O)[O-])c4F)c4ccc([nH]4)c(-c4cccc(S(=O)(=O)[O-])c4F)c4nc(c(-c5cccc(S(=O)(=O)[O-])c5F)c5ccc2[nH]5)C=C4)C=C3)cc1)[C@@H](C)c1ccc(OC(F)(F)F)cc1
REMARK SMILES IDX 6 1 5 2 3 3 4 4 2 6 1 7 75 8 76 9 77 10 78 11 87 12 79 13
REMARK SMILES IDX 86 14 80 15 81 16 82 17 83 18 84 19 85 20 7 21 8 22 9 23
REMARK SMILES IDX 10 24 11 26 12 27 13 28 74 29 14 30 73 31 15 32 16 33 17 34
REMARK SMILES IDX 67 35 18 36 72 37 66 38 68 39 19 40 71 41 65 42 64 43 20 45
REMARK SMILES IDX 52 46 32 47 51 48 33 49 36 50 50 51 69 52 34 53 35 54 49 56
REMARK SMILES IDX 70 57 37 58 21 59 22 60 30 61 23 62 25 63 31 64 24 65 26 66
REMARK SMILES IDX 27 67 28 68 29 69 53 70 54 71 62 72 55 73 57 74 63 75 56 76
REMARK SMILES IDX 58 77 59 78 60 79 61 80 38 81 39 82 47 83 40 84 42 85 48 86
REMARK SMILES IDX 41 87 43 88 44 89 45 90 46 91
REMARK H PARENT 5 5 9 25 68 44 36 55
REMARK Flexibility Score: inf
ROOT
ATOM      1  C   UNL A   1      36.297  23.284  23.717  1.00  0.00     0.117 C 
ENDROOT
BRANCH   1   2
ATOM      2  N   UNL A   1      35.555  24.184  24.580  1.00  0.00    -0.356 N 
ATOM      3  C   UNL A   1      34.325  24.741  24.398  1.00  0.00     0.223 C 
ATOM      4  O   UNL A   1      34.060  25.748  25.055  1.00  0.00    -0.275 OA
ATOM      5  H   UNL A   1      36.007  24.426  25.420  1.00  0.00     0.163 HD
BRANCH   3   6
ATOM      6  C   UNL A   1      33.353  24.127  23.388  1.00  0.00     0.082 C 
ATOM      7  C   UNL A   1      32.857  25.249  22.470  1.00  0.00     0.018 C 
BRANCH   6   8
ATOM      8  C   UNL A   1      32.178  23.392  24.106  1.00  0.00     0.028 C 
ATOM      9  C   UNL A   1      30.822  23.681  23.436  1.00  0.00     0.013 C 
BRANCH   8  10
ATOM     10  C   UNL A   1      32.430  21.886  24.225  1.00  0.00    -0.044 A 
ATOM     11  C   UNL A   1      32.233  21.066  23.104  1.00  0.00     0.008 A 
ATOM     12  C   UNL A   1      32.841  21.272  25.416  1.00  0.00     0.008 A 
ATOM     13  C   UNL A   1      32.409  19.683  23.179  1.00  0.00     0.047 A 
ATOM     14  C   UNL A   1      33.052  19.886  25.482  1.00  0.00     0.047 A 
ATOM     15  C   UNL A   1      32.827  19.082  24.365  1.00  0.00     0.129 A 
BRANCH  15  16
ATOM     16  O   UNL A   1      32.959  17.726  24.292  1.00  0.00    -0.406 OA
BRANCH  16  17
ATOM     17  C   UNL A   1      34.214  17.206  23.904  1.00  0.00     0.573 C 
ATOM     18  F   UNL A   1      34.262  16.987  22.571  1.00  0.00    -0.132 F 
ATOM     19  F   UNL A   1      35.224  18.028  24.262  1.00  0.00    -0.132 F 
ATOM     20  F   UNL A   1      34.404  16.021  24.527  1.00  0.00    -0.132 F 
ENDBRANCH  16  17
ENDBRANCH  15  16
ENDBRANCH   8  10
ENDBRANCH   6   8
ENDBRANCH   3   6
ENDBRANCH   1   2
BRANCH   1  21
ATOM     21  C   UNL A   1      36.252  21.854  24.254  1.00  0.00     0.042 C 
BRANCH  21  22
ATOM     22  C   UNL A   1      36.708  21.719  25.704  1.00  0.00     0.118 C 
BRANCH  22  23
ATOM     23  N   UNL A   1      37.774  20.740  25.864  1.00  0.00    -0.352 N 
ATOM     24  C   UNL A   1      39.107  20.938  26.128  1.00  0.00     0.251 C 
ATOM     25  H   UNL A   1      37.499  19.800  25.771  1.00  0.00     0.163 HD
ATOM     26  O   UNL A   1      39.889  19.992  26.032  1.00  0.00    -0.269 OA
BRANCH  24  27
ATOM     27  C   UNL A   1      39.606  22.278  26.504  1.00  0.00     0.039 A 
ATOM     28  C   UNL A   1      40.609  22.379  27.471  1.00  0.00     0.014 A 
ATOM     29  C   UNL A   1      39.080  23.435  25.919  1.00  0.00     0.014 A 
ATOM     30  C   UNL A   1      41.128  23.632  27.805  1.00  0.00     0.010 A 
ATOM     31  C   UNL A   1      39.653  24.673  26.194  1.00  0.00     0.010 A 
ATOM     32  C   UNL A   1      40.680  24.788  27.143  1.00  0.00    -0.014 A 
BRANCH  32  33
ATOM     33  C   UNL A   1      41.281  26.119  27.420  1.00  0.00     0.031 A 
ATOM     34  C   UNL A   1      42.687  26.425  26.979  1.00  0.00     0.074 A 
ATOM     35  C   UNL A   1      40.594  27.019  28.150  1.00  0.00     0.049 A 
ATOM     36  N   UNL A   1      43.402  27.500  27.192  1.00  0.00    -0.248 NA
ATOM     37  C   UNL A   1      43.393  25.376  26.224  1.00  0.00     0.031 C 
ATOM     38  C   UNL A   1      39.255  26.814  28.703  1.00  0.00     0.029 A 
ATOM     39  N   UNL A   1      40.942  28.276  28.582  1.00  0.00    -0.354 N 
ATOM     40  C   UNL A   1      44.648  27.245  26.633  1.00  0.00     0.074 A 
ATOM     41  C   UNL A   1      44.604  25.900  26.101  1.00  0.00     0.031 C 
ATOM     42  C   UNL A   1      38.896  27.900  29.403  1.00  0.00     0.029 A 
ATOM     43  C   UNL A   1      39.991  28.865  29.383  1.00  0.00     0.049 A 
ATOM     44  H   UNL A   1      41.790  28.713  28.341  1.00  0.00     0.167 HD
ATOM     45  C   UNL A   1      45.726  28.062  26.547  1.00  0.00     0.034 A 
ATOM     46  C   UNL A   1      40.005  30.039  30.044  1.00  0.00     0.034 A 
ATOM     47  C   UNL A   1      45.756  29.409  27.051  1.00  0.00     0.049 A 
ATOM     48  C   UNL A   1      41.202  30.942  29.911  1.00  0.00     0.074 A 
ATOM     49  C   UNL A   1      46.766  30.349  26.934  1.00  0.00     0.029 A 
ATOM     50  N   UNL A   1      44.741  30.004  27.785  1.00  0.00    -0.354 N 
ATOM     51  N   UNL A   1      42.310  30.747  29.239  1.00  0.00    -0.248 NA
ATOM     52  C   UNL A   1      41.135  32.241  30.597  1.00  0.00     0.031 C 
ATOM     53  C   UNL A   1      46.376  31.498  27.629  1.00  0.00     0.029 A 
ATOM     54  C   UNL A   1      45.106  31.291  28.142  1.00  0.00     0.049 A 
ATOM     55  H   UNL A   1      43.886  29.574  28.016  1.00  0.00     0.167 HD
ATOM     56  C   UNL A   1      43.058  31.909  29.392  1.00  0.00     0.074 A 
ATOM     57  C   UNL A   1      42.267  32.810  30.204  1.00  0.00     0.031 C 
ATOM     58  C   UNL A   1      44.292  32.198  28.911  1.00  0.00     0.034 A 
BRANCH  45  59
ATOM     59  C   UNL A   1      46.952  27.533  25.849  1.00  0.00     0.023 A 
ATOM     60  C   UNL A   1      47.128  27.764  24.469  1.00  0.00     0.012 A 
ATOM     61  C   UNL A   1      47.955  26.850  26.565  1.00  0.00     0.148 A 
ATOM     62  C   UNL A   1      48.256  27.288  23.804  1.00  0.00     0.002 A 
ATOM     63  C   UNL A   1      49.101  26.421  25.905  1.00  0.00     0.091 A 
ATOM     64  F   UNL A   1      47.766  26.622  27.872  1.00  0.00    -0.205 F 
ATOM     65  C   UNL A   1      49.247  26.626  24.524  1.00  0.00     0.022 A 
BRANCH  63  66
ATOM     66  S   UNL A   1      50.472  25.633  26.758  1.00  0.00     0.127 S 
ATOM     67  O   UNL A   1      50.852  26.665  27.722  1.00  0.00    -0.237 OA
ATOM     68  O   UNL A   1      49.832  24.455  27.346  1.00  0.00    -0.237 OA
ATOM     69  O   UNL A   1      51.465  25.336  25.735  1.00  0.00    -0.744 OA
ENDBRANCH  63  66
ENDBRANCH  45  59
BRANCH  46  70
ATOM     70  C   UNL A   1      38.825  30.444  30.858  1.00  0.00     0.023 A 
ATOM     71  C   UNL A   1      38.804  30.172  32.239  1.00  0.00     0.012 A 
ATOM     72  C   UNL A   1      37.739  31.127  30.277  1.00  0.00     0.148 A 
ATOM     73  C   UNL A   1      37.710  30.544  33.022  1.00  0.00     0.002 A 
ATOM     74  C   UNL A   1      36.679  31.547  31.071  1.00  0.00     0.091 A 
ATOM     75  F   UNL A   1      37.774  31.369  28.959  1.00  0.00    -0.205 F 
ATOM     76  C   UNL A   1      36.653  31.240  32.441  1.00  0.00     0.022 A 
BRANCH  74  77
ATOM     77  S   UNL A   1      35.343  32.567  30.437  1.00  0.00     0.127 S 
ATOM     78  O   UNL A   1      34.931  31.817  29.253  1.00  0.00    -0.237 OA
ATOM     79  O   UNL A   1      34.391  32.539  31.547  1.00  0.00    -0.237 OA
ATOM     80  O   UNL A   1      35.931  33.876  30.183  1.00  0.00    -0.744 OA
ENDBRANCH  74  77
ENDBRANCH  46  70
BRANCH  58  81
ATOM     81  C   UNL A   1      44.861  33.562  29.209  1.00  0.00     0.023 A 
ATOM     82  C   UNL A   1      45.502  33.806  30.439  1.00  0.00     0.012 A 
ATOM     83  C   UNL A   1      44.826  34.577  28.233  1.00  0.00     0.148 A 
ATOM     84  C   UNL A   1      46.075  35.051  30.704  1.00  0.00     0.002 A 
ATOM     85  C   UNL A   1      45.444  35.797  28.483  1.00  0.00     0.091 A 
ATOM     86  F   UNL A   1      44.195  34.331  27.076  1.00  0.00    -0.205 F 
ATOM     87  C   UNL A   1      46.057  36.039  29.723  1.00  0.00     0.022 A 
BRANCH  85  88
ATOM     88  S   UNL A   1      45.558  37.093  27.246  1.00  0.00     0.127 S 
ATOM     89  O   UNL A   1      44.149  37.333  26.935  1.00  0.00    -0.237 OA
ATOM     90  O   UNL A   1      46.210  38.172  27.988  1.00  0.00    -0.237 OA
ATOM     91  O   UNL A   1      46.350  36.543  26.155  1.00  0.00    -0.744 OA
ENDBRANCH  85  88
ENDBRANCH  58  81
ENDBRANCH  32  33
ENDBRANCH  24  27
ENDBRANCH  22  23
ENDBRANCH  21  22
ENDBRANCH   1  21
TORSDOF 17
ENDMDL
MODEL 2
REMARK VINA RESULT:     -11.3      1.428      7.714
REMARK SMILES C[C@@H](C(=O)NCCCNC(=O)c1ccc(-c2c3nc(c(-c4cccc(S(=O)(=O)[O-])c4F)c4ccc([nH]4)c(-c4cccc(S(=O)(=O)[O-])c4F)c4nc(c(-c5cccc(S(=O)(=O)[O-])c5F)c5ccc2[nH]5)C=C4)C=C3)cc1)[C@@H](C)c1ccc(OC(F)(F)F)cc1
REMARK SMILES IDX 6 1 5 2 3 3 4 4 2 6 1 7 75 8 76 9 77 10 78 11 87 12 79 13
REMARK SMILES IDX 86 14 80 15 81 16 82 17 83 18 84 19 85 20 7 21 8 22 9 23
REMARK SMILES IDX 10 24 11 26 12 27 13 28 74 29 14 30 73 31 15 32 16 33 17 34
REMARK SMILES IDX 67 35 18 36 72 37 66 38 68 39 19 40 71 41 65 42 64 43 20 45
REMARK SMILES IDX 52 46 32 47 51 48 33 49 36 50 50 51 69 52 34 53 35 54 49 56
REMARK SMILES IDX 70 57 37 58 21 59 22 60 30 61 23 62 25 63 31 64 24 65 26 66
REMARK SMILES IDX 27 67 28 68 29 69 53 70 54 71 62 72 55 73 57 74 63 75 56 76
REMARK SMILES IDX 58 77 59 78 60 79 61 80 38 81 39 82 47 83 40 84 42 85 48 86
REMARK SMILES IDX 41 87 43 88 44 89 45 90 46 91
REMARK H PARENT 5 5 9 25 68 44 36 55
REMARK Flexibility Score: inf
ROOT
ATOM      1  C   UNL A   1      36.016  23.138  23.650  1.00  0.00     0.117 C 
ENDROOT
BRANCH   1   2
ATOM      2  N   UNL A   1      35.392  24.054  24.584  1.00  0.00    -0.356 N 
ATOM      3  C   UNL A   1      34.233  24.762  24.462  1.00  0.00     0.223 C 
ATOM      4  O   UNL A   1      34.094  25.744  25.191  1.00  0.00    -0.275 OA
ATOM      5  H   UNL A   1      35.875  24.183  25.432  1.00  0.00     0.163 HD
BRANCH   3   6
ATOM      6  C   UNL A   1      33.188  24.337  23.429  1.00  0.00     0.082 C 
ATOM      7  C   UNL A   1      32.710  25.596  22.697  1.00  0.00     0.018 C 
BRANCH   6   8
ATOM      8  C   UNL A   1      32.009  23.564  24.100  1.00  0.00     0.028 C 
ATOM      9  C   UNL A   1      30.649  23.936  23.481  1.00  0.00     0.013 C 
BRANCH   8  10
ATOM     10  C   UNL A   1      32.232  22.048  24.079  1.00  0.00    -0.044 A 
ATOM     11  C   UNL A   1      32.152  21.358  22.861  1.00  0.00     0.008 A 
ATOM     12  C   UNL A   1      32.503  21.300  25.234  1.00  0.00     0.008 A 
ATOM     13  C   UNL A   1      32.305  19.971  22.802  1.00  0.00     0.047 A 
ATOM     14  C   UNL A   1      32.692  19.911  25.170  1.00  0.00     0.047 A 
ATOM     15  C   UNL A   1      32.584  19.238  23.954  1.00  0.00     0.129 A 
BRANCH  15  16
ATOM     16  O   UNL A   1      32.710  17.895  23.748  1.00  0.00    -0.406 OA
BRANCH  16  17
ATOM     17  C   UNL A   1      34.010  17.341  23.790  1.00  0.00     0.573 C 
ATOM     18  F   UNL A   1      34.072  16.303  24.652  1.00  0.00    -0.132 F 
ATOM     19  F   UNL A   1      34.416  16.938  22.568  1.00  0.00    -0.132 F 
ATOM     20  F   UNL A   1      34.872  18.291  24.220  1.00  0.00    -0.132 F 
ENDBRANCH  16  17
ENDBRANCH  15  16
ENDBRANCH   8  10
ENDBRANCH   6   8
ENDBRANCH   3   6
ENDBRANCH   1   2
BRANCH   1  21
ATOM     21  C   UNL A   1      36.157  21.745  24.264  1.00  0.00     0.042 C 
BRANCH  21  22
ATOM     22  C   UNL A   1      36.813  21.737  25.641  1.00  0.00     0.118 C 
BRANCH  22  23
ATOM     23  N   UNL A   1      37.802  20.677  25.781  1.00  0.00    -0.352 N 
ATOM     24  C   UNL A   1      39.135  20.764  26.099  1.00  0.00     0.251 C 
ATOM     25  H   UNL A   1      37.466  19.765  25.625  1.00  0.00     0.163 HD
ATOM     26  O   UNL A   1      39.852  19.772  25.976  1.00  0.00    -0.269 OA
BRANCH  24  27
ATOM     27  C   UNL A   1      39.711  22.043  26.567  1.00  0.00     0.039 A 
ATOM     28  C   UNL A   1      40.719  22.016  27.535  1.00  0.00     0.014 A 
ATOM     29  C   UNL A   1      39.255  23.267  26.067  1.00  0.00     0.014 A 
ATOM     30  C   UNL A   1      41.311  23.210  27.954  1.00  0.00     0.010 A 
ATOM     31  C   UNL A   1      39.899  24.447  26.427  1.00  0.00     0.010 A 
ATOM     32  C   UNL A   1      40.931  24.434  27.378  1.00  0.00    -0.014 A 
BRANCH  32  33
ATOM     33  C   UNL A   1      41.609  25.704  27.745  1.00  0.00     0.031 A 
ATOM     34  C   UNL A   1      40.867  26.772  28.502  1.00  0.00     0.074 A 
ATOM     35  C   UNL A   1      42.866  25.934  27.317  1.00  0.00     0.049 A 
ATOM     36  N   UNL A   1      41.269  27.968  28.848  1.00  0.00    -0.248 NA
ATOM     37  C   UNL A   1      39.482  26.468  28.899  1.00  0.00     0.031 C 
ATOM     38  C   UNL A   1      43.665  25.013  26.508  1.00  0.00     0.029 A 
ATOM     39  N   UNL A   1      43.680  27.029  27.472  1.00  0.00    -0.354 N 
ATOM     40  C   UNL A   1      40.181  28.571  29.466  1.00  0.00     0.074 A 
ATOM     41  C   UNL A   1      39.090  27.623  29.420  1.00  0.00     0.031 C 
ATOM     42  C   UNL A   1      44.850  25.580  26.235  1.00  0.00     0.029 A 
ATOM     43  C   UNL A   1      44.883  26.919  26.813  1.00  0.00     0.049 A 
ATOM     44  H   UNL A   1      43.427  27.818  28.004  1.00  0.00     0.167 HD
ATOM     45  C   UNL A   1      40.101  29.795  30.044  1.00  0.00     0.034 A 
ATOM     46  C   UNL A   1      45.891  27.802  26.673  1.00  0.00     0.034 A 
ATOM     47  C   UNL A   1      41.197  30.724  30.115  1.00  0.00     0.049 A 
ATOM     48  C   UNL A   1      45.791  29.143  27.346  1.00  0.00     0.074 A 
ATOM     49  C   UNL A   1      41.245  31.950  30.758  1.00  0.00     0.029 A 
ATOM     50  N   UNL A   1      42.431  30.543  29.509  1.00  0.00    -0.354 N 
ATOM     51  N   UNL A   1      44.812  29.632  28.067  1.00  0.00    -0.248 NA
ATOM     52  C   UNL A   1      46.948  30.041  27.217  1.00  0.00     0.031 C 
ATOM     53  C   UNL A   1      42.495  32.524  30.508  1.00  0.00     0.029 A 
ATOM     54  C   UNL A   1      43.242  31.640  29.747  1.00  0.00     0.049 A 
ATOM     55  H   UNL A   1      42.692  29.750  28.987  1.00  0.00     0.167 HD
ATOM     56  C   UNL A   1      45.247  30.878  28.507  1.00  0.00     0.074 A 
ATOM     57  C   UNL A   1      46.586  31.059  27.987  1.00  0.00     0.031 C 
ATOM     58  C   UNL A   1      44.591  31.791  29.264  1.00  0.00     0.034 A 
BRANCH  45  59
ATOM     59  C   UNL A   1      38.791  30.185  30.680  1.00  0.00     0.023 A 
ATOM     60  C   UNL A   1      38.561  29.900  32.042  1.00  0.00     0.012 A 
ATOM     61  C   UNL A   1      37.808  30.877  29.945  1.00  0.00     0.148 A 
ATOM     62  C   UNL A   1      37.358  30.256  32.650  1.00  0.00     0.002 A 
ATOM     63  C   UNL A   1      36.632  31.272  30.572  1.00  0.00     0.091 A 
ATOM     64  F   UNL A   1      38.034  31.124  28.647  1.00  0.00    -0.205 F 
ATOM     65  C   UNL A   1      36.399  30.950  31.919  1.00  0.00     0.022 A 
BRANCH  63  66
ATOM     66  S   UNL A   1      35.370  32.244  29.740  1.00  0.00     0.127 S 
ATOM     67  O   UNL A   1      34.389  32.430  30.808  1.00  0.00    -0.237 OA
ATOM     68  O   UNL A   1      36.108  33.454  29.372  1.00  0.00    -0.237 OA
ATOM     69  O   UNL A   1      34.923  31.440  28.612  1.00  0.00    -0.744 OA
ENDBRANCH  63  66
ENDBRANCH  45  59
BRANCH  46  70
ATOM     70  C   UNL A   1      47.102  27.423  25.892  1.00  0.00     0.023 A 
ATOM     71  C   UNL A   1      48.128  26.682  26.509  1.00  0.00     0.012 A 
ATOM     72  C   UNL A   1      47.227  27.765  24.531  1.00  0.00     0.148 A 
ATOM     73  C   UNL A   1      49.270  26.316  25.796  1.00  0.00     0.002 A 
ATOM     74  C   UNL A   1      48.339  27.346  23.811  1.00  0.00     0.091 A 
ATOM     75  F   UNL A   1      46.243  28.477  23.963  1.00  0.00    -0.205 F 
ATOM     76  C   UNL A   1      49.371  26.639  24.446  1.00  0.00     0.022 A 
BRANCH  74  77
ATOM     77  S   UNL A   1      48.490  27.596  22.038  1.00  0.00     0.127 S 
ATOM     78  O   UNL A   1      47.153  28.072  21.688  1.00  0.00    -0.237 OA
ATOM     79  O   UNL A   1      49.544  28.607  21.965  1.00  0.00    -0.237 OA
ATOM     80  O   UNL A   1      48.863  26.300  21.486  1.00  0.00    -0.744 OA
ENDBRANCH  74  77
ENDBRANCH  46  70
BRANCH  58  81
ATOM     81  C   UNL A   1      45.319  33.062  29.619  1.00  0.00     0.023 A 
ATOM     82  C   UNL A   1      46.119  33.118  30.777  1.00  0.00     0.012 A 
ATOM     83  C   UNL A   1      45.271  34.176  28.758  1.00  0.00     0.148 A 
ATOM     84  C   UNL A   1      46.835  34.274  31.088  1.00  0.00     0.002 A 
ATOM     85  C   UNL A   1      46.028  35.306  29.046  1.00  0.00     0.091 A 
ATOM     86  F   UNL A   1      44.490  34.110  27.670  1.00  0.00    -0.205 F 
ATOM     87  C   UNL A   1      46.800  35.360  30.217  1.00  0.00     0.022 A 
BRANCH  85  88
ATOM     88  S   UNL A   1      46.123  36.713  27.936  1.00  0.00     0.127 S 
ATOM     89  O   UNL A   1      44.731  37.159  27.900  1.00  0.00    -0.237 OA
ATOM     90  O   UNL A   1      47.032  37.610  28.651  1.00  0.00    -0.237 OA
ATOM     91  O   UNL A   1      46.645  36.200  26.677  1.00  0.00    -0.744 OA
ENDBRANCH  85  88
ENDBRANCH  58  81
ENDBRANCH  32  33
ENDBRANCH  24  27
ENDBRANCH  22  23
ENDBRANCH  21  22
ENDBRANCH   1  21
TORSDOF 17
ENDMDL
MODEL 3
REMARK VINA RESULT:     -11.3      5.857     12.070
REMARK SMILES C[C@@H](C(=O)NCCCNC(=O)c1ccc(-c2c3nc(c(-c4cccc(S(=O)(=O)[O-])c4F)c4ccc([nH]4)c(-c4cccc(S(=O)(=O)[O-])c4F)c4nc(c(-c5cccc(S(=O)(=O)[O-])c5F)c5ccc2[nH]5)C=C4)C=C3)cc1)[C@@H](C)c1ccc(OC(F)(F)F)cc1
REMARK SMILES IDX 6 1 5 2 3 3 4 4 2 6 1 7 75 8 76 9 77 10 78 11 87 12 79 13
REMARK SMILES IDX 86 14 80 15 81 16 82 17 83 18 84 19 85 20 7 21 8 22 9 23
REMARK SMILES IDX 10 24 11 26 12 27 13 28 74 29 14 30 73 31 15 32 16 33 17 34
REMARK SMILES IDX 67 35 18 36 72 37 66 38 68 39 19 40 71 41 65 42 64 43 20 45
REMARK SMILES IDX 52 46 32 47 51 48 33 49 36 50 50 51 69 52 34 53 35 54 49 56
REMARK SMILES IDX 70 57 37 58 21 59 22 60 30 61 23 62 25 63 31 64 24 65 26 66
REMARK SMILES IDX 27 67 28 68 29 69 53 70 54 71 62 72 55 73 57 74 63 75 56 76
REMARK SMILES IDX 58 77 59 78 60 79 61 80 38 81 39 82 47 83 40 84 42 85 48 86
REMARK SMILES IDX 41 87 43 88 44 89 45 90 46 91
REMARK H PARENT 5 5 9 25 68 44 36 55
REMARK Flexibility Score: inf
ROOT
ATOM      1  C   UNL A   1      33.933  35.395  30.440  1.00  0.00     0.117 C 
ENDROOT
BRANCH   1   2
ATOM      2  N   UNL A   1      33.590  34.787  31.711  1.00  0.00    -0.356 N 
ATOM      3  C   UNL A   1      34.199  33.766  32.378  1.00  0.00     0.223 C 
ATOM      4  O   UNL A   1      33.534  33.171  33.226  1.00  0.00    -0.275 OA
ATOM      5  H   UNL A   1      32.801  35.169  32.159  1.00  0.00     0.163 HD
BRANCH   3   6
ATOM      6  C   UNL A   1      35.641  33.388  32.034  1.00  0.00     0.082 C 
ATOM      7  C   UNL A   1      35.884  31.958  32.529  1.00  0.00     0.018 C 
BRANCH   6   8
ATOM      8  C   UNL A   1      36.656  34.403  32.649  1.00  0.00     0.028 C 
ATOM      9  C   UNL A   1      36.824  34.203  34.166  1.00  0.00     0.013 C 
BRANCH   8  10
ATOM     10  C   UNL A   1      38.009  34.367  31.931  1.00  0.00    -0.044 A 
ATOM     11  C   UNL A   1      38.046  34.161  30.544  1.00  0.00     0.008 A 
ATOM     12  C   UNL A   1      39.232  34.519  32.599  1.00  0.00     0.008 A 
ATOM     13  C   UNL A   1      39.259  34.078  29.856  1.00  0.00     0.047 A 
ATOM     14  C   UNL A   1      40.450  34.471  31.902  1.00  0.00     0.047 A 
ATOM     15  C   UNL A   1      40.469  34.240  30.528  1.00  0.00     0.129 A 
BRANCH  15  16
ATOM     16  O   UNL A   1      41.572  34.136  29.731  1.00  0.00    -0.406 OA
BRANCH  16  17
ATOM     17  C   UNL A   1      42.340  32.953  29.822  1.00  0.00     0.573 C 
ATOM     18  F   UNL A   1      43.179  32.832  28.770  1.00  0.00    -0.132 F 
ATOM     19  F   UNL A   1      43.047  32.908  30.971  1.00  0.00    -0.132 F 
ATOM     20  F   UNL A   1      41.502  31.890  29.809  1.00  0.00    -0.132 F 
ENDBRANCH  16  17
ENDBRANCH  15  16
ENDBRANCH   8  10
ENDBRANCH   6   8
ENDBRANCH   3   6
ENDBRANCH   1   2
BRANCH   1  21
ATOM     21  C   UNL A   1      33.476  34.517  29.276  1.00  0.00     0.042 C 
BRANCH  21  22
ATOM     22  C   UNL A   1      34.514  33.495  28.822  1.00  0.00     0.118 C 
BRANCH  22  23
ATOM     23  N   UNL A   1      33.932  32.425  28.024  1.00  0.00    -0.352 N 
ATOM     24  C   UNL A   1      34.457  31.202  27.689  1.00  0.00     0.251 C 
ATOM     25  H   UNL A   1      33.030  32.605  27.674  1.00  0.00     0.163 HD
ATOM     26  O   UNL A   1      33.891  30.512  26.841  1.00  0.00    -0.269 OA
BRANCH  24  27
ATOM     27  C   UNL A   1      35.703  30.722  28.325  1.00  0.00     0.039 A 
ATOM     28  C   UNL A   1      35.614  29.822  29.390  1.00  0.00     0.014 A 
ATOM     29  C   UNL A   1      36.954  31.165  27.885  1.00  0.00     0.014 A 
ATOM     30  C   UNL A   1      36.781  29.318  29.972  1.00  0.00     0.010 A 
ATOM     31  C   UNL A   1      38.113  30.602  28.413  1.00  0.00     0.010 A 
ATOM     32  C   UNL A   1      38.041  29.677  29.465  1.00  0.00    -0.014 A 
BRANCH  32  33
ATOM     33  C   UNL A   1      39.290  29.085  30.011  1.00  0.00     0.031 A 
ATOM     34  C   UNL A   1      39.926  29.658  31.249  1.00  0.00     0.074 A 
ATOM     35  C   UNL A   1      39.902  28.089  29.340  1.00  0.00     0.049 A 
ATOM     36  N   UNL A   1      41.049  29.321  31.830  1.00  0.00    -0.248 NA
ATOM     37  C   UNL A   1      39.224  30.774  31.904  1.00  0.00     0.031 C 
ATOM     38  C   UNL A   1      39.430  27.500  28.087  1.00  0.00     0.029 A 
ATOM     39  N   UNL A   1      41.073  27.420  29.600  1.00  0.00    -0.354 N 
ATOM     40  C   UNL A   1      41.207  30.203  32.892  1.00  0.00     0.074 A 
ATOM     41  C   UNL A   1      40.082  31.112  32.856  1.00  0.00     0.031 C 
ATOM     42  C   UNL A   1      40.301  26.562  27.685  1.00  0.00     0.029 A 
ATOM     43  C   UNL A   1      41.414  26.509  28.628  1.00  0.00     0.049 A 
ATOM     44  H   UNL A   1      41.617  27.578  30.406  1.00  0.00     0.167 HD
ATOM     45  C   UNL A   1      42.185  30.239  33.829  1.00  0.00     0.034 A 
ATOM     46  C   UNL A   1      42.507  25.731  28.496  1.00  0.00     0.034 A 
ATOM     47  C   UNL A   1      43.287  29.315  33.879  1.00  0.00     0.049 A 
ATOM     48  C   UNL A   1      43.566  25.771  29.564  1.00  0.00     0.074 A 
ATOM     49  C   UNL A   1      44.279  29.211  34.840  1.00  0.00     0.029 A 
ATOM     50  N   UNL A   1      43.554  28.347  32.923  1.00  0.00    -0.354 N 
ATOM     51  N   UNL A   1      43.615  26.501  30.650  1.00  0.00    -0.248 NA
ATOM     52  C   UNL A   1      44.704  24.852  29.406  1.00  0.00     0.031 C 
ATOM     53  C   UNL A   1      45.166  28.206  34.442  1.00  0.00     0.029 A 
ATOM     54  C   UNL A   1      44.704  27.654  33.259  1.00  0.00     0.049 A 
ATOM     55  H   UNL A   1      43.006  28.179  32.123  1.00  0.00     0.167 HD
ATOM     56  C   UNL A   1      44.767  26.108  31.323  1.00  0.00     0.074 A 
ATOM     57  C   UNL A   1      45.376  25.061  30.531  1.00  0.00     0.031 C 
ATOM     58  C   UNL A   1      45.278  26.581  32.487  1.00  0.00     0.034 A 
BRANCH  45  59
ATOM     59  C   UNL A   1      42.089  31.295  34.901  1.00  0.00     0.023 A 
ATOM     60  C   UNL A   1      41.332  31.045  36.065  1.00  0.00     0.012 A 
ATOM     61  C   UNL A   1      42.785  32.514  34.782  1.00  0.00     0.148 A 
ATOM     62  C   UNL A   1      41.233  32.005  37.070  1.00  0.00     0.002 A 
ATOM     63  C   UNL A   1      42.722  33.446  35.811  1.00  0.00     0.091 A 
ATOM     64  F   UNL A   1      43.485  32.744  33.662  1.00  0.00    -0.205 F 
ATOM     65  C   UNL A   1      41.936  33.200  36.948  1.00  0.00     0.022 A 
BRANCH  63  66
ATOM     66  S   UNL A   1      43.657  34.980  35.787  1.00  0.00     0.127 S 
ATOM     67  O   UNL A   1      43.389  35.509  37.124  1.00  0.00    -0.237 OA
ATOM     68  O   UNL A   1      45.026  34.502  35.582  1.00  0.00    -0.237 OA
ATOM     69  O   UNL A   1      43.117  35.763  34.685  1.00  0.00    -0.744 OA
ENDBRANCH  63  66
ENDBRANCH  45  59
BRANCH  46  70
ATOM     70  C   UNL A   1      42.630  24.819  27.325  1.00  0.00     0.023 A 
ATOM     71  C   UNL A   1      43.286  25.264  26.161  1.00  0.00     0.012 A 
ATOM     72  C   UNL A   1      42.132  23.503  27.371  1.00  0.00     0.148 A 
ATOM     73  C   UNL A   1      43.415  24.426  25.052  1.00  0.00     0.002 A 
ATOM     74  C   UNL A   1      42.314  22.654  26.287  1.00  0.00     0.091 A 
ATOM     75  F   UNL A   1      41.504  23.102  28.486  1.00  0.00    -0.205 F 
ATOM     76  C   UNL A   1      42.939  23.119  25.119  1.00  0.00     0.022 A 
BRANCH  74  77
ATOM     77  S   UNL A   1      41.859  20.917  26.334  1.00  0.00     0.127 S 
ATOM     78  O   UNL A   1      42.669  20.366  25.250  1.00  0.00    -0.237 OA
ATOM     79  O   UNL A   1      42.283  20.532  27.679  1.00  0.00    -0.237 OA
ATOM     80  O   UNL A   1      40.417  20.881  26.126  1.00  0.00    -0.744 OA
ENDBRANCH  74  77
ENDBRANCH  46  70
BRANCH  58  81
ATOM     81  C   UNL A   1      46.542  25.946  33.008  1.00  0.00     0.023 A 
ATOM     82  C   UNL A   1      47.793  26.522  32.717  1.00  0.00     0.012 A 
ATOM     83  C   UNL A   1      46.478  24.822  33.855  1.00  0.00     0.148 A 
ATOM     84  C   UNL A   1      48.965  25.970  33.236  1.00  0.00     0.002 A 
ATOM     85  C   UNL A   1      47.644  24.308  34.410  1.00  0.00     0.091 A 
ATOM     86  F   UNL A   1      45.278  24.277  34.106  1.00  0.00    -0.205 F 
ATOM     87  C   UNL A   1      48.889  24.874  34.091  1.00  0.00     0.022 A 
BRANCH  85  88
ATOM     88  S   UNL A   1      47.636  22.962  35.599  1.00  0.00     0.127 S 
ATOM     89  O   UNL A   1      47.409  21.804  34.735  1.00  0.00    -0.237 OA
ATOM     90  O   UNL A   1      48.981  23.044  36.167  1.00  0.00    -0.237 OA
ATOM     91  O   UNL A   1      46.562  23.258  36.537  1.00  0.00    -0.744 OA
ENDBRANCH  85  88
ENDBRANCH  58  81
ENDBRANCH  32  33
ENDBRANCH  24  27
ENDBRANCH  22  23
ENDBRANCH  21  22
ENDBRANCH   1  21
TORSDOF 17
ENDMDL
