MODEL 1
REMARK VINA RESULT:     -13.5      0.000      0.000
REMARK SMILES COc1cccc([C@@H]2[NH2+][C@@](C)(C(=O)NCCCNC(=O)c3ccc(-c4c5nc(c(-c6cccc(S(=O)(=O)[O-])c6F)c6ccc([nH]6)c(-c6cccc(S(=O)(=O)[O-])c6F)c6nc(c(-c7cccc(S(=O)(=O)[O-])c7F)c7ccc4[nH]7)C=C6)C=C5)cc3)[C@@H]3C(=O)N(C)C(=O)[C@@H]32)c1O
REMARK SMILES IDX 16 1 15 2 14 3 12 4 13 5 10 7 8 8 9 9 91 10 84 13 89 14
REMARK SMILES IDX 11 15 85 16 87 17 90 18 86 19 88 20 7 21 3 22 4 23 92 24
REMARK SMILES IDX 5 25 6 26 2 27 1 28 93 29 17 31 18 32 19 33 20 35 21 36
REMARK SMILES IDX 22 37 83 38 23 39 82 40 24 41 25 42 26 43 76 44 27 45 81 46
REMARK SMILES IDX 75 47 77 48 28 49 80 50 74 51 73 52 29 54 61 55 41 56 60 57
REMARK SMILES IDX 42 58 45 59 59 60 78 61 43 62 44 63 58 65 79 66 46 67 30 68
REMARK SMILES IDX 31 69 39 70 32 71 34 72 40 73 33 74 35 75 36 76 37 77 38 78
REMARK SMILES IDX 62 79 63 80 71 81 64 82 66 83 72 84 65 85 67 86 68 87 69 88
REMARK SMILES IDX 70 89 47 90 48 91 56 92 49 93 51 94 57 95 50 96 52 97 53 98
REMARK SMILES IDX 54 99 55 100
REMARK H PARENT 14 6 9 11 9 12 93 30 18 34 77 53 45 64
REMARK Flexibility Score: inf
ROOT
ATOM      1  C   UNL A   1      35.308  21.743  24.662  1.00  0.00     0.042 C 
ENDROOT
BRANCH   1   2
ATOM      2  C   UNL A   1      34.347  22.899  24.430  1.00  0.00     0.118 C 
BRANCH   2   3
ATOM      3  N   UNL A   1      34.254  23.258  23.026  1.00  0.00    -0.351 N 
ATOM      4  C   UNL A   1      33.290  23.941  22.348  1.00  0.00     0.281 C 
ATOM      5  O   UNL A   1      33.429  24.012  21.122  1.00  0.00    -0.268 OA
ATOM      6  H   UNL A   1      35.013  22.960  22.473  1.00  0.00     0.163 HD
BRANCH   4   7
ATOM      7  C   UNL A   1      32.106  24.644  23.090  1.00  0.00     0.185 C 
ATOM      8  C   UNL A   1      31.693  26.902  22.305  1.00  0.00     0.232 C 
ATOM      9  N   UNL A   1      31.359  25.470  22.097  1.00  0.00    -0.326 N 
ATOM     10  C   UNL A   1      32.830  26.938  23.338  1.00  0.00     0.161 C 
ATOM     11  H   UNL A   1      31.626  25.192  21.153  1.00  0.00     0.347 HD
ATOM     12  H   UNL A   1      30.357  25.330  22.219  1.00  0.00     0.347 HD
ATOM     13  C   UNL A   1      32.700  25.628  24.099  1.00  0.00     0.169 C 
ATOM     14  C   UNL A   1      32.701  27.963  24.430  1.00  0.00     0.239 C 
ATOM     15  C   UNL A   1      31.265  23.538  23.749  1.00  0.00     0.091 C 
ATOM     16  C   UNL A   1      31.924  26.022  25.333  1.00  0.00     0.240 C 
ATOM     17  N   UNL A   1      32.097  27.371  25.505  1.00  0.00    -0.285 N 
ATOM     18  O   UNL A   1      33.041  29.135  24.344  1.00  0.00    -0.274 OA
ATOM     19  O   UNL A   1      31.341  25.270  26.097  1.00  0.00    -0.274 OA
ATOM     20  C   UNL A   1      31.653  28.106  26.661  1.00  0.00     0.156 C 
BRANCH   8  21
ATOM     21  C   UNL A   1      30.493  27.780  22.659  1.00  0.00     0.056 A 
ATOM     22  C   UNL A   1      29.159  29.810  22.352  1.00  0.00     0.161 A 
ATOM     23  C   UNL A   1      28.061  29.196  22.944  1.00  0.00     0.050 A 
ATOM     24  C   UNL A   1      30.373  29.122  22.267  1.00  0.00     0.166 A 
ATOM     25  C   UNL A   1      28.179  27.891  23.428  1.00  0.00     0.005 A 
ATOM     26  C   UNL A   1      29.379  27.187  23.279  1.00  0.00     0.014 A 
BRANCH  22  27
ATOM     27  O   UNL A   1      29.063  31.123  21.971  1.00  0.00    -0.493 OA
ATOM     28  C   UNL A   1      28.163  31.322  20.877  1.00  0.00     0.278 C 
ENDBRANCH  22  27
BRANCH  24  29
ATOM     29  O   UNL A   1      31.477  29.768  21.793  1.00  0.00    -0.504 OA
ATOM     30  H   UNL A   1      32.183  29.977  22.373  1.00  0.00     0.293 HD
ENDBRANCH  24  29
ENDBRANCH   8  21
ENDBRANCH   4   7
ENDBRANCH   2   3
ENDBRANCH   1   2
BRANCH   1  31
ATOM     31  C   UNL A   1      36.361  22.012  25.728  1.00  0.00     0.118 C 
BRANCH  31  32
ATOM     32  N   UNL A   1      37.413  21.003  25.762  1.00  0.00    -0.352 N 
ATOM     33  C   UNL A   1      38.758  21.139  26.007  1.00  0.00     0.251 C 
ATOM     34  H   UNL A   1      37.113  20.083  25.581  1.00  0.00     0.163 HD
ATOM     35  O   UNL A   1      39.505  20.181  25.825  1.00  0.00    -0.269 OA
BRANCH  33  36
ATOM     36  C   UNL A   1      39.306  22.434  26.465  1.00  0.00     0.039 A 
ATOM     37  C   UNL A   1      40.363  22.432  27.377  1.00  0.00     0.014 A 
ATOM     38  C   UNL A   1      38.784  23.644  26.002  1.00  0.00     0.014 A 
ATOM     39  C   UNL A   1      40.936  23.644  27.773  1.00  0.00     0.010 A 
ATOM     40  C   UNL A   1      39.422  24.839  26.317  1.00  0.00     0.010 A 
ATOM     41  C   UNL A   1      40.495  24.856  27.217  1.00  0.00    -0.014 A 
BRANCH  41  42
ATOM     42  C   UNL A   1      41.148  26.144  27.568  1.00  0.00     0.031 A 
ATOM     43  C   UNL A   1      42.567  26.420  27.144  1.00  0.00     0.074 A 
ATOM     44  C   UNL A   1      40.487  27.039  28.328  1.00  0.00     0.049 A 
ATOM     45  N   UNL A   1      43.303  27.476  27.372  1.00  0.00    -0.248 NA
ATOM     46  C   UNL A   1      43.261  25.361  26.391  1.00  0.00     0.031 C 
ATOM     47  C   UNL A   1      39.142  26.854  28.877  1.00  0.00     0.029 A 
ATOM     48  N   UNL A   1      40.863  28.277  28.787  1.00  0.00    -0.354 N 
ATOM     49  C   UNL A   1      44.550  27.199  26.822  1.00  0.00     0.074 A 
ATOM     50  C   UNL A   1      44.486  25.857  26.288  1.00  0.00     0.031 C 
ATOM     51  C   UNL A   1      38.799  27.944  29.581  1.00  0.00     0.029 A 
ATOM     52  C   UNL A   1      39.908  28.890  29.565  1.00  0.00     0.049 A 
ATOM     53  H   UNL A   1      41.733  28.687  28.579  1.00  0.00     0.167 HD
ATOM     54  C   UNL A   1      45.641  27.998  26.740  1.00  0.00     0.034 A 
ATOM     55  C   UNL A   1      39.926  30.080  30.199  1.00  0.00     0.034 A 
ATOM     56  C   UNL A   1      45.690  29.344  27.241  1.00  0.00     0.049 A 
ATOM     57  C   UNL A   1      41.137  30.962  30.060  1.00  0.00     0.074 A 
ATOM     58  C   UNL A   1      46.717  30.266  27.132  1.00  0.00     0.029 A 
ATOM     59  N   UNL A   1      44.677  29.959  27.960  1.00  0.00    -0.354 N 
ATOM     60  N   UNL A   1      42.247  30.744  29.397  1.00  0.00    -0.248 NA
ATOM     61  C   UNL A   1      41.081  32.272  30.724  1.00  0.00     0.031 C 
ATOM     62  C   UNL A   1      46.338  31.426  27.814  1.00  0.00     0.029 A 
ATOM     63  C   UNL A   1      45.057  31.243  28.312  1.00  0.00     0.049 A 
ATOM     64  H   UNL A   1      43.814  29.545  28.186  1.00  0.00     0.167 HD
ATOM     65  C   UNL A   1      43.004  31.902  29.533  1.00  0.00     0.074 A 
ATOM     66  C   UNL A   1      42.216  32.826  30.320  1.00  0.00     0.031 C 
ATOM     67  C   UNL A   1      44.246  32.170  29.058  1.00  0.00     0.034 A 
BRANCH  54  68
ATOM     68  C   UNL A   1      46.859  27.449  26.041  1.00  0.00     0.023 A 
ATOM     69  C   UNL A   1      47.029  27.665  24.658  1.00  0.00     0.012 A 
ATOM     70  C   UNL A   1      47.864  26.773  26.761  1.00  0.00     0.148 A 
ATOM     71  C   UNL A   1      48.156  27.181  23.994  1.00  0.00     0.002 A 
ATOM     72  C   UNL A   1      49.008  26.337  26.103  1.00  0.00     0.091 A 
ATOM     73  F   UNL A   1      47.678  26.560  28.071  1.00  0.00    -0.205 F 
ATOM     74  C   UNL A   1      49.150  26.529  24.718  1.00  0.00     0.022 A 
BRANCH  72  75
ATOM     75  S   UNL A   1      50.384  25.562  26.958  1.00  0.00     0.127 S 
ATOM     76  O   UNL A   1      51.322  25.333  25.859  1.00  0.00    -0.237 OA
ATOM     77  O   UNL A   1      50.790  26.608  27.897  1.00  0.00    -0.237 OA
ATOM     78  O   UNL A   1      49.847  24.360  27.580  1.00  0.00    -0.744 OA
ENDBRANCH  72  75
ENDBRANCH  54  68
BRANCH  55  79
ATOM     79  C   UNL A   1      38.735  30.531  30.974  1.00  0.00     0.023 A 
ATOM     80  C   UNL A   1      38.676  30.290  32.360  1.00  0.00     0.012 A 
ATOM     81  C   UNL A   1      37.672  31.210  30.349  1.00  0.00     0.148 A 
ATOM     82  C   UNL A   1      37.563  30.683  33.103  1.00  0.00     0.002 A 
ATOM     83  C   UNL A   1      36.593  31.651  31.105  1.00  0.00     0.091 A 
ATOM     84  F   UNL A   1      37.745  31.422  29.027  1.00  0.00    -0.205 F 
ATOM     85  C   UNL A   1      36.526  31.371  32.479  1.00  0.00     0.022 A 
BRANCH  83  86
ATOM     86  S   UNL A   1      35.277  32.657  30.412  1.00  0.00     0.127 S 
ATOM     87  O   UNL A   1      36.004  33.853  29.993  1.00  0.00    -0.237 OA
ATOM     88  O   UNL A   1      34.798  31.812  29.318  1.00  0.00    -0.237 OA
ATOM     89  O   UNL A   1      34.315  32.847  31.489  1.00  0.00    -0.744 OA
ENDBRANCH  83  86
ENDBRANCH  55  79
BRANCH  67  90
ATOM     90  C   UNL A   1      44.817  33.537  29.337  1.00  0.00     0.023 A 
ATOM     91  C   UNL A   1      45.544  33.773  30.521  1.00  0.00     0.012 A 
ATOM     92  C   UNL A   1      44.681  34.574  28.393  1.00  0.00     0.148 A 
ATOM     93  C   UNL A   1      46.086  35.031  30.782  1.00  0.00     0.002 A 
ATOM     94  C   UNL A   1      45.271  35.809  28.634  1.00  0.00     0.091 A 
ATOM     95  F   UNL A   1      43.972  34.338  27.279  1.00  0.00    -0.205 F 
ATOM     96  C   UNL A   1      45.960  36.043  29.835  1.00  0.00     0.022 A 
BRANCH  94  97
ATOM     97  S   UNL A   1      45.247  37.139  27.428  1.00  0.00     0.127 S 
ATOM     98  O   UNL A   1      43.824  37.220  27.102  1.00  0.00    -0.237 OA
ATOM     99  O   UNL A   1      45.760  38.269  28.203  1.00  0.00    -0.237 OA
ATOM    100  O   UNL A   1      46.113  36.711  26.338  1.00  0.00    -0.744 OA
ENDBRANCH  94  97
ENDBRANCH  67  90
ENDBRANCH  41  42
ENDBRANCH  33  36
ENDBRANCH  31  32
ENDBRANCH   1  31
TORSDOF 16
ENDMDL
MODEL 2
REMARK VINA RESULT:     -13.5      4.849     10.238
REMARK SMILES COc1cccc([C@@H]2[NH2+][C@@](C)(C(=O)NCCCNC(=O)c3ccc(-c4c5nc(c(-c6cccc(S(=O)(=O)[O-])c6F)c6ccc([nH]6)c(-c6cccc(S(=O)(=O)[O-])c6F)c6nc(c(-c7cccc(S(=O)(=O)[O-])c7F)c7ccc4[nH]7)C=C6)C=C5)cc3)[C@@H]3C(=O)N(C)C(=O)[C@@H]32)c1O
REMARK SMILES IDX 16 1 15 2 14 3 12 4 13 5 10 7 8 8 9 9 91 10 84 13 89 14
REMARK SMILES IDX 11 15 85 16 87 17 90 18 86 19 88 20 7 21 3 22 4 23 92 24
REMARK SMILES IDX 5 25 6 26 2 27 1 28 93 29 17 31 18 32 19 33 20 35 21 36
REMARK SMILES IDX 22 37 83 38 23 39 82 40 24 41 25 42 26 43 76 44 27 45 81 46
REMARK SMILES IDX 75 47 77 48 28 49 80 50 74 51 73 52 29 54 61 55 41 56 60 57
REMARK SMILES IDX 42 58 45 59 59 60 78 61 43 62 44 63 58 65 79 66 46 67 30 68
REMARK SMILES IDX 31 69 39 70 32 71 34 72 40 73 33 74 35 75 36 76 37 77 38 78
REMARK SMILES IDX 62 79 63 80 71 81 64 82 66 83 72 84 65 85 67 86 68 87 69 88
REMARK SMILES IDX 70 89 47 90 48 91 56 92 49 93 51 94 57 95 50 96 52 97 53 98
REMARK SMILES IDX 54 99 55 100
REMARK H PARENT 14 6 9 11 9 12 93 30 18 34 77 53 45 64
REMARK Flexibility Score: inf
ROOT
ATOM      1  C   UNL A   1      31.636  28.741  25.792  1.00  0.00     0.042 C 
ENDROOT
BRANCH   1   2
ATOM      2  C   UNL A   1      32.034  27.274  25.853  1.00  0.00     0.118 C 
BRANCH   2   3
ATOM      3  N   UNL A   1      31.019  26.458  26.495  1.00  0.00    -0.351 N 
ATOM      4  C   UNL A   1      30.507  25.245  26.147  1.00  0.00     0.281 C 
ATOM      5  O   UNL A   1      29.567  24.830  26.834  1.00  0.00    -0.268 OA
ATOM      6  H   UNL A   1      30.638  26.845  27.316  1.00  0.00     0.163 HD
BRANCH   4   7
ATOM      7  C   UNL A   1      31.116  24.400  24.980  1.00  0.00     0.185 C 
ATOM      8  C   UNL A   1      31.775  22.168  25.659  1.00  0.00     0.232 C 
ATOM      9  N   UNL A   1      30.655  22.990  25.136  1.00  0.00    -0.326 N 
ATOM     10  C   UNL A   1      32.904  23.145  26.016  1.00  0.00     0.161 C 
ATOM     11  H   UNL A   1      29.873  22.957  25.790  1.00  0.00     0.347 HD
ATOM     12  H   UNL A   1      30.355  22.626  24.232  1.00  0.00     0.347 HD
ATOM     13  C   UNL A   1      32.634  24.373  25.161  1.00  0.00     0.169 C 
ATOM     14  C   UNL A   1      34.288  22.746  25.584  1.00  0.00     0.239 C 
ATOM     15  C   UNL A   1      30.677  25.065  23.664  1.00  0.00     0.091 C 
ATOM     16  C   UNL A   1      33.544  24.172  23.972  1.00  0.00     0.240 C 
ATOM     17  N   UNL A   1      34.538  23.313  24.365  1.00  0.00    -0.285 N 
ATOM     18  O   UNL A   1      35.036  22.003  26.206  1.00  0.00    -0.274 OA
ATOM     19  O   UNL A   1      33.475  24.745  22.897  1.00  0.00    -0.274 OA
ATOM     20  C   UNL A   1      35.698  22.995  23.572  1.00  0.00     0.156 C 
BRANCH   8  21
ATOM     21  C   UNL A   1      32.199  21.026  24.735  1.00  0.00     0.056 A 
ATOM     22  C   UNL A   1      32.761  18.673  24.354  1.00  0.00     0.161 A 
ATOM     23  C   UNL A   1      32.519  18.820  22.993  1.00  0.00     0.050 A 
ATOM     24  C   UNL A   1      32.655  19.782  25.198  1.00  0.00     0.166 A 
ATOM     25  C   UNL A   1      32.153  20.071  22.489  1.00  0.00     0.005 A 
ATOM     26  C   UNL A   1      31.986  21.160  23.351  1.00  0.00     0.014 A 
BRANCH  22  27
ATOM     27  O   UNL A   1      33.215  17.469  24.824  1.00  0.00    -0.493 OA
ATOM     28  C   UNL A   1      33.666  16.598  23.783  1.00  0.00     0.278 C 
ENDBRANCH  22  27
BRANCH  24  29
ATOM     29  O   UNL A   1      33.006  19.661  26.511  1.00  0.00    -0.504 OA
ATOM     30  H   UNL A   1      33.646  19.025  26.769  1.00  0.00     0.293 HD
ENDBRANCH  24  29
ENDBRANCH   8  21
ENDBRANCH   4   7
ENDBRANCH   2   3
ENDBRANCH   1   2
BRANCH   1  31
ATOM     31  C   UNL A   1      32.808  29.700  25.636  1.00  0.00     0.118 C 
BRANCH  31  32
ATOM     32  N   UNL A   1      32.518  31.044  26.121  1.00  0.00    -0.352 N 
ATOM     33  C   UNL A   1      33.137  31.781  27.100  1.00  0.00     0.251 C 
ATOM     34  H   UNL A   1      31.763  31.492  25.676  1.00  0.00     0.163 HD
ATOM     35  O   UNL A   1      32.632  32.837  27.472  1.00  0.00    -0.269 OA
BRANCH  33  36
ATOM     36  C   UNL A   1      34.389  31.296  27.721  1.00  0.00     0.039 A 
ATOM     37  C   UNL A   1      35.402  32.216  28.000  1.00  0.00     0.014 A 
ATOM     38  C   UNL A   1      34.569  29.945  28.026  1.00  0.00     0.014 A 
ATOM     39  C   UNL A   1      36.567  31.788  28.643  1.00  0.00     0.010 A 
ATOM     40  C   UNL A   1      35.681  29.542  28.757  1.00  0.00     0.010 A 
ATOM     41  C   UNL A   1      36.700  30.454  29.061  1.00  0.00    -0.014 A 
BRANCH  41  42
ATOM     42  C   UNL A   1      37.898  30.003  29.816  1.00  0.00     0.031 A 
ATOM     43  C   UNL A   1      38.156  30.512  31.210  1.00  0.00     0.074 A 
ATOM     44  C   UNL A   1      38.790  29.187  29.222  1.00  0.00     0.049 A 
ATOM     45  N   UNL A   1      39.153  30.242  32.013  1.00  0.00    -0.248 NA
ATOM     46  C   UNL A   1      37.186  31.470  31.766  1.00  0.00     0.031 C 
ATOM     47  C   UNL A   1      38.701  28.694  27.845  1.00  0.00     0.029 A 
ATOM     48  N   UNL A   1      39.959  28.641  29.693  1.00  0.00    -0.354 N 
ATOM     49  C   UNL A   1      38.949  31.018  33.149  1.00  0.00     0.074 A 
ATOM     50  C   UNL A   1      37.757  31.803  32.915  1.00  0.00     0.031 C 
ATOM     51  C   UNL A   1      39.757  27.906  27.590  1.00  0.00     0.029 A 
ATOM     52  C   UNL A   1      40.617  27.864  28.768  1.00  0.00     0.049 A 
ATOM     53  H   UNL A   1      40.294  28.791  30.606  1.00  0.00     0.167 HD
ATOM     54  C   UNL A   1      39.668  31.053  34.297  1.00  0.00     0.034 A 
ATOM     55  C   UNL A   1      41.784  27.196  28.856  1.00  0.00     0.034 A 
ATOM     56  C   UNL A   1      40.833  30.246  34.539  1.00  0.00     0.049 A 
ATOM     57  C   UNL A   1      42.543  27.222  30.154  1.00  0.00     0.074 A 
ATOM     58  C   UNL A   1      41.581  30.143  35.698  1.00  0.00     0.029 A 
ATOM     59  N   UNL A   1      41.428  29.413  33.605  1.00  0.00    -0.354 N 
ATOM     60  N   UNL A   1      42.245  27.837  31.273  1.00  0.00    -0.248 NA
ATOM     61  C   UNL A   1      43.780  26.431  30.215  1.00  0.00     0.031 C 
ATOM     62  C   UNL A   1      42.650  29.275  35.454  1.00  0.00     0.029 A 
ATOM     63  C   UNL A   1      42.542  28.803  34.155  1.00  0.00     0.049 A 
ATOM     64  H   UNL A   1      41.107  29.276  32.685  1.00  0.00     0.167 HD
ATOM     65  C   UNL A   1      43.235  27.476  32.181  1.00  0.00     0.074 A 
ATOM     66  C   UNL A   1      44.127  26.571  31.487  1.00  0.00     0.031 C 
ATOM     67  C   UNL A   1      43.397  27.869  33.469  1.00  0.00     0.034 A 
BRANCH  54  68
ATOM     68  C   UNL A   1      39.187  31.965  35.397  1.00  0.00     0.023 A 
ATOM     69  C   UNL A   1      38.221  31.504  36.315  1.00  0.00     0.012 A 
ATOM     70  C   UNL A   1      39.731  33.254  35.559  1.00  0.00     0.148 A 
ATOM     71  C   UNL A   1      37.774  32.324  37.351  1.00  0.00     0.002 A 
ATOM     72  C   UNL A   1      39.318  34.048  36.623  1.00  0.00     0.091 A 
ATOM     73  F   UNL A   1      40.634  33.684  34.666  1.00  0.00    -0.205 F 
ATOM     74  C   UNL A   1      38.331  33.590  37.511  1.00  0.00     0.022 A 
BRANCH  72  75
ATOM     75  S   UNL A   1      40.033  35.659  36.967  1.00  0.00     0.127 S 
ATOM     76  O   UNL A   1      39.650  36.412  35.773  1.00  0.00    -0.237 OA
ATOM     77  O   UNL A   1      39.328  36.052  38.188  1.00  0.00    -0.237 OA
ATOM     78  O   UNL A   1      41.463  35.439  37.134  1.00  0.00    -0.744 OA
ENDBRANCH  72  75
ENDBRANCH  54  68
BRANCH  55  79
ATOM     79  C   UNL A   1      42.276  26.396  27.698  1.00  0.00     0.023 A 
ATOM     80  C   UNL A   1      43.159  26.984  26.772  1.00  0.00     0.012 A 
ATOM     81  C   UNL A   1      41.888  25.054  27.519  1.00  0.00     0.148 A 
ATOM     82  C   UNL A   1      43.616  26.264  25.669  1.00  0.00     0.002 A 
ATOM     83  C   UNL A   1      42.393  24.324  26.450  1.00  0.00     0.091 A 
ATOM     84  F   UNL A   1      41.041  24.516  28.408  1.00  0.00    -0.205 F 
ATOM     85  C   UNL A   1      43.242  24.932  25.512  1.00  0.00     0.022 A 
BRANCH  83  86
ATOM     86  S   UNL A   1      42.071  22.570  26.244  1.00  0.00     0.127 S 
ATOM     87  O   UNL A   1      42.651  22.013  27.463  1.00  0.00    -0.237 OA
ATOM     88  O   UNL A   1      40.609  22.538  26.187  1.00  0.00    -0.237 OA
ATOM     89  O   UNL A   1      42.729  22.191  25.000  1.00  0.00    -0.744 OA
ENDBRANCH  83  86
ENDBRANCH  55  79
BRANCH  67  90
ATOM     90  C   UNL A   1      44.560  27.288  34.232  1.00  0.00     0.023 A 
ATOM     91  C   UNL A   1      45.789  27.976  34.281  1.00  0.00     0.012 A 
ATOM     92  C   UNL A   1      44.413  26.085  34.950  1.00  0.00     0.148 A 
ATOM     93  C   UNL A   1      46.867  27.452  34.995  1.00  0.00     0.002 A 
ATOM     94  C   UNL A   1      45.473  25.598  35.704  1.00  0.00     0.091 A 
ATOM     95  F   UNL A   1      43.242  25.436  34.879  1.00  0.00    -0.205 F 
ATOM     96  C   UNL A   1      46.705  26.271  35.715  1.00  0.00     0.022 A 
BRANCH  94  97
ATOM     97  S   UNL A   1      45.326  24.140  36.743  1.00  0.00     0.127 S 
ATOM     98  O   UNL A   1      46.716  23.909  37.132  1.00  0.00    -0.237 OA
ATOM     99  O   UNL A   1      44.462  24.616  37.824  1.00  0.00    -0.237 OA
ATOM    100  O   UNL A   1      44.733  23.107  35.905  1.00  0.00    -0.744 OA
ENDBRANCH  94  97
ENDBRANCH  67  90
ENDBRANCH  41  42
ENDBRANCH  33  36
ENDBRANCH  31  32
ENDBRANCH   1  31
TORSDOF 16
ENDMDL
MODEL 3
REMARK VINA RESULT:     -13.3      4.779      9.758
REMARK SMILES COc1cccc([C@@H]2[NH2+][C@@](C)(C(=O)NCCCNC(=O)c3ccc(-c4c5nc(c(-c6cccc(S(=O)(=O)[O-])c6F)c6ccc([nH]6)c(-c6cccc(S(=O)(=O)[O-])c6F)c6nc(c(-c7cccc(S(=O)(=O)[O-])c7F)c7ccc4[nH]7)C=C6)C=C5)cc3)[C@@H]3C(=O)N(C)C(=O)[C@@H]32)c1O
REMARK SMILES IDX 16 1 15 2 14 3 12 4 13 5 10 7 8 8 9 9 91 10 84 13 89 14
REMARK SMILES IDX 11 15 85 16 87 17 90 18 86 19 88 20 7 21 3 22 4 23 92 24
REMARK SMILES IDX 5 25 6 26 2 27 1 28 93 29 17 31 18 32 19 33 20 35 21 36
REMARK SMILES IDX 22 37 83 38 23 39 82 40 24 41 25 42 26 43 76 44 27 45 81 46
REMARK SMILES IDX 75 47 77 48 28 49 80 50 74 51 73 52 29 54 61 55 41 56 60 57
REMARK SMILES IDX 42 58 45 59 59 60 78 61 43 62 44 63 58 65 79 66 46 67 30 68
REMARK SMILES IDX 31 69 39 70 32 71 34 72 40 73 33 74 35 75 36 76 37 77 38 78
REMARK SMILES IDX 62 79 63 80 71 81 64 82 66 83 72 84 65 85 67 86 68 87 69 88
REMARK SMILES IDX 70 89 47 90 48 91 56 92 49 93 51 94 57 95 50 96 52 97 53 98
REMARK SMILES IDX 54 99 55 100
REMARK H PARENT 14 6 9 11 9 12 93 30 18 34 77 53 45 64
REMARK Flexibility Score: inf
ROOT
ATOM      1  C   UNL A   1      33.842  28.071  25.946  1.00  0.00     0.042 C 
ENDROOT
BRANCH   1   2
ATOM      2  C   UNL A   1      32.706  27.495  25.115  1.00  0.00     0.118 C 
BRANCH   2   3
ATOM      3  N   UNL A   1      31.726  26.802  25.933  1.00  0.00    -0.351 N 
ATOM      4  C   UNL A   1      31.185  25.559  25.805  1.00  0.00     0.281 C 
ATOM      5  O   UNL A   1      30.287  25.268  26.602  1.00  0.00    -0.268 OA
ATOM      6  H   UNL A   1      31.400  27.314  26.709  1.00  0.00     0.163 HD
BRANCH   4   7
ATOM      7  C   UNL A   1      31.713  24.539  24.743  1.00  0.00     0.185 C 
ATOM      8  C   UNL A   1      32.144  22.338  25.666  1.00  0.00     0.232 C 
ATOM      9  N   UNL A   1      31.114  23.205  25.041  1.00  0.00    -0.326 N 
ATOM     10  C   UNL A   1      33.363  23.233  25.934  1.00  0.00     0.161 C 
ATOM     11  H   UNL A   1      30.330  23.320  25.683  1.00  0.00     0.347 HD
ATOM     12  H   UNL A   1      30.783  22.777  24.177  1.00  0.00     0.347 HD
ATOM     13  C   UNL A   1      33.220  24.383  24.949  1.00  0.00     0.169 C 
ATOM     14  C   UNL A   1      34.702  22.656  25.569  1.00  0.00     0.239 C 
ATOM     15  C   UNL A   1      31.348  25.099  23.358  1.00  0.00     0.091 C 
ATOM     16  C   UNL A   1      34.111  23.967  23.803  1.00  0.00     0.240 C 
ATOM     17  N   UNL A   1      35.013  23.062  24.300  1.00  0.00    -0.285 N 
ATOM     18  O   UNL A   1      35.371  21.915  26.278  1.00  0.00    -0.274 OA
ATOM     19  O   UNL A   1      34.104  24.425  22.673  1.00  0.00    -0.274 OA
ATOM     20  C   UNL A   1      36.139  22.549  23.564  1.00  0.00     0.156 C 
BRANCH   8  21
ATOM     21  C   UNL A   1      32.458  21.068  24.875  1.00  0.00     0.056 A 
ATOM     22  C   UNL A   1      32.810  18.647  24.760  1.00  0.00     0.161 A 
ATOM     23  C   UNL A   1      32.567  18.662  23.391  1.00  0.00     0.050 A 
ATOM     24  C   UNL A   1      32.810  19.849  25.475  1.00  0.00     0.166 A 
ATOM     25  C   UNL A   1      32.304  19.876  22.751  1.00  0.00     0.005 A 
ATOM     26  C   UNL A   1      32.241  21.065  23.486  1.00  0.00     0.014 A 
BRANCH  22  27
ATOM     27  O   UNL A   1      33.164  17.468  25.361  1.00  0.00    -0.493 OA
ATOM     28  C   UNL A   1      33.649  16.493  24.434  1.00  0.00     0.278 C 
ENDBRANCH  22  27
BRANCH  24  29
ATOM     29  O   UNL A   1      33.164  19.844  26.793  1.00  0.00    -0.504 OA
ATOM     30  H   UNL A   1      32.767  19.234  27.383  1.00  0.00     0.293 HD
ENDBRANCH  24  29
ENDBRANCH   8  21
ENDBRANCH   4   7
ENDBRANCH   2   3
ENDBRANCH   1   2
BRANCH   1  31
ATOM     31  C   UNL A   1      33.420  28.565  27.323  1.00  0.00     0.118 C 
BRANCH  31  32
ATOM     32  N   UNL A   1      33.501  30.014  27.462  1.00  0.00    -0.352 N 
ATOM     33  C   UNL A   1      34.495  30.795  27.998  1.00  0.00     0.251 C 
ATOM     34  H   UNL A   1      32.722  30.509  27.117  1.00  0.00     0.163 HD
ATOM     35  O   UNL A   1      34.295  31.994  28.169  1.00  0.00    -0.269 OA
BRANCH  33  36
ATOM     36  C   UNL A   1      35.789  30.193  28.387  1.00  0.00     0.039 A 
ATOM     37  C   UNL A   1      36.848  30.228  27.478  1.00  0.00     0.014 A 
ATOM     38  C   UNL A   1      35.960  29.596  29.638  1.00  0.00     0.014 A 
ATOM     39  C   UNL A   1      38.096  29.722  27.851  1.00  0.00     0.010 A 
ATOM     40  C   UNL A   1      37.227  29.188  30.043  1.00  0.00     0.010 A 
ATOM     41  C   UNL A   1      38.306  29.231  29.151  1.00  0.00    -0.014 A 
BRANCH  41  42
ATOM     42  C   UNL A   1      39.648  28.764  29.587  1.00  0.00     0.031 A 
ATOM     43  C   UNL A   1      40.384  29.480  30.688  1.00  0.00     0.074 A 
ATOM     44  C   UNL A   1      40.234  27.735  28.944  1.00  0.00     0.049 A 
ATOM     45  N   UNL A   1      41.565  29.225  31.189  1.00  0.00    -0.248 NA
ATOM     46  C   UNL A   1      39.723  30.651  31.289  1.00  0.00     0.031 C 
ATOM     47  C   UNL A   1      39.664  27.014  27.803  1.00  0.00     0.029 A 
ATOM     48  N   UNL A   1      41.448  27.126  29.145  1.00  0.00    -0.354 N 
ATOM     49  C   UNL A   1      41.801  30.218  32.134  1.00  0.00     0.074 A 
ATOM     50  C   UNL A   1      40.660  31.106  32.107  1.00  0.00     0.031 C 
ATOM     51  C   UNL A   1      40.517  26.052  27.418  1.00  0.00     0.029 A 
ATOM     52  C   UNL A   1      41.708  26.107  28.258  1.00  0.00     0.049 A 
ATOM     53  H   UNL A   1      42.074  27.394  29.856  1.00  0.00     0.167 HD
ATOM     54  C   UNL A   1      42.856  30.363  32.972  1.00  0.00     0.034 A 
ATOM     55  C   UNL A   1      42.788  25.310  28.132  1.00  0.00     0.034 A 
ATOM     56  C   UNL A   1      43.973  29.458  33.020  1.00  0.00     0.049 A 
ATOM     57  C   UNL A   1      43.929  25.468  29.099  1.00  0.00     0.074 A 
ATOM     58  C   UNL A   1      45.049  29.467  33.890  1.00  0.00     0.029 A 
ATOM     59  N   UNL A   1      44.167  28.392  32.156  1.00  0.00    -0.354 N 
ATOM     60  N   UNL A   1      44.059  26.314  30.092  1.00  0.00    -0.248 NA
ATOM     61  C   UNL A   1      45.055  24.536  28.953  1.00  0.00     0.031 C 
ATOM     62  C   UNL A   1      45.912  28.427  33.529  1.00  0.00     0.029 A 
ATOM     63  C   UNL A   1      45.351  27.743  32.461  1.00  0.00     0.049 A 
ATOM     64  H   UNL A   1      43.554  28.134  31.431  1.00  0.00     0.167 HD
ATOM     65  C   UNL A   1      45.261  25.992  30.712  1.00  0.00     0.074 A 
ATOM     66  C   UNL A   1      45.807  24.858  29.996  1.00  0.00     0.031 C 
ATOM     67  C   UNL A   1      45.863  26.589  31.770  1.00  0.00     0.034 A 
BRANCH  54  68
ATOM     68  C   UNL A   1      42.830  31.520  33.938  1.00  0.00     0.023 A 
ATOM     69  C   UNL A   1      43.375  32.763  33.556  1.00  0.00     0.012 A 
ATOM     70  C   UNL A   1      42.215  31.397  35.199  1.00  0.00     0.148 A 
ATOM     71  C   UNL A   1      43.347  33.852  34.426  1.00  0.00     0.002 A 
ATOM     72  C   UNL A   1      42.145  32.500  36.042  1.00  0.00     0.091 A 
ATOM     73  F   UNL A   1      41.719  30.203  35.554  1.00  0.00    -0.205 F 
ATOM     74  C   UNL A   1      42.721  33.724  35.663  1.00  0.00     0.022 A 
BRANCH  72  75
ATOM     75  S   UNL A   1      41.288  32.463  37.620  1.00  0.00     0.127 S 
ATOM     76  O   UNL A   1      42.150  31.578  38.402  1.00  0.00    -0.237 OA
ATOM     77  O   UNL A   1      41.331  33.869  38.024  1.00  0.00    -0.237 OA
ATOM     78  O   UNL A   1      39.954  31.950  37.343  1.00  0.00    -0.744 OA
ENDBRANCH  72  75
ENDBRANCH  54  68
BRANCH  55  79
ATOM     79  C   UNL A   1      42.813  24.249  27.084  1.00  0.00     0.023 A 
ATOM     80  C   UNL A   1      43.510  24.477  25.882  1.00  0.00     0.012 A 
ATOM     81  C   UNL A   1      42.168  23.014  27.280  1.00  0.00     0.148 A 
ATOM     82  C   UNL A   1      43.531  23.509  24.878  1.00  0.00     0.002 A 
ATOM     83  C   UNL A   1      42.242  22.031  26.300  1.00  0.00     0.091 A 
ATOM     84  F   UNL A   1      41.504  22.820  28.429  1.00  0.00    -0.205 F 
ATOM     85  C   UNL A   1      42.906  22.283  25.090  1.00  0.00     0.022 A 
BRANCH  83  86
ATOM     86  S   UNL A   1      41.581  20.379  26.540  1.00  0.00     0.127 S 
ATOM     87  O   UNL A   1      42.096  19.677  25.367  1.00  0.00    -0.237 OA
ATOM     88  O   UNL A   1      42.195  19.991  27.810  1.00  0.00    -0.237 OA
ATOM     89  O   UNL A   1      40.133  20.537  26.596  1.00  0.00    -0.744 OA
ENDBRANCH  83  86
ENDBRANCH  55  79
BRANCH  67  90
ATOM     90  C   UNL A   1      47.165  26.001  32.252  1.00  0.00     0.023 A 
ATOM     91  C   UNL A   1      48.386  26.436  31.700  1.00  0.00     0.012 A 
ATOM     92  C   UNL A   1      47.178  25.055  33.297  1.00  0.00     0.148 A 
ATOM     93  C   UNL A   1      49.596  25.907  32.148  1.00  0.00     0.002 A 
ATOM     94  C   UNL A   1      48.390  24.574  33.776  1.00  0.00     0.091 A 
ATOM     95  F   UNL A   1      46.006  24.640  33.800  1.00  0.00    -0.205 F 
ATOM     96  C   UNL A   1      49.598  24.986  33.192  1.00  0.00     0.022 A 
BRANCH  94  97
ATOM     97  S   UNL A   1      48.495  23.464  35.184  1.00  0.00     0.127 S 
ATOM     98  O   UNL A   1      47.727  24.190  36.194  1.00  0.00    -0.237 OA
ATOM     99  O   UNL A   1      47.845  22.256  34.675  1.00  0.00    -0.237 OA
ATOM    100  O   UNL A   1      49.915  23.311  35.471  1.00  0.00    -0.744 OA
ENDBRANCH  94  97
ENDBRANCH  67  90
ENDBRANCH  41  42
ENDBRANCH  33  36
ENDBRANCH  31  32
ENDBRANCH   1  31
TORSDOF 16
ENDMDL
