MODEL 1
REMARK VINA RESULT:     -12.4      0.000      0.000
REMARK SMILES Cc1cc(=O)cc(C)n1C[C@H]1CCCC[C@@H]1C(=O)NCCCNC(=O)c1ccc(-c2c3nc(c(-c4cccc(S(=O)(=O)[O-])c4F)c4ccc([nH]4)c(-c4cccc(S(=O)(=O)[O-])c4F)c4nc(c(-c5cccc(S(=O)(=O)[O-])c5F)c5ccc2[nH]5)C=C4)C=C3)cc1
REMARK SMILES IDX 21 1 20 2 19 3 17 4 18 5 16 7 11 8 12 9 13 10 15 11 14 12
REMARK SMILES IDX 10 13 9 14 1 15 2 16 3 17 4 18 7 19 5 20 6 21 8 22 22 23
REMARK SMILES IDX 23 24 24 25 25 27 26 28 27 29 88 30 28 31 87 32 29 33 30 34
REMARK SMILES IDX 31 35 81 36 32 37 86 38 80 39 82 40 33 41 85 42 79 43 78 44
REMARK SMILES IDX 34 46 66 47 46 48 65 49 47 50 50 51 64 52 83 53 48 54 49 55
REMARK SMILES IDX 63 57 84 58 51 59 35 60 36 61 44 62 37 63 39 64 45 65 38 66
REMARK SMILES IDX 40 67 41 68 42 69 43 70 67 71 68 72 76 73 69 74 71 75 77 76
REMARK SMILES IDX 70 77 72 78 73 79 74 80 75 81 52 82 53 83 61 84 54 85 56 86
REMARK SMILES IDX 62 87 55 88 57 89 58 90 59 91 60 92
REMARK H PARENT 19 6 23 26 82 45 50 56
REMARK Flexibility Score: inf
ROOT
ATOM      1  C   UNL A   1      33.652  28.950  24.011  1.00  0.00     0.042 C 
ENDROOT
BRANCH   1   2
ATOM      2  C   UNL A   1      32.702  28.568  22.895  1.00  0.00     0.117 C 
BRANCH   2   3
ATOM      3  N   UNL A   1      33.150  27.463  22.061  1.00  0.00    -0.356 N 
ATOM      4  C   UNL A   1      33.271  26.122  22.263  1.00  0.00     0.223 C 
ATOM      5  O   UNL A   1      33.451  25.455  21.234  1.00  0.00    -0.275 OA
ATOM      6  H   UNL A   1      33.422  27.744  21.158  1.00  0.00     0.163 HD
BRANCH   4   7
ATOM      7  C   UNL A   1      33.287  25.397  23.636  1.00  0.00     0.083 C 
ATOM      8  C   UNL A   1      33.657  23.871  23.469  1.00  0.00     0.021 C 
ATOM      9  C   UNL A   1      32.474  23.213  22.738  1.00  0.00     0.006 C 
ATOM     10  C   UNL A   1      31.150  23.352  23.496  1.00  0.00     0.000 C 
ATOM     11  C   UNL A   1      32.061  25.500  24.542  1.00  0.00     0.014 C 
ATOM     12  C   UNL A   1      30.845  24.759  23.981  1.00  0.00     0.001 C 
BRANCH   8  13
ATOM     13  C   UNL A   1      33.971  23.219  24.856  1.00  0.00     0.126 C 
BRANCH  13  14
ATOM     14  N   UNL A   1      35.080  22.210  24.892  1.00  0.00    -0.349 N 
ATOM     15  C   UNL A   1      36.735  24.077  25.424  1.00  0.00     0.064 C 
ATOM     16  C   UNL A   1      36.421  22.628  25.133  1.00  0.00     0.018 A 
ATOM     17  C   UNL A   1      37.453  21.763  25.185  1.00  0.00     0.073 A 
ATOM     18  C   UNL A   1      37.217  20.325  25.001  1.00  0.00     0.182 A 
ATOM     19  C   UNL A   1      34.833  20.807  24.868  1.00  0.00     0.018 A 
ATOM     20  O   UNL A   1      38.136  19.514  25.008  1.00  0.00    -0.290 OA
ATOM     21  C   UNL A   1      35.821  19.894  24.883  1.00  0.00     0.073 A 
ATOM     22  C   UNL A   1      33.445  20.229  24.937  1.00  0.00     0.064 C 
ENDBRANCH  13  14
ENDBRANCH   8  13
ENDBRANCH   4   7
ENDBRANCH   2   3
ENDBRANCH   1   2
BRANCH   1  23
ATOM     23  C   UNL A   1      32.989  28.897  25.376  1.00  0.00     0.118 C 
BRANCH  23  24
ATOM     24  N   UNL A   1      32.502  30.206  25.822  1.00  0.00    -0.352 N 
ATOM     25  C   UNL A   1      32.943  31.056  26.814  1.00  0.00     0.251 C 
ATOM     26  H   UNL A   1      31.721  30.538  25.322  1.00  0.00     0.163 HD
ATOM     27  O   UNL A   1      32.240  31.995  27.162  1.00  0.00    -0.269 OA
BRANCH  25  28
ATOM     28  C   UNL A   1      34.248  30.822  27.468  1.00  0.00     0.039 A 
ATOM     29  C   UNL A   1      35.145  31.879  27.647  1.00  0.00     0.014 A 
ATOM     30  C   UNL A   1      34.590  29.545  27.899  1.00  0.00     0.014 A 
ATOM     31  C   UNL A   1      36.340  31.659  28.340  1.00  0.00     0.010 A 
ATOM     32  C   UNL A   1      35.688  29.363  28.720  1.00  0.00     0.010 A 
ATOM     33  C   UNL A   1      36.597  30.407  28.921  1.00  0.00    -0.014 A 
BRANCH  33  34
ATOM     34  C   UNL A   1      37.826  30.125  29.703  1.00  0.00     0.031 A 
ATOM     35  C   UNL A   1      38.884  29.223  29.121  1.00  0.00     0.074 A 
ATOM     36  C   UNL A   1      37.935  30.579  30.966  1.00  0.00     0.049 A 
ATOM     37  N   UNL A   1      39.969  28.757  29.680  1.00  0.00    -0.248 NA
ATOM     38  C   UNL A   1      38.670  28.739  27.745  1.00  0.00     0.031 C 
ATOM     39  C   UNL A   1      36.932  31.383  31.668  1.00  0.00     0.029 A 
ATOM     40  N   UNL A   1      38.930  30.409  31.894  1.00  0.00    -0.354 N 
ATOM     41  C   UNL A   1      40.532  27.895  28.747  1.00  0.00     0.074 A 
ATOM     42  C   UNL A   1      39.638  27.846  27.615  1.00  0.00     0.031 C 
ATOM     43  C   UNL A   1      37.375  31.661  32.903  1.00  0.00     0.029 A 
ATOM     44  C   UNL A   1      38.675  31.027  33.097  1.00  0.00     0.049 A 
ATOM     45  H   UNL A   1      39.750  29.895  31.717  1.00  0.00     0.167 HD
ATOM     46  C   UNL A   1      41.716  27.241  28.802  1.00  0.00     0.034 A 
ATOM     47  C   UNL A   1      39.410  31.078  34.226  1.00  0.00     0.034 A 
ATOM     48  C   UNL A   1      42.631  27.357  29.901  1.00  0.00     0.049 A 
ATOM     49  C   UNL A   1      40.749  30.393  34.247  1.00  0.00     0.074 A 
ATOM     50  C   UNL A   1      43.899  26.823  30.022  1.00  0.00     0.029 A 
ATOM     51  N   UNL A   1      42.376  28.063  31.067  1.00  0.00    -0.354 N 
ATOM     52  N   UNL A   1      41.335  29.703  33.297  1.00  0.00    -0.248 NA
ATOM     53  C   UNL A   1      41.542  30.516  35.478  1.00  0.00     0.031 C 
ATOM     54  C   UNL A   1      44.404  27.188  31.273  1.00  0.00     0.029 A 
ATOM     55  C   UNL A   1      43.460  27.972  31.921  1.00  0.00     0.049 A 
ATOM     56  H   UNL A   1      41.547  28.557  31.259  1.00  0.00     0.167 HD
ATOM     57  C   UNL A   1      42.574  29.330  33.805  1.00  0.00     0.074 A 
ATOM     58  C   UNL A   1      42.663  29.893  35.137  1.00  0.00     0.031 C 
ATOM     59  C   UNL A   1      43.543  28.576  33.227  1.00  0.00     0.034 A 
BRANCH  46  60
ATOM     60  C   UNL A   1      42.115  26.412  27.608  1.00  0.00     0.023 A 
ATOM     61  C   UNL A   1      42.813  27.019  26.542  1.00  0.00     0.012 A 
ATOM     62  C   UNL A   1      41.845  25.030  27.556  1.00  0.00     0.148 A 
ATOM     63  C   UNL A   1      43.196  26.277  25.426  1.00  0.00     0.002 A 
ATOM     64  C   UNL A   1      42.278  24.286  26.464  1.00  0.00     0.091 A 
ATOM     65  F   UNL A   1      41.160  24.474  28.564  1.00  0.00    -0.205 F 
ATOM     66  C   UNL A   1      42.939  24.910  25.392  1.00  0.00     0.022 A 
BRANCH  64  67
ATOM     67  S   UNL A   1      42.077  22.505  26.362  1.00  0.00     0.127 S 
ATOM     68  O   UNL A   1      42.796  22.057  27.554  1.00  0.00    -0.237 OA
ATOM     69  O   UNL A   1      40.623  22.357  26.436  1.00  0.00    -0.237 OA
ATOM     70  O   UNL A   1      42.664  22.106  25.091  1.00  0.00    -0.744 OA
ENDBRANCH  64  67
ENDBRANCH  46  60
BRANCH  47  71
ATOM     71  C   UNL A   1      38.928  31.898  35.375  1.00  0.00     0.023 A 
ATOM     72  C   UNL A   1      38.967  33.302  35.276  1.00  0.00     0.012 A 
ATOM     73  C   UNL A   1      38.348  31.306  36.514  1.00  0.00     0.148 A 
ATOM     74  C   UNL A   1      38.448  34.103  36.294  1.00  0.00     0.002 A 
ATOM     75  C   UNL A   1      37.780  32.109  37.498  1.00  0.00     0.091 A 
ATOM     76  F   UNL A   1      38.324  29.968  36.590  1.00  0.00    -0.205 F 
ATOM     77  C   UNL A   1      37.843  33.508  37.397  1.00  0.00     0.022 A 
BRANCH  75  78
ATOM     78  S   UNL A   1      36.848  31.437  38.880  1.00  0.00     0.127 S 
ATOM     79  O   UNL A   1      37.804  31.563  39.977  1.00  0.00    -0.237 OA
ATOM     80  O   UNL A   1      35.710  32.355  38.945  1.00  0.00    -0.237 OA
ATOM     81  O   UNL A   1      36.503  30.074  38.501  1.00  0.00    -0.744 OA
ENDBRANCH  75  78
ENDBRANCH  47  71
BRANCH  59  82
ATOM     82  C   UNL A   1      44.794  28.307  34.020  1.00  0.00     0.023 A 
ATOM     83  C   UNL A   1      45.855  29.232  33.977  1.00  0.00     0.012 A 
ATOM     84  C   UNL A   1      44.864  27.213  34.907  1.00  0.00     0.148 A 
ATOM     85  C   UNL A   1      46.975  29.064  34.789  1.00  0.00     0.002 A 
ATOM     86  C   UNL A   1      45.958  27.081  35.753  1.00  0.00     0.091 A 
ATOM     87  F   UNL A   1      43.848  26.337  34.922  1.00  0.00    -0.205 F 
ATOM     88  C   UNL A   1      47.019  28.000  35.687  1.00  0.00     0.022 A 
BRANCH  86  89
ATOM     89  S   UNL A   1      46.053  25.811  37.019  1.00  0.00     0.127 S 
ATOM     90  O   UNL A   1      47.439  25.941  37.466  1.00  0.00    -0.237 OA
ATOM     91  O   UNL A   1      45.054  26.265  37.987  1.00  0.00    -0.237 OA
ATOM     92  O   UNL A   1      45.728  24.555  36.356  1.00  0.00    -0.744 OA
ENDBRANCH  86  89
ENDBRANCH  59  82
ENDBRANCH  33  34
ENDBRANCH  25  28
ENDBRANCH  23  24
ENDBRANCH   1  23
TORSDOF 15
ENDMDL
MODEL 2
REMARK VINA RESULT:     -12.3      1.618      7.775
REMARK SMILES Cc1cc(=O)cc(C)n1C[C@H]1CCCC[C@@H]1C(=O)NCCCNC(=O)c1ccc(-c2c3nc(c(-c4cccc(S(=O)(=O)[O-])c4F)c4ccc([nH]4)c(-c4cccc(S(=O)(=O)[O-])c4F)c4nc(c(-c5cccc(S(=O)(=O)[O-])c5F)c5ccc2[nH]5)C=C4)C=C3)cc1
REMARK SMILES IDX 21 1 20 2 19 3 17 4 18 5 16 7 11 8 12 9 13 10 15 11 14 12
REMARK SMILES IDX 10 13 9 14 1 15 2 16 3 17 4 18 7 19 5 20 6 21 8 22 22 23
REMARK SMILES IDX 23 24 24 25 25 27 26 28 27 29 88 30 28 31 87 32 29 33 30 34
REMARK SMILES IDX 31 35 81 36 32 37 86 38 80 39 82 40 33 41 85 42 79 43 78 44
REMARK SMILES IDX 34 46 66 47 46 48 65 49 47 50 50 51 64 52 83 53 48 54 49 55
REMARK SMILES IDX 63 57 84 58 51 59 35 60 36 61 44 62 37 63 39 64 45 65 38 66
REMARK SMILES IDX 40 67 41 68 42 69 43 70 67 71 68 72 76 73 69 74 71 75 77 76
REMARK SMILES IDX 70 77 72 78 73 79 74 80 75 81 52 82 53 83 61 84 54 85 56 86
REMARK SMILES IDX 62 87 55 88 57 89 58 90 59 91 60 92
REMARK H PARENT 19 6 23 26 82 45 50 56
REMARK Flexibility Score: inf
ROOT
ATOM      1  C   UNL A   1      32.045  29.440  25.282  1.00  0.00     0.042 C 
ENDROOT
BRANCH   1   2
ATOM      2  C   UNL A   1      33.441  29.262  24.721  1.00  0.00     0.117 C 
BRANCH   2   3
ATOM      3  N   UNL A   1      33.570  28.211  23.722  1.00  0.00    -0.356 N 
ATOM      4  C   UNL A   1      33.611  26.852  23.786  1.00  0.00     0.223 C 
ATOM      5  O   UNL A   1      33.474  26.275  22.697  1.00  0.00    -0.275 OA
ATOM      6  H   UNL A   1      33.641  28.557  22.804  1.00  0.00     0.163 HD
BRANCH   4   7
ATOM      7  C   UNL A   1      33.890  26.000  25.054  1.00  0.00     0.083 C 
ATOM      8  C   UNL A   1      33.959  24.462  24.701  1.00  0.00     0.021 C 
ATOM      9  C   UNL A   1      32.535  24.042  24.301  1.00  0.00     0.006 C 
ATOM     10  C   UNL A   1      31.507  24.280  25.413  1.00  0.00     0.000 C 
ATOM     11  C   UNL A   1      32.990  26.175  26.276  1.00  0.00     0.014 C 
ATOM     12  C   UNL A   1      31.568  25.660  26.044  1.00  0.00     0.001 C 
BRANCH   8  13
ATOM     13  C   UNL A   1      34.537  23.642  25.902  1.00  0.00     0.126 C 
BRANCH  13  14
ATOM     14  N   UNL A   1      35.456  22.506  25.563  1.00  0.00    -0.349 N 
ATOM     15  C   UNL A   1      37.459  24.017  26.015  1.00  0.00     0.064 C 
ATOM     16  C   UNL A   1      36.867  22.695  25.584  1.00  0.00     0.018 A 
ATOM     17  C   UNL A   1      37.737  21.708  25.298  1.00  0.00     0.073 A 
ATOM     18  C   UNL A   1      37.242  20.368  24.957  1.00  0.00     0.182 A 
ATOM     19  C   UNL A   1      34.984  21.173  25.384  1.00  0.00     0.018 A 
ATOM     20  O   UNL A   1      38.003  19.455  24.658  1.00  0.00    -0.290 OA
ATOM     21  C   UNL A   1      35.797  20.150  25.063  1.00  0.00     0.073 A 
ATOM     22  C   UNL A   1      33.555  20.778  25.648  1.00  0.00     0.064 C 
ENDBRANCH  13  14
ENDBRANCH   8  13
ENDBRANCH   4   7
ENDBRANCH   2   3
ENDBRANCH   1   2
BRANCH   1  23
ATOM     23  C   UNL A   1      32.059  29.970  26.704  1.00  0.00     0.118 C 
BRANCH  23  24
ATOM     24  N   UNL A   1      32.072  31.434  26.764  1.00  0.00    -0.352 N 
ATOM     25  C   UNL A   1      32.928  32.318  27.390  1.00  0.00     0.251 C 
ATOM     26  H   UNL A   1      31.340  31.866  26.267  1.00  0.00     0.163 HD
ATOM     27  O   UNL A   1      32.611  33.494  27.495  1.00  0.00    -0.269 OA
BRANCH  25  28
ATOM     28  C   UNL A   1      34.210  31.839  27.950  1.00  0.00     0.039 A 
ATOM     29  C   UNL A   1      35.197  32.754  28.327  1.00  0.00     0.014 A 
ATOM     30  C   UNL A   1      34.440  30.476  28.094  1.00  0.00     0.014 A 
ATOM     31  C   UNL A   1      36.371  32.292  28.930  1.00  0.00     0.010 A 
ATOM     32  C   UNL A   1      35.522  30.031  28.832  1.00  0.00     0.010 A 
ATOM     33  C   UNL A   1      36.520  30.928  29.228  1.00  0.00    -0.014 A 
BRANCH  33  34
ATOM     34  C   UNL A   1      37.722  30.383  29.904  1.00  0.00     0.031 A 
ATOM     35  C   UNL A   1      38.042  30.819  31.311  1.00  0.00     0.074 A 
ATOM     36  C   UNL A   1      38.578  29.599  29.221  1.00  0.00     0.049 A 
ATOM     37  N   UNL A   1      39.097  30.558  32.036  1.00  0.00    -0.248 NA
ATOM     38  C   UNL A   1      37.071  31.708  31.975  1.00  0.00     0.031 C 
ATOM     39  C   UNL A   1      38.421  29.187  27.825  1.00  0.00     0.029 A 
ATOM     40  N   UNL A   1      39.765  29.026  29.603  1.00  0.00    -0.354 N 
ATOM     41  C   UNL A   1      38.937  31.286  33.209  1.00  0.00     0.074 A 
ATOM     42  C   UNL A   1      37.722  32.052  33.075  1.00  0.00     0.031 C 
ATOM     43  C   UNL A   1      39.453  28.405  27.477  1.00  0.00     0.029 A 
ATOM     44  C   UNL A   1      40.366  28.289  28.609  1.00  0.00     0.049 A 
ATOM     45  H   UNL A   1      40.150  29.132  30.502  1.00  0.00     0.167 HD
ATOM     46  C   UNL A   1      39.704  31.277  34.324  1.00  0.00     0.034 A 
ATOM     47  C   UNL A   1      41.521  27.594  28.615  1.00  0.00     0.034 A 
ATOM     48  C   UNL A   1      40.869  30.453  34.474  1.00  0.00     0.049 A 
ATOM     49  C   UNL A   1      42.331  27.550  29.883  1.00  0.00     0.074 A 
ATOM     50  C   UNL A   1      41.664  30.286  35.591  1.00  0.00     0.029 A 
ATOM     51  N   UNL A   1      41.400  29.650  33.476  1.00  0.00    -0.354 N 
ATOM     52  N   UNL A   1      42.086  28.126  31.036  1.00  0.00    -0.248 NA
ATOM     53  C   UNL A   1      43.556  26.739  29.864  1.00  0.00     0.031 C 
ATOM     54  C   UNL A   1      42.693  29.399  35.261  1.00  0.00     0.029 A 
ATOM     55  C   UNL A   1      42.522  28.992  33.946  1.00  0.00     0.049 A 
ATOM     56  H   UNL A   1      41.034  29.562  32.567  1.00  0.00     0.167 HD
ATOM     57  C   UNL A   1      43.111  27.730  31.887  1.00  0.00     0.074 A 
ATOM     58  C   UNL A   1      43.965  26.844  31.123  1.00  0.00     0.031 C 
ATOM     59  C   UNL A   1      43.334  28.081  33.178  1.00  0.00     0.034 A 
BRANCH  46  60
ATOM     60  C   UNL A   1      39.259  32.125  35.488  1.00  0.00     0.023 A 
ATOM     61  C   UNL A   1      38.370  31.584  36.442  1.00  0.00     0.012 A 
ATOM     62  C   UNL A   1      39.748  33.433  35.668  1.00  0.00     0.148 A 
ATOM     63  C   UNL A   1      37.943  32.344  37.530  1.00  0.00     0.002 A 
ATOM     64  C   UNL A   1      39.359  34.165  36.784  1.00  0.00     0.091 A 
ATOM     65  F   UNL A   1      40.572  33.941  34.740  1.00  0.00    -0.205 F 
ATOM     66  C   UNL A   1      38.445  33.629  37.707  1.00  0.00     0.022 A 
BRANCH  64  67
ATOM     67  S   UNL A   1      40.016  35.796  37.153  1.00  0.00     0.127 S 
ATOM     68  O   UNL A   1      39.608  36.554  35.971  1.00  0.00    -0.237 OA
ATOM     69  O   UNL A   1      39.298  36.143  38.380  1.00  0.00    -0.237 OA
ATOM     70  O   UNL A   1      41.452  35.622  37.317  1.00  0.00    -0.744 OA
ENDBRANCH  64  67
ENDBRANCH  46  60
BRANCH  47  71
ATOM     71  C   UNL A   1      41.905  26.804  27.410  1.00  0.00     0.023 A 
ATOM     72  C   UNL A   1      42.542  27.459  26.338  1.00  0.00     0.012 A 
ATOM     73  C   UNL A   1      41.735  25.406  27.356  1.00  0.00     0.148 A 
ATOM     74  C   UNL A   1      42.992  26.741  25.230  1.00  0.00     0.002 A 
ATOM     75  C   UNL A   1      42.239  24.689  26.276  1.00  0.00     0.091 A 
ATOM     76  F   UNL A   1      41.124  24.803  28.385  1.00  0.00    -0.205 F 
ATOM     77  C   UNL A   1      42.854  25.356  25.205  1.00  0.00     0.022 A 
BRANCH  75  78
ATOM     78  S   UNL A   1      42.242  22.892  26.220  1.00  0.00     0.127 S 
ATOM     79  O   UNL A   1      40.820  22.585  26.345  1.00  0.00    -0.237 OA
ATOM     80  O   UNL A   1      42.815  22.637  24.899  1.00  0.00    -0.237 OA
ATOM     81  O   UNL A   1      43.077  22.463  27.334  1.00  0.00    -0.744 OA
ENDBRANCH  75  78
ENDBRANCH  47  71
BRANCH  59  82
ATOM     82  C   UNL A   1      44.547  27.511  33.864  1.00  0.00     0.023 A 
ATOM     83  C   UNL A   1      45.766  28.215  33.814  1.00  0.00     0.012 A 
ATOM     84  C   UNL A   1      44.446  26.355  34.664  1.00  0.00     0.148 A 
ATOM     85  C   UNL A   1      46.872  27.768  34.534  1.00  0.00     0.002 A 
ATOM     86  C   UNL A   1      45.536  25.946  35.422  1.00  0.00     0.091 A 
ATOM     87  F   UNL A   1      43.279  25.693  34.686  1.00  0.00    -0.205 F 
ATOM     88  C   UNL A   1      46.752  26.644  35.350  1.00  0.00     0.022 A 
BRANCH  86  89
ATOM     89  S   UNL A   1      45.444  24.581  36.586  1.00  0.00     0.127 S 
ATOM     90  O   UNL A   1      44.329  24.992  37.439  1.00  0.00    -0.237 OA
ATOM     91  O   UNL A   1      45.158  23.445  35.710  1.00  0.00    -0.237 OA
ATOM     92  O   UNL A   1      46.743  24.526  37.246  1.00  0.00    -0.744 OA
ENDBRANCH  86  89
ENDBRANCH  59  82
ENDBRANCH  33  34
ENDBRANCH  25  28
ENDBRANCH  23  24
ENDBRANCH   1  23
TORSDOF 15
ENDMDL
MODEL 3
REMARK VINA RESULT:     -12.2      2.485      3.670
REMARK SMILES Cc1cc(=O)cc(C)n1C[C@H]1CCCC[C@@H]1C(=O)NCCCNC(=O)c1ccc(-c2c3nc(c(-c4cccc(S(=O)(=O)[O-])c4F)c4ccc([nH]4)c(-c4cccc(S(=O)(=O)[O-])c4F)c4nc(c(-c5cccc(S(=O)(=O)[O-])c5F)c5ccc2[nH]5)C=C4)C=C3)cc1
REMARK SMILES IDX 21 1 20 2 19 3 17 4 18 5 16 7 11 8 12 9 13 10 15 11 14 12
REMARK SMILES IDX 10 13 9 14 1 15 2 16 3 17 4 18 7 19 5 20 6 21 8 22 22 23
REMARK SMILES IDX 23 24 24 25 25 27 26 28 27 29 88 30 28 31 87 32 29 33 30 34
REMARK SMILES IDX 31 35 81 36 32 37 86 38 80 39 82 40 33 41 85 42 79 43 78 44
REMARK SMILES IDX 34 46 66 47 46 48 65 49 47 50 50 51 64 52 83 53 48 54 49 55
REMARK SMILES IDX 63 57 84 58 51 59 35 60 36 61 44 62 37 63 39 64 45 65 38 66
REMARK SMILES IDX 40 67 41 68 42 69 43 70 67 71 68 72 76 73 69 74 71 75 77 76
REMARK SMILES IDX 70 77 72 78 73 79 74 80 75 81 52 82 53 83 61 84 54 85 56 86
REMARK SMILES IDX 62 87 55 88 57 89 58 90 59 91 60 92
REMARK H PARENT 19 6 23 26 82 45 50 56
REMARK Flexibility Score: inf
ROOT
ATOM      1  C   UNL A   1      31.572  32.067  26.728  1.00  0.00     0.042 C 
ENDROOT
BRANCH   1   2
ATOM      2  C   UNL A   1      31.815  30.672  26.190  1.00  0.00     0.117 C 
BRANCH   2   3
ATOM      3  N   UNL A   1      31.707  29.607  27.177  1.00  0.00    -0.356 N 
ATOM      4  C   UNL A   1      31.624  28.251  27.093  1.00  0.00     0.223 C 
ATOM      5  O   UNL A   1      31.800  27.652  28.164  1.00  0.00    -0.275 OA
ATOM      6  H   UNL A   1      31.692  29.939  28.104  1.00  0.00     0.163 HD
BRANCH   4   7
ATOM      7  C   UNL A   1      31.259  27.430  25.827  1.00  0.00     0.083 C 
ATOM      8  C   UNL A   1      31.944  26.007  25.855  1.00  0.00     0.021 C 
ATOM      9  C   UNL A   1      33.455  26.248  25.694  1.00  0.00     0.006 C 
ATOM     10  C   UNL A   1      33.809  26.976  24.392  1.00  0.00     0.000 C 
ATOM     11  C   UNL A   1      31.489  28.049  24.450  1.00  0.00     0.014 C 
ATOM     12  C   UNL A   1      32.973  28.213  24.114  1.00  0.00     0.001 C 
BRANCH   8  13
ATOM     13  C   UNL A   1      31.340  25.077  24.751  1.00  0.00     0.126 C 
BRANCH  13  14
ATOM     14  N   UNL A   1      31.920  23.698  24.640  1.00  0.00    -0.349 N 
ATOM     15  C   UNL A   1      30.444  22.943  26.578  1.00  0.00     0.064 C 
ATOM     16  C   UNL A   1      31.512  22.675  25.544  1.00  0.00     0.018 A 
ATOM     17  C   UNL A   1      31.993  21.418  25.483  1.00  0.00     0.073 A 
ATOM     18  C   UNL A   1      32.970  21.054  24.448  1.00  0.00     0.182 A 
ATOM     19  C   UNL A   1      32.745  23.305  23.546  1.00  0.00     0.018 A 
ATOM     20  O   UNL A   1      33.454  19.930  24.383  1.00  0.00    -0.290 OA
ATOM     21  C   UNL A   1      33.283  22.077  23.446  1.00  0.00     0.073 A 
ATOM     22  C   UNL A   1      32.992  24.197  22.359  1.00  0.00     0.064 C 
ENDBRANCH  13  14
ENDBRANCH   8  13
ENDBRANCH   4   7
ENDBRANCH   2   3
ENDBRANCH   1   2
BRANCH   1  23
ATOM     23  C   UNL A   1      32.828  32.681  27.320  1.00  0.00     0.118 C 
BRANCH  23  24
ATOM     24  N   UNL A   1      32.653  34.090  27.685  1.00  0.00    -0.352 N 
ATOM     25  C   UNL A   1      33.185  34.842  28.711  1.00  0.00     0.251 C 
ATOM     26  H   UNL A   1      32.047  34.589  27.090  1.00  0.00     0.163 HD
ATOM     27  O   UNL A   1      32.716  35.945  28.958  1.00  0.00    -0.269 OA
BRANCH  25  28
ATOM     28  C   UNL A   1      34.301  34.310  29.521  1.00  0.00     0.039 A 
ATOM     29  C   UNL A   1      34.040  33.543  30.660  1.00  0.00     0.014 A 
ATOM     30  C   UNL A   1      35.615  34.579  29.155  1.00  0.00     0.014 A 
ATOM     31  C   UNL A   1      35.105  32.978  31.370  1.00  0.00     0.010 A 
ATOM     32  C   UNL A   1      36.655  33.892  29.756  1.00  0.00     0.010 A 
ATOM     33  C   UNL A   1      36.419  33.112  30.894  1.00  0.00    -0.014 A 
BRANCH  33  34
ATOM     34  C   UNL A   1      37.585  32.501  31.577  1.00  0.00     0.031 A 
ATOM     35  C   UNL A   1      38.315  31.359  30.919  1.00  0.00     0.074 A 
ATOM     36  C   UNL A   1      37.909  32.889  32.825  1.00  0.00     0.049 A 
ATOM     37  N   UNL A   1      39.275  30.611  31.393  1.00  0.00    -0.248 NA
ATOM     38  C   UNL A   1      37.872  30.971  29.567  1.00  0.00     0.031 C 
ATOM     39  C   UNL A   1      37.216  33.920  33.599  1.00  0.00     0.029 A 
ATOM     40  N   UNL A   1      38.892  32.446  33.673  1.00  0.00    -0.354 N 
ATOM     41  C   UNL A   1      39.513  29.644  30.423  1.00  0.00     0.074 A 
ATOM     42  C   UNL A   1      38.553  29.854  29.365  1.00  0.00     0.031 C 
ATOM     43  C   UNL A   1      37.812  34.051  34.794  1.00  0.00     0.029 A 
ATOM     44  C   UNL A   1      38.905  33.090  34.888  1.00  0.00     0.049 A 
ATOM     45  H   UNL A   1      39.528  31.734  33.434  1.00  0.00     0.167 HD
ATOM     46  C   UNL A   1      40.480  28.698  30.387  1.00  0.00     0.034 A 
ATOM     47  C   UNL A   1      39.713  32.926  35.955  1.00  0.00     0.034 A 
ATOM     48  C   UNL A   1      41.475  28.548  31.409  1.00  0.00     0.049 A 
ATOM     49  C   UNL A   1      40.818  31.907  35.874  1.00  0.00     0.074 A 
ATOM     50  C   UNL A   1      42.560  27.694  31.432  1.00  0.00     0.029 A 
ATOM     51  N   UNL A   1      41.510  29.278  32.588  1.00  0.00    -0.354 N 
ATOM     52  N   UNL A   1      41.123  31.101  34.885  1.00  0.00    -0.248 NA
ATOM     53  C   UNL A   1      41.708  31.795  37.037  1.00  0.00     0.031 C 
ATOM     54  C   UNL A   1      43.240  27.890  32.638  1.00  0.00     0.029 A 
ATOM     55  C   UNL A   1      42.594  28.887  33.354  1.00  0.00     0.049 A 
ATOM     56  H   UNL A   1      40.861  29.972  32.843  1.00  0.00     0.167 HD
ATOM     57  C   UNL A   1      42.253  30.403  35.294  1.00  0.00     0.074 A 
ATOM     58  C   UNL A   1      42.592  30.901  36.612  1.00  0.00     0.031 C 
ATOM     59  C   UNL A   1      42.937  29.427  34.646  1.00  0.00     0.034 A 
BRANCH  46  60
ATOM     60  C   UNL A   1      40.548  27.811  29.170  1.00  0.00     0.023 A 
ATOM     61  C   UNL A   1      39.651  26.729  29.046  1.00  0.00     0.012 A 
ATOM     62  C   UNL A   1      41.463  28.068  28.131  1.00  0.00     0.148 A 
ATOM     63  C   UNL A   1      39.690  25.894  27.931  1.00  0.00     0.002 A 
ATOM     64  C   UNL A   1      41.460  27.263  26.997  1.00  0.00     0.091 A 
ATOM     65  F   UNL A   1      42.325  29.084  28.274  1.00  0.00    -0.205 F 
ATOM     66  C   UNL A   1      40.586  26.167  26.903  1.00  0.00     0.022 A 
BRANCH  64  67
ATOM     67  S   UNL A   1      42.512  27.582  25.577  1.00  0.00     0.127 S 
ATOM     68  O   UNL A   1      41.940  28.823  25.058  1.00  0.00    -0.237 OA
ATOM     69  O   UNL A   1      43.828  27.729  26.200  1.00  0.00    -0.237 OA
ATOM     70  O   UNL A   1      42.377  26.421  24.708  1.00  0.00    -0.744 OA
ENDBRANCH  64  67
ENDBRANCH  46  60
BRANCH  47  71
ATOM     71  C   UNL A   1      39.559  33.826  37.134  1.00  0.00     0.023 A 
ATOM     72  C   UNL A   1      39.931  35.179  37.013  1.00  0.00     0.012 A 
ATOM     73  C   UNL A   1      38.963  33.382  38.331  1.00  0.00     0.148 A 
ATOM     74  C   UNL A   1      39.724  36.072  38.065  1.00  0.00     0.002 A 
ATOM     75  C   UNL A   1      38.706  34.290  39.353  1.00  0.00     0.091 A 
ATOM     76  F   UNL A   1      38.620  32.091  38.426  1.00  0.00    -0.205 F 
ATOM     77  C   UNL A   1      39.100  35.631  39.229  1.00  0.00     0.022 A 
BRANCH  75  78
ATOM     78  S   UNL A   1      37.775  33.852  40.827  1.00  0.00     0.127 S 
ATOM     79  O   UNL A   1      36.593  33.210  40.257  1.00  0.00    -0.237 OA
ATOM     80  O   UNL A   1      38.702  32.947  41.507  1.00  0.00    -0.237 OA
ATOM     81  O   UNL A   1      37.531  35.106  41.528  1.00  0.00    -0.744 OA
ENDBRANCH  75  78
ENDBRANCH  47  71
BRANCH  59  82
ATOM     82  C   UNL A   1      44.128  28.822  35.339  1.00  0.00     0.023 A 
ATOM     83  C   UNL A   1      45.402  29.394  35.156  1.00  0.00     0.012 A 
ATOM     84  C   UNL A   1      43.965  27.776  36.271  1.00  0.00     0.148 A 
ATOM     85  C   UNL A   1      46.500  28.924  35.874  1.00  0.00     0.002 A 
ATOM     86  C   UNL A   1      45.052  27.350  37.023  1.00  0.00     0.091 A 
ATOM     87  F   UNL A   1      42.746  27.238  36.420  1.00  0.00    -0.205 F 
ATOM     88  C   UNL A   1      46.322  27.915  36.818  1.00  0.00     0.022 A 
BRANCH  86  89
ATOM     89  S   UNL A   1      44.900  26.138  38.340  1.00  0.00     0.127 S 
ATOM     90  O   UNL A   1      44.421  24.964  37.610  1.00  0.00    -0.237 OA
ATOM     91  O   UNL A   1      46.275  26.035  38.827  1.00  0.00    -0.237 OA
ATOM     92  O   UNL A   1      43.957  26.700  39.299  1.00  0.00    -0.744 OA
ENDBRANCH  86  89
ENDBRANCH  59  82
ENDBRANCH  33  34
ENDBRANCH  25  28
ENDBRANCH  23  24
ENDBRANCH   1  23
TORSDOF 15
ENDMDL
