MODEL 1
REMARK VINA RESULT:     -11.6      0.000      0.000
REMARK SMILES [NH3+][C@@H](Cc1ccncc1)C(=O)NCCCNC(=O)c1ccc(-c2c3nc(c(-c4cccc(S(=O)(=O)[O-])c4F)c4ccc([nH]4)c(-c4cccc(S(=O)(=O)[O-])c4F)c4nc(c(-c5cccc(S(=O)(=O)[O-])c5F)c5ccc2[nH]5)C=C4)C=C3)cc1
REMARK SMILES IDX 14 1 13 2 12 3 10 4 11 5 2 7 1 8 3 12 4 13 5 14 9 15 6 16
REMARK SMILES IDX 8 17 7 18 15 19 16 20 17 21 18 23 19 24 20 25 81 26 21 27
REMARK SMILES IDX 80 28 22 29 23 30 24 31 74 32 25 33 79 34 73 35 75 36 26 37
REMARK SMILES IDX 78 38 72 39 71 40 27 42 59 43 39 44 58 45 40 46 43 47 57 48
REMARK SMILES IDX 76 49 41 50 42 51 56 53 77 54 44 55 28 56 29 57 37 58 30 59
REMARK SMILES IDX 32 60 38 61 31 62 33 63 34 64 35 65 36 66 60 67 61 68 69 69
REMARK SMILES IDX 62 70 64 71 70 72 63 73 65 74 66 75 67 76 68 77 45 78 46 79
REMARK SMILES IDX 54 80 47 81 49 82 55 83 48 84 50 85 51 86 52 87 53 88
REMARK H PARENT 12 6 1 9 1 10 1 11 16 22 75 41 43 52
REMARK Flexibility Score: inf
ROOT
ATOM      1  C   UNL A   1      32.119  28.796  26.887  1.00  0.00     0.042 C 
ENDROOT
BRANCH   1   2
ATOM      2  C   UNL A   1      31.962  27.463  26.188  1.00  0.00     0.118 C 
BRANCH   2   3
ATOM      3  N   UNL A   1      30.929  26.602  26.700  1.00  0.00    -0.351 N 
ATOM      4  C   UNL A   1      30.132  25.744  25.992  1.00  0.00     0.278 C 
ATOM      5  O   UNL A   1      29.568  24.846  26.627  1.00  0.00    -0.268 OA
ATOM      6  H   UNL A   1      30.778  26.634  27.672  1.00  0.00     0.163 HD
BRANCH   4   7
ATOM      7  C   UNL A   1      29.910  25.888  24.458  1.00  0.00     0.275 C 
BRANCH   7   8
ATOM      8  N   UNL A   1      30.185  24.616  23.766  1.00  0.00    -0.347 N 
ATOM      9  H   UNL A   1      30.206  23.856  24.447  1.00  0.00     0.345 HD
ATOM     10  H   UNL A   1      31.086  24.674  23.294  1.00  0.00     0.345 HD
ATOM     11  H   UNL A   1      29.452  24.437  23.079  1.00  0.00     0.345 HD
ENDBRANCH   7   8
BRANCH   7  12
ATOM     12  C   UNL A   1      28.671  26.706  23.991  1.00  0.00     0.111 C 
BRANCH  12  13
ATOM     13  C   UNL A   1      28.788  27.991  23.193  1.00  0.00    -0.038 A 
ATOM     14  C   UNL A   1      27.685  28.794  22.868  1.00  0.00     0.024 A 
ATOM     15  C   UNL A   1      30.047  28.415  22.747  1.00  0.00     0.024 A 
ATOM     16  C   UNL A   1      27.899  30.009  22.228  1.00  0.00     0.111 A 
ATOM     17  C   UNL A   1      30.155  29.627  22.077  1.00  0.00     0.111 A 
ATOM     18  N   UNL A   1      29.112  30.440  21.828  1.00  0.00    -0.265 NA
ENDBRANCH  12  13
ENDBRANCH   7  12
ENDBRANCH   4   7
ENDBRANCH   2   3
ENDBRANCH   1   2
BRANCH   1  19
ATOM     19  C   UNL A   1      32.949  29.807  26.116  1.00  0.00     0.118 C 
BRANCH  19  20
ATOM     20  N   UNL A   1      32.830  31.175  26.612  1.00  0.00    -0.352 N 
ATOM     21  C   UNL A   1      33.637  31.926  27.430  1.00  0.00     0.251 C 
ATOM     22  H   UNL A   1      32.022  31.647  26.302  1.00  0.00     0.163 HD
ATOM     23  O   UNL A   1      33.278  33.065  27.727  1.00  0.00    -0.269 OA
BRANCH  21  24
ATOM     24  C   UNL A   1      34.899  31.387  27.979  1.00  0.00     0.039 A 
ATOM     25  C   UNL A   1      35.998  32.243  28.095  1.00  0.00     0.014 A 
ATOM     26  C   UNL A   1      35.020  30.055  28.377  1.00  0.00     0.014 A 
ATOM     27  C   UNL A   1      37.184  31.779  28.669  1.00  0.00     0.010 A 
ATOM     28  C   UNL A   1      36.149  29.635  29.068  1.00  0.00     0.010 A 
ATOM     29  C   UNL A   1      37.256  30.481  29.200  1.00  0.00    -0.014 A 
BRANCH  29  30
ATOM     30  C   UNL A   1      38.482  29.990  29.877  1.00  0.00     0.031 A 
ATOM     31  C   UNL A   1      38.841  30.483  31.256  1.00  0.00     0.074 A 
ATOM     32  C   UNL A   1      39.312  29.157  29.219  1.00  0.00     0.049 A 
ATOM     33  N   UNL A   1      39.873  30.174  31.997  1.00  0.00    -0.248 NA
ATOM     34  C   UNL A   1      37.949  31.483  31.870  1.00  0.00     0.031 C 
ATOM     35  C   UNL A   1      39.135  28.699  27.839  1.00  0.00     0.029 A 
ATOM     36  N   UNL A   1      40.479  28.556  29.618  1.00  0.00    -0.354 N 
ATOM     37  C   UNL A   1      39.777  30.968  33.135  1.00  0.00     0.074 A 
ATOM     38  C   UNL A   1      38.617  31.812  32.964  1.00  0.00     0.031 C 
ATOM     39  C   UNL A   1      40.139  27.868  27.517  1.00  0.00     0.029 A 
ATOM     40  C   UNL A   1      41.042  27.751  28.656  1.00  0.00     0.049 A 
ATOM     41  H   UNL A   1      40.876  28.689  30.510  1.00  0.00     0.167 HD
ATOM     42  C   UNL A   1      40.556  30.966  34.242  1.00  0.00     0.034 A 
ATOM     43  C   UNL A   1      42.154  26.992  28.694  1.00  0.00     0.034 A 
ATOM     44  C   UNL A   1      41.668  30.076  34.434  1.00  0.00     0.049 A 
ATOM     45  C   UNL A   1      42.945  26.931  29.973  1.00  0.00     0.074 A 
ATOM     46  C   UNL A   1      42.461  29.917  35.556  1.00  0.00     0.029 A 
ATOM     47  N   UNL A   1      42.140  29.188  33.480  1.00  0.00    -0.354 N 
ATOM     48  N   UNL A   1      42.735  27.561  31.104  1.00  0.00    -0.248 NA
ATOM     49  C   UNL A   1      44.096  26.019  29.997  1.00  0.00     0.031 C 
ATOM     50  C   UNL A   1      43.424  28.942  35.274  1.00  0.00     0.029 A 
ATOM     51  C   UNL A   1      43.215  28.478  33.985  1.00  0.00     0.049 A 
ATOM     52  H   UNL A   1      41.767  29.080  32.575  1.00  0.00     0.167 HD
ATOM     53  C   UNL A   1      43.706  27.098  31.984  1.00  0.00     0.074 A 
ATOM     54  C   UNL A   1      44.484  26.111  31.261  1.00  0.00     0.031 C 
ATOM     55  C   UNL A   1      43.945  27.465  33.267  1.00  0.00     0.034 A 
BRANCH  42  56
ATOM     56  C   UNL A   1      40.184  31.908  35.359  1.00  0.00     0.023 A 
ATOM     57  C   UNL A   1      40.855  33.144  35.480  1.00  0.00     0.012 A 
ATOM     58  C   UNL A   1      39.147  31.598  36.260  1.00  0.00     0.148 A 
ATOM     59  C   UNL A   1      40.530  34.035  36.500  1.00  0.00     0.002 A 
ATOM     60  C   UNL A   1      38.794  32.513  37.246  1.00  0.00     0.091 A 
ATOM     61  F   UNL A   1      38.534  30.411  36.147  1.00  0.00    -0.205 F 
ATOM     62  C   UNL A   1      39.493  33.726  37.375  1.00  0.00     0.022 A 
BRANCH  60  63
ATOM     63  S   UNL A   1      37.421  32.246  38.372  1.00  0.00     0.127 S 
ATOM     64  O   UNL A   1      37.918  32.868  39.597  1.00  0.00    -0.237 OA
ATOM     65  O   UNL A   1      36.338  32.977  37.713  1.00  0.00    -0.237 OA
ATOM     66  O   UNL A   1      37.229  30.804  38.435  1.00  0.00    -0.744 OA
ENDBRANCH  60  63
ENDBRANCH  42  56
BRANCH  43  67
ATOM     67  C   UNL A   1      42.524  26.152  27.520  1.00  0.00     0.023 A 
ATOM     68  C   UNL A   1      43.359  26.689  26.521  1.00  0.00     0.012 A 
ATOM     69  C   UNL A   1      42.087  24.818  27.404  1.00  0.00     0.148 A 
ATOM     70  C   UNL A   1      43.722  25.928  25.410  1.00  0.00     0.002 A 
ATOM     71  C   UNL A   1      42.498  24.047  26.323  1.00  0.00     0.091 A 
ATOM     72  F   UNL A   1      41.285  24.326  28.359  1.00  0.00    -0.205 F 
ATOM     73  C   UNL A   1      43.301  24.605  25.315  1.00  0.00     0.022 A 
BRANCH  71  74
ATOM     74  S   UNL A   1      42.117  22.297  26.191  1.00  0.00     0.127 S 
ATOM     75  O   UNL A   1      40.659  22.313  26.102  1.00  0.00    -0.237 OA
ATOM     76  O   UNL A   1      42.805  21.926  24.954  1.00  0.00    -0.237 OA
ATOM     77  O   UNL A   1      42.674  21.685  27.390  1.00  0.00    -0.744 OA
ENDBRANCH  71  74
ENDBRANCH  43  67
BRANCH  55  78
ATOM     78  C   UNL A   1      45.075  26.776  33.984  1.00  0.00     0.023 A 
ATOM     79  C   UNL A   1      46.383  27.292  33.888  1.00  0.00     0.012 A 
ATOM     80  C   UNL A   1      44.834  25.650  34.794  1.00  0.00     0.148 A 
ATOM     81  C   UNL A   1      47.441  26.670  34.550  1.00  0.00     0.002 A 
ATOM     82  C   UNL A   1      45.884  25.065  35.492  1.00  0.00     0.091 A 
ATOM     83  F   UNL A   1      43.587  25.160  34.858  1.00  0.00    -0.205 F 
ATOM     84  C   UNL A   1      47.189  25.564  35.359  1.00  0.00     0.022 A 
BRANCH  82  85
ATOM     85  S   UNL A   1      45.629  23.701  36.631  1.00  0.00     0.127 S 
ATOM     86  O   UNL A   1      44.735  24.301  37.620  1.00  0.00    -0.237 OA
ATOM     87  O   UNL A   1      45.003  22.691  35.777  1.00  0.00    -0.237 OA
ATOM     88  O   UNL A   1      46.954  23.338  37.116  1.00  0.00    -0.744 OA
ENDBRANCH  82  85
ENDBRANCH  55  78
ENDBRANCH  29  30
ENDBRANCH  21  24
ENDBRANCH  19  20
ENDBRANCH   1  19
TORSDOF 16
ENDMDL
MODEL 2
REMARK VINA RESULT:     -11.4      3.922      6.294
REMARK SMILES [NH3+][C@@H](Cc1ccncc1)C(=O)NCCCNC(=O)c1ccc(-c2c3nc(c(-c4cccc(S(=O)(=O)[O-])c4F)c4ccc([nH]4)c(-c4cccc(S(=O)(=O)[O-])c4F)c4nc(c(-c5cccc(S(=O)(=O)[O-])c5F)c5ccc2[nH]5)C=C4)C=C3)cc1
REMARK SMILES IDX 14 1 13 2 12 3 10 4 11 5 2 7 1 8 3 12 4 13 5 14 9 15 6 16
REMARK SMILES IDX 8 17 7 18 15 19 16 20 17 21 18 23 19 24 20 25 81 26 21 27
REMARK SMILES IDX 80 28 22 29 23 30 24 31 74 32 25 33 79 34 73 35 75 36 26 37
REMARK SMILES IDX 78 38 72 39 71 40 27 42 59 43 39 44 58 45 40 46 43 47 57 48
REMARK SMILES IDX 76 49 41 50 42 51 56 53 77 54 44 55 28 56 29 57 37 58 30 59
REMARK SMILES IDX 32 60 38 61 31 62 33 63 34 64 35 65 36 66 60 67 61 68 69 69
REMARK SMILES IDX 62 70 64 71 70 72 63 73 65 74 66 75 67 76 68 77 45 78 46 79
REMARK SMILES IDX 54 80 47 81 49 82 55 83 48 84 50 85 51 86 52 87 53 88
REMARK H PARENT 12 6 1 9 1 10 1 11 16 22 75 41 43 52
REMARK Flexibility Score: inf
ROOT
ATOM      1  C   UNL A   1      34.331  33.753  29.922  1.00  0.00     0.042 C 
ENDROOT
BRANCH   1   2
ATOM      2  C   UNL A   1      33.612  35.072  29.735  1.00  0.00     0.118 C 
BRANCH   2   3
ATOM      3  N   UNL A   1      32.588  35.373  30.700  1.00  0.00    -0.351 N 
ATOM      4  C   UNL A   1      32.690  36.181  31.799  1.00  0.00     0.278 C 
ATOM      5  O   UNL A   1      31.635  36.597  32.293  1.00  0.00    -0.268 OA
ATOM      6  H   UNL A   1      31.713  34.948  30.552  1.00  0.00     0.163 HD
BRANCH   4   7
ATOM      7  C   UNL A   1      34.061  36.554  32.435  1.00  0.00     0.275 C 
BRANCH   7   8
ATOM      8  N   UNL A   1      34.275  38.012  32.403  1.00  0.00    -0.347 N 
ATOM      9  H   UNL A   1      33.380  38.484  32.272  1.00  0.00     0.345 HD
ATOM     10  H   UNL A   1      34.900  38.247  31.633  1.00  0.00     0.345 HD
ATOM     11  H   UNL A   1      34.693  38.313  33.284  1.00  0.00     0.345 HD
ENDBRANCH   7   8
BRANCH   7  12
ATOM     12  C   UNL A   1      34.477  35.794  33.728  1.00  0.00     0.111 C 
BRANCH  12  13
ATOM     13  C   UNL A   1      35.635  34.816  33.769  1.00  0.00    -0.038 A 
ATOM     14  C   UNL A   1      35.881  33.966  34.858  1.00  0.00     0.024 A 
ATOM     15  C   UNL A   1      36.515  34.739  32.682  1.00  0.00     0.024 A 
ATOM     16  C   UNL A   1      36.899  33.025  34.764  1.00  0.00     0.111 A 
ATOM     17  C   UNL A   1      37.531  33.792  32.697  1.00  0.00     0.111 A 
ATOM     18  N   UNL A   1      37.727  32.921  33.705  1.00  0.00    -0.265 NA
ENDBRANCH  12  13
ENDBRANCH   7  12
ENDBRANCH   4   7
ENDBRANCH   2   3
ENDBRANCH   1   2
BRANCH   1  19
ATOM     19  C   UNL A   1      34.989  33.221  28.662  1.00  0.00     0.118 C 
BRANCH  19  20
ATOM     20  N   UNL A   1      34.228  32.170  27.992  1.00  0.00    -0.352 N 
ATOM     21  C   UNL A   1      34.515  30.852  27.739  1.00  0.00     0.251 C 
ATOM     22  H   UNL A   1      33.346  32.460  27.663  1.00  0.00     0.163 HD
ATOM     23  O   UNL A   1      33.697  30.181  27.111  1.00  0.00    -0.269 OA
BRANCH  21  24
ATOM     24  C   UNL A   1      35.789  30.239  28.173  1.00  0.00     0.039 A 
ATOM     25  C   UNL A   1      36.880  30.271  27.299  1.00  0.00     0.014 A 
ATOM     26  C   UNL A   1      35.926  29.631  29.421  1.00  0.00     0.014 A 
ATOM     27  C   UNL A   1      38.112  29.756  27.705  1.00  0.00     0.010 A 
ATOM     28  C   UNL A   1      37.181  29.245  29.873  1.00  0.00     0.010 A 
ATOM     29  C   UNL A   1      38.285  29.277  29.014  1.00  0.00    -0.014 A 
BRANCH  29  30
ATOM     30  C   UNL A   1      39.604  28.791  29.491  1.00  0.00     0.031 A 
ATOM     31  C   UNL A   1      40.312  29.493  30.621  1.00  0.00     0.074 A 
ATOM     32  C   UNL A   1      40.199  27.762  28.856  1.00  0.00     0.049 A 
ATOM     33  N   UNL A   1      41.470  29.219  31.164  1.00  0.00    -0.248 NA
ATOM     34  C   UNL A   1      39.657  30.684  31.193  1.00  0.00     0.031 C 
ATOM     35  C   UNL A   1      39.669  27.073  27.676  1.00  0.00     0.029 A 
ATOM     36  N   UNL A   1      41.388  27.123  29.104  1.00  0.00    -0.354 N 
ATOM     37  C   UNL A   1      41.699  30.220  32.102  1.00  0.00     0.074 A 
ATOM     38  C   UNL A   1      40.587  31.139  32.019  1.00  0.00     0.031 C 
ATOM     39  C   UNL A   1      40.513  26.091  27.322  1.00  0.00     0.029 A 
ATOM     40  C   UNL A   1      41.653  26.093  28.232  1.00  0.00     0.049 A 
ATOM     41  H   UNL A   1      41.993  27.378  29.837  1.00  0.00     0.167 HD
ATOM     42  C   UNL A   1      42.717  30.342  32.984  1.00  0.00     0.034 A 
ATOM     43  C   UNL A   1      42.692  25.238  28.181  1.00  0.00     0.034 A 
ATOM     44  C   UNL A   1      43.785  29.388  33.109  1.00  0.00     0.049 A 
ATOM     45  C   UNL A   1      43.760  25.334  29.238  1.00  0.00     0.074 A 
ATOM     46  C   UNL A   1      44.811  29.358  34.035  1.00  0.00     0.029 A 
ATOM     47  N   UNL A   1      43.959  28.289  32.282  1.00  0.00    -0.354 N 
ATOM     48  N   UNL A   1      43.866  26.186  30.229  1.00  0.00    -0.248 NA
ATOM     49  C   UNL A   1      44.824  24.322  29.197  1.00  0.00     0.031 C 
ATOM     50  C   UNL A   1      45.616  28.247  33.758  1.00  0.00     0.029 A 
ATOM     51  C   UNL A   1      45.077  27.574  32.674  1.00  0.00     0.049 A 
ATOM     52  H   UNL A   1      43.375  28.053  31.525  1.00  0.00     0.167 HD
ATOM     53  C   UNL A   1      44.988  25.794  30.949  1.00  0.00     0.074 A 
ATOM     54  C   UNL A   1      45.507  24.609  30.296  1.00  0.00     0.031 C 
ATOM     55  C   UNL A   1      45.549  26.369  32.041  1.00  0.00     0.034 A 
BRANCH  42  56
ATOM     56  C   UNL A   1      42.683  31.514  33.933  1.00  0.00     0.023 A 
ATOM     57  C   UNL A   1      43.259  32.742  33.543  1.00  0.00     0.012 A 
ATOM     58  C   UNL A   1      42.046  31.420  35.186  1.00  0.00     0.148 A 
ATOM     59  C   UNL A   1      43.238  33.842  34.398  1.00  0.00     0.002 A 
ATOM     60  C   UNL A   1      41.987  32.536  36.013  1.00  0.00     0.091 A 
ATOM     61  F   UNL A   1      41.523  30.240  35.552  1.00  0.00    -0.205 F 
ATOM     62  C   UNL A   1      42.593  33.743  35.627  1.00  0.00     0.022 A 
BRANCH  60  63
ATOM     63  S   UNL A   1      41.110  32.535  37.581  1.00  0.00     0.127 S 
ATOM     64  O   UNL A   1      41.935  31.633  38.381  1.00  0.00    -0.237 OA
ATOM     65  O   UNL A   1      41.188  33.943  37.976  1.00  0.00    -0.237 OA
ATOM     66  O   UNL A   1      39.765  32.061  37.289  1.00  0.00    -0.744 OA
ENDBRANCH  60  63
ENDBRANCH  42  56
BRANCH  43  67
ATOM     67  C   UNL A   1      42.717  24.155  27.158  1.00  0.00     0.023 A 
ATOM     68  C   UNL A   1      43.452  24.343  25.971  1.00  0.00     0.012 A 
ATOM     69  C   UNL A   1      42.051  22.931  27.366  1.00  0.00     0.148 A 
ATOM     70  C   UNL A   1      43.495  23.348  24.994  1.00  0.00     0.002 A 
ATOM     71  C   UNL A   1      42.144  21.923  26.413  1.00  0.00     0.091 A 
ATOM     72  F   UNL A   1      41.349  22.774  28.497  1.00  0.00    -0.205 F 
ATOM     73  C   UNL A   1      42.850  22.135  25.219  1.00  0.00     0.022 A 
BRANCH  71  74
ATOM     74  S   UNL A   1      41.461  20.283  26.682  1.00  0.00     0.127 S 
ATOM     75  O   UNL A   1      41.839  19.596  25.449  1.00  0.00    -0.237 OA
ATOM     76  O   UNL A   1      42.183  19.844  27.877  1.00  0.00    -0.237 OA
ATOM     77  O   UNL A   1      40.034  20.483  26.886  1.00  0.00    -0.744 OA
ENDBRANCH  71  74
ENDBRANCH  43  67
BRANCH  55  78
ATOM     78  C   UNL A   1      46.772  25.709  32.620  1.00  0.00     0.023 A 
ATOM     79  C   UNL A   1      46.641  24.822  33.707  1.00  0.00     0.012 A 
ATOM     80  C   UNL A   1      48.043  25.927  32.055  1.00  0.00     0.148 A 
ATOM     81  C   UNL A   1      47.762  24.197  34.251  1.00  0.00     0.002 A 
ATOM     82  C   UNL A   1      49.150  25.262  32.570  1.00  0.00     0.091 A 
ATOM     83  F   UNL A   1      48.153  26.790  31.034  1.00  0.00    -0.205 F 
ATOM     84  C   UNL A   1      49.013  24.409  33.677  1.00  0.00     0.022 A 
BRANCH  82  85
ATOM     85  S   UNL A   1      50.778  25.403  31.826  1.00  0.00     0.127 S 
ATOM     86  O   UNL A   1      51.569  24.509  32.670  1.00  0.00    -0.237 OA
ATOM     87  O   UNL A   1      50.546  24.912  30.468  1.00  0.00    -0.237 OA
ATOM     88  O   UNL A   1      51.126  26.816  31.902  1.00  0.00    -0.744 OA
ENDBRANCH  82  85
ENDBRANCH  55  78
ENDBRANCH  29  30
ENDBRANCH  21  24
ENDBRANCH  19  20
ENDBRANCH   1  19
TORSDOF 16
ENDMDL
MODEL 3
REMARK VINA RESULT:     -11.3      3.590      5.640
REMARK SMILES [NH3+][C@@H](Cc1ccncc1)C(=O)NCCCNC(=O)c1ccc(-c2c3nc(c(-c4cccc(S(=O)(=O)[O-])c4F)c4ccc([nH]4)c(-c4cccc(S(=O)(=O)[O-])c4F)c4nc(c(-c5cccc(S(=O)(=O)[O-])c5F)c5ccc2[nH]5)C=C4)C=C3)cc1
REMARK SMILES IDX 14 1 13 2 12 3 10 4 11 5 2 7 1 8 3 12 4 13 5 14 9 15 6 16
REMARK SMILES IDX 8 17 7 18 15 19 16 20 17 21 18 23 19 24 20 25 81 26 21 27
REMARK SMILES IDX 80 28 22 29 23 30 24 31 74 32 25 33 79 34 73 35 75 36 26 37
REMARK SMILES IDX 78 38 72 39 71 40 27 42 59 43 39 44 58 45 40 46 43 47 57 48
REMARK SMILES IDX 76 49 41 50 42 51 56 53 77 54 44 55 28 56 29 57 37 58 30 59
REMARK SMILES IDX 32 60 38 61 31 62 33 63 34 64 35 65 36 66 60 67 61 68 69 69
REMARK SMILES IDX 62 70 64 71 70 72 63 73 65 74 66 75 67 76 68 77 45 78 46 79
REMARK SMILES IDX 54 80 47 81 49 82 55 83 48 84 50 85 51 86 52 87 53 88
REMARK H PARENT 12 6 1 9 1 10 1 11 16 22 75 41 43 52
REMARK Flexibility Score: inf
ROOT
ATOM      1  C   UNL A   1      35.815  33.785  29.024  1.00  0.00     0.042 C 
ENDROOT
BRANCH   1   2
ATOM      2  C   UNL A   1      37.044  33.498  29.860  1.00  0.00     0.118 C 
BRANCH   2   3
ATOM      3  N   UNL A   1      37.312  34.428  30.924  1.00  0.00    -0.351 N 
ATOM      4  C   UNL A   1      36.952  34.316  32.240  1.00  0.00     0.278 C 
ATOM      5  O   UNL A   1      37.567  35.015  33.053  1.00  0.00    -0.268 OA
ATOM      6  H   UNL A   1      37.812  35.239  30.678  1.00  0.00     0.163 HD
BRANCH   4   7
ATOM      7  C   UNL A   1      35.805  33.376  32.712  1.00  0.00     0.275 C 
BRANCH   7   8
ATOM      8  N   UNL A   1      36.338  32.259  33.513  1.00  0.00    -0.347 N 
ATOM      9  H   UNL A   1      36.607  32.600  34.437  1.00  0.00     0.345 HD
ATOM     10  H   UNL A   1      37.153  31.864  33.046  1.00  0.00     0.345 HD
ATOM     11  H   UNL A   1      35.621  31.540  33.612  1.00  0.00     0.345 HD
ENDBRANCH   7   8
BRANCH   7  12
ATOM     12  C   UNL A   1      34.489  34.048  33.202  1.00  0.00     0.111 C 
BRANCH  12  13
ATOM     13  C   UNL A   1      33.958  35.340  32.612  1.00  0.00    -0.038 A 
ATOM     14  C   UNL A   1      34.210  36.600  33.176  1.00  0.00     0.024 A 
ATOM     15  C   UNL A   1      33.176  35.300  31.450  1.00  0.00     0.024 A 
ATOM     16  C   UNL A   1      33.776  37.738  32.507  1.00  0.00     0.111 A 
ATOM     17  C   UNL A   1      32.752  36.492  30.877  1.00  0.00     0.111 A 
ATOM     18  N   UNL A   1      33.054  37.708  31.369  1.00  0.00    -0.265 NA
ENDBRANCH  12  13
ENDBRANCH   7  12
ENDBRANCH   4   7
ENDBRANCH   2   3
ENDBRANCH   1   2
BRANCH   1  19
ATOM     19  C   UNL A   1      34.587  32.993  29.434  1.00  0.00     0.118 C 
BRANCH  19  20
ATOM     20  N   UNL A   1      34.039  32.153  28.373  1.00  0.00    -0.352 N 
ATOM     21  C   UNL A   1      34.501  31.001  27.786  1.00  0.00     0.251 C 
ATOM     22  H   UNL A   1      33.179  32.472  28.011  1.00  0.00     0.163 HD
ATOM     23  O   UNL A   1      33.849  30.505  26.868  1.00  0.00    -0.269 OA
BRANCH  21  24
ATOM     24  C   UNL A   1      35.769  30.371  28.211  1.00  0.00     0.039 A 
ATOM     25  C   UNL A   1      36.901  30.535  27.406  1.00  0.00     0.014 A 
ATOM     26  C   UNL A   1      35.862  29.619  29.383  1.00  0.00     0.014 A 
ATOM     27  C   UNL A   1      38.127  30.004  27.813  1.00  0.00     0.010 A 
ATOM     28  C   UNL A   1      37.104  29.211  29.851  1.00  0.00     0.010 A 
ATOM     29  C   UNL A   1      38.248  29.373  29.062  1.00  0.00    -0.014 A 
BRANCH  29  30
ATOM     30  C   UNL A   1      39.556  28.864  29.547  1.00  0.00     0.031 A 
ATOM     31  C   UNL A   1      40.268  29.553  30.682  1.00  0.00     0.074 A 
ATOM     32  C   UNL A   1      40.137  27.826  28.914  1.00  0.00     0.049 A 
ATOM     33  N   UNL A   1      41.418  29.259  31.232  1.00  0.00    -0.248 NA
ATOM     34  C   UNL A   1      39.630  30.754  31.251  1.00  0.00     0.031 C 
ATOM     35  C   UNL A   1      39.603  27.147  27.730  1.00  0.00     0.029 A 
ATOM     36  N   UNL A   1      41.313  27.167  29.169  1.00  0.00    -0.354 N 
ATOM     37  C   UNL A   1      41.658  30.255  32.172  1.00  0.00     0.074 A 
ATOM     38  C   UNL A   1      40.562  31.193  32.084  1.00  0.00     0.031 C 
ATOM     39  C   UNL A   1      40.433  26.152  27.380  1.00  0.00     0.029 A 
ATOM     40  C   UNL A   1      41.566  26.134  28.298  1.00  0.00     0.049 A 
ATOM     41  H   UNL A   1      41.918  27.411  29.906  1.00  0.00     0.167 HD
ATOM     42  C   UNL A   1      42.673  30.359  33.062  1.00  0.00     0.034 A 
ATOM     43  C   UNL A   1      42.591  25.261  28.252  1.00  0.00     0.034 A 
ATOM     44  C   UNL A   1      43.723  29.386  33.191  1.00  0.00     0.049 A 
ATOM     45  C   UNL A   1      43.654  25.338  29.315  1.00  0.00     0.074 A 
ATOM     46  C   UNL A   1      44.743  29.338  34.124  1.00  0.00     0.029 A 
ATOM     47  N   UNL A   1      43.884  28.286  32.364  1.00  0.00    -0.354 N 
ATOM     48  N   UNL A   1      43.768  26.187  30.308  1.00  0.00    -0.248 NA
ATOM     49  C   UNL A   1      44.701  24.308  29.280  1.00  0.00     0.031 C 
ATOM     50  C   UNL A   1      45.530  28.214  33.851  1.00  0.00     0.029 A 
ATOM     51  C   UNL A   1      44.987  27.551  32.763  1.00  0.00     0.049 A 
ATOM     52  H   UNL A   1      43.300  28.060  31.604  1.00  0.00     0.167 HD
ATOM     53  C   UNL A   1      44.878  25.775  31.035  1.00  0.00     0.074 A 
ATOM     54  C   UNL A   1      45.382  24.582  30.384  1.00  0.00     0.031 C 
ATOM     55  C   UNL A   1      45.442  26.339  32.132  1.00  0.00     0.034 A 
BRANCH  42  56
ATOM     56  C   UNL A   1      42.652  31.529  34.012  1.00  0.00     0.023 A 
ATOM     57  C   UNL A   1      43.205  32.764  33.606  1.00  0.00     0.012 A 
ATOM     58  C   UNL A   1      42.051  31.429  35.281  1.00  0.00     0.148 A 
ATOM     59  C   UNL A   1      43.196  33.864  34.462  1.00  0.00     0.002 A 
ATOM     60  C   UNL A   1      42.002  32.544  36.111  1.00  0.00     0.091 A 
ATOM     61  F   UNL A   1      41.551  30.244  35.661  1.00  0.00    -0.205 F 
ATOM     62  C   UNL A   1      42.586  33.758  35.708  1.00  0.00     0.022 A 
BRANCH  60  63
ATOM     63  S   UNL A   1      41.169  32.534  37.702  1.00  0.00     0.127 S 
ATOM     64  O   UNL A   1      39.846  32.030  37.338  1.00  0.00    -0.237 OA
ATOM     65  O   UNL A   1      41.988  31.596  38.471  1.00  0.00    -0.237 OA
ATOM     66  O   UNL A   1      41.205  33.907  38.183  1.00  0.00    -0.744 OA
ENDBRANCH  60  63
ENDBRANCH  42  56
BRANCH  43  67
ATOM     67  C   UNL A   1      42.604  24.179  27.227  1.00  0.00     0.023 A 
ATOM     68  C   UNL A   1      43.520  24.249  26.160  1.00  0.00     0.012 A 
ATOM     69  C   UNL A   1      41.745  23.066  27.322  1.00  0.00     0.148 A 
ATOM     70  C   UNL A   1      43.556  23.252  25.185  1.00  0.00     0.002 A 
ATOM     71  C   UNL A   1      41.825  22.049  26.379  1.00  0.00     0.091 A 
ATOM     72  F   UNL A   1      40.874  23.020  28.340  1.00  0.00    -0.205 F 
ATOM     73  C   UNL A   1      42.717  22.147  25.299  1.00  0.00     0.022 A 
BRANCH  71  74
ATOM     74  S   UNL A   1      40.881  20.528  26.525  1.00  0.00     0.127 S 
ATOM     75  O   UNL A   1      39.554  20.955  26.089  1.00  0.00    -0.237 OA
ATOM     76  O   UNL A   1      41.580  19.644  25.591  1.00  0.00    -0.237 OA
ATOM     77  O   UNL A   1      40.995  20.130  27.921  1.00  0.00    -0.744 OA
ENDBRANCH  71  74
ENDBRANCH  43  67
BRANCH  55  78
ATOM     78  C   UNL A   1      46.650  25.657  32.717  1.00  0.00     0.023 A 
ATOM     79  C   UNL A   1      47.941  26.053  32.314  1.00  0.00     0.012 A 
ATOM     80  C   UNL A   1      46.509  24.661  33.701  1.00  0.00     0.148 A 
ATOM     81  C   UNL A   1      49.071  25.437  32.849  1.00  0.00     0.002 A 
ATOM     82  C   UNL A   1      47.640  24.086  34.268  1.00  0.00     0.091 A 
ATOM     83  F   UNL A   1      45.273  24.282  34.059  1.00  0.00    -0.205 F 
ATOM     84  C   UNL A   1      48.921  24.462  33.832  1.00  0.00     0.022 A 
BRANCH  82  85
ATOM     85  S   UNL A   1      47.535  22.896  35.609  1.00  0.00     0.127 S 
ATOM     86  O   UNL A   1      46.779  21.812  34.987  1.00  0.00    -0.237 OA
ATOM     87  O   UNL A   1      48.943  22.589  35.867  1.00  0.00    -0.237 OA
ATOM     88  O   UNL A   1      46.864  23.590  36.700  1.00  0.00    -0.744 OA
ENDBRANCH  82  85
ENDBRANCH  55  78
ENDBRANCH  29  30
ENDBRANCH  21  24
ENDBRANCH  19  20
ENDBRANCH   1  19
TORSDOF 16
ENDMDL
