MODEL 1
REMARK VINA RESULT:     -12.9      0.000      0.000
REMARK SMILES Cc1c(C[NH2+]C[C@@H]2CCCO2)c(C(=O)NCCCNC(=O)c2ccc(-c3c4nc(c(-c5cccc(S(=O)(=O)[O-])c5F)c5ccc([nH]5)c(-c5cccc(S(=O)(=O)[O-])c5F)c5nc(c(-c6cccc(S(=O)(=O)[O-])c6F)c6ccc3[nH]6)C=C5)C=C4)cc2)c(C)n1Cc1ccc(F)cc1
REMARK SMILES IDX 16 1 15 2 13 3 14 4 12 6 1 7 2 8 3 9 87 10 85 11 86 12 4 13
REMARK SMILES IDX 5 14 6 17 7 18 8 19 11 20 9 21 10 22 88 23 89 24 90 25 95 26
REMARK SMILES IDX 91 27 94 28 92 29 93 30 17 31 18 32 19 33 20 34 21 36 22 37
REMARK SMILES IDX 23 38 84 39 24 40 83 41 25 42 26 43 27 44 77 45 28 46 82 47
REMARK SMILES IDX 76 48 78 49 29 50 81 51 75 52 74 53 30 55 62 56 42 57 61 58
REMARK SMILES IDX 43 59 46 60 60 61 79 62 44 63 45 64 59 66 80 67 47 68 31 69
REMARK SMILES IDX 32 70 40 71 33 72 35 73 41 74 34 75 36 76 37 77 38 78 39 79
REMARK SMILES IDX 63 80 64 81 72 82 65 83 67 84 73 85 66 86 68 87 69 88 70 89
REMARK SMILES IDX 71 90 48 91 49 92 57 93 50 94 52 95 58 96 51 97 53 98 54 99
REMARK SMILES IDX 55 100 56 101
REMARK H PARENT 15 5 5 15 5 16 19 35 78 54 46 65
REMARK Flexibility Score: inf
ROOT
ATOM      1  C   UNL A   1      35.194  24.516  25.385  1.00  0.00     0.118 C 
ENDROOT
BRANCH   1   2
ATOM      2  N   UNL A   1      34.818  24.112  24.044  1.00  0.00    -0.352 N 
ATOM      3  C   UNL A   1      33.889  24.438  23.090  1.00  0.00     0.253 C 
ATOM      4  O   UNL A   1      33.990  23.722  22.087  1.00  0.00    -0.269 OA
ATOM      5  H   UNL A   1      35.401  23.386  23.725  1.00  0.00     0.163 HD
BRANCH   3   6
ATOM      6  C   UNL A   1      32.796  25.437  23.198  1.00  0.00     0.069 A 
ATOM      7  C   UNL A   1      29.262  26.473  24.059  1.00  0.00     0.065 C 
ATOM      8  C   UNL A   1      30.703  26.267  23.732  1.00  0.00     0.025 A 
ATOM      9  C   UNL A   1      31.441  25.088  23.650  1.00  0.00     0.040 A 
ATOM     10  N   UNL A   1      31.578  27.304  23.468  1.00  0.00    -0.343 N 
ATOM     11  C   UNL A   1      32.672  26.772  22.791  1.00  0.00     0.028 A 
ATOM     12  C   UNL A   1      33.410  27.580  21.783  1.00  0.00     0.065 C 
BRANCH   9  13
ATOM     13  C   UNL A   1      30.920  23.706  23.980  1.00  0.00     0.300 C 
BRANCH  13  14
ATOM     14  N   UNL A   1      31.608  23.179  25.162  1.00  0.00    -0.340 N 
ATOM     15  H   UNL A   1      31.226  23.629  25.995  1.00  0.00     0.346 HD
ATOM     16  H   UNL A   1      32.604  23.376  25.065  1.00  0.00     0.346 HD
BRANCH  14  17
ATOM     17  C   UNL A   1      31.436  21.721  25.285  1.00  0.00     0.293 C 
BRANCH  17  18
ATOM     18  C   UNL A   1      32.491  20.902  24.512  1.00  0.00     0.173 C 
ATOM     19  C   UNL A   1      32.560  19.442  24.936  1.00  0.00     0.040 C 
ATOM     20  O   UNL A   1      33.821  21.431  24.722  1.00  0.00    -0.372 OA
ATOM     21  C   UNL A   1      33.966  19.075  24.529  1.00  0.00     0.031 C 
ATOM     22  C   UNL A   1      34.724  20.328  24.907  1.00  0.00     0.161 C 
ENDBRANCH  17  18
ENDBRANCH  14  17
ENDBRANCH  13  14
ENDBRANCH   9  13
BRANCH  10  23
ATOM     23  C   UNL A   1      31.274  28.731  23.658  1.00  0.00     0.157 C 
BRANCH  23  24
ATOM     24  C   UNL A   1      31.954  29.377  24.855  1.00  0.00    -0.028 A 
ATOM     25  C   UNL A   1      33.180  28.875  25.330  1.00  0.00     0.008 A 
ATOM     26  C   UNL A   1      31.350  30.415  25.584  1.00  0.00     0.008 A 
ATOM     27  C   UNL A   1      33.776  29.404  26.483  1.00  0.00     0.039 A 
ATOM     28  C   UNL A   1      31.945  30.948  26.731  1.00  0.00     0.039 A 
ATOM     29  C   UNL A   1      33.153  30.436  27.171  1.00  0.00     0.123 A 
ATOM     30  F   UNL A   1      33.718  30.931  28.280  1.00  0.00    -0.207 F 
ENDBRANCH  23  24
ENDBRANCH  10  23
ENDBRANCH   3   6
ENDBRANCH   1   2
BRANCH   1  31
ATOM     31  C   UNL A   1      36.248  23.617  26.040  1.00  0.00     0.042 C 
BRANCH  31  32
ATOM     32  C   UNL A   1      37.543  23.441  25.217  1.00  0.00     0.118 C 
BRANCH  32  33
ATOM     33  N   UNL A   1      38.465  22.467  25.770  1.00  0.00    -0.352 N 
ATOM     34  C   UNL A   1      39.536  22.684  26.625  1.00  0.00     0.251 C 
ATOM     35  H   UNL A   1      38.311  21.531  25.505  1.00  0.00     0.163 HD
ATOM     36  O   UNL A   1      40.266  21.719  26.855  1.00  0.00    -0.269 OA
BRANCH  34  37
ATOM     37  C   UNL A   1      39.904  24.070  27.107  1.00  0.00     0.039 A 
ATOM     38  C   UNL A   1      39.236  24.539  28.223  1.00  0.00     0.014 A 
ATOM     39  C   UNL A   1      40.745  24.996  26.462  1.00  0.00     0.014 A 
ATOM     40  C   UNL A   1      39.477  25.855  28.716  1.00  0.00     0.010 A 
ATOM     41  C   UNL A   1      40.894  26.390  26.911  1.00  0.00     0.010 A 
ATOM     42  C   UNL A   1      40.258  26.890  28.064  1.00  0.00    -0.014 A 
BRANCH  42  43
ATOM     43  C   UNL A   1      39.853  28.447  28.462  1.00  0.00     0.031 A 
ATOM     44  C   UNL A   1      41.197  28.995  28.799  1.00  0.00     0.074 A 
ATOM     45  C   UNL A   1      38.814  29.349  28.762  1.00  0.00     0.049 A 
ATOM     46  N   UNL A   1      41.909  28.348  29.679  1.00  0.00    -0.248 NA
ATOM     47  C   UNL A   1      41.984  29.881  27.937  1.00  0.00     0.031 C 
ATOM     48  C   UNL A   1      37.376  29.068  28.930  1.00  0.00     0.029 A 
ATOM     49  N   UNL A   1      38.782  30.779  29.009  1.00  0.00    -0.354 N 
ATOM     50  C   UNL A   1      43.105  28.987  29.766  1.00  0.00     0.074 A 
ATOM     51  C   UNL A   1      43.190  29.710  28.502  1.00  0.00     0.031 C 
ATOM     52  C   UNL A   1      36.630  30.210  29.061  1.00  0.00     0.029 A 
ATOM     53  C   UNL A   1      37.469  31.412  29.054  1.00  0.00     0.049 A 
ATOM     54  H   UNL A   1      39.609  31.297  29.141  1.00  0.00     0.167 HD
ATOM     55  C   UNL A   1      43.396  29.406  31.032  1.00  0.00     0.034 A 
ATOM     56  C   UNL A   1      37.073  32.757  29.178  1.00  0.00     0.034 A 
ATOM     57  C   UNL A   1      43.162  30.815  31.183  1.00  0.00     0.049 A 
ATOM     58  C   UNL A   1      38.158  33.392  29.933  1.00  0.00     0.074 A 
ATOM     59  C   UNL A   1      43.398  31.897  30.354  1.00  0.00     0.029 A 
ATOM     60  N   UNL A   1      42.163  31.190  32.052  1.00  0.00    -0.354 N 
ATOM     61  N   UNL A   1      38.221  33.284  31.227  1.00  0.00    -0.248 NA
ATOM     62  C   UNL A   1      39.120  34.305  29.330  1.00  0.00     0.031 C 
ATOM     63  C   UNL A   1      42.204  32.643  30.396  1.00  0.00     0.029 A 
ATOM     64  C   UNL A   1      41.504  32.292  31.539  1.00  0.00     0.049 A 
ATOM     65  H   UNL A   1      41.951  30.745  32.904  1.00  0.00     0.167 HD
ATOM     66  C   UNL A   1      39.516  33.611  31.481  1.00  0.00     0.074 A 
ATOM     67  C   UNL A   1      39.912  34.484  30.390  1.00  0.00     0.031 C 
ATOM     68  C   UNL A   1      40.242  32.664  32.121  1.00  0.00     0.034 A 
BRANCH  55  69
ATOM     69  C   UNL A   1      43.142  28.334  32.083  1.00  0.00     0.023 A 
ATOM     70  C   UNL A   1      42.194  28.637  33.074  1.00  0.00     0.012 A 
ATOM     71  C   UNL A   1      43.971  27.190  32.266  1.00  0.00     0.148 A 
ATOM     72  C   UNL A   1      42.114  27.870  34.240  1.00  0.00     0.002 A 
ATOM     73  C   UNL A   1      43.967  26.506  33.478  1.00  0.00     0.091 A 
ATOM     74  F   UNL A   1      44.773  26.798  31.263  1.00  0.00    -0.205 F 
ATOM     75  C   UNL A   1      43.024  26.836  34.461  1.00  0.00     0.022 A 
BRANCH  73  76
ATOM     76  S   UNL A   1      45.273  25.351  33.953  1.00  0.00     0.127 S 
ATOM     77  O   UNL A   1      46.486  26.160  33.801  1.00  0.00    -0.237 OA
ATOM     78  O   UNL A   1      44.939  25.024  35.328  1.00  0.00    -0.237 OA
ATOM     79  O   UNL A   1      45.203  24.234  33.003  1.00  0.00    -0.744 OA
ENDBRANCH  73  76
ENDBRANCH  55  69
BRANCH  56  80
ATOM     80  C   UNL A   1      35.902  33.835  29.108  1.00  0.00     0.023 A 
ATOM     81  C   UNL A   1      35.043  33.847  27.941  1.00  0.00     0.012 A 
ATOM     82  C   UNL A   1      35.331  34.469  30.234  1.00  0.00     0.148 A 
ATOM     83  C   UNL A   1      33.709  34.305  27.924  1.00  0.00     0.002 A 
ATOM     84  C   UNL A   1      33.991  34.963  30.204  1.00  0.00     0.091 A 
ATOM     85  F   UNL A   1      36.045  34.511  31.365  1.00  0.00    -0.205 F 
ATOM     86  C   UNL A   1      33.175  34.850  29.067  1.00  0.00     0.022 A 
BRANCH  84  87
ATOM     87  S   UNL A   1      33.155  35.690  31.635  1.00  0.00     0.127 S 
ATOM     88  O   UNL A   1      34.203  36.520  32.236  1.00  0.00    -0.237 OA
ATOM     89  O   UNL A   1      32.079  36.450  30.999  1.00  0.00    -0.237 OA
ATOM     90  O   UNL A   1      32.739  34.561  32.453  1.00  0.00    -0.744 OA
ENDBRANCH  84  87
ENDBRANCH  56  80
BRANCH  68  91
ATOM     91  C   UNL A   1      39.587  31.929  33.271  1.00  0.00     0.023 A 
ATOM     92  C   UNL A   1      38.959  30.665  33.189  1.00  0.00     0.012 A 
ATOM     93  C   UNL A   1      39.601  32.569  34.519  1.00  0.00     0.148 A 
ATOM     94  C   UNL A   1      38.344  30.083  34.304  1.00  0.00     0.002 A 
ATOM     95  C   UNL A   1      39.046  31.965  35.640  1.00  0.00     0.091 A 
ATOM     96  F   UNL A   1      40.158  33.789  34.593  1.00  0.00    -0.205 F 
ATOM     97  C   UNL A   1      38.403  30.726  35.538  1.00  0.00     0.022 A 
BRANCH  95  98
ATOM     98  S   UNL A   1      39.184  32.756  37.240  1.00  0.00     0.127 S 
ATOM     99  O   UNL A   1      38.559  31.769  38.119  1.00  0.00    -0.237 OA
ATOM    100  O   UNL A   1      40.625  32.906  37.420  1.00  0.00    -0.237 OA
ATOM    101  O   UNL A   1      38.461  34.018  37.103  1.00  0.00    -0.744 OA
ENDBRANCH  95  98
ENDBRANCH  68  91
ENDBRANCH  42  43
ENDBRANCH  34  37
ENDBRANCH  32  33
ENDBRANCH  31  32
ENDBRANCH   1  31
TORSDOF 19
ENDMDL
MODEL 2
REMARK VINA RESULT:     -12.3      1.380      2.121
REMARK SMILES Cc1c(C[NH2+]C[C@@H]2CCCO2)c(C(=O)NCCCNC(=O)c2ccc(-c3c4nc(c(-c5cccc(S(=O)(=O)[O-])c5F)c5ccc([nH]5)c(-c5cccc(S(=O)(=O)[O-])c5F)c5nc(c(-c6cccc(S(=O)(=O)[O-])c6F)c6ccc3[nH]6)C=C5)C=C4)cc2)c(C)n1Cc1ccc(F)cc1
REMARK SMILES IDX 16 1 15 2 13 3 14 4 12 6 1 7 2 8 3 9 87 10 85 11 86 12 4 13
REMARK SMILES IDX 5 14 6 17 7 18 8 19 11 20 9 21 10 22 88 23 89 24 90 25 95 26
REMARK SMILES IDX 91 27 94 28 92 29 93 30 17 31 18 32 19 33 20 34 21 36 22 37
REMARK SMILES IDX 23 38 84 39 24 40 83 41 25 42 26 43 27 44 77 45 28 46 82 47
REMARK SMILES IDX 76 48 78 49 29 50 81 51 75 52 74 53 30 55 62 56 42 57 61 58
REMARK SMILES IDX 43 59 46 60 60 61 79 62 44 63 45 64 59 66 80 67 47 68 31 69
REMARK SMILES IDX 32 70 40 71 33 72 35 73 41 74 34 75 36 76 37 77 38 78 39 79
REMARK SMILES IDX 63 80 64 81 72 82 65 83 67 84 73 85 66 86 68 87 69 88 70 89
REMARK SMILES IDX 71 90 48 91 49 92 57 93 50 94 52 95 58 96 51 97 53 98 54 99
REMARK SMILES IDX 55 100 56 101
REMARK H PARENT 15 5 5 15 5 16 19 35 78 54 46 65
REMARK Flexibility Score: inf
ROOT
ATOM      1  C   UNL A   1      35.494  21.808  24.721  1.00  0.00     0.118 C 
ENDROOT
BRANCH   1   2
ATOM      2  N   UNL A   1      34.297  22.191  25.444  1.00  0.00    -0.352 N 
ATOM      3  C   UNL A   1      33.303  23.133  25.370  1.00  0.00     0.253 C 
ATOM      4  O   UNL A   1      32.504  23.031  26.308  1.00  0.00    -0.269 OA
ATOM      5  H   UNL A   1      34.158  21.601  26.219  1.00  0.00     0.163 HD
BRANCH   3   6
ATOM      6  C   UNL A   1      33.178  24.238  24.386  1.00  0.00     0.069 A 
ATOM      7  C   UNL A   1      32.686  25.582  20.885  1.00  0.00     0.065 C 
ATOM      8  C   UNL A   1      32.822  25.241  22.331  1.00  0.00     0.025 A 
ATOM      9  C   UNL A   1      33.011  24.004  22.944  1.00  0.00     0.040 A 
ATOM     10  N   UNL A   1      32.751  26.180  23.343  1.00  0.00    -0.343 N 
ATOM     11  C   UNL A   1      33.341  25.626  24.476  1.00  0.00     0.028 A 
ATOM     12  C   UNL A   1      34.055  26.485  25.459  1.00  0.00     0.065 C 
BRANCH   9  13
ATOM     13  C   UNL A   1      33.029  22.669  22.231  1.00  0.00     0.300 C 
BRANCH  13  14
ATOM     14  N   UNL A   1      31.701  22.053  22.285  1.00  0.00    -0.340 N 
ATOM     15  H   UNL A   1      31.130  22.430  21.526  1.00  0.00     0.346 HD
ATOM     16  H   UNL A   1      31.288  22.265  23.192  1.00  0.00     0.346 HD
BRANCH  14  17
ATOM     17  C   UNL A   1      31.776  20.588  22.143  1.00  0.00     0.293 C 
BRANCH  17  18
ATOM     18  C   UNL A   1      32.703  19.910  23.172  1.00  0.00     0.173 C 
ATOM     19  C   UNL A   1      32.841  18.408  22.972  1.00  0.00     0.040 C 
ATOM     20  O   UNL A   1      32.203  20.078  24.519  1.00  0.00    -0.372 OA
ATOM     21  C   UNL A   1      33.235  17.953  24.356  1.00  0.00     0.031 C 
ATOM     22  C   UNL A   1      32.361  18.834  25.221  1.00  0.00     0.161 C 
ENDBRANCH  17  18
ENDBRANCH  14  17
ENDBRANCH  13  14
ENDBRANCH   9  13
BRANCH  10  23
ATOM     23  C   UNL A   1      32.344  27.583  23.163  1.00  0.00     0.157 C 
BRANCH  23  24
ATOM     24  C   UNL A   1      30.845  27.828  23.221  1.00  0.00    -0.028 A 
ATOM     25  C   UNL A   1      29.986  26.847  23.750  1.00  0.00     0.008 A 
ATOM     26  C   UNL A   1      30.257  28.979  22.669  1.00  0.00     0.008 A 
ATOM     27  C   UNL A   1      28.596  27.022  23.731  1.00  0.00     0.039 A 
ATOM     28  C   UNL A   1      28.871  29.158  22.654  1.00  0.00     0.039 A 
ATOM     29  C   UNL A   1      28.052  28.176  23.185  1.00  0.00     0.123 A 
ATOM     30  F   UNL A   1      26.723  28.336  23.156  1.00  0.00    -0.207 F 
ENDBRANCH  23  24
ENDBRANCH  10  23
ENDBRANCH   3   6
ENDBRANCH   1   2
BRANCH   1  31
ATOM     31  C   UNL A   1      36.365  22.988  24.276  1.00  0.00     0.042 C 
BRANCH  31  32
ATOM     32  C   UNL A   1      37.347  23.504  25.351  1.00  0.00     0.118 C 
BRANCH  32  33
ATOM     33  N   UNL A   1      38.366  22.542  25.727  1.00  0.00    -0.352 N 
ATOM     34  C   UNL A   1      39.515  22.754  26.475  1.00  0.00     0.251 C 
ATOM     35  H   UNL A   1      38.225  21.620  25.410  1.00  0.00     0.163 HD
ATOM     36  O   UNL A   1      40.308  21.814  26.552  1.00  0.00    -0.269 OA
BRANCH  34  37
ATOM     37  C   UNL A   1      39.873  24.120  27.018  1.00  0.00     0.039 A 
ATOM     38  C   UNL A   1      39.117  24.587  28.076  1.00  0.00     0.014 A 
ATOM     39  C   UNL A   1      40.796  25.033  26.474  1.00  0.00     0.014 A 
ATOM     40  C   UNL A   1      39.345  25.887  28.617  1.00  0.00     0.010 A 
ATOM     41  C   UNL A   1      40.940  26.414  26.963  1.00  0.00     0.010 A 
ATOM     42  C   UNL A   1      40.212  26.910  28.062  1.00  0.00    -0.014 A 
BRANCH  42  43
ATOM     43  C   UNL A   1      39.813  28.471  28.453  1.00  0.00     0.031 A 
ATOM     44  C   UNL A   1      41.165  29.028  28.741  1.00  0.00     0.074 A 
ATOM     45  C   UNL A   1      38.781  29.373  28.772  1.00  0.00     0.049 A 
ATOM     46  N   UNL A   1      41.905  28.394  29.608  1.00  0.00    -0.248 NA
ATOM     47  C   UNL A   1      41.923  29.905  27.846  1.00  0.00     0.031 C 
ATOM     48  C   UNL A   1      37.350  29.090  28.988  1.00  0.00     0.029 A 
ATOM     49  N   UNL A   1      38.751  30.806  29.002  1.00  0.00    -0.354 N 
ATOM     50  C   UNL A   1      43.101  29.038  29.651  1.00  0.00     0.074 A 
ATOM     51  C   UNL A   1      43.145  29.746  28.375  1.00  0.00     0.031 C 
ATOM     52  C   UNL A   1      36.603  30.231  29.127  1.00  0.00     0.029 A 
ATOM     53  C   UNL A   1      37.437  31.436  29.079  1.00  0.00     0.049 A 
ATOM     54  H   UNL A   1      39.580  31.329  29.103  1.00  0.00     0.167 HD
ATOM     55  C   UNL A   1      43.429  29.474  30.901  1.00  0.00     0.034 A 
ATOM     56  C   UNL A   1      37.040  32.780  29.199  1.00  0.00     0.034 A 
ATOM     57  C   UNL A   1      43.194  30.884  31.042  1.00  0.00     0.049 A 
ATOM     58  C   UNL A   1      38.145  33.428  29.912  1.00  0.00     0.074 A 
ATOM     59  C   UNL A   1      43.401  31.956  30.193  1.00  0.00     0.029 A 
ATOM     60  N   UNL A   1      42.220  31.267  31.936  1.00  0.00    -0.354 N 
ATOM     61  N   UNL A   1      38.248  33.338  31.205  1.00  0.00    -0.248 NA
ATOM     62  C   UNL A   1      39.086  34.337  29.269  1.00  0.00     0.031 C 
ATOM     63  C   UNL A   1      42.206  32.699  30.261  1.00  0.00     0.029 A 
ATOM     64  C   UNL A   1      41.543  32.360  31.430  1.00  0.00     0.049 A 
ATOM     65  H   UNL A   1      42.036  30.832  32.800  1.00  0.00     0.167 HD
ATOM     66  C   UNL A   1      39.549  33.672  31.415  1.00  0.00     0.074 A 
ATOM     67  C   UNL A   1      39.908  34.532  30.302  1.00  0.00     0.031 C 
ATOM     68  C   UNL A   1      40.297  32.735  32.045  1.00  0.00     0.034 A 
BRANCH  55  69
ATOM     69  C   UNL A   1      43.211  28.415  31.973  1.00  0.00     0.023 A 
ATOM     70  C   UNL A   1      42.130  28.617  32.847  1.00  0.00     0.012 A 
ATOM     71  C   UNL A   1      44.162  27.405  32.296  1.00  0.00     0.148 A 
ATOM     72  C   UNL A   1      42.029  27.888  34.035  1.00  0.00     0.002 A 
ATOM     73  C   UNL A   1      44.121  26.770  33.533  1.00  0.00     0.091 A 
ATOM     74  F   UNL A   1      45.113  27.093  31.400  1.00  0.00    -0.205 F 
ATOM     75  C   UNL A   1      43.042  26.999  34.398  1.00  0.00     0.022 A 
BRANCH  73  76
ATOM     76  S   UNL A   1      45.513  25.826  34.195  1.00  0.00     0.127 S 
ATOM     77  O   UNL A   1      46.590  26.820  34.222  1.00  0.00    -0.237 OA
ATOM     78  O   UNL A   1      45.040  25.418  35.506  1.00  0.00    -0.237 OA
ATOM     79  O   UNL A   1      45.761  24.734  33.245  1.00  0.00    -0.744 OA
ENDBRANCH  73  76
ENDBRANCH  55  69
BRANCH  56  80
ATOM     80  C   UNL A   1      35.864  33.853  29.151  1.00  0.00     0.023 A 
ATOM     81  C   UNL A   1      34.974  33.852  28.006  1.00  0.00     0.012 A 
ATOM     82  C   UNL A   1      35.321  34.496  30.286  1.00  0.00     0.148 A 
ATOM     83  C   UNL A   1      33.638  34.305  28.021  1.00  0.00     0.002 A 
ATOM     84  C   UNL A   1      33.978  34.984  30.288  1.00  0.00     0.091 A 
ATOM     85  F   UNL A   1      36.064  34.550  31.397  1.00  0.00    -0.205 F 
ATOM     86  C   UNL A   1      33.132  34.859  29.174  1.00  0.00     0.022 A 
BRANCH  84  87
ATOM     87  S   UNL A   1      33.178  35.721  31.734  1.00  0.00     0.127 S 
ATOM     88  O   UNL A   1      32.078  36.486  31.142  1.00  0.00    -0.237 OA
ATOM     89  O   UNL A   1      32.751  34.535  32.477  1.00  0.00    -0.237 OA
ATOM     90  O   UNL A   1      34.204  36.534  32.369  1.00  0.00    -0.744 OA
ENDBRANCH  84  87
ENDBRANCH  56  80
BRANCH  68  91
ATOM     91  C   UNL A   1      39.680  32.013  33.224  1.00  0.00     0.023 A 
ATOM     92  C   UNL A   1      39.167  30.696  33.205  1.00  0.00     0.012 A 
ATOM     93  C   UNL A   1      39.607  32.723  34.431  1.00  0.00     0.148 A 
ATOM     94  C   UNL A   1      38.577  30.127  34.340  1.00  0.00     0.002 A 
ATOM     95  C   UNL A   1      39.079  32.137  35.575  1.00  0.00     0.091 A 
ATOM     96  F   UNL A   1      40.054  33.989  34.443  1.00  0.00    -0.205 F 
ATOM     97  C   UNL A   1      38.549  30.842  35.533  1.00  0.00     0.022 A 
BRANCH  95  98
ATOM     98  S   UNL A   1      39.107  33.028  37.127  1.00  0.00     0.127 S 
ATOM     99  O   UNL A   1      37.936  33.893  37.000  1.00  0.00    -0.237 OA
ATOM    100  O   UNL A   1      38.978  31.971  38.126  1.00  0.00    -0.237 OA
ATOM    101  O   UNL A   1      40.395  33.717  37.146  1.00  0.00    -0.744 OA
ENDBRANCH  95  98
ENDBRANCH  68  91
ENDBRANCH  42  43
ENDBRANCH  34  37
ENDBRANCH  32  33
ENDBRANCH  31  32
ENDBRANCH   1  31
TORSDOF 19
ENDMDL
MODEL 3
REMARK VINA RESULT:     -11.7      1.673      2.608
REMARK SMILES Cc1c(C[NH2+]C[C@@H]2CCCO2)c(C(=O)NCCCNC(=O)c2ccc(-c3c4nc(c(-c5cccc(S(=O)(=O)[O-])c5F)c5ccc([nH]5)c(-c5cccc(S(=O)(=O)[O-])c5F)c5nc(c(-c6cccc(S(=O)(=O)[O-])c6F)c6ccc3[nH]6)C=C5)C=C4)cc2)c(C)n1Cc1ccc(F)cc1
REMARK SMILES IDX 16 1 15 2 13 3 14 4 12 6 1 7 2 8 3 9 87 10 85 11 86 12 4 13
REMARK SMILES IDX 5 14 6 17 7 18 8 19 11 20 9 21 10 22 88 23 89 24 90 25 95 26
REMARK SMILES IDX 91 27 94 28 92 29 93 30 17 31 18 32 19 33 20 34 21 36 22 37
REMARK SMILES IDX 23 38 84 39 24 40 83 41 25 42 26 43 27 44 77 45 28 46 82 47
REMARK SMILES IDX 76 48 78 49 29 50 81 51 75 52 74 53 30 55 62 56 42 57 61 58
REMARK SMILES IDX 43 59 46 60 60 61 79 62 44 63 45 64 59 66 80 67 47 68 31 69
REMARK SMILES IDX 32 70 40 71 33 72 35 73 41 74 34 75 36 76 37 77 38 78 39 79
REMARK SMILES IDX 63 80 64 81 72 82 65 83 67 84 73 85 66 86 68 87 69 88 70 89
REMARK SMILES IDX 71 90 48 91 49 92 57 93 50 94 52 95 58 96 51 97 53 98 54 99
REMARK SMILES IDX 55 100 56 101
REMARK H PARENT 15 5 5 15 5 16 19 35 78 54 46 65
REMARK Flexibility Score: inf
ROOT
ATOM      1  C   UNL A   1      37.453  21.131  25.673  1.00  0.00     0.118 C 
ENDROOT
BRANCH   1   2
ATOM      2  N   UNL A   1      36.267  21.480  26.430  1.00  0.00    -0.352 N 
ATOM      3  C   UNL A   1      34.968  21.853  26.201  1.00  0.00     0.253 C 
ATOM      4  O   UNL A   1      34.362  22.079  27.255  1.00  0.00    -0.269 OA
ATOM      5  H   UNL A   1      36.450  21.439  27.396  1.00  0.00     0.163 HD
BRANCH   3   6
ATOM      6  C   UNL A   1      34.313  22.084  24.889  1.00  0.00     0.069 A 
ATOM      7  C   UNL A   1      31.543  21.536  22.371  1.00  0.00     0.065 C 
ATOM      8  C   UNL A   1      32.679  21.925  23.257  1.00  0.00     0.025 A 
ATOM      9  C   UNL A   1      33.070  21.407  24.489  1.00  0.00     0.040 A 
ATOM     10  N   UNL A   1      33.556  22.951  22.960  1.00  0.00    -0.343 N 
ATOM     11  C   UNL A   1      34.704  22.762  23.727  1.00  0.00     0.028 A 
ATOM     12  C   UNL A   1      36.037  23.180  23.217  1.00  0.00     0.065 C 
BRANCH   9  13
ATOM     13  C   UNL A   1      32.325  20.342  25.265  1.00  0.00     0.300 C 
BRANCH  13  14
ATOM     14  N   UNL A   1      33.276  19.437  25.916  1.00  0.00    -0.340 N 
ATOM     15  H   UNL A   1      33.482  19.791  26.852  1.00  0.00     0.346 HD
ATOM     16  H   UNL A   1      34.120  19.398  25.346  1.00  0.00     0.346 HD
BRANCH  14  17
ATOM     17  C   UNL A   1      32.735  18.071  26.031  1.00  0.00     0.293 C 
BRANCH  17  18
ATOM     18  C   UNL A   1      32.825  17.254  24.726  1.00  0.00     0.173 C 
ATOM     19  C   UNL A   1      34.253  16.987  24.271  1.00  0.00     0.040 C 
ATOM     20  O   UNL A   1      32.191  17.950  23.628  1.00  0.00    -0.372 OA
ATOM     21  C   UNL A   1      34.063  16.763  22.792  1.00  0.00     0.031 C 
ATOM     22  C   UNL A   1      33.021  17.808  22.462  1.00  0.00     0.161 C 
ENDBRANCH  17  18
ENDBRANCH  14  17
ENDBRANCH  13  14
ENDBRANCH   9  13
BRANCH  10  23
ATOM     23  C   UNL A   1      33.386  23.912  21.859  1.00  0.00     0.157 C 
BRANCH  23  24
ATOM     24  C   UNL A   1      32.871  25.281  22.276  1.00  0.00    -0.028 A 
ATOM     25  C   UNL A   1      33.382  25.911  23.426  1.00  0.00     0.008 A 
ATOM     26  C   UNL A   1      31.814  25.915  21.601  1.00  0.00     0.008 A 
ATOM     27  C   UNL A   1      32.856  27.131  23.871  1.00  0.00     0.039 A 
ATOM     28  C   UNL A   1      31.292  27.135  22.040  1.00  0.00     0.039 A 
ATOM     29  C   UNL A   1      31.818  27.732  23.173  1.00  0.00     0.123 A 
ATOM     30  F   UNL A   1      31.309  28.892  23.608  1.00  0.00    -0.207 F 
ENDBRANCH  23  24
ENDBRANCH  10  23
ENDBRANCH   3   6
ENDBRANCH   1   2
BRANCH   1  31
ATOM     31  C   UNL A   1      38.615  22.116  25.834  1.00  0.00     0.042 C 
BRANCH  31  32
ATOM     32  C   UNL A   1      39.873  21.522  26.505  1.00  0.00     0.118 C 
BRANCH  32  33
ATOM     33  N   UNL A   1      41.122  22.029  25.969  1.00  0.00    -0.352 N 
ATOM     34  C   UNL A   1      41.687  23.284  26.145  1.00  0.00     0.251 C 
ATOM     35  H   UNL A   1      41.634  21.403  25.408  1.00  0.00     0.163 HD
ATOM     36  O   UNL A   1      42.692  23.538  25.479  1.00  0.00    -0.269 OA
BRANCH  34  37
ATOM     37  C   UNL A   1      41.009  24.356  26.970  1.00  0.00     0.039 A 
ATOM     38  C   UNL A   1      40.227  25.268  26.284  1.00  0.00     0.014 A 
ATOM     39  C   UNL A   1      41.200  24.620  28.339  1.00  0.00     0.014 A 
ATOM     40  C   UNL A   1      39.595  26.346  26.970  1.00  0.00     0.010 A 
ATOM     41  C   UNL A   1      40.640  25.803  29.012  1.00  0.00     0.010 A 
ATOM     42  C   UNL A   1      39.809  26.731  28.353  1.00  0.00    -0.014 A 
BRANCH  42  43
ATOM     43  C   UNL A   1      39.508  28.322  28.705  1.00  0.00     0.031 A 
ATOM     44  C   UNL A   1      40.896  28.811  28.938  1.00  0.00     0.074 A 
ATOM     45  C   UNL A   1      38.536  29.290  29.024  1.00  0.00     0.049 A 
ATOM     46  N   UNL A   1      41.626  28.164  29.804  1.00  0.00    -0.248 NA
ATOM     47  C   UNL A   1      41.674  29.618  27.995  1.00  0.00     0.031 C 
ATOM     48  C   UNL A   1      37.099  29.093  29.288  1.00  0.00     0.029 A 
ATOM     49  N   UNL A   1      38.592  30.728  29.209  1.00  0.00    -0.354 N 
ATOM     50  C   UNL A   1      42.856  28.742  29.793  1.00  0.00     0.074 A 
ATOM     51  C   UNL A   1      42.901  29.407  28.495  1.00  0.00     0.031 C 
ATOM     52  C   UNL A   1      36.420  30.277  29.412  1.00  0.00     0.029 A 
ATOM     53  C   UNL A   1      37.317  31.432  29.303  1.00  0.00     0.049 A 
ATOM     54  H   UNL A   1      39.450  31.207  29.271  1.00  0.00     0.167 HD
ATOM     55  C   UNL A   1      43.243  29.196  31.020  1.00  0.00     0.034 A 
ATOM     56  C   UNL A   1      36.998  32.800  29.391  1.00  0.00     0.034 A 
ATOM     57  C   UNL A   1      43.091  30.620  31.123  1.00  0.00     0.049 A 
ATOM     58  C   UNL A   1      38.157  33.407  30.053  1.00  0.00     0.074 A 
ATOM     59  C   UNL A   1      43.331  31.653  30.234  1.00  0.00     0.029 A 
ATOM     60  N   UNL A   1      42.166  31.084  32.030  1.00  0.00    -0.354 N 
ATOM     61  N   UNL A   1      38.293  33.349  31.344  1.00  0.00    -0.248 NA
ATOM     62  C   UNL A   1      39.127  34.241  29.356  1.00  0.00     0.031 C 
ATOM     63  C   UNL A   1      42.181  32.463  30.312  1.00  0.00     0.029 A 
ATOM     64  C   UNL A   1      41.534  32.197  31.509  1.00  0.00     0.049 A 
ATOM     65  H   UNL A   1      41.983  30.685  32.912  1.00  0.00     0.167 HD
ATOM     66  C   UNL A   1      39.615  33.617  31.508  1.00  0.00     0.074 A 
ATOM     67  C   UNL A   1      39.988  34.422  30.358  1.00  0.00     0.031 C 
ATOM     68  C   UNL A   1      40.330  32.659  32.146  1.00  0.00     0.034 A 
BRANCH  55  69
ATOM     69  C   UNL A   1      42.999  28.183  32.130  1.00  0.00     0.023 A 
ATOM     70  C   UNL A   1      41.933  28.452  33.005  1.00  0.00     0.012 A 
ATOM     71  C   UNL A   1      43.919  27.153  32.481  1.00  0.00     0.148 A 
ATOM     72  C   UNL A   1      41.819  27.769  34.219  1.00  0.00     0.002 A 
ATOM     73  C   UNL A   1      43.867  26.563  33.741  1.00  0.00     0.091 A 
ATOM     74  F   UNL A   1      44.850  26.778  31.589  1.00  0.00    -0.205 F 
ATOM     75  C   UNL A   1      42.804  26.860  34.605  1.00  0.00     0.022 A 
BRANCH  73  76
ATOM     76  S   UNL A   1      45.232  25.597  34.424  1.00  0.00     0.127 S 
ATOM     77  O   UNL A   1      46.253  26.618  34.676  1.00  0.00    -0.237 OA
ATOM     78  O   UNL A   1      44.654  25.016  35.624  1.00  0.00    -0.237 OA
ATOM     79  O   UNL A   1      45.622  24.638  33.383  1.00  0.00    -0.744 OA
ENDBRANCH  73  76
ENDBRANCH  55  69
BRANCH  56  80
ATOM     80  C   UNL A   1      35.881  33.935  29.342  1.00  0.00     0.023 A 
ATOM     81  C   UNL A   1      35.097  34.080  28.131  1.00  0.00     0.012 A 
ATOM     82  C   UNL A   1      35.270  34.505  30.481  1.00  0.00     0.148 A 
ATOM     83  C   UNL A   1      33.787  34.601  28.074  1.00  0.00     0.002 A 
ATOM     84  C   UNL A   1      33.957  35.063  30.413  1.00  0.00     0.091 A 
ATOM     85  F   UNL A   1      35.914  34.423  31.650  1.00  0.00    -0.205 F 
ATOM     86  C   UNL A   1      33.208  35.080  29.226  1.00  0.00     0.022 A 
BRANCH  84  87
ATOM     87  S   UNL A   1      33.066  35.714  31.848  1.00  0.00     0.127 S 
ATOM     88  O   UNL A   1      34.045  36.621  32.454  1.00  0.00    -0.237 OA
ATOM     89  O   UNL A   1      31.933  36.390  31.216  1.00  0.00    -0.237 OA
ATOM     90  O   UNL A   1      32.742  34.551  32.660  1.00  0.00    -0.744 OA
ENDBRANCH  84  87
ENDBRANCH  56  80
BRANCH  68  91
ATOM     91  C   UNL A   1      39.709  32.007  33.364  1.00  0.00     0.023 A 
ATOM     92  C   UNL A   1      39.018  30.775  33.375  1.00  0.00     0.012 A 
ATOM     93  C   UNL A   1      39.826  32.699  34.578  1.00  0.00     0.148 A 
ATOM     94  C   UNL A   1      38.442  30.273  34.548  1.00  0.00     0.002 A 
ATOM     95  C   UNL A   1      39.309  32.172  35.755  1.00  0.00     0.091 A 
ATOM     96  F   UNL A   1      40.444  33.891  34.565  1.00  0.00    -0.205 F 
ATOM     97  C   UNL A   1      38.603  30.963  35.745  1.00  0.00     0.022 A 
BRANCH  95  98
ATOM     98  S   UNL A   1      39.578  33.023  37.307  1.00  0.00     0.127 S 
ATOM     99  O   UNL A   1      41.037  33.055  37.384  1.00  0.00    -0.237 OA
ATOM    100  O   UNL A   1      38.949  34.322  37.093  1.00  0.00    -0.237 OA
ATOM    101  O   UNL A   1      38.916  32.195  38.313  1.00  0.00    -0.744 OA
ENDBRANCH  95  98
ENDBRANCH  68  91
ENDBRANCH  42  43
ENDBRANCH  34  37
ENDBRANCH  32  33
ENDBRANCH  31  32
ENDBRANCH   1  31
TORSDOF 19
ENDMDL
