MODEL 1
REMARK VINA RESULT:     -10.4      0.000      0.000
REMARK SMILES O=C(NCCCNC(=O)[C@H]1CCc2[nH]nc(C(F)(F)F)c2C1)c1ccc(-c2c3nc(c(-c4cccc(S(=O)(=O)[O-])c4F)c4ccc([nH]4)c(-c4cccc(S(=O)(=O)[O-])c4F)c4nc(c(-c5cccc(S(=O)(=O)[O-])c5F)c5ccc2[nH]5)C=C4)C=C3)cc1
REMARK SMILES IDX 4 1 3 2 1 3 2 4 23 6 24 7 85 8 25 9 84 10 26 11 27 12 28 13
REMARK SMILES IDX 78 14 29 15 83 16 77 17 79 18 30 19 82 20 76 21 75 22 31 24
REMARK SMILES IDX 63 25 43 26 62 27 44 28 47 29 61 30 80 31 45 32 46 33 60 35
REMARK SMILES IDX 81 36 48 37 32 38 33 39 41 40 34 41 36 42 42 43 35 44 37 45
REMARK SMILES IDX 38 46 39 47 40 48 64 49 65 50 73 51 66 52 68 53 74 54 67 55
REMARK SMILES IDX 69 56 70 57 71 58 72 59 49 60 50 61 58 62 51 63 53 64 59 65
REMARK SMILES IDX 52 66 54 67 55 68 56 69 57 70 5 71 6 72 7 73 8 74 9 76 10 77
REMARK SMILES IDX 11 78 22 79 12 80 21 81 13 82 16 83 14 84 15 85 17 87 18 88
REMARK SMILES IDX 19 89 20 90
REMARK H PARENT 3 5 79 23 47 34 7 75 14 86
REMARK Flexibility Score: inf
ROOT
ATOM      1  C   UNL A   1      35.231  33.320  28.001  1.00  0.00     0.118 C 
ENDROOT
BRANCH   1   2
ATOM      2  N   UNL A   1      34.314  32.236  27.679  1.00  0.00    -0.352 N 
ATOM      3  O   UNL A   1      33.687  30.149  27.131  1.00  0.00    -0.269 OA
ATOM      4  C   UNL A   1      34.540  30.883  27.623  1.00  0.00     0.251 C 
ATOM      5  H   UNL A   1      33.393  32.515  27.469  1.00  0.00     0.163 HD
BRANCH   4   6
ATOM      6  C   UNL A   1      35.809  30.323  28.135  1.00  0.00     0.039 A 
ATOM      7  C   UNL A   1      35.859  29.705  29.386  1.00  0.00     0.014 A 
ATOM      8  C   UNL A   1      36.959  30.400  27.344  1.00  0.00     0.014 A 
ATOM      9  C   UNL A   1      37.082  29.296  29.906  1.00  0.00     0.010 A 
ATOM     10  C   UNL A   1      38.172  29.907  27.834  1.00  0.00     0.010 A 
ATOM     11  C   UNL A   1      38.250  29.380  29.131  1.00  0.00    -0.014 A 
BRANCH  11  12
ATOM     12  C   UNL A   1      39.522  28.842  29.679  1.00  0.00     0.031 A 
ATOM     13  C   UNL A   1      40.138  29.406  30.929  1.00  0.00     0.074 A 
ATOM     14  C   UNL A   1      40.113  27.815  29.037  1.00  0.00     0.049 A 
ATOM     15  N   UNL A   1      41.218  29.020  31.558  1.00  0.00    -0.248 NA
ATOM     16  C   UNL A   1      39.463  30.556  31.554  1.00  0.00     0.031 C 
ATOM     17  C   UNL A   1      39.633  27.218  27.786  1.00  0.00     0.029 A 
ATOM     18  N   UNL A   1      41.235  27.088  29.341  1.00  0.00    -0.354 N 
ATOM     19  C   UNL A   1      41.371  29.887  32.632  1.00  0.00     0.074 A 
ATOM     20  C   UNL A   1      40.279  30.836  32.562  1.00  0.00     0.031 C 
ATOM     21  C   UNL A   1      40.439  26.203  27.446  1.00  0.00     0.029 A 
ATOM     22  C   UNL A   1      41.517  26.103  28.423  1.00  0.00     0.049 A 
ATOM     23  H   UNL A   1      41.787  27.256  30.139  1.00  0.00     0.167 HD
ATOM     24  C   UNL A   1      42.318  29.879  33.601  1.00  0.00     0.034 A 
ATOM     25  C   UNL A   1      42.534  25.224  28.366  1.00  0.00     0.034 A 
ATOM     26  C   UNL A   1      43.386  28.916  33.680  1.00  0.00     0.049 A 
ATOM     27  C   UNL A   1      43.553  25.223  29.469  1.00  0.00     0.074 A 
ATOM     28  C   UNL A   1      44.374  28.803  34.643  1.00  0.00     0.029 A 
ATOM     29  N   UNL A   1      43.605  27.899  32.763  1.00  0.00    -0.354 N 
ATOM     30  N   UNL A   1      43.608  25.976  30.540  1.00  0.00    -0.248 NA
ATOM     31  C   UNL A   1      44.633  24.232  29.372  1.00  0.00     0.031 C 
ATOM     32  C   UNL A   1      45.197  27.723  34.302  1.00  0.00     0.029 A 
ATOM     33  C   UNL A   1      44.712  27.154  33.136  1.00  0.00     0.049 A 
ATOM     34  H   UNL A   1      43.056  27.731  31.964  1.00  0.00     0.167 HD
ATOM     35  C   UNL A   1      44.713  25.538  31.256  1.00  0.00     0.074 A 
ATOM     36  C   UNL A   1      45.278  24.428  30.513  1.00  0.00     0.031 C 
ATOM     37  C   UNL A   1      45.231  26.022  32.412  1.00  0.00     0.034 A 
BRANCH  24  38
ATOM     38  C   UNL A   1      42.217  30.913  34.693  1.00  0.00     0.023 A 
ATOM     39  C   UNL A   1      41.601  30.567  35.913  1.00  0.00     0.012 A 
ATOM     40  C   UNL A   1      42.792  32.192  34.547  1.00  0.00     0.148 A 
ATOM     41  C   UNL A   1      41.537  31.484  36.963  1.00  0.00     0.002 A 
ATOM     42  C   UNL A   1      42.756  33.087  35.613  1.00  0.00     0.091 A 
ATOM     43  F   UNL A   1      43.356  32.510  33.374  1.00  0.00    -0.205 F 
ATOM     44  C   UNL A   1      42.124  32.738  36.817  1.00  0.00     0.022 A 
BRANCH  42  45
ATOM     45  S   UNL A   1      43.544  34.701  35.549  1.00  0.00     0.127 S 
ATOM     46  O   UNL A   1      42.791  35.354  34.479  1.00  0.00    -0.237 OA
ATOM     47  O   UNL A   1      43.278  35.229  36.889  1.00  0.00    -0.237 OA
ATOM     48  O   UNL A   1      44.950  34.451  35.265  1.00  0.00    -0.744 OA
ENDBRANCH  42  45
ENDBRANCH  24  38
BRANCH  25  49
ATOM     49  C   UNL A   1      42.603  24.244  27.246  1.00  0.00     0.023 A 
ATOM     50  C   UNL A   1      43.355  24.551  26.097  1.00  0.00     0.012 A 
ATOM     51  C   UNL A   1      41.965  22.990  27.334  1.00  0.00     0.148 A 
ATOM     52  C   UNL A   1      43.447  23.640  25.043  1.00  0.00     0.002 A 
ATOM     53  C   UNL A   1      42.111  22.065  26.309  1.00  0.00     0.091 A 
ATOM     54  F   UNL A   1      41.236  22.722  28.427  1.00  0.00    -0.205 F 
ATOM     55  C   UNL A   1      42.837  22.393  25.154  1.00  0.00     0.022 A 
BRANCH  53  56
ATOM     56  S   UNL A   1      41.481  20.388  26.452  1.00  0.00     0.127 S 
ATOM     57  O   UNL A   1      42.195  19.708  25.376  1.00  0.00    -0.237 OA
ATOM     58  O   UNL A   1      41.900  20.014  27.804  1.00  0.00    -0.237 OA
ATOM     59  O   UNL A   1      40.038  20.507  26.289  1.00  0.00    -0.744 OA
ENDBRANCH  53  56
ENDBRANCH  25  49
BRANCH  37  60
ATOM     60  C   UNL A   1      46.460  25.343  32.954  1.00  0.00     0.023 A 
ATOM     61  C   UNL A   1      47.735  25.826  32.598  1.00  0.00     0.012 A 
ATOM     62  C   UNL A   1      46.352  24.264  33.852  1.00  0.00     0.148 A 
ATOM     63  C   UNL A   1      48.887  25.222  33.100  1.00  0.00     0.002 A 
ATOM     64  C   UNL A   1      47.505  23.695  34.383  1.00  0.00     0.091 A 
ATOM     65  F   UNL A   1      45.131  23.806  34.160  1.00  0.00    -0.205 F 
ATOM     66  C   UNL A   1      48.771  24.165  34.000  1.00  0.00     0.022 A 
BRANCH  64  67
ATOM     67  S   UNL A   1      47.446  22.390  35.616  1.00  0.00     0.127 S 
ATOM     68  O   UNL A   1      46.866  21.286  34.853  1.00  0.00    -0.237 OA
ATOM     69  O   UNL A   1      48.860  22.219  35.957  1.00  0.00    -0.237 OA
ATOM     70  O   UNL A   1      46.623  22.904  36.702  1.00  0.00    -0.744 OA
ENDBRANCH  64  67
ENDBRANCH  37  60
ENDBRANCH  11  12
ENDBRANCH   4   6
ENDBRANCH   1   2
BRANCH   1  71
ATOM     71  C   UNL A   1      34.530  34.505  28.666  1.00  0.00     0.042 C 
BRANCH  71  72
ATOM     72  C   UNL A   1      34.004  34.201  30.067  1.00  0.00     0.117 C 
BRANCH  72  73
ATOM     73  N   UNL A   1      34.721  34.979  31.059  1.00  0.00    -0.356 N 
ATOM     74  C   UNL A   1      35.466  34.549  32.111  1.00  0.00     0.223 C 
ATOM     75  H   UNL A   1      34.658  35.956  30.956  1.00  0.00     0.163 HD
ATOM     76  O   UNL A   1      35.611  35.330  33.052  1.00  0.00    -0.275 OA
BRANCH  74  77
ATOM     77  C   UNL A   1      36.180  33.202  32.029  1.00  0.00     0.083 C 
ATOM     78  C   UNL A   1      37.357  33.336  31.024  1.00  0.00     0.020 C 
ATOM     79  C   UNL A   1      36.661  32.729  33.420  1.00  0.00     0.053 C 
ATOM     80  C   UNL A   1      38.467  34.303  31.500  1.00  0.00     0.057 C 
ATOM     81  C   UNL A   1      37.897  33.442  33.840  1.00  0.00     0.006 A 
ATOM     82  C   UNL A   1      38.695  34.128  32.955  1.00  0.00     0.039 A 
ATOM     83  C   UNL A   1      38.483  33.649  35.118  1.00  0.00     0.169 A 
ATOM     84  N   UNL A   1      39.648  34.746  33.702  1.00  0.00    -0.282 N 
ATOM     85  N   UNL A   1      39.586  34.426  35.007  1.00  0.00    -0.171 NA
ATOM     86  H   UNL A   1      40.316  35.363  33.326  1.00  0.00     0.190 HD
BRANCH  83  87
ATOM     87  C   UNL A   1      37.981  33.129  36.442  1.00  0.00     0.435 C 
ATOM     88  F   UNL A   1      38.012  31.770  36.517  1.00  0.00    -0.164 F 
ATOM     89  F   UNL A   1      38.702  33.599  37.494  1.00  0.00    -0.164 F 
ATOM     90  F   UNL A   1      36.686  33.487  36.675  1.00  0.00    -0.164 F 
ENDBRANCH  83  87
ENDBRANCH  74  77
ENDBRANCH  72  73
ENDBRANCH  71  72
ENDBRANCH   1  71
TORSDOF 14
ENDMDL
MODEL 2
REMARK VINA RESULT:     -10.4      4.910     11.943
REMARK SMILES O=C(NCCCNC(=O)[C@H]1CCc2[nH]nc(C(F)(F)F)c2C1)c1ccc(-c2c3nc(c(-c4cccc(S(=O)(=O)[O-])c4F)c4ccc([nH]4)c(-c4cccc(S(=O)(=O)[O-])c4F)c4nc(c(-c5cccc(S(=O)(=O)[O-])c5F)c5ccc2[nH]5)C=C4)C=C3)cc1
REMARK SMILES IDX 4 1 3 2 1 3 2 4 23 6 24 7 85 8 25 9 84 10 26 11 27 12 28 13
REMARK SMILES IDX 78 14 29 15 83 16 77 17 79 18 30 19 82 20 76 21 75 22 31 24
REMARK SMILES IDX 63 25 43 26 62 27 44 28 47 29 61 30 80 31 45 32 46 33 60 35
REMARK SMILES IDX 81 36 48 37 32 38 33 39 41 40 34 41 36 42 42 43 35 44 37 45
REMARK SMILES IDX 38 46 39 47 40 48 64 49 65 50 73 51 66 52 68 53 74 54 67 55
REMARK SMILES IDX 69 56 70 57 71 58 72 59 49 60 50 61 58 62 51 63 53 64 59 65
REMARK SMILES IDX 52 66 54 67 55 68 56 69 57 70 5 71 6 72 7 73 8 74 9 76 10 77
REMARK SMILES IDX 11 78 22 79 12 80 21 81 13 82 16 83 14 84 15 85 17 87 18 88
REMARK SMILES IDX 19 89 20 90
REMARK H PARENT 3 5 79 23 47 34 7 75 14 86
REMARK Flexibility Score: inf
ROOT
ATOM      1  C   UNL A   1      40.845  21.376  27.574  1.00  0.00     0.118 C 
ENDROOT
BRANCH   1   2
ATOM      2  N   UNL A   1      39.744  21.540  26.635  1.00  0.00    -0.352 N 
ATOM      3  O   UNL A   1      37.990  22.550  25.657  1.00  0.00    -0.269 OA
ATOM      4  C   UNL A   1      39.015  22.661  26.325  1.00  0.00     0.251 C 
ATOM      5  H   UNL A   1      39.482  20.724  26.149  1.00  0.00     0.163 HD
BRANCH   4   6
ATOM      6  C   UNL A   1      39.454  23.987  26.811  1.00  0.00     0.039 A 
ATOM      7  C   UNL A   1      40.104  24.877  25.955  1.00  0.00     0.014 A 
ATOM      8  C   UNL A   1      39.194  24.350  28.136  1.00  0.00     0.014 A 
ATOM      9  C   UNL A   1      40.621  26.067  26.457  1.00  0.00     0.010 A 
ATOM     10  C   UNL A   1      39.638  25.586  28.616  1.00  0.00     0.010 A 
ATOM     11  C   UNL A   1      40.382  26.441  27.790  1.00  0.00    -0.014 A 
BRANCH  11  12
ATOM     12  C   UNL A   1      40.863  27.763  28.267  1.00  0.00     0.031 A 
ATOM     13  C   UNL A   1      42.319  28.135  28.214  1.00  0.00     0.074 A 
ATOM     14  C   UNL A   1      39.956  28.642  28.739  1.00  0.00     0.049 A 
ATOM     15  N   UNL A   1      42.890  29.262  28.550  1.00  0.00    -0.248 NA
ATOM     16  C   UNL A   1      43.258  27.111  27.728  1.00  0.00     0.031 C 
ATOM     17  C   UNL A   1      38.522  28.374  28.886  1.00  0.00     0.029 A 
ATOM     18  N   UNL A   1      40.097  29.933  29.179  1.00  0.00    -0.354 N 
ATOM     19  C   UNL A   1      44.252  29.080  28.344  1.00  0.00     0.074 A 
ATOM     20  C   UNL A   1      44.427  27.724  27.869  1.00  0.00     0.031 C 
ATOM     21  C   UNL A   1      37.915  29.472  29.354  1.00  0.00     0.029 A 
ATOM     22  C   UNL A   1      38.916  30.507  29.586  1.00  0.00     0.049 A 
ATOM     23  H   UNL A   1      40.962  30.403  29.201  1.00  0.00     0.167 HD
ATOM     24  C   UNL A   1      45.262  29.969  28.513  1.00  0.00     0.034 A 
ATOM     25  C   UNL A   1      38.665  31.725  30.099  1.00  0.00     0.034 A 
ATOM     26  C   UNL A   1      45.078  31.326  28.960  1.00  0.00     0.049 A 
ATOM     27  C   UNL A   1      39.800  32.696  30.249  1.00  0.00     0.074 A 
ATOM     28  C   UNL A   1      46.034  32.313  29.128  1.00  0.00     0.029 A 
ATOM     29  N   UNL A   1      43.860  31.887  29.309  1.00  0.00    -0.354 N 
ATOM     30  N   UNL A   1      41.062  32.542  29.934  1.00  0.00    -0.248 NA
ATOM     31  C   UNL A   1      39.472  34.019  30.795  1.00  0.00     0.031 C 
ATOM     32  C   UNL A   1      45.393  33.469  29.588  1.00  0.00     0.029 A 
ATOM     33  C   UNL A   1      44.037  33.206  29.692  1.00  0.00     0.049 A 
ATOM     34  H   UNL A   1      42.995  31.417  29.289  1.00  0.00     0.167 HD
ATOM     35  C   UNL A   1      41.677  33.752  30.223  1.00  0.00     0.074 A 
ATOM     36  C   UNL A   1      40.639  34.642  30.705  1.00  0.00     0.031 C 
ATOM     37  C   UNL A   1      42.986  34.093  30.122  1.00  0.00     0.034 A 
BRANCH  24  38
ATOM     38  C   UNL A   1      46.657  29.523  28.160  1.00  0.00     0.023 A 
ATOM     39  C   UNL A   1      47.182  29.845  26.891  1.00  0.00     0.012 A 
ATOM     40  C   UNL A   1      47.475  28.861  29.097  1.00  0.00     0.148 A 
ATOM     41  C   UNL A   1      48.489  29.493  26.551  1.00  0.00     0.002 A 
ATOM     42  C   UNL A   1      48.789  28.548  28.764  1.00  0.00     0.091 A 
ATOM     43  F   UNL A   1      46.954  28.547  30.292  1.00  0.00    -0.205 F 
ATOM     44  C   UNL A   1      49.294  28.855  27.490  1.00  0.00     0.022 A 
BRANCH  42  45
ATOM     45  S   UNL A   1      49.930  27.789  29.927  1.00  0.00     0.127 S 
ATOM     46  O   UNL A   1      49.923  28.758  31.022  1.00  0.00    -0.237 OA
ATOM     47  O   UNL A   1      49.265  26.521  30.232  1.00  0.00    -0.237 OA
ATOM     48  O   UNL A   1      51.195  27.653  29.218  1.00  0.00    -0.744 OA
ENDBRANCH  42  45
ENDBRANCH  24  38
BRANCH  25  49
ATOM     49  C   UNL A   1      37.269  32.102  30.462  1.00  0.00     0.023 A 
ATOM     50  C   UNL A   1      36.823  31.932  31.786  1.00  0.00     0.012 A 
ATOM     51  C   UNL A   1      36.398  32.671  29.511  1.00  0.00     0.148 A 
ATOM     52  C   UNL A   1      35.526  32.296  32.150  1.00  0.00     0.002 A 
ATOM     53  C   UNL A   1      35.129  33.085  29.895  1.00  0.00     0.091 A 
ATOM     54  F   UNL A   1      36.832  32.806  28.250  1.00  0.00    -0.205 F 
ATOM     55  C   UNL A   1      34.684  32.883  31.210  1.00  0.00     0.022 A 
BRANCH  53  56
ATOM     56  S   UNL A   1      34.051  33.987  28.776  1.00  0.00     0.127 S 
ATOM     57  O   UNL A   1      34.940  35.033  28.281  1.00  0.00    -0.237 OA
ATOM     58  O   UNL A   1      33.696  32.961  27.794  1.00  0.00    -0.237 OA
ATOM     59  O   UNL A   1      32.933  34.432  29.600  1.00  0.00    -0.744 OA
ENDBRANCH  53  56
ENDBRANCH  25  49
BRANCH  37  60
ATOM     60  C   UNL A   1      43.366  35.492  30.523  1.00  0.00     0.023 A 
ATOM     61  C   UNL A   1      43.778  35.749  31.846  1.00  0.00     0.012 A 
ATOM     62  C   UNL A   1      43.364  36.540  29.582  1.00  0.00     0.148 A 
ATOM     63  C   UNL A   1      44.148  37.034  32.237  1.00  0.00     0.002 A 
ATOM     64  C   UNL A   1      43.777  37.810  29.968  1.00  0.00     0.091 A 
ATOM     65  F   UNL A   1      42.947  36.281  28.335  1.00  0.00    -0.205 F 
ATOM     66  C   UNL A   1      44.159  38.062  31.295  1.00  0.00     0.022 A 
BRANCH  64  67
ATOM     67  S   UNL A   1      43.906  39.170  28.801  1.00  0.00     0.127 S 
ATOM     68  O   UNL A   1      42.508  39.364  28.415  1.00  0.00    -0.237 OA
ATOM     69  O   UNL A   1      44.464  40.241  29.628  1.00  0.00    -0.237 OA
ATOM     70  O   UNL A   1      44.791  38.704  27.742  1.00  0.00    -0.744 OA
ENDBRANCH  64  67
ENDBRANCH  37  60
ENDBRANCH  11  12
ENDBRANCH   4   6
ENDBRANCH   1   2
BRANCH   1  71
ATOM     71  C   UNL A   1      41.859  20.329  27.111  1.00  0.00     0.042 C 
BRANCH  71  72
ATOM     72  C   UNL A   1      42.574  20.696  25.813  1.00  0.00     0.117 C 
BRANCH  72  73
ATOM     73  N   UNL A   1      43.994  20.878  26.045  1.00  0.00    -0.356 N 
ATOM     74  C   UNL A   1      44.758  21.986  25.859  1.00  0.00     0.223 C 
ATOM     75  H   UNL A   1      44.470  20.087  26.387  1.00  0.00     0.163 HD
ATOM     76  O   UNL A   1      45.966  21.813  25.695  1.00  0.00    -0.275 OA
BRANCH  74  77
ATOM     77  C   UNL A   1      44.124  23.370  25.988  1.00  0.00     0.083 C 
ATOM     78  C   UNL A   1      43.807  23.621  27.487  1.00  0.00     0.020 C 
ATOM     79  C   UNL A   1      45.040  24.469  25.401  1.00  0.00     0.053 C 
ATOM     80  C   UNL A   1      45.068  23.719  28.378  1.00  0.00     0.057 C 
ATOM     81  C   UNL A   1      46.148  24.808  26.332  1.00  0.00     0.006 A 
ATOM     82  C   UNL A   1      46.128  24.472  27.665  1.00  0.00     0.039 A 
ATOM     83  C   UNL A   1      47.409  25.430  26.116  1.00  0.00     0.169 A 
ATOM     84  N   UNL A   1      47.341  24.827  28.165  1.00  0.00    -0.282 N 
ATOM     85  N   UNL A   1      48.116  25.466  27.270  1.00  0.00    -0.171 NA
ATOM     86  H   UNL A   1      47.623  24.636  29.088  1.00  0.00     0.190 HD
BRANCH  83  87
ATOM     87  C   UNL A   1      47.947  25.966  24.813  1.00  0.00     0.435 C 
ATOM     88  F   UNL A   1      47.239  27.036  24.355  1.00  0.00    -0.164 F 
ATOM     89  F   UNL A   1      49.244  26.360  24.907  1.00  0.00    -0.164 F 
ATOM     90  F   UNL A   1      47.901  25.034  23.818  1.00  0.00    -0.164 F 
ENDBRANCH  83  87
ENDBRANCH  74  77
ENDBRANCH  72  73
ENDBRANCH  71  72
ENDBRANCH   1  71
TORSDOF 14
ENDMDL
MODEL 3
REMARK VINA RESULT:     -10.3      4.834     10.530
REMARK SMILES O=C(NCCCNC(=O)[C@H]1CCc2[nH]nc(C(F)(F)F)c2C1)c1ccc(-c2c3nc(c(-c4cccc(S(=O)(=O)[O-])c4F)c4ccc([nH]4)c(-c4cccc(S(=O)(=O)[O-])c4F)c4nc(c(-c5cccc(S(=O)(=O)[O-])c5F)c5ccc2[nH]5)C=C4)C=C3)cc1
REMARK SMILES IDX 4 1 3 2 1 3 2 4 23 6 24 7 85 8 25 9 84 10 26 11 27 12 28 13
REMARK SMILES IDX 78 14 29 15 83 16 77 17 79 18 30 19 82 20 76 21 75 22 31 24
REMARK SMILES IDX 63 25 43 26 62 27 44 28 47 29 61 30 80 31 45 32 46 33 60 35
REMARK SMILES IDX 81 36 48 37 32 38 33 39 41 40 34 41 36 42 42 43 35 44 37 45
REMARK SMILES IDX 38 46 39 47 40 48 64 49 65 50 73 51 66 52 68 53 74 54 67 55
REMARK SMILES IDX 69 56 70 57 71 58 72 59 49 60 50 61 58 62 51 63 53 64 59 65
REMARK SMILES IDX 52 66 54 67 55 68 56 69 57 70 5 71 6 72 7 73 8 74 9 76 10 77
REMARK SMILES IDX 11 78 22 79 12 80 21 81 13 82 16 83 14 84 15 85 17 87 18 88
REMARK SMILES IDX 19 89 20 90
REMARK H PARENT 3 5 79 23 47 34 7 75 14 86
REMARK Flexibility Score: inf
ROOT
ATOM      1  C   UNL A   1      32.655  32.777  27.332  1.00  0.00     0.118 C 
ENDROOT
BRANCH   1   2
ATOM      2  N   UNL A   1      32.537  34.173  27.731  1.00  0.00    -0.352 N 
ATOM      3  O   UNL A   1      32.779  35.977  29.048  1.00  0.00    -0.269 OA
ATOM      4  C   UNL A   1      33.167  34.852  28.743  1.00  0.00     0.251 C 
ATOM      5  H   UNL A   1      31.910  34.710  27.193  1.00  0.00     0.163 HD
BRANCH   4   6
ATOM      6  C   UNL A   1      34.291  34.223  29.469  1.00  0.00     0.039 A 
ATOM      7  C   UNL A   1      35.604  34.388  29.025  1.00  0.00     0.014 A 
ATOM      8  C   UNL A   1      34.028  33.475  30.620  1.00  0.00     0.014 A 
ATOM      9  C   UNL A   1      36.636  33.690  29.644  1.00  0.00     0.010 A 
ATOM     10  C   UNL A   1      35.079  32.845  31.293  1.00  0.00     0.010 A 
ATOM     11  C   UNL A   1      36.387  32.921  30.792  1.00  0.00    -0.014 A 
BRANCH  11  12
ATOM     12  C   UNL A   1      37.528  32.269  31.487  1.00  0.00     0.031 A 
ATOM     13  C   UNL A   1      38.291  31.141  30.851  1.00  0.00     0.074 A 
ATOM     14  C   UNL A   1      37.880  32.723  32.706  1.00  0.00     0.049 A 
ATOM     15  N   UNL A   1      39.335  30.497  31.307  1.00  0.00    -0.248 NA
ATOM     16  C   UNL A   1      37.824  30.665  29.538  1.00  0.00     0.031 C 
ATOM     17  C   UNL A   1      37.180  33.780  33.444  1.00  0.00     0.029 A 
ATOM     18  N   UNL A   1      38.909  32.365  33.538  1.00  0.00    -0.354 N 
ATOM     19  C   UNL A   1      39.635  29.528  30.359  1.00  0.00     0.074 A 
ATOM     20  C   UNL A   1      38.651  29.654  29.304  1.00  0.00     0.031 C 
ATOM     21  C   UNL A   1      37.815  34.001  34.603  1.00  0.00     0.029 A 
ATOM     22  C   UNL A   1      38.935  33.075  34.716  1.00  0.00     0.049 A 
ATOM     23  H   UNL A   1      39.565  31.666  33.314  1.00  0.00     0.167 HD
ATOM     24  C   UNL A   1      40.652  28.631  30.354  1.00  0.00     0.034 A 
ATOM     25  C   UNL A   1      39.761  32.985  35.774  1.00  0.00     0.034 A 
ATOM     26  C   UNL A   1      41.644  28.529  31.393  1.00  0.00     0.049 A 
ATOM     27  C   UNL A   1      40.894  32.001  35.728  1.00  0.00     0.074 A 
ATOM     28  C   UNL A   1      42.733  27.677  31.463  1.00  0.00     0.029 A 
ATOM     29  N   UNL A   1      41.670  29.303  32.543  1.00  0.00    -0.354 N 
ATOM     30  N   UNL A   1      41.230  31.176  34.766  1.00  0.00    -0.248 NA
ATOM     31  C   UNL A   1      41.779  31.953  36.899  1.00  0.00     0.031 C 
ATOM     32  C   UNL A   1      43.412  27.930  32.660  1.00  0.00     0.029 A 
ATOM     33  C   UNL A   1      42.755  28.950  33.329  1.00  0.00     0.049 A 
ATOM     34  H   UNL A   1      41.013  30.001  32.769  1.00  0.00     0.167 HD
ATOM     35  C   UNL A   1      42.376  30.528  35.204  1.00  0.00     0.074 A 
ATOM     36  C   UNL A   1      42.698  31.082  36.504  1.00  0.00     0.031 C 
ATOM     37  C   UNL A   1      43.088  29.546  34.597  1.00  0.00     0.034 A 
BRANCH  24  38
ATOM     38  C   UNL A   1      40.781  27.720  29.161  1.00  0.00     0.023 A 
ATOM     39  C   UNL A   1      39.963  26.573  29.080  1.00  0.00     0.012 A 
ATOM     40  C   UNL A   1      41.643  28.030  28.090  1.00  0.00     0.148 A 
ATOM     41  C   UNL A   1      40.019  25.737  27.965  1.00  0.00     0.002 A 
ATOM     42  C   UNL A   1      41.665  27.211  26.966  1.00  0.00     0.091 A 
ATOM     43  F   UNL A   1      42.426  29.113  28.193  1.00  0.00    -0.205 F 
ATOM     44  C   UNL A   1      40.861  26.062  26.905  1.00  0.00     0.022 A 
BRANCH  42  45
ATOM     45  S   UNL A   1      42.663  27.580  25.517  1.00  0.00     0.127 S 
ATOM     46  O   UNL A   1      44.009  27.609  26.086  1.00  0.00    -0.237 OA
ATOM     47  O   UNL A   1      42.392  26.430  24.653  1.00  0.00    -0.237 OA
ATOM     48  O   UNL A   1      42.171  28.851  25.004  1.00  0.00    -0.744 OA
ENDBRANCH  42  45
ENDBRANCH  24  38
BRANCH  25  49
ATOM     49  C   UNL A   1      39.569  33.890  36.942  1.00  0.00     0.023 A 
ATOM     50  C   UNL A   1      39.942  35.244  36.844  1.00  0.00     0.012 A 
ATOM     51  C   UNL A   1      38.975  33.426  38.133  1.00  0.00     0.148 A 
ATOM     52  C   UNL A   1      39.753  36.113  37.920  1.00  0.00     0.002 A 
ATOM     53  C   UNL A   1      38.736  34.309  39.178  1.00  0.00     0.091 A 
ATOM     54  F   UNL A   1      38.645  32.129  38.217  1.00  0.00    -0.205 F 
ATOM     55  C   UNL A   1      39.139  35.650  39.081  1.00  0.00     0.022 A 
BRANCH  53  56
ATOM     56  S   UNL A   1      37.813  33.818  40.639  1.00  0.00     0.127 S 
ATOM     57  O   UNL A   1      38.767  32.946  41.317  1.00  0.00    -0.237 OA
ATOM     58  O   UNL A   1      37.572  35.102  41.299  1.00  0.00    -0.237 OA
ATOM     59  O   UNL A   1      36.607  33.177  40.131  1.00  0.00    -0.744 OA
ENDBRANCH  53  56
ENDBRANCH  25  49
BRANCH  37  60
ATOM     60  C   UNL A   1      44.295  29.021  35.326  1.00  0.00     0.023 A 
ATOM     61  C   UNL A   1      45.559  29.595  35.084  1.00  0.00     0.012 A 
ATOM     62  C   UNL A   1      44.171  27.997  36.286  1.00  0.00     0.148 A 
ATOM     63  C   UNL A   1      46.688  29.135  35.759  1.00  0.00     0.002 A 
ATOM     64  C   UNL A   1      45.295  27.574  36.987  1.00  0.00     0.091 A 
ATOM     65  F   UNL A   1      42.965  27.449  36.485  1.00  0.00    -0.205 F 
ATOM     66  C   UNL A   1      46.554  28.133  36.717  1.00  0.00     0.022 A 
BRANCH  64  67
ATOM     67  S   UNL A   1      45.198  26.352  38.300  1.00  0.00     0.127 S 
ATOM     68  O   UNL A   1      44.851  25.142  37.556  1.00  0.00    -0.237 OA
ATOM     69  O   UNL A   1      46.558  26.365  38.841  1.00  0.00    -0.237 OA
ATOM     70  O   UNL A   1      44.179  26.836  39.221  1.00  0.00    -0.744 OA
ENDBRANCH  64  67
ENDBRANCH  37  60
ENDBRANCH  11  12
ENDBRANCH   4   6
ENDBRANCH   1   2
BRANCH   1  71
ATOM     71  C   UNL A   1      31.395  32.255  26.641  1.00  0.00     0.042 C 
BRANCH  71  72
ATOM     72  C   UNL A   1      31.541  30.842  26.081  1.00  0.00     0.117 C 
BRANCH  72  73
ATOM     73  N   UNL A   1      31.714  29.883  27.156  1.00  0.00    -0.356 N 
ATOM     74  C   UNL A   1      31.895  28.538  27.083  1.00  0.00     0.223 C 
ATOM     75  H   UNL A   1      31.699  30.260  28.065  1.00  0.00     0.163 HD
ATOM     76  O   UNL A   1      31.585  27.877  28.074  1.00  0.00    -0.275 OA
BRANCH  74  77
ATOM     77  C   UNL A   1      32.579  27.934  25.858  1.00  0.00     0.083 C 
ATOM     78  C   UNL A   1      32.545  26.387  25.997  1.00  0.00     0.020 C 
ATOM     79  C   UNL A   1      31.914  28.410  24.546  1.00  0.00     0.053 C 
ATOM     80  C   UNL A   1      31.118  25.793  25.940  1.00  0.00     0.057 C 
ATOM     81  C   UNL A   1      30.643  27.684  24.286  1.00  0.00     0.006 A 
ATOM     82  C   UNL A   1      30.318  26.505  24.915  1.00  0.00     0.039 A 
ATOM     83  C   UNL A   1      29.520  28.002  23.474  1.00  0.00     0.169 A 
ATOM     84  N   UNL A   1      29.050  26.205  24.529  1.00  0.00    -0.282 N 
ATOM     85  N   UNL A   1      28.562  27.056  23.608  1.00  0.00    -0.171 NA
ATOM     86  H   UNL A   1      28.541  25.441  24.885  1.00  0.00     0.190 HD
BRANCH  83  87
ATOM     87  C   UNL A   1      29.351  29.214  22.591  1.00  0.00     0.435 C 
ATOM     88  F   UNL A   1      28.208  29.169  21.853  1.00  0.00    -0.164 F 
ATOM     89  F   UNL A   1      29.321  30.375  23.298  1.00  0.00    -0.164 F 
ATOM     90  F   UNL A   1      30.371  29.339  21.694  1.00  0.00    -0.164 F 
ENDBRANCH  83  87
ENDBRANCH  74  77
ENDBRANCH  72  73
ENDBRANCH  71  72
ENDBRANCH   1  71
TORSDOF 14
ENDMDL
