MODEL 1
REMARK VINA RESULT:     -12.1      0.000      0.000
REMARK SMILES CSc1nc2ccccc2c(=O)n1CC(=O)NCCCNC(=O)c1ccc(-c2c3nc(c(-c4cccc(S(=O)(=O)[O-])c4F)c4ccc([nH]4)c(-c4cccc(S(=O)(=O)[O-])c4F)c4nc(c(-c5cccc(S(=O)(=O)[O-])c5F)c5ccc2[nH]5)C=C4)C=C3)cc1
REMARK SMILES IDX 19 1 18 2 17 3 15 4 16 5 14 7 13 8 3 9 4 10 5 11 11 12 6 13
REMARK SMILES IDX 10 14 12 15 7 16 9 17 8 18 2 19 1 20 20 21 21 22 22 23 23 25
REMARK SMILES IDX 24 26 25 27 86 28 26 29 85 30 27 31 28 32 29 33 79 34 30 35
REMARK SMILES IDX 84 36 78 37 80 38 31 39 83 40 77 41 76 42 32 44 64 45 44 46
REMARK SMILES IDX 63 47 45 48 48 49 62 50 81 51 46 52 47 53 61 55 82 56 49 57
REMARK SMILES IDX 33 58 34 59 42 60 35 61 37 62 43 63 36 64 38 65 39 66 40 67
REMARK SMILES IDX 41 68 65 69 66 70 74 71 67 72 69 73 75 74 68 75 70 76 71 77
REMARK SMILES IDX 72 78 73 79 50 80 51 81 59 82 52 83 54 84 60 85 53 86 55 87
REMARK SMILES IDX 56 88 57 89 58 90
REMARK H PARENT 17 6 21 24 80 43 48 54
REMARK Flexibility Score: inf
ROOT
ATOM      1  C   UNL A   1      35.625  22.081  24.334  1.00  0.00     0.042 C 
ENDROOT
BRANCH   1   2
ATOM      2  C   UNL A   1      34.936  23.430  24.180  1.00  0.00     0.117 C 
BRANCH   2   3
ATOM      3  N   UNL A   1      34.440  23.664  22.839  1.00  0.00    -0.354 N 
ATOM      4  C   UNL A   1      33.163  23.665  22.361  1.00  0.00     0.240 C 
ATOM      5  O   UNL A   1      32.978  24.234  21.280  1.00  0.00    -0.273 OA
ATOM      6  H   UNL A   1      35.135  23.852  22.168  1.00  0.00     0.163 HD
BRANCH   4   7
ATOM      7  C   UNL A   1      31.973  23.169  23.197  1.00  0.00     0.228 C 
BRANCH   7   8
ATOM      8  N   UNL A   1      32.155  21.845  23.804  1.00  0.00    -0.278 N 
ATOM      9  C   UNL A   1      32.142  21.575  25.163  1.00  0.00     0.171 A 
ATOM     10  N   UNL A   1      32.328  20.400  25.668  1.00  0.00    -0.224 NA
ATOM     11  C   UNL A   1      32.536  19.319  24.810  1.00  0.00     0.079 A 
ATOM     12  C   UNL A   1      32.194  20.791  22.890  1.00  0.00     0.262 A 
ATOM     13  C   UNL A   1      32.817  18.063  25.352  1.00  0.00     0.029 A 
ATOM     14  C   UNL A   1      32.451  19.447  23.429  1.00  0.00     0.066 A 
ATOM     15  O   UNL A   1      32.029  20.929  21.680  1.00  0.00    -0.269 OA
ATOM     16  C   UNL A   1      33.004  16.956  24.521  1.00  0.00     0.002 A 
ATOM     17  C   UNL A   1      32.626  18.345  22.584  1.00  0.00     0.016 A 
ATOM     18  C   UNL A   1      32.904  17.095  23.136  1.00  0.00     0.001 A 
BRANCH   9  19
ATOM     19  S   UNL A   1      31.821  22.896  26.278  1.00  0.00    -0.091 SA
ATOM     20  C   UNL A   1      32.963  22.509  27.624  1.00  0.00     0.094 C 
ENDBRANCH   9  19
ENDBRANCH   7   8
ENDBRANCH   4   7
ENDBRANCH   2   3
ENDBRANCH   1   2
BRANCH   1  21
ATOM     21  C   UNL A   1      36.292  21.875  25.692  1.00  0.00     0.118 C 
BRANCH  21  22
ATOM     22  N   UNL A   1      37.351  20.871  25.666  1.00  0.00    -0.352 N 
ATOM     23  C   UNL A   1      38.694  20.994  25.936  1.00  0.00     0.251 C 
ATOM     24  H   UNL A   1      37.058  19.965  25.416  1.00  0.00     0.163 HD
ATOM     25  O   UNL A   1      39.442  20.045  25.718  1.00  0.00    -0.269 OA
BRANCH  23  26
ATOM     26  C   UNL A   1      39.237  22.271  26.448  1.00  0.00     0.039 A 
ATOM     27  C   UNL A   1      38.639  23.489  26.118  1.00  0.00     0.014 A 
ATOM     28  C   UNL A   1      40.375  22.248  27.259  1.00  0.00     0.014 A 
ATOM     29  C   UNL A   1      39.275  24.683  26.450  1.00  0.00     0.010 A 
ATOM     30  C   UNL A   1      40.971  23.449  27.655  1.00  0.00     0.010 A 
ATOM     31  C   UNL A   1      40.456  24.675  27.207  1.00  0.00    -0.014 A 
BRANCH  31  32
ATOM     32  C   UNL A   1      41.161  25.952  27.497  1.00  0.00     0.031 A 
ATOM     33  C   UNL A   1      40.492  27.023  28.318  1.00  0.00     0.074 A 
ATOM     34  C   UNL A   1      42.421  26.134  27.053  1.00  0.00     0.049 A 
ATOM     35  N   UNL A   1      40.935  28.213  28.637  1.00  0.00    -0.248 NA
ATOM     36  C   UNL A   1      39.153  26.724  28.854  1.00  0.00     0.031 C 
ATOM     37  C   UNL A   1      43.184  25.170  26.259  1.00  0.00     0.029 A 
ATOM     38  N   UNL A   1      43.283  27.189  27.215  1.00  0.00    -0.354 N 
ATOM     39  C   UNL A   1      39.920  28.816  29.369  1.00  0.00     0.074 A 
ATOM     40  C   UNL A   1      38.835  27.864  29.452  1.00  0.00     0.031 C 
ATOM     41  C   UNL A   1      44.413  25.661  26.035  1.00  0.00     0.029 A 
ATOM     42  C   UNL A   1      44.507  26.994  26.621  1.00  0.00     0.049 A 
ATOM     43  H   UNL A   1      43.048  28.006  27.710  1.00  0.00     0.167 HD
ATOM     44  C   UNL A   1      39.902  30.043  29.940  1.00  0.00     0.034 A 
ATOM     45  C   UNL A   1      45.583  27.801  26.544  1.00  0.00     0.034 A 
ATOM     46  C   UNL A   1      41.001  30.969  29.910  1.00  0.00     0.049 A 
ATOM     47  C   UNL A   1      45.529  29.162  27.174  1.00  0.00     0.074 A 
ATOM     48  C   UNL A   1      41.077  32.229  30.479  1.00  0.00     0.029 A 
ATOM     49  N   UNL A   1      42.218  30.735  29.292  1.00  0.00    -0.354 N 
ATOM     50  N   UNL A   1      44.571  29.699  27.891  1.00  0.00    -0.248 NA
ATOM     51  C   UNL A   1      46.703  30.027  26.989  1.00  0.00     0.031 C 
ATOM     52  C   UNL A   1      42.343  32.755  30.209  1.00  0.00     0.029 A 
ATOM     53  C   UNL A   1      43.054  31.823  29.471  1.00  0.00     0.049 A 
ATOM     54  H   UNL A   1      42.453  29.916  28.799  1.00  0.00     0.167 HD
ATOM     55  C   UNL A   1      45.028  30.961  28.247  1.00  0.00     0.074 A 
ATOM     56  C   UNL A   1      46.359  31.099  27.693  1.00  0.00     0.031 C 
ATOM     57  C   UNL A   1      44.391  31.928  28.949  1.00  0.00     0.034 A 
BRANCH  44  58
ATOM     58  C   UNL A   1      38.675  30.449  30.707  1.00  0.00     0.023 A 
ATOM     59  C   UNL A   1      38.618  30.193  32.091  1.00  0.00     0.012 A 
ATOM     60  C   UNL A   1      37.637  31.172  30.089  1.00  0.00     0.148 A 
ATOM     61  C   UNL A   1      37.543  30.648  32.851  1.00  0.00     0.002 A 
ATOM     62  C   UNL A   1      36.579  31.645  30.858  1.00  0.00     0.091 A 
ATOM     63  F   UNL A   1      37.711  31.394  28.770  1.00  0.00    -0.205 F 
ATOM     64  C   UNL A   1      36.530  31.382  32.239  1.00  0.00     0.022 A 
BRANCH  62  65
ATOM     65  S   UNL A   1      35.245  32.639  30.182  1.00  0.00     0.127 S 
ATOM     66  O   UNL A   1      34.372  32.789  31.345  1.00  0.00    -0.237 OA
ATOM     67  O   UNL A   1      35.945  33.858  29.781  1.00  0.00    -0.237 OA
ATOM     68  O   UNL A   1      34.681  31.865  29.084  1.00  0.00    -0.744 OA
ENDBRANCH  62  65
ENDBRANCH  44  58
BRANCH  45  69
ATOM     69  C   UNL A   1      46.818  27.316  25.873  1.00  0.00     0.023 A 
ATOM     70  C   UNL A   1      46.991  27.563  24.498  1.00  0.00     0.012 A 
ATOM     71  C   UNL A   1      47.839  26.668  26.593  1.00  0.00     0.148 A 
ATOM     72  C   UNL A   1      48.159  27.165  23.849  1.00  0.00     0.002 A 
ATOM     73  C   UNL A   1      49.018  26.313  25.951  1.00  0.00     0.091 A 
ATOM     74  F   UNL A   1      47.641  26.432  27.898  1.00  0.00    -0.205 F 
ATOM     75  C   UNL A   1      49.176  26.552  24.577  1.00  0.00     0.022 A 
BRANCH  73  76
ATOM     76  S   UNL A   1      50.424  25.621  26.826  1.00  0.00     0.127 S 
ATOM     77  O   UNL A   1      50.780  26.712  27.730  1.00  0.00    -0.237 OA
ATOM     78  O   UNL A   1      49.829  24.451  27.475  1.00  0.00    -0.237 OA
ATOM     79  O   UNL A   1      51.410  25.303  25.802  1.00  0.00    -0.744 OA
ENDBRANCH  73  76
ENDBRANCH  45  69
BRANCH  57  80
ATOM     80  C   UNL A   1      45.114  33.228  29.161  1.00  0.00     0.023 A 
ATOM     81  C   UNL A   1      45.905  33.390  30.314  1.00  0.00     0.012 A 
ATOM     82  C   UNL A   1      45.088  34.241  28.185  1.00  0.00     0.148 A 
ATOM     83  C   UNL A   1      46.652  34.552  30.501  1.00  0.00     0.002 A 
ATOM     84  C   UNL A   1      45.860  35.383  28.362  1.00  0.00     0.091 A 
ATOM     85  F   UNL A   1      44.314  34.068  27.104  1.00  0.00    -0.205 F 
ATOM     86  C   UNL A   1      46.638  35.543  29.521  1.00  0.00     0.022 A 
BRANCH  84  87
ATOM     87  S   UNL A   1      45.959  36.680  27.123  1.00  0.00     0.127 S 
ATOM     88  O   UNL A   1      44.587  37.183  27.108  1.00  0.00    -0.237 OA
ATOM     89  O   UNL A   1      46.939  37.595  27.708  1.00  0.00    -0.237 OA
ATOM     90  O   UNL A   1      46.400  36.028  25.896  1.00  0.00    -0.744 OA
ENDBRANCH  84  87
ENDBRANCH  57  80
ENDBRANCH  31  32
ENDBRANCH  23  26
ENDBRANCH  21  22
ENDBRANCH   1  21
TORSDOF 15
ENDMDL
MODEL 2
REMARK VINA RESULT:     -12.1      2.018      3.507
REMARK SMILES CSc1nc2ccccc2c(=O)n1CC(=O)NCCCNC(=O)c1ccc(-c2c3nc(c(-c4cccc(S(=O)(=O)[O-])c4F)c4ccc([nH]4)c(-c4cccc(S(=O)(=O)[O-])c4F)c4nc(c(-c5cccc(S(=O)(=O)[O-])c5F)c5ccc2[nH]5)C=C4)C=C3)cc1
REMARK SMILES IDX 19 1 18 2 17 3 15 4 16 5 14 7 13 8 3 9 4 10 5 11 11 12 6 13
REMARK SMILES IDX 10 14 12 15 7 16 9 17 8 18 2 19 1 20 20 21 21 22 22 23 23 25
REMARK SMILES IDX 24 26 25 27 86 28 26 29 85 30 27 31 28 32 29 33 79 34 30 35
REMARK SMILES IDX 84 36 78 37 80 38 31 39 83 40 77 41 76 42 32 44 64 45 44 46
REMARK SMILES IDX 63 47 45 48 48 49 62 50 81 51 46 52 47 53 61 55 82 56 49 57
REMARK SMILES IDX 33 58 34 59 42 60 35 61 37 62 43 63 36 64 38 65 39 66 40 67
REMARK SMILES IDX 41 68 65 69 66 70 74 71 67 72 69 73 75 74 68 75 70 76 71 77
REMARK SMILES IDX 72 78 73 79 50 80 51 81 59 82 52 83 54 84 60 85 53 86 55 87
REMARK SMILES IDX 56 88 57 89 58 90
REMARK H PARENT 17 6 21 24 80 43 48 54
REMARK Flexibility Score: inf
ROOT
ATOM      1  C   UNL A   1      34.894  22.246  26.443  1.00  0.00     0.042 C 
ENDROOT
BRANCH   1   2
ATOM      2  C   UNL A   1      33.538  21.777  25.935  1.00  0.00     0.117 C 
BRANCH   2   3
ATOM      3  N   UNL A   1      32.445  22.146  26.810  1.00  0.00    -0.354 N 
ATOM      4  C   UNL A   1      31.357  22.934  26.575  1.00  0.00     0.240 C 
ATOM      5  O   UNL A   1      30.404  22.806  27.352  1.00  0.00    -0.273 OA
ATOM      6  H   UNL A   1      32.495  21.769  27.718  1.00  0.00     0.163 HD
BRANCH   4   7
ATOM      7  C   UNL A   1      31.221  23.790  25.306  1.00  0.00     0.228 C 
BRANCH   7   8
ATOM      8  N   UNL A   1      31.943  25.068  25.346  1.00  0.00    -0.278 N 
ATOM      9  C   UNL A   1      33.030  25.403  24.555  1.00  0.00     0.171 A 
ATOM     10  N   UNL A   1      33.658  26.530  24.629  1.00  0.00    -0.224 NA
ATOM     11  C   UNL A   1      33.219  27.491  25.540  1.00  0.00     0.079 A 
ATOM     12  C   UNL A   1      31.354  26.038  26.158  1.00  0.00     0.262 A 
ATOM     13  C   UNL A   1      33.942  28.678  25.681  1.00  0.00     0.029 A 
ATOM     14  C   UNL A   1      32.068  27.316  26.301  1.00  0.00     0.066 A 
ATOM     15  O   UNL A   1      30.288  25.880  26.749  1.00  0.00    -0.269 OA
ATOM     16  C   UNL A   1      33.514  29.670  26.566  1.00  0.00     0.002 A 
ATOM     17  C   UNL A   1      31.622  28.305  27.183  1.00  0.00     0.016 A 
ATOM     18  C   UNL A   1      32.350  29.487  27.314  1.00  0.00     0.001 A 
BRANCH   9  19
ATOM     19  S   UNL A   1      33.578  24.246  23.349  1.00  0.00    -0.091 SA
ATOM     20  C   UNL A   1      32.862  24.939  21.841  1.00  0.00     0.094 C 
ENDBRANCH   9  19
ENDBRANCH   7   8
ENDBRANCH   4   7
ENDBRANCH   2   3
ENDBRANCH   1   2
BRANCH   1  21
ATOM     21  C   UNL A   1      35.961  22.360  25.356  1.00  0.00     0.118 C 
BRANCH  21  22
ATOM     22  N   UNL A   1      36.943  21.282  25.399  1.00  0.00    -0.352 N 
ATOM     23  C   UNL A   1      38.266  21.305  25.772  1.00  0.00     0.251 C 
ATOM     24  H   UNL A   1      36.605  20.401  25.118  1.00  0.00     0.163 HD
ATOM     25  O   UNL A   1      38.959  20.305  25.600  1.00  0.00    -0.269 OA
BRANCH  23  26
ATOM     26  C   UNL A   1      38.860  22.536  26.338  1.00  0.00     0.039 A 
ATOM     27  C   UNL A   1      38.298  23.787  26.079  1.00  0.00     0.014 A 
ATOM     28  C   UNL A   1      40.009  22.434  27.128  1.00  0.00     0.014 A 
ATOM     29  C   UNL A   1      38.979  24.942  26.459  1.00  0.00     0.010 A 
ATOM     30  C   UNL A   1      40.651  23.593  27.574  1.00  0.00     0.010 A 
ATOM     31  C   UNL A   1      40.171  24.857  27.195  1.00  0.00    -0.014 A 
BRANCH  31  32
ATOM     32  C   UNL A   1      40.923  26.093  27.537  1.00  0.00     0.031 A 
ATOM     33  C   UNL A   1      40.292  27.156  28.399  1.00  0.00     0.074 A 
ATOM     34  C   UNL A   1      42.190  26.245  27.104  1.00  0.00     0.049 A 
ATOM     35  N   UNL A   1      40.778  28.315  28.765  1.00  0.00    -0.248 NA
ATOM     36  C   UNL A   1      38.940  26.887  28.920  1.00  0.00     0.031 C 
ATOM     37  C   UNL A   1      42.919  25.284  26.275  1.00  0.00     0.029 A 
ATOM     38  N   UNL A   1      43.091  27.259  27.310  1.00  0.00    -0.354 N 
ATOM     39  C   UNL A   1      39.784  28.927  29.518  1.00  0.00     0.074 A 
ATOM     40  C   UNL A   1      38.663  28.015  29.561  1.00  0.00     0.031 C 
ATOM     41  C   UNL A   1      44.167  25.737  26.073  1.00  0.00     0.029 A 
ATOM     42  C   UNL A   1      44.309  27.041  26.711  1.00  0.00     0.049 A 
ATOM     43  H   UNL A   1      42.885  28.065  27.836  1.00  0.00     0.167 HD
ATOM     44  C   UNL A   1      39.810  30.130  30.137  1.00  0.00     0.034 A 
ATOM     45  C   UNL A   1      45.415  27.809  26.668  1.00  0.00     0.034 A 
ATOM     46  C   UNL A   1      40.944  31.015  30.146  1.00  0.00     0.049 A 
ATOM     47  C   UNL A   1      45.410  29.145  27.352  1.00  0.00     0.074 A 
ATOM     48  C   UNL A   1      41.065  32.248  30.765  1.00  0.00     0.029 A 
ATOM     49  N   UNL A   1      42.153  30.758  29.522  1.00  0.00    -0.354 N 
ATOM     50  N   UNL A   1      44.470  29.690  28.086  1.00  0.00    -0.248 NA
ATOM     51  C   UNL A   1      46.617  29.972  27.204  1.00  0.00     0.031 C 
ATOM     52  C   UNL A   1      42.352  32.735  30.518  1.00  0.00     0.029 A 
ATOM     53  C   UNL A   1      43.030  31.806  29.746  1.00  0.00     0.049 A 
ATOM     54  H   UNL A   1      42.359  29.952  28.998  1.00  0.00     0.167 HD
ATOM     55  C   UNL A   1      44.974  30.918  28.493  1.00  0.00     0.074 A 
ATOM     56  C   UNL A   1      46.311  31.027  27.948  1.00  0.00     0.031 C 
ATOM     57  C   UNL A   1      44.371  31.881  29.232  1.00  0.00     0.034 A 
BRANCH  44  58
ATOM     58  C   UNL A   1      38.596  30.553  30.917  1.00  0.00     0.023 A 
ATOM     59  C   UNL A   1      38.564  30.324  32.306  1.00  0.00     0.012 A 
ATOM     60  C   UNL A   1      37.548  31.264  30.302  1.00  0.00     0.148 A 
ATOM     61  C   UNL A   1      37.501  30.795  33.075  1.00  0.00     0.002 A 
ATOM     62  C   UNL A   1      36.504  31.752  31.080  1.00  0.00     0.091 A 
ATOM     63  F   UNL A   1      37.600  31.459  28.977  1.00  0.00    -0.205 F 
ATOM     64  C   UNL A   1      36.478  31.517  32.465  1.00  0.00     0.022 A 
BRANCH  62  65
ATOM     65  S   UNL A   1      35.159  32.733  30.406  1.00  0.00     0.127 S 
ATOM     66  O   UNL A   1      34.276  32.856  31.565  1.00  0.00    -0.237 OA
ATOM     67  O   UNL A   1      35.842  33.968  30.024  1.00  0.00    -0.237 OA
ATOM     68  O   UNL A   1      34.614  31.964  29.296  1.00  0.00    -0.744 OA
ENDBRANCH  62  65
ENDBRANCH  44  58
BRANCH  45  69
ATOM     69  C   UNL A   1      46.633  27.304  25.982  1.00  0.00     0.023 A 
ATOM     70  C   UNL A   1      46.779  27.523  24.599  1.00  0.00     0.012 A 
ATOM     71  C   UNL A   1      47.665  26.664  26.693  1.00  0.00     0.148 A 
ATOM     72  C   UNL A   1      47.932  27.106  23.933  1.00  0.00     0.002 A 
ATOM     73  C   UNL A   1      48.829  26.290  26.034  1.00  0.00     0.091 A 
ATOM     74  F   UNL A   1      47.494  26.454  28.006  1.00  0.00    -0.205 F 
ATOM     75  C   UNL A   1      48.960  26.501  24.652  1.00  0.00     0.022 A 
BRANCH  73  76
ATOM     76  S   UNL A   1      50.249  25.607  26.894  1.00  0.00     0.127 S 
ATOM     77  O   UNL A   1      51.201  25.426  25.801  1.00  0.00    -0.237 OA
ATOM     78  O   UNL A   1      50.580  26.681  27.830  1.00  0.00    -0.237 OA
ATOM     79  O   UNL A   1      49.776  24.383  27.526  1.00  0.00    -0.744 OA
ENDBRANCH  73  76
ENDBRANCH  45  69
BRANCH  57  80
ATOM     80  C   UNL A   1      45.142  33.143  29.496  1.00  0.00     0.023 A 
ATOM     81  C   UNL A   1      45.990  33.203  30.618  1.00  0.00     0.012 A 
ATOM     82  C   UNL A   1      45.102  34.221  28.594  1.00  0.00     0.148 A 
ATOM     83  C   UNL A   1      46.779  34.329  30.847  1.00  0.00     0.002 A 
ATOM     84  C   UNL A   1      45.915  35.327  28.811  1.00  0.00     0.091 A 
ATOM     85  F   UNL A   1      44.274  34.144  27.542  1.00  0.00    -0.205 F 
ATOM     86  C   UNL A   1      46.750  35.385  29.939  1.00  0.00     0.022 A 
BRANCH  84  87
ATOM     87  S   UNL A   1      45.996  36.703  27.659  1.00  0.00     0.127 S 
ATOM     88  O   UNL A   1      44.639  37.240  27.740  1.00  0.00    -0.237 OA
ATOM     89  O   UNL A   1      47.026  37.551  28.260  1.00  0.00    -0.237 OA
ATOM     90  O   UNL A   1      46.366  36.127  26.372  1.00  0.00    -0.744 OA
ENDBRANCH  84  87
ENDBRANCH  57  80
ENDBRANCH  31  32
ENDBRANCH  23  26
ENDBRANCH  21  22
ENDBRANCH   1  21
TORSDOF 15
ENDMDL
MODEL 3
REMARK VINA RESULT:     -12.0      2.431      8.469
REMARK SMILES CSc1nc2ccccc2c(=O)n1CC(=O)NCCCNC(=O)c1ccc(-c2c3nc(c(-c4cccc(S(=O)(=O)[O-])c4F)c4ccc([nH]4)c(-c4cccc(S(=O)(=O)[O-])c4F)c4nc(c(-c5cccc(S(=O)(=O)[O-])c5F)c5ccc2[nH]5)C=C4)C=C3)cc1
REMARK SMILES IDX 19 1 18 2 17 3 15 4 16 5 14 7 13 8 3 9 4 10 5 11 11 12 6 13
REMARK SMILES IDX 10 14 12 15 7 16 9 17 8 18 2 19 1 20 20 21 21 22 22 23 23 25
REMARK SMILES IDX 24 26 25 27 86 28 26 29 85 30 27 31 28 32 29 33 79 34 30 35
REMARK SMILES IDX 84 36 78 37 80 38 31 39 83 40 77 41 76 42 32 44 64 45 44 46
REMARK SMILES IDX 63 47 45 48 48 49 62 50 81 51 46 52 47 53 61 55 82 56 49 57
REMARK SMILES IDX 33 58 34 59 42 60 35 61 37 62 43 63 36 64 38 65 39 66 40 67
REMARK SMILES IDX 41 68 65 69 66 70 74 71 67 72 69 73 75 74 68 75 70 76 71 77
REMARK SMILES IDX 72 78 73 79 50 80 51 81 59 82 52 83 54 84 60 85 53 86 55 87
REMARK SMILES IDX 56 88 57 89 58 90
REMARK H PARENT 17 6 21 24 80 43 48 54
REMARK Flexibility Score: inf
ROOT
ATOM      1  C   UNL A   1      36.176  21.479  25.741  1.00  0.00     0.042 C 
ENDROOT
BRANCH   1   2
ATOM      2  C   UNL A   1      35.871  22.792  26.448  1.00  0.00     0.117 C 
BRANCH   2   3
ATOM      3  N   UNL A   1      34.784  22.685  27.400  1.00  0.00    -0.354 N 
ATOM      4  C   UNL A   1      33.436  22.771  27.208  1.00  0.00     0.240 C 
ATOM      5  O   UNL A   1      32.721  22.297  28.099  1.00  0.00    -0.273 OA
ATOM      6  H   UNL A   1      35.062  22.526  28.330  1.00  0.00     0.163 HD
BRANCH   4   7
ATOM      7  C   UNL A   1      32.823  23.241  25.881  1.00  0.00     0.228 C 
BRANCH   7   8
ATOM      8  N   UNL A   1      32.994  24.671  25.596  1.00  0.00    -0.278 N 
ATOM      9  C   UNL A   1      33.763  25.201  24.572  1.00  0.00     0.171 A 
ATOM     10  N   UNL A   1      33.911  26.467  24.360  1.00  0.00    -0.224 NA
ATOM     11  C   UNL A   1      33.248  27.375  25.188  1.00  0.00     0.079 A 
ATOM     12  C   UNL A   1      32.179  25.513  26.354  1.00  0.00     0.262 A 
ATOM     13  C   UNL A   1      33.469  28.743  25.014  1.00  0.00     0.029 A 
ATOM     14  C   UNL A   1      32.356  26.961  26.171  1.00  0.00     0.066 A 
ATOM     15  O   UNL A   1      31.337  25.110  27.154  1.00  0.00    -0.269 OA
ATOM     16  C   UNL A   1      32.801  29.677  25.810  1.00  0.00     0.002 A 
ATOM     17  C   UNL A   1      31.672  27.885  26.968  1.00  0.00     0.016 A 
ATOM     18  C   UNL A   1      31.898  29.249  26.784  1.00  0.00     0.001 A 
BRANCH   9  19
ATOM     19  S   UNL A   1      34.566  24.094  23.466  1.00  0.00    -0.091 SA
ATOM     20  C   UNL A   1      33.230  23.721  22.307  1.00  0.00     0.094 C 
ENDBRANCH   9  19
ENDBRANCH   7   8
ENDBRANCH   4   7
ENDBRANCH   2   3
ENDBRANCH   1   2
BRANCH   1  21
ATOM     21  C   UNL A   1      37.493  21.478  24.969  1.00  0.00     0.118 C 
BRANCH  21  22
ATOM     22  N   UNL A   1      38.446  20.489  25.459  1.00  0.00    -0.352 N 
ATOM     23  C   UNL A   1      39.599  20.657  26.191  1.00  0.00     0.251 C 
ATOM     24  H   UNL A   1      38.231  19.555  25.231  1.00  0.00     0.163 HD
ATOM     25  O   UNL A   1      40.338  19.694  26.382  1.00  0.00    -0.269 OA
BRANCH  23  26
ATOM     26  C   UNL A   1      39.965  21.993  26.708  1.00  0.00     0.039 A 
ATOM     27  C   UNL A   1      39.387  23.149  26.182  1.00  0.00     0.014 A 
ATOM     28  C   UNL A   1      40.917  22.089  27.728  1.00  0.00     0.014 A 
ATOM     29  C   UNL A   1      39.883  24.399  26.547  1.00  0.00     0.010 A 
ATOM     30  C   UNL A   1      41.362  23.346  28.147  1.00  0.00     0.010 A 
ATOM     31  C   UNL A   1      40.888  24.510  27.521  1.00  0.00    -0.014 A 
BRANCH  31  32
ATOM     32  C   UNL A   1      41.457  25.842  27.853  1.00  0.00     0.031 A 
ATOM     33  C   UNL A   1      42.847  26.211  27.405  1.00  0.00     0.074 A 
ATOM     34  C   UNL A   1      40.708  26.738  28.526  1.00  0.00     0.049 A 
ATOM     35  N   UNL A   1      43.522  27.308  27.637  1.00  0.00    -0.248 NA
ATOM     36  C   UNL A   1      43.577  25.224  26.590  1.00  0.00     0.031 C 
ATOM     37  C   UNL A   1      39.344  26.509  29.005  1.00  0.00     0.029 A 
ATOM     38  N   UNL A   1      40.986  28.024  28.916  1.00  0.00    -0.354 N 
ATOM     39  C   UNL A   1      44.763  27.129  27.037  1.00  0.00     0.074 A 
ATOM     40  C   UNL A   1      44.753  25.817  26.428  1.00  0.00     0.031 C 
ATOM     41  C   UNL A   1      38.890  27.628  29.591  1.00  0.00     0.029 A 
ATOM     42  C   UNL A   1      39.947  28.634  29.578  1.00  0.00     0.049 A 
ATOM     43  H   UNL A   1      41.847  28.467  28.738  1.00  0.00     0.167 HD
ATOM     44  C   UNL A   1      45.808  27.986  26.980  1.00  0.00     0.034 A 
ATOM     45  C   UNL A   1      39.857  29.861  30.126  1.00  0.00     0.034 A 
ATOM     46  C   UNL A   1      45.801  29.313  27.534  1.00  0.00     0.049 A 
ATOM     47  C   UNL A   1      41.037  30.786  30.060  1.00  0.00     0.074 A 
ATOM     48  C   UNL A   1      46.812  30.259  27.506  1.00  0.00     0.029 A 
ATOM     49  N   UNL A   1      44.733  29.887  28.201  1.00  0.00    -0.354 N 
ATOM     50  N   UNL A   1      42.189  30.608  29.459  1.00  0.00    -0.248 NA
ATOM     51  C   UNL A   1      40.906  32.081  30.743  1.00  0.00     0.031 C 
ATOM     52  C   UNL A   1      46.351  31.409  28.152  1.00  0.00     0.029 A 
ATOM     53  C   UNL A   1      45.055  31.178  28.584  1.00  0.00     0.049 A 
ATOM     54  H   UNL A   1      43.872  29.444  28.377  1.00  0.00     0.167 HD
ATOM     55  C   UNL A   1      42.916  31.768  29.686  1.00  0.00     0.074 A 
ATOM     56  C   UNL A   1      42.068  32.655  30.454  1.00  0.00     0.031 C 
ATOM     57  C   UNL A   1      44.185  32.062  29.312  1.00  0.00     0.034 A 
BRANCH  44  58
ATOM     58  C   UNL A   1      47.042  27.551  26.241  1.00  0.00     0.023 A 
ATOM     59  C   UNL A   1      48.002  26.770  26.914  1.00  0.00     0.012 A 
ATOM     60  C   UNL A   1      47.201  27.818  24.868  1.00  0.00     0.148 A 
ATOM     61  C   UNL A   1      49.106  26.262  26.232  1.00  0.00     0.002 A 
ATOM     62  C   UNL A   1      48.291  27.288  24.188  1.00  0.00     0.091 A 
ATOM     63  F   UNL A   1      46.278  28.572  24.254  1.00  0.00    -0.205 F 
ATOM     64  C   UNL A   1      49.245  26.511  24.869  1.00  0.00     0.022 A 
BRANCH  62  65
ATOM     65  S   UNL A   1      48.546  27.507  22.423  1.00  0.00     0.127 S 
ATOM     66  O   UNL A   1      47.429  28.384  22.072  1.00  0.00    -0.237 OA
ATOM     67  O   UNL A   1      49.861  28.145  22.381  1.00  0.00    -0.237 OA
ATOM     68  O   UNL A   1      48.490  26.175  21.838  1.00  0.00    -0.744 OA
ENDBRANCH  62  65
ENDBRANCH  44  58
BRANCH  45  69
ATOM     69  C   UNL A   1      38.578  30.295  30.749  1.00  0.00     0.023 A 
ATOM     70  C   UNL A   1      38.359  30.031  32.115  1.00  0.00     0.012 A 
ATOM     71  C   UNL A   1      37.610  31.009  30.019  1.00  0.00     0.148 A 
ATOM     72  C   UNL A   1      37.192  30.467  32.742  1.00  0.00     0.002 A 
ATOM     73  C   UNL A   1      36.470  31.479  30.659  1.00  0.00     0.091 A 
ATOM     74  F   UNL A   1      37.837  31.232  28.716  1.00  0.00    -0.205 F 
ATOM     75  C   UNL A   1      36.255  31.200  32.018  1.00  0.00     0.022 A 
BRANCH  73  76
ATOM     76  S   UNL A   1      35.263  32.523  29.838  1.00  0.00     0.127 S 
ATOM     77  O   UNL A   1      36.093  33.633  29.376  1.00  0.00    -0.237 OA
ATOM     78  O   UNL A   1      34.768  31.639  28.782  1.00  0.00    -0.237 OA
ATOM     79  O   UNL A   1      34.274  32.857  30.854  1.00  0.00    -0.744 OA
ENDBRANCH  73  76
ENDBRANCH  45  69
BRANCH  57  80
ATOM     80  C   UNL A   1      44.744  33.393  29.727  1.00  0.00     0.023 A 
ATOM     81  C   UNL A   1      45.490  33.480  30.918  1.00  0.00     0.012 A 
ATOM     82  C   UNL A   1      44.614  34.525  28.902  1.00  0.00     0.148 A 
ATOM     83  C   UNL A   1      46.089  34.681  31.291  1.00  0.00     0.002 A 
ATOM     84  C   UNL A   1      45.241  35.712  29.263  1.00  0.00     0.091 A 
ATOM     85  F   UNL A   1      43.885  34.420  27.782  1.00  0.00    -0.205 F 
ATOM     86  C   UNL A   1      45.974  35.793  30.459  1.00  0.00     0.022 A 
BRANCH  84  87
ATOM     87  S   UNL A   1      45.207  37.175  28.222  1.00  0.00     0.127 S 
ATOM     88  O   UNL A   1      45.768  36.664  26.972  1.00  0.00    -0.237 OA
ATOM     89  O   UNL A   1      43.778  37.485  28.168  1.00  0.00    -0.237 OA
ATOM     90  O   UNL A   1      46.015  38.175  28.908  1.00  0.00    -0.744 OA
ENDBRANCH  84  87
ENDBRANCH  57  80
ENDBRANCH  31  32
ENDBRANCH  23  26
ENDBRANCH  21  22
ENDBRANCH   1  21
TORSDOF 15
ENDMDL
