MODEL 1
REMARK VINA RESULT:     -13.1      0.000      0.000
REMARK SMILES CC(C)(C)c1cc(-n2cnc(C(=O)NCCCNC(=O)c3ccc(-c4c5nc(c(-c6cccc(S(=O)(=O)[O-])c6F)c6ccc([nH]6)c(-c6cccc(S(=O)(=O)[O-])c6F)c6nc(c(-c7cccc(S(=O)(=O)[O-])c7F)c7ccc4[nH]7)C=C6)C=C5)cc3)c2)nc(Cl)n1
REMARK SMILES IDX 16 1 15 2 14 3 12 4 13 5 11 7 8 8 9 9 84 10 10 11 7 12 5 13
REMARK SMILES IDX 6 14 88 15 86 16 85 17 87 18 2 19 1 20 3 21 4 22 17 23 18 24
REMARK SMILES IDX 19 25 20 27 21 28 22 29 83 30 23 31 82 32 24 33 25 34 26 35
REMARK SMILES IDX 76 36 27 37 81 38 75 39 77 40 28 41 80 42 74 43 73 44 29 46
REMARK SMILES IDX 61 47 41 48 60 49 42 50 45 51 59 52 78 53 43 54 44 55 58 57
REMARK SMILES IDX 79 58 46 59 30 60 31 61 39 62 32 63 34 64 40 65 33 66 35 67
REMARK SMILES IDX 36 68 37 69 38 70 62 71 63 72 71 73 64 74 66 75 72 76 65 77
REMARK SMILES IDX 67 78 68 79 69 80 70 81 47 82 48 83 56 84 49 85 51 86 57 87
REMARK SMILES IDX 50 88 52 89 53 90 54 91 55 92
REMARK H PARENT 14 6 18 26 77 45 45 56
REMARK Flexibility Score: inf
ROOT
ATOM      1  C   UNL A   1      38.087  19.540  25.039  1.00  0.00     0.042 C 
ENDROOT
BRANCH   1   2
ATOM      2  C   UNL A   1      36.920  20.538  24.967  1.00  0.00     0.118 C 
BRANCH   2   3
ATOM      3  N   UNL A   1      35.615  19.909  25.081  1.00  0.00    -0.351 N 
ATOM      4  C   UNL A   1      34.331  20.393  24.894  1.00  0.00     0.271 C 
ATOM      5  O   UNL A   1      33.428  19.570  24.845  1.00  0.00    -0.267 OA
ATOM      6  H   UNL A   1      35.651  18.959  25.341  1.00  0.00     0.163 HD
BRANCH   4   7
ATOM      7  C   UNL A   1      34.085  21.834  24.717  1.00  0.00     0.146 A 
ATOM      8  N   UNL A   1      33.526  23.810  23.921  1.00  0.00    -0.290 N 
ATOM      9  C   UNL A   1      33.810  23.928  25.249  1.00  0.00     0.206 A 
ATOM     10  C   UNL A   1      33.855  22.532  23.557  1.00  0.00     0.128 A 
ATOM     11  N   UNL A   1      34.074  22.746  25.773  1.00  0.00    -0.231 NA
BRANCH   8  12
ATOM     12  C   UNL A   1      32.892  24.733  23.070  1.00  0.00     0.143 A 
ATOM     13  C   UNL A   1      31.289  26.457  22.850  1.00  0.00     0.053 A 
ATOM     14  C   UNL A   1      31.948  25.564  23.664  1.00  0.00     0.072 A 
ATOM     15  N   UNL A   1      31.509  26.449  21.517  1.00  0.00    -0.222 NA
ATOM     16  C   UNL A   1      32.437  25.589  21.055  1.00  0.00     0.224 A 
ATOM     17  N   UNL A   1      33.199  24.755  21.767  1.00  0.00    -0.200 NA
ATOM     18  Cl  UNL A   1      32.610  25.515  19.359  1.00  0.00    -0.041 Cl
BRANCH  13  19
ATOM     19  C   UNL A   1      30.369  27.549  23.411  1.00  0.00     0.004 C 
ATOM     20  C   UNL A   1      30.883  28.210  24.709  1.00  0.00     0.017 C 
ATOM     21  C   UNL A   1      28.979  26.961  23.711  1.00  0.00     0.017 C 
ATOM     22  C   UNL A   1      30.244  28.645  22.336  1.00  0.00     0.017 C 
ENDBRANCH  13  19
ENDBRANCH   8  12
ENDBRANCH   4   7
ENDBRANCH   2   3
ENDBRANCH   1   2
BRANCH   1  23
ATOM     23  C   UNL A   1      39.284  20.129  25.767  1.00  0.00     0.118 C 
BRANCH  23  24
ATOM     24  N   UNL A   1      40.432  19.207  25.778  1.00  0.00    -0.352 N 
ATOM     25  C   UNL A   1      41.776  19.498  25.931  1.00  0.00     0.251 C 
ATOM     26  H   UNL A   1      40.214  18.254  25.662  1.00  0.00     0.163 HD
ATOM     27  O   UNL A   1      42.632  18.689  25.591  1.00  0.00    -0.269 OA
BRANCH  25  28
ATOM     28  C   UNL A   1      42.153  20.792  26.520  1.00  0.00     0.039 A 
ATOM     29  C   UNL A   1      42.666  21.846  25.756  1.00  0.00     0.014 A 
ATOM     30  C   UNL A   1      41.928  20.945  27.882  1.00  0.00     0.014 A 
ATOM     31  C   UNL A   1      42.874  23.074  26.377  1.00  0.00     0.010 A 
ATOM     32  C   UNL A   1      41.894  22.196  28.418  1.00  0.00     0.010 A 
ATOM     33  C   UNL A   1      42.466  23.241  27.710  1.00  0.00    -0.014 A 
BRANCH  33  34
ATOM     34  C   UNL A   1      42.503  24.529  28.382  1.00  0.00     0.031 A 
ATOM     35  C   UNL A   1      41.297  25.355  28.128  1.00  0.00     0.074 A 
ATOM     36  C   UNL A   1      43.415  24.807  29.342  1.00  0.00     0.049 A 
ATOM     37  N   UNL A   1      41.213  26.412  27.390  1.00  0.00    -0.248 NA
ATOM     38  C   UNL A   1      39.992  24.830  28.563  1.00  0.00     0.031 C 
ATOM     39  C   UNL A   1      44.443  23.914  29.901  1.00  0.00     0.029 A 
ATOM     40  N   UNL A   1      43.521  25.904  30.136  1.00  0.00    -0.354 N 
ATOM     41  C   UNL A   1      39.895  26.844  27.524  1.00  0.00     0.074 A 
ATOM     42  C   UNL A   1      39.158  25.705  27.996  1.00  0.00     0.031 C 
ATOM     43  C   UNL A   1      44.876  24.402  31.085  1.00  0.00     0.029 A 
ATOM     44  C   UNL A   1      44.298  25.716  31.279  1.00  0.00     0.049 A 
ATOM     45  H   UNL A   1      43.086  26.761  29.923  1.00  0.00     0.167 HD
ATOM     46  C   UNL A   1      39.605  28.175  27.557  1.00  0.00     0.034 A 
ATOM     47  C   UNL A   1      44.424  26.568  32.327  1.00  0.00     0.034 A 
ATOM     48  C   UNL A   1      40.737  28.951  27.096  1.00  0.00     0.049 A 
ATOM     49  C   UNL A   1      44.009  27.904  31.842  1.00  0.00     0.074 A 
ATOM     50  C   UNL A   1      41.488  29.003  25.939  1.00  0.00     0.029 A 
ATOM     51  N   UNL A   1      41.499  29.549  28.071  1.00  0.00    -0.354 N 
ATOM     52  N   UNL A   1      44.657  28.561  30.921  1.00  0.00    -0.248 NA
ATOM     53  C   UNL A   1      42.622  28.291  32.034  1.00  0.00     0.031 C 
ATOM     54  C   UNL A   1      42.830  29.210  26.380  1.00  0.00     0.029 A 
ATOM     55  C   UNL A   1      42.820  29.356  27.770  1.00  0.00     0.049 A 
ATOM     56  H   UNL A   1      41.155  30.034  28.854  1.00  0.00     0.167 HD
ATOM     57  C   UNL A   1      43.658  29.082  30.109  1.00  0.00     0.074 A 
ATOM     58  C   UNL A   1      42.436  28.987  30.908  1.00  0.00     0.031 C 
ATOM     59  C   UNL A   1      43.863  29.251  28.768  1.00  0.00     0.034 A 
BRANCH  46  60
ATOM     60  C   UNL A   1      38.519  28.819  28.408  1.00  0.00     0.023 A 
ATOM     61  C   UNL A   1      37.686  29.760  27.756  1.00  0.00     0.012 A 
ATOM     62  C   UNL A   1      38.446  28.789  29.820  1.00  0.00     0.148 A 
ATOM     63  C   UNL A   1      36.919  30.688  28.468  1.00  0.00     0.002 A 
ATOM     64  C   UNL A   1      37.634  29.674  30.524  1.00  0.00     0.091 A 
ATOM     65  F   UNL A   1      39.239  27.985  30.526  1.00  0.00    -0.205 F 
ATOM     66  C   UNL A   1      36.898  30.650  29.854  1.00  0.00     0.022 A 
BRANCH  64  67
ATOM     67  S   UNL A   1      37.540  29.647  32.321  1.00  0.00     0.127 S 
ATOM     68  O   UNL A   1      38.787  30.315  32.684  1.00  0.00    -0.237 OA
ATOM     69  O   UNL A   1      36.325  30.423  32.565  1.00  0.00    -0.237 OA
ATOM     70  O   UNL A   1      37.437  28.242  32.695  1.00  0.00    -0.744 OA
ENDBRANCH  64  67
ENDBRANCH  46  60
BRANCH  47  71
ATOM     71  C   UNL A   1      44.633  26.286  33.766  1.00  0.00     0.023 A 
ATOM     72  C   UNL A   1      45.921  26.393  34.330  1.00  0.00     0.012 A 
ATOM     73  C   UNL A   1      43.529  26.191  34.643  1.00  0.00     0.148 A 
ATOM     74  C   UNL A   1      46.100  26.430  35.720  1.00  0.00     0.002 A 
ATOM     75  C   UNL A   1      43.714  26.224  36.023  1.00  0.00     0.091 A 
ATOM     76  F   UNL A   1      42.297  26.158  34.120  1.00  0.00    -0.205 F 
ATOM     77  C   UNL A   1      44.997  26.355  36.566  1.00  0.00     0.022 A 
BRANCH  75  78
ATOM     78  S   UNL A   1      42.338  26.162  37.179  1.00  0.00     0.127 S 
ATOM     79  O   UNL A   1      41.792  24.829  36.922  1.00  0.00    -0.237 OA
ATOM     80  O   UNL A   1      43.017  26.310  38.463  1.00  0.00    -0.237 OA
ATOM     81  O   UNL A   1      41.457  27.259  36.802  1.00  0.00    -0.744 OA
ENDBRANCH  75  78
ENDBRANCH  47  71
BRANCH  59  82
ATOM     82  C   UNL A   1      45.272  29.089  28.243  1.00  0.00     0.023 A 
ATOM     83  C   UNL A   1      46.258  30.089  28.385  1.00  0.00     0.012 A 
ATOM     84  C   UNL A   1      45.653  27.829  27.755  1.00  0.00     0.148 A 
ATOM     85  C   UNL A   1      47.590  29.842  28.034  1.00  0.00     0.002 A 
ATOM     86  C   UNL A   1      46.984  27.573  27.450  1.00  0.00     0.091 A 
ATOM     87  F   UNL A   1      44.706  26.887  27.634  1.00  0.00    -0.205 F 
ATOM     88  C   UNL A   1      47.955  28.578  27.580  1.00  0.00     0.022 A 
BRANCH  86  89
ATOM     89  S   UNL A   1      47.542  25.934  26.980  1.00  0.00     0.127 S 
ATOM     90  O   UNL A   1      46.652  25.617  25.865  1.00  0.00    -0.237 OA
ATOM     91  O   UNL A   1      48.936  26.175  26.602  1.00  0.00    -0.237 OA
ATOM     92  O   UNL A   1      47.382  25.098  28.164  1.00  0.00    -0.744 OA
ENDBRANCH  86  89
ENDBRANCH  59  82
ENDBRANCH  33  34
ENDBRANCH  25  28
ENDBRANCH  23  24
ENDBRANCH   1  23
TORSDOF 15
ENDMDL
MODEL 2
REMARK VINA RESULT:     -12.6      4.196      9.643
REMARK SMILES CC(C)(C)c1cc(-n2cnc(C(=O)NCCCNC(=O)c3ccc(-c4c5nc(c(-c6cccc(S(=O)(=O)[O-])c6F)c6ccc([nH]6)c(-c6cccc(S(=O)(=O)[O-])c6F)c6nc(c(-c7cccc(S(=O)(=O)[O-])c7F)c7ccc4[nH]7)C=C6)C=C5)cc3)c2)nc(Cl)n1
REMARK SMILES IDX 16 1 15 2 14 3 12 4 13 5 11 7 8 8 9 9 84 10 10 11 7 12 5 13
REMARK SMILES IDX 6 14 88 15 86 16 85 17 87 18 2 19 1 20 3 21 4 22 17 23 18 24
REMARK SMILES IDX 19 25 20 27 21 28 22 29 83 30 23 31 82 32 24 33 25 34 26 35
REMARK SMILES IDX 76 36 27 37 81 38 75 39 77 40 28 41 80 42 74 43 73 44 29 46
REMARK SMILES IDX 61 47 41 48 60 49 42 50 45 51 59 52 78 53 43 54 44 55 58 57
REMARK SMILES IDX 79 58 46 59 30 60 31 61 39 62 32 63 34 64 40 65 33 66 35 67
REMARK SMILES IDX 36 68 37 69 38 70 62 71 63 72 71 73 64 74 66 75 72 76 65 77
REMARK SMILES IDX 67 78 68 79 69 80 70 81 47 82 48 83 56 84 49 85 51 86 57 87
REMARK SMILES IDX 50 88 52 89 53 90 54 91 55 92
REMARK H PARENT 14 6 18 26 77 45 45 56
REMARK Flexibility Score: inf
ROOT
ATOM      1  C   UNL A   1      31.475  32.174  26.859  1.00  0.00     0.042 C 
ENDROOT
BRANCH   1   2
ATOM      2  C   UNL A   1      31.725  30.805  26.208  1.00  0.00     0.118 C 
BRANCH   2   3
ATOM      3  N   UNL A   1      30.925  30.576  25.017  1.00  0.00    -0.351 N 
ATOM      4  C   UNL A   1      30.916  29.551  24.086  1.00  0.00     0.271 C 
ATOM      5  O   UNL A   1      29.975  29.516  23.306  1.00  0.00    -0.267 OA
ATOM      6  H   UNL A   1      30.264  31.285  24.838  1.00  0.00     0.163 HD
BRANCH   4   7
ATOM      7  C   UNL A   1      31.976  28.528  24.079  1.00  0.00     0.146 A 
ATOM      8  N   UNL A   1      33.100  26.636  24.155  1.00  0.00    -0.290 N 
ATOM      9  C   UNL A   1      33.933  27.634  23.742  1.00  0.00     0.206 A 
ATOM     10  C   UNL A   1      31.921  27.229  24.519  1.00  0.00     0.128 A 
ATOM     11  N   UNL A   1      33.269  28.766  23.612  1.00  0.00    -0.231 NA
BRANCH   8  12
ATOM     12  C   UNL A   1      33.302  25.246  24.110  1.00  0.00     0.143 A 
ATOM     13  C   UNL A   1      34.797  23.442  24.437  1.00  0.00     0.053 A 
ATOM     14  C   UNL A   1      34.560  24.798  24.500  1.00  0.00     0.072 A 
ATOM     15  N   UNL A   1      33.857  22.613  23.934  1.00  0.00    -0.222 NA
ATOM     16  C   UNL A   1      32.681  23.164  23.576  1.00  0.00     0.224 A 
ATOM     17  N   UNL A   1      32.316  24.444  23.689  1.00  0.00    -0.200 NA
ATOM     18  Cl  UNL A   1      31.557  22.116  22.835  1.00  0.00    -0.041 Cl
BRANCH  13  19
ATOM     19  C   UNL A   1      36.069  22.809  25.013  1.00  0.00     0.004 C 
ATOM     20  C   UNL A   1      36.856  23.722  25.979  1.00  0.00     0.017 C 
ATOM     21  C   UNL A   1      37.023  22.415  23.870  1.00  0.00     0.017 C 
ATOM     22  C   UNL A   1      35.646  21.547  25.789  1.00  0.00     0.017 C 
ENDBRANCH  13  19
ENDBRANCH   8  12
ENDBRANCH   4   7
ENDBRANCH   2   3
ENDBRANCH   1   2
BRANCH   1  23
ATOM     23  C   UNL A   1      32.776  32.897  27.162  1.00  0.00     0.118 C 
BRANCH  23  24
ATOM     24  N   UNL A   1      32.548  34.195  27.820  1.00  0.00    -0.352 N 
ATOM     25  C   UNL A   1      33.156  34.714  28.949  1.00  0.00     0.251 C 
ATOM     26  H   UNL A   1      31.872  34.773  27.398  1.00  0.00     0.163 HD
ATOM     27  O   UNL A   1      32.640  35.640  29.565  1.00  0.00    -0.269 OA
BRANCH  25  28
ATOM     28  C   UNL A   1      34.437  34.136  29.387  1.00  0.00     0.039 A 
ATOM     29  C   UNL A   1      34.523  33.180  30.404  1.00  0.00     0.014 A 
ATOM     30  C   UNL A   1      35.572  34.551  28.703  1.00  0.00     0.014 A 
ATOM     31  C   UNL A   1      35.761  32.598  30.662  1.00  0.00     0.010 A 
ATOM     32  C   UNL A   1      36.711  33.810  28.785  1.00  0.00     0.010 A 
ATOM     33  C   UNL A   1      36.847  32.911  29.830  1.00  0.00    -0.014 A 
BRANCH  33  34
ATOM     34  C   UNL A   1      38.129  32.233  29.932  1.00  0.00     0.031 A 
ATOM     35  C   UNL A   1      38.112  30.862  29.365  1.00  0.00     0.074 A 
ATOM     36  C   UNL A   1      39.261  32.895  30.262  1.00  0.00     0.049 A 
ATOM     37  N   UNL A   1      38.142  29.746  30.013  1.00  0.00    -0.248 NA
ATOM     38  C   UNL A   1      37.808  30.708  27.932  1.00  0.00     0.031 C 
ATOM     39  C   UNL A   1      39.429  34.336  30.512  1.00  0.00     0.029 A 
ATOM     40  N   UNL A   1      40.543  32.444  30.296  1.00  0.00    -0.354 N 
ATOM     41  C   UNL A   1      38.164  28.757  29.031  1.00  0.00     0.074 A 
ATOM     42  C   UNL A   1      37.673  29.384  27.837  1.00  0.00     0.031 C 
ATOM     43  C   UNL A   1      40.736  34.667  30.412  1.00  0.00     0.029 A 
ATOM     44  C   UNL A   1      41.508  33.450  30.275  1.00  0.00     0.049 A 
ATOM     45  H   UNL A   1      40.771  31.487  30.333  1.00  0.00     0.167 HD
ATOM     46  C   UNL A   1      38.896  27.622  29.212  1.00  0.00     0.034 A 
ATOM     47  C   UNL A   1      42.847  33.290  30.117  1.00  0.00     0.034 A 
ATOM     48  C   UNL A   1      39.284  27.484  30.600  1.00  0.00     0.049 A 
ATOM     49  C   UNL A   1      43.151  31.884  30.461  1.00  0.00     0.074 A 
ATOM     50  C   UNL A   1      38.615  27.408  31.804  1.00  0.00     0.029 A 
ATOM     51  N   UNL A   1      40.578  27.833  30.905  1.00  0.00    -0.354 N 
ATOM     52  N   UNL A   1      42.993  31.393  31.659  1.00  0.00    -0.248 NA
ATOM     53  C   UNL A   1      43.174  30.913  29.381  1.00  0.00     0.031 C 
ATOM     54  C   UNL A   1      39.416  28.158  32.718  1.00  0.00     0.029 A 
ATOM     55  C   UNL A   1      40.568  28.581  32.050  1.00  0.00     0.049 A 
ATOM     56  H   UNL A   1      41.377  27.587  30.387  1.00  0.00     0.167 HD
ATOM     57  C   UNL A   1      42.420  30.147  31.442  1.00  0.00     0.074 A 
ATOM     58  C   UNL A   1      42.669  29.859  30.029  1.00  0.00     0.031 C 
ATOM     59  C   UNL A   1      41.539  29.614  32.343  1.00  0.00     0.034 A 
BRANCH  46  60
ATOM     60  C   UNL A   1      39.653  26.879  28.119  1.00  0.00     0.023 A 
ATOM     61  C   UNL A   1      39.490  25.473  28.086  1.00  0.00     0.012 A 
ATOM     62  C   UNL A   1      40.706  27.407  27.334  1.00  0.00     0.148 A 
ATOM     63  C   UNL A   1      40.386  24.639  27.411  1.00  0.00     0.002 A 
ATOM     64  C   UNL A   1      41.559  26.577  26.613  1.00  0.00     0.091 A 
ATOM     65  F   UNL A   1      40.981  28.710  27.352  1.00  0.00    -0.205 F 
ATOM     66  C   UNL A   1      41.427  25.191  26.678  1.00  0.00     0.022 A 
BRANCH  64  67
ATOM     67  S   UNL A   1      42.905  27.239  25.618  1.00  0.00     0.127 S 
ATOM     68  O   UNL A   1      43.740  27.862  26.642  1.00  0.00    -0.237 OA
ATOM     69  O   UNL A   1      43.456  26.024  25.020  1.00  0.00    -0.237 OA
ATOM     70  O   UNL A   1      42.285  28.148  24.661  1.00  0.00    -0.744 OA
ENDBRANCH  64  67
ENDBRANCH  46  60
BRANCH  47  71
ATOM     71  C   UNL A   1      43.841  34.171  29.461  1.00  0.00     0.023 A 
ATOM     72  C   UNL A   1      44.616  35.063  30.231  1.00  0.00     0.012 A 
ATOM     73  C   UNL A   1      44.232  33.935  28.124  1.00  0.00     0.148 A 
ATOM     74  C   UNL A   1      45.756  35.678  29.694  1.00  0.00     0.002 A 
ATOM     75  C   UNL A   1      45.362  34.552  27.595  1.00  0.00     0.091 A 
ATOM     76  F   UNL A   1      43.545  33.038  27.405  1.00  0.00    -0.205 F 
ATOM     77  C   UNL A   1      46.134  35.417  28.380  1.00  0.00     0.022 A 
BRANCH  75  78
ATOM     78  S   UNL A   1      45.932  34.242  25.918  1.00  0.00     0.127 S 
ATOM     79  O   UNL A   1      44.735  34.552  25.134  1.00  0.00    -0.237 OA
ATOM     80  O   UNL A   1      47.019  35.210  25.785  1.00  0.00    -0.237 OA
ATOM     81  O   UNL A   1      46.328  32.841  25.889  1.00  0.00    -0.744 OA
ENDBRANCH  75  78
ENDBRANCH  47  71
BRANCH  59  82
ATOM     82  C   UNL A   1      41.397  30.300  33.682  1.00  0.00     0.023 A 
ATOM     83  C   UNL A   1      42.357  30.173  34.710  1.00  0.00     0.012 A 
ATOM     84  C   UNL A   1      40.362  31.235  33.838  1.00  0.00     0.148 A 
ATOM     85  C   UNL A   1      42.277  30.948  35.871  1.00  0.00     0.002 A 
ATOM     86  C   UNL A   1      40.310  32.037  34.973  1.00  0.00     0.091 A 
ATOM     87  F   UNL A   1      39.464  31.352  32.849  1.00  0.00    -0.205 F 
ATOM     88  C   UNL A   1      41.260  31.891  35.996  1.00  0.00     0.022 A 
BRANCH  86  89
ATOM     89  S   UNL A   1      39.104  33.353  35.139  1.00  0.00     0.127 S 
ATOM     90  O   UNL A   1      37.844  32.614  35.142  1.00  0.00    -0.237 OA
ATOM     91  O   UNL A   1      39.467  33.949  36.426  1.00  0.00    -0.237 OA
ATOM     92  O   UNL A   1      39.308  34.236  33.996  1.00  0.00    -0.744 OA
ENDBRANCH  86  89
ENDBRANCH  59  82
ENDBRANCH  33  34
ENDBRANCH  25  28
ENDBRANCH  23  24
ENDBRANCH   1  23
TORSDOF 15
ENDMDL
MODEL 3
REMARK VINA RESULT:     -12.5      4.596      9.731
REMARK SMILES CC(C)(C)c1cc(-n2cnc(C(=O)NCCCNC(=O)c3ccc(-c4c5nc(c(-c6cccc(S(=O)(=O)[O-])c6F)c6ccc([nH]6)c(-c6cccc(S(=O)(=O)[O-])c6F)c6nc(c(-c7cccc(S(=O)(=O)[O-])c7F)c7ccc4[nH]7)C=C6)C=C5)cc3)c2)nc(Cl)n1
REMARK SMILES IDX 16 1 15 2 14 3 12 4 13 5 11 7 8 8 9 9 84 10 10 11 7 12 5 13
REMARK SMILES IDX 6 14 88 15 86 16 85 17 87 18 2 19 1 20 3 21 4 22 17 23 18 24
REMARK SMILES IDX 19 25 20 27 21 28 22 29 83 30 23 31 82 32 24 33 25 34 26 35
REMARK SMILES IDX 76 36 27 37 81 38 75 39 77 40 28 41 80 42 74 43 73 44 29 46
REMARK SMILES IDX 61 47 41 48 60 49 42 50 45 51 59 52 78 53 43 54 44 55 58 57
REMARK SMILES IDX 79 58 46 59 30 60 31 61 39 62 32 63 34 64 40 65 33 66 35 67
REMARK SMILES IDX 36 68 37 69 38 70 62 71 63 72 71 73 64 74 66 75 72 76 65 77
REMARK SMILES IDX 67 78 68 79 69 80 70 81 47 82 48 83 56 84 49 85 51 86 57 87
REMARK SMILES IDX 50 88 52 89 53 90 54 91 55 92
REMARK H PARENT 14 6 18 26 77 45 45 56
REMARK Flexibility Score: inf
ROOT
ATOM      1  C   UNL A   1      31.259  31.939  26.526  1.00  0.00     0.042 C 
ENDROOT
BRANCH   1   2
ATOM      2  C   UNL A   1      31.570  30.641  25.765  1.00  0.00     0.118 C 
BRANCH   2   3
ATOM      3  N   UNL A   1      30.721  30.434  24.603  1.00  0.00    -0.351 N 
ATOM      4  C   UNL A   1      30.641  29.403  23.682  1.00  0.00     0.271 C 
ATOM      5  O   UNL A   1      29.673  29.399  22.935  1.00  0.00    -0.267 OA
ATOM      6  H   UNL A   1      30.082  31.167  24.441  1.00  0.00     0.163 HD
BRANCH   4   7
ATOM      7  C   UNL A   1      31.660  28.341  23.647  1.00  0.00     0.146 A 
ATOM      8  N   UNL A   1      32.825  26.506  23.999  1.00  0.00    -0.290 N 
ATOM      9  C   UNL A   1      33.344  27.165  22.924  1.00  0.00     0.206 A 
ATOM     10  C   UNL A   1      31.875  27.325  24.546  1.00  0.00     0.128 A 
ATOM     11  N   UNL A   1      32.619  28.230  22.640  1.00  0.00    -0.231 NA
BRANCH   8  12
ATOM     12  C   UNL A   1      33.075  25.191  24.429  1.00  0.00     0.143 A 
ATOM     13  C   UNL A   1      34.628  23.416  24.600  1.00  0.00     0.053 A 
ATOM     14  C   UNL A   1      34.363  24.712  24.217  1.00  0.00     0.072 A 
ATOM     15  N   UNL A   1      33.637  22.636  25.083  1.00  0.00    -0.222 NA
ATOM     16  C   UNL A   1      32.425  23.206  25.232  1.00  0.00     0.224 A 
ATOM     17  N   UNL A   1      32.089  24.475  24.985  1.00  0.00    -0.200 NA
ATOM     18  Cl  UNL A   1      31.165  22.170  25.731  1.00  0.00    -0.041 Cl
BRANCH  13  19
ATOM     19  C   UNL A   1      36.048  22.836  24.594  1.00  0.00     0.004 C 
ATOM     20  C   UNL A   1      36.744  22.868  23.214  1.00  0.00     0.017 C 
ATOM     21  C   UNL A   1      36.019  21.370  25.062  1.00  0.00     0.017 C 
ATOM     22  C   UNL A   1      36.893  23.673  25.572  1.00  0.00     0.017 C 
ENDBRANCH  13  19
ENDBRANCH   8  12
ENDBRANCH   4   7
ENDBRANCH   2   3
ENDBRANCH   1   2
BRANCH   1  23
ATOM     23  C   UNL A   1      32.492  32.490  27.222  1.00  0.00     0.118 C 
BRANCH  23  24
ATOM     24  N   UNL A   1      32.305  33.884  27.657  1.00  0.00    -0.352 N 
ATOM     25  C   UNL A   1      32.980  34.584  28.642  1.00  0.00     0.251 C 
ATOM     26  H   UNL A   1      31.605  34.388  27.183  1.00  0.00     0.163 HD
ATOM     27  O   UNL A   1      32.502  35.607  29.118  1.00  0.00    -0.269 OA
BRANCH  25  28
ATOM     28  C   UNL A   1      34.284  34.076  29.096  1.00  0.00     0.039 A 
ATOM     29  C   UNL A   1      34.422  33.252  30.218  1.00  0.00     0.014 A 
ATOM     30  C   UNL A   1      35.387  34.416  28.323  1.00  0.00     0.014 A 
ATOM     31  C   UNL A   1      35.677  32.718  30.496  1.00  0.00     0.010 A 
ATOM     32  C   UNL A   1      36.539  33.701  28.450  1.00  0.00     0.010 A 
ATOM     33  C   UNL A   1      36.727  32.938  29.591  1.00  0.00    -0.014 A 
BRANCH  33  34
ATOM     34  C   UNL A   1      38.022  32.290  29.724  1.00  0.00     0.031 A 
ATOM     35  C   UNL A   1      38.032  30.896  29.218  1.00  0.00     0.074 A 
ATOM     36  C   UNL A   1      39.140  32.988  30.026  1.00  0.00     0.049 A 
ATOM     37  N   UNL A   1      38.083  29.810  29.915  1.00  0.00    -0.248 NA
ATOM     38  C   UNL A   1      37.734  30.673  27.793  1.00  0.00     0.031 C 
ATOM     39  C   UNL A   1      39.280  34.442  30.211  1.00  0.00     0.029 A 
ATOM     40  N   UNL A   1      40.430  32.564  30.081  1.00  0.00    -0.354 N 
ATOM     41  C   UNL A   1      38.126  28.779  28.978  1.00  0.00     0.074 A 
ATOM     42  C   UNL A   1      37.625  29.343  27.756  1.00  0.00     0.031 C 
ATOM     43  C   UNL A   1      40.580  34.793  30.099  1.00  0.00     0.029 A 
ATOM     44  C   UNL A   1      41.376  33.586  30.016  1.00  0.00     0.049 A 
ATOM     45  H   UNL A   1      40.676  31.614  30.160  1.00  0.00     0.167 HD
ATOM     46  C   UNL A   1      38.879  27.667  29.209  1.00  0.00     0.034 A 
ATOM     47  C   UNL A   1      42.718  33.446  29.867  1.00  0.00     0.034 A 
ATOM     48  C   UNL A   1      39.267  27.599  30.602  1.00  0.00     0.049 A 
ATOM     49  C   UNL A   1      43.048  32.062  30.274  1.00  0.00     0.074 A 
ATOM     50  C   UNL A   1      38.597  27.563  31.809  1.00  0.00     0.029 A 
ATOM     51  N   UNL A   1      40.554  27.986  30.893  1.00  0.00    -0.354 N 
ATOM     52  N   UNL A   1      42.897  31.622  31.492  1.00  0.00    -0.248 NA
ATOM     53  C   UNL A   1      43.093  31.046  29.238  1.00  0.00     0.031 C 
ATOM     54  C   UNL A   1      39.382  28.368  32.689  1.00  0.00     0.029 A 
ATOM     55  C   UNL A   1      40.526  28.784  32.005  1.00  0.00     0.049 A 
ATOM     56  H   UNL A   1      41.359  27.733  30.388  1.00  0.00     0.167 HD
ATOM     57  C   UNL A   1      42.349  30.356  31.330  1.00  0.00     0.074 A 
ATOM     58  C   UNL A   1      42.606  30.012  29.931  1.00  0.00     0.031 C 
ATOM     59  C   UNL A   1      41.477  29.848  32.252  1.00  0.00     0.034 A 
BRANCH  46  60
ATOM     60  C   UNL A   1      39.653  26.892  28.151  1.00  0.00     0.023 A 
ATOM     61  C   UNL A   1      39.505  25.485  28.172  1.00  0.00     0.012 A 
ATOM     62  C   UNL A   1      40.705  27.401  27.355  1.00  0.00     0.148 A 
ATOM     63  C   UNL A   1      40.416  24.635  27.535  1.00  0.00     0.002 A 
ATOM     64  C   UNL A   1      41.573  26.554  26.671  1.00  0.00     0.091 A 
ATOM     65  F   UNL A   1      40.966  28.707  27.324  1.00  0.00    -0.205 F 
ATOM     66  C   UNL A   1      41.456  25.170  26.790  1.00  0.00     0.022 A 
BRANCH  64  67
ATOM     67  S   UNL A   1      42.919  27.193  25.662  1.00  0.00     0.127 S 
ATOM     68  O   UNL A   1      43.478  25.960  25.114  1.00  0.00    -0.237 OA
ATOM     69  O   UNL A   1      42.198  28.030  24.703  1.00  0.00    -0.237 OA
ATOM     70  O   UNL A   1      43.784  27.935  26.572  1.00  0.00    -0.744 OA
ENDBRANCH  64  67
ENDBRANCH  46  60
BRANCH  47  71
ATOM     71  C   UNL A   1      43.696  34.316  29.174  1.00  0.00     0.023 A 
ATOM     72  C   UNL A   1      43.928  34.162  27.792  1.00  0.00     0.012 A 
ATOM     73  C   UNL A   1      44.191  35.479  29.805  1.00  0.00     0.148 A 
ATOM     74  C   UNL A   1      44.606  35.146  27.058  1.00  0.00     0.002 A 
ATOM     75  C   UNL A   1      44.868  36.451  29.073  1.00  0.00     0.091 A 
ATOM     76  F   UNL A   1      43.918  35.669  31.103  1.00  0.00    -0.205 F 
ATOM     77  C   UNL A   1      45.067  36.294  27.696  1.00  0.00     0.022 A 
BRANCH  75  78
ATOM     78  S   UNL A   1      45.467  37.973  29.819  1.00  0.00     0.127 S 
ATOM     79  O   UNL A   1      46.140  38.614  28.689  1.00  0.00    -0.237 OA
ATOM     80  O   UNL A   1      44.222  38.615  30.235  1.00  0.00    -0.237 OA
ATOM     81  O   UNL A   1      46.355  37.561  30.898  1.00  0.00    -0.744 OA
ENDBRANCH  75  78
ENDBRANCH  47  71
BRANCH  59  82
ATOM     82  C   UNL A   1      41.319  30.589  33.560  1.00  0.00     0.023 A 
ATOM     83  C   UNL A   1      42.277  30.522  34.595  1.00  0.00     0.012 A 
ATOM     84  C   UNL A   1      40.269  31.514  33.671  1.00  0.00     0.148 A 
ATOM     85  C   UNL A   1      42.180  31.346  35.721  1.00  0.00     0.002 A 
ATOM     86  C   UNL A   1      40.200  32.363  34.769  1.00  0.00     0.091 A 
ATOM     87  F   UNL A   1      39.372  31.572  32.676  1.00  0.00    -0.205 F 
ATOM     88  C   UNL A   1      41.148  32.277  35.801  1.00  0.00     0.022 A 
BRANCH  86  89
ATOM     89  S   UNL A   1      38.972  33.666  34.874  1.00  0.00     0.127 S 
ATOM     90  O   UNL A   1      37.725  32.907  34.911  1.00  0.00    -0.237 OA
ATOM     91  O   UNL A   1      39.325  34.327  36.132  1.00  0.00    -0.237 OA
ATOM     92  O   UNL A   1      39.163  34.497  33.691  1.00  0.00    -0.744 OA
ENDBRANCH  86  89
ENDBRANCH  59  82
ENDBRANCH  33  34
ENDBRANCH  25  28
ENDBRANCH  23  24
ENDBRANCH   1  23
TORSDOF 15
ENDMDL
