MODEL 1
REMARK VINA RESULT:     -12.2      0.000      0.000
REMARK SMILES CC(C)c1ccc([C@]2(C(=O)NCCCNC(=O)c3ccc(-c4c5nc(c(-c6cccc(S(=O)(=O)[O-])c6F)c6ccc([nH]6)c(-c6cccc(S(=O)(=O)[O-])c6F)c6nc(c(-c7cccc(S(=O)(=O)[O-])c7F)c7ccc4[nH]7)C=C6)C=C5)cc3)CCC[C@@H]2C)cc1
REMARK SMILES IDX 13 1 12 2 11 3 9 4 10 5 8 7 81 8 84 9 82 10 83 11 85 12 7 13
REMARK SMILES IDX 4 14 5 15 87 16 6 17 86 18 2 19 1 20 3 21 14 22 15 23 16 24
REMARK SMILES IDX 17 26 18 27 19 28 80 29 20 30 79 31 21 32 22 33 23 34 73 35
REMARK SMILES IDX 24 36 78 37 72 38 74 39 25 40 77 41 71 42 70 43 26 45 58 46
REMARK SMILES IDX 38 47 57 48 39 49 42 50 56 51 75 52 40 53 41 54 55 56 76 57
REMARK SMILES IDX 43 58 27 59 28 60 36 61 29 62 31 63 37 64 30 65 32 66 33 67
REMARK SMILES IDX 34 68 35 69 59 70 60 71 68 72 61 73 63 74 69 75 62 76 64 77
REMARK SMILES IDX 65 78 66 79 67 80 44 81 45 82 53 83 46 84 48 85 54 86 47 87
REMARK SMILES IDX 49 88 50 89 51 90 52 91
REMARK H PARENT 11 6 15 25 74 44 42 55
REMARK Flexibility Score: inf
ROOT
ATOM      1  C   UNL A   1      33.287  28.333  27.294  1.00  0.00     0.042 C 
ENDROOT
BRANCH   1   2
ATOM      2  C   UNL A   1      31.774  28.337  27.201  1.00  0.00     0.117 C 
BRANCH   2   3
ATOM      3  N   UNL A   1      31.193  27.025  27.140  1.00  0.00    -0.355 N 
ATOM      4  C   UNL A   1      31.396  25.988  26.292  1.00  0.00     0.230 C 
ATOM      5  O   UNL A   1      31.225  24.892  26.851  1.00  0.00    -0.274 OA
ATOM      6  H   UNL A   1      30.525  26.848  27.840  1.00  0.00     0.163 HD
BRANCH   4   7
ATOM      7  C   UNL A   1      31.762  26.080  24.740  1.00  0.00     0.077 C 
ATOM      8  C   UNL A   1      33.191  26.635  24.505  1.00  0.00     0.022 C 
ATOM      9  C   UNL A   1      31.813  24.699  23.973  1.00  0.00     0.006 C 
ATOM     10  C   UNL A   1      34.131  25.479  24.180  1.00  0.00     0.002 C 
ATOM     11  C   UNL A   1      33.286  24.243  23.951  1.00  0.00     0.005 C 
ATOM     12  C   UNL A   1      31.407  24.674  22.484  1.00  0.00     0.009 C 
BRANCH   7  13
ATOM     13  C   UNL A   1      30.698  27.076  24.179  1.00  0.00    -0.032 A 
ATOM     14  C   UNL A   1      28.772  28.889  23.108  1.00  0.00    -0.045 A 
ATOM     15  C   UNL A   1      30.121  29.248  23.218  1.00  0.00     0.004 A 
ATOM     16  C   UNL A   1      28.415  27.583  23.453  1.00  0.00     0.004 A 
ATOM     17  C   UNL A   1      31.069  28.344  23.702  1.00  0.00     0.005 A 
ATOM     18  C   UNL A   1      29.363  26.691  23.973  1.00  0.00     0.005 A 
BRANCH  14  19
ATOM     19  C   UNL A   1      27.770  29.935  22.654  1.00  0.00     0.013 C 
ATOM     20  C   UNL A   1      27.615  31.135  23.594  1.00  0.00     0.012 C 
ATOM     21  C   UNL A   1      28.138  30.419  21.247  1.00  0.00     0.012 C 
ENDBRANCH  14  19
ENDBRANCH   7  13
ENDBRANCH   4   7
ENDBRANCH   2   3
ENDBRANCH   1   2
BRANCH   1  22
ATOM     22  C   UNL A   1      33.926  29.417  26.440  1.00  0.00     0.118 C 
BRANCH  22  23
ATOM     23  N   UNL A   1      33.868  30.729  27.086  1.00  0.00    -0.352 N 
ATOM     24  C   UNL A   1      34.641  31.256  28.095  1.00  0.00     0.251 C 
ATOM     25  H   UNL A   1      33.165  31.327  26.746  1.00  0.00     0.163 HD
ATOM     26  O   UNL A   1      34.295  32.285  28.656  1.00  0.00    -0.269 OA
BRANCH  24  27
ATOM     27  C   UNL A   1      35.886  30.568  28.490  1.00  0.00     0.039 A 
ATOM     28  C   UNL A   1      37.048  30.752  27.736  1.00  0.00     0.014 A 
ATOM     29  C   UNL A   1      35.897  29.740  29.612  1.00  0.00     0.014 A 
ATOM     30  C   UNL A   1      38.241  30.154  28.151  1.00  0.00     0.010 A 
ATOM     31  C   UNL A   1      37.100  29.243  30.084  1.00  0.00     0.010 A 
ATOM     32  C   UNL A   1      38.281  29.424  29.347  1.00  0.00    -0.014 A 
BRANCH  32  33
ATOM     33  C   UNL A   1      39.517  28.785  29.858  1.00  0.00     0.031 A 
ATOM     34  C   UNL A   1      40.270  29.452  30.978  1.00  0.00     0.074 A 
ATOM     35  C   UNL A   1      40.038  27.718  29.224  1.00  0.00     0.049 A 
ATOM     36  N   UNL A   1      41.472  29.210  31.427  1.00  0.00    -0.248 NA
ATOM     37  C   UNL A   1      39.597  30.582  31.643  1.00  0.00     0.031 C 
ATOM     38  C   UNL A   1      39.436  27.034  28.078  1.00  0.00     0.029 A 
ATOM     39  N   UNL A   1      41.221  27.052  29.425  1.00  0.00    -0.354 N 
ATOM     40  C   UNL A   1      41.724  30.196  32.373  1.00  0.00     0.074 A 
ATOM     41  C   UNL A   1      40.567  31.062  32.405  1.00  0.00     0.031 C 
ATOM     42  C   UNL A   1      40.258  26.054  27.670  1.00  0.00     0.029 A 
ATOM     43  C   UNL A   1      41.460  26.066  28.496  1.00  0.00     0.049 A 
ATOM     44  H   UNL A   1      41.839  27.261  30.162  1.00  0.00     0.167 HD
ATOM     45  C   UNL A   1      42.809  30.351  33.168  1.00  0.00     0.034 A 
ATOM     46  C   UNL A   1      42.539  25.277  28.319  1.00  0.00     0.034 A 
ATOM     47  C   UNL A   1      43.921  29.443  33.175  1.00  0.00     0.049 A 
ATOM     48  C   UNL A   1      43.703  25.416  29.261  1.00  0.00     0.074 A 
ATOM     49  C   UNL A   1      45.027  29.441  34.004  1.00  0.00     0.029 A 
ATOM     50  N   UNL A   1      44.065  28.367  32.310  1.00  0.00    -0.354 N 
ATOM     51  N   UNL A   1      43.871  26.270  30.242  1.00  0.00    -0.248 NA
ATOM     52  C   UNL A   1      44.809  24.462  29.100  1.00  0.00     0.031 C 
ATOM     53  C   UNL A   1      45.847  28.371  33.630  1.00  0.00     0.029 A 
ATOM     54  C   UNL A   1      45.238  27.692  32.587  1.00  0.00     0.049 A 
ATOM     55  H   UNL A   1      43.425  28.123  31.602  1.00  0.00     0.167 HD
ATOM     56  C   UNL A   1      45.077  25.931  30.843  1.00  0.00     0.074 A 
ATOM     57  C   UNL A   1      45.596  24.788  30.119  1.00  0.00     0.031 C 
ATOM     58  C   UNL A   1      45.701  26.515  31.895  1.00  0.00     0.034 A 
BRANCH  45  59
ATOM     59  C   UNL A   1      42.811  31.514  34.126  1.00  0.00     0.023 A 
ATOM     60  C   UNL A   1      43.420  32.729  33.749  1.00  0.00     0.012 A 
ATOM     61  C   UNL A   1      42.197  31.415  35.389  1.00  0.00     0.148 A 
ATOM     62  C   UNL A   1      43.469  33.806  34.633  1.00  0.00     0.002 A 
ATOM     63  C   UNL A   1      42.202  32.512  36.244  1.00  0.00     0.091 A 
ATOM     64  F   UNL A   1      41.641  30.248  35.744  1.00  0.00    -0.205 F 
ATOM     65  C   UNL A   1      42.852  33.702  35.875  1.00  0.00     0.022 A 
BRANCH  63  66
ATOM     66  S   UNL A   1      41.359  32.502  37.831  1.00  0.00     0.127 S 
ATOM     67  O   UNL A   1      42.206  31.601  38.610  1.00  0.00    -0.237 OA
ATOM     68  O   UNL A   1      41.434  33.908  38.230  1.00  0.00    -0.237 OA
ATOM     69  O   UNL A   1      40.011  32.023  37.562  1.00  0.00    -0.744 OA
ENDBRANCH  63  66
ENDBRANCH  45  59
BRANCH  46  70
ATOM     70  C   UNL A   1      42.526  24.245  27.245  1.00  0.00     0.023 A 
ATOM     71  C   UNL A   1      43.165  24.519  26.020  1.00  0.00     0.012 A 
ATOM     72  C   UNL A   1      41.946  22.978  27.449  1.00  0.00     0.148 A 
ATOM     73  C   UNL A   1      43.205  23.558  25.008  1.00  0.00     0.002 A 
ATOM     74  C   UNL A   1      42.036  22.007  26.458  1.00  0.00     0.091 A 
ATOM     75  F   UNL A   1      41.341  22.740  28.622  1.00  0.00    -0.205 F 
ATOM     76  C   UNL A   1      42.651  22.300  25.231  1.00  0.00     0.022 A 
BRANCH  74  77
ATOM     77  S   UNL A   1      41.471  20.319  26.702  1.00  0.00     0.127 S 
ATOM     78  O   UNL A   1      40.029  20.503  26.838  1.00  0.00    -0.237 OA
ATOM     79  O   UNL A   1      41.896  19.679  25.456  1.00  0.00    -0.237 OA
ATOM     80  O   UNL A   1      42.161  19.838  27.890  1.00  0.00    -0.744 OA
ENDBRANCH  74  77
ENDBRANCH  46  70
BRANCH  58  81
ATOM     81  C   UNL A   1      46.987  25.904  32.381  1.00  0.00     0.023 A 
ATOM     82  C   UNL A   1      48.221  26.368  31.885  1.00  0.00     0.012 A 
ATOM     83  C   UNL A   1      46.969  24.953  33.420  1.00  0.00     0.148 A 
ATOM     84  C   UNL A   1      49.419  25.878  32.406  1.00  0.00     0.002 A 
ATOM     85  C   UNL A   1      48.164  24.508  33.968  1.00  0.00     0.091 A 
ATOM     86  F   UNL A   1      45.780  24.514  33.863  1.00  0.00    -0.205 F 
ATOM     87  C   UNL A   1      49.390  24.962  33.456  1.00  0.00     0.022 A 
BRANCH  85  88
ATOM     88  S   UNL A   1      48.223  23.410  35.388  1.00  0.00     0.127 S 
ATOM     89  O   UNL A   1      47.485  24.179  36.389  1.00  0.00    -0.237 OA
ATOM     90  O   UNL A   1      47.522  22.224  34.892  1.00  0.00    -0.237 OA
ATOM     91  O   UNL A   1      49.634  23.200  35.679  1.00  0.00    -0.744 OA
ENDBRANCH  85  88
ENDBRANCH  58  81
ENDBRANCH  32  33
ENDBRANCH  24  27
ENDBRANCH  22  23
ENDBRANCH   1  22
TORSDOF 15
ENDMDL
MODEL 2
REMARK VINA RESULT:     -12.1      2.260      7.985
REMARK SMILES CC(C)c1ccc([C@]2(C(=O)NCCCNC(=O)c3ccc(-c4c5nc(c(-c6cccc(S(=O)(=O)[O-])c6F)c6ccc([nH]6)c(-c6cccc(S(=O)(=O)[O-])c6F)c6nc(c(-c7cccc(S(=O)(=O)[O-])c7F)c7ccc4[nH]7)C=C6)C=C5)cc3)CCC[C@@H]2C)cc1
REMARK SMILES IDX 13 1 12 2 11 3 9 4 10 5 8 7 81 8 84 9 82 10 83 11 85 12 7 13
REMARK SMILES IDX 4 14 5 15 87 16 6 17 86 18 2 19 1 20 3 21 14 22 15 23 16 24
REMARK SMILES IDX 17 26 18 27 19 28 80 29 20 30 79 31 21 32 22 33 23 34 73 35
REMARK SMILES IDX 24 36 78 37 72 38 74 39 25 40 77 41 71 42 70 43 26 45 58 46
REMARK SMILES IDX 38 47 57 48 39 49 42 50 56 51 75 52 40 53 41 54 55 56 76 57
REMARK SMILES IDX 43 58 27 59 28 60 36 61 29 62 31 63 37 64 30 65 32 66 33 67
REMARK SMILES IDX 34 68 35 69 59 70 60 71 68 72 61 73 63 74 69 75 62 76 64 77
REMARK SMILES IDX 65 78 66 79 67 80 44 81 45 82 53 83 46 84 48 85 54 86 47 87
REMARK SMILES IDX 49 88 50 89 51 90 52 91
REMARK H PARENT 11 6 15 25 74 44 42 55
REMARK Flexibility Score: inf
ROOT
ATOM      1  C   UNL A   1      31.697  29.486  27.108  1.00  0.00     0.042 C 
ENDROOT
BRANCH   1   2
ATOM      2  C   UNL A   1      32.182  28.107  27.509  1.00  0.00     0.117 C 
BRANCH   2   3
ATOM      3  N   UNL A   1      31.243  27.057  27.228  1.00  0.00    -0.355 N 
ATOM      4  C   UNL A   1      31.188  26.140  26.232  1.00  0.00     0.230 C 
ATOM      5  O   UNL A   1      30.660  25.080  26.607  1.00  0.00    -0.274 OA
ATOM      6  H   UNL A   1      30.504  26.993  27.875  1.00  0.00     0.163 HD
BRANCH   4   7
ATOM      7  C   UNL A   1      31.673  26.338  24.723  1.00  0.00     0.077 C 
ATOM      8  C   UNL A   1      33.091  26.959  24.639  1.00  0.00     0.022 C 
ATOM      9  C   UNL A   1      31.843  25.008  23.887  1.00  0.00     0.006 C 
ATOM     10  C   UNL A   1      34.102  25.860  24.328  1.00  0.00     0.002 C 
ATOM     11  C   UNL A   1      33.331  24.609  23.960  1.00  0.00     0.005 C 
ATOM     12  C   UNL A   1      31.559  25.057  22.370  1.00  0.00     0.009 C 
BRANCH   7  13
ATOM     13  C   UNL A   1      30.616  27.325  24.133  1.00  0.00    -0.032 A 
ATOM     14  C   UNL A   1      28.704  29.121  23.010  1.00  0.00    -0.045 A 
ATOM     15  C   UNL A   1      30.053  29.477  23.119  1.00  0.00     0.004 A 
ATOM     16  C   UNL A   1      28.339  27.824  23.384  1.00  0.00     0.004 A 
ATOM     17  C   UNL A   1      30.995  28.580  23.630  1.00  0.00     0.005 A 
ATOM     18  C   UNL A   1      29.280  26.941  23.929  1.00  0.00     0.005 A 
BRANCH  14  19
ATOM     19  C   UNL A   1      27.708  30.161  22.527  1.00  0.00     0.013 C 
ATOM     20  C   UNL A   1      27.516  31.358  23.462  1.00  0.00     0.012 C 
ATOM     21  C   UNL A   1      28.116  30.648  21.132  1.00  0.00     0.012 C 
ENDBRANCH  14  19
ENDBRANCH   7  13
ENDBRANCH   4   7
ENDBRANCH   2   3
ENDBRANCH   1   2
BRANCH   1  22
ATOM     22  C   UNL A   1      32.799  30.333  26.492  1.00  0.00     0.118 C 
BRANCH  22  23
ATOM     23  N   UNL A   1      32.572  31.764  26.700  1.00  0.00    -0.352 N 
ATOM     24  C   UNL A   1      33.237  32.659  27.505  1.00  0.00     0.251 C 
ATOM     25  H   UNL A   1      31.826  32.144  26.183  1.00  0.00     0.163 HD
ATOM     26  O   UNL A   1      32.758  33.763  27.717  1.00  0.00    -0.269 OA
BRANCH  24  27
ATOM     27  C   UNL A   1      34.528  32.273  28.109  1.00  0.00     0.039 A 
ATOM     28  C   UNL A   1      35.610  33.156  28.052  1.00  0.00     0.014 A 
ATOM     29  C   UNL A   1      34.661  31.033  28.732  1.00  0.00     0.014 A 
ATOM     30  C   UNL A   1      36.809  32.817  28.683  1.00  0.00     0.010 A 
ATOM     31  C   UNL A   1      35.810  30.749  29.452  1.00  0.00     0.010 A 
ATOM     32  C   UNL A   1      36.905  31.626  29.416  1.00  0.00    -0.014 A 
BRANCH  32  33
ATOM     33  C   UNL A   1      38.139  31.218  30.129  1.00  0.00     0.031 A 
ATOM     34  C   UNL A   1      39.037  30.188  29.497  1.00  0.00     0.074 A 
ATOM     35  C   UNL A   1      38.365  31.643  31.386  1.00  0.00     0.049 A 
ATOM     36  N   UNL A   1      40.027  29.519  30.022  1.00  0.00    -0.248 NA
ATOM     37  C   UNL A   1      38.738  29.822  28.101  1.00  0.00     0.031 C 
ATOM     38  C   UNL A   1      37.523  32.582  32.129  1.00  0.00     0.029 A 
ATOM     39  N   UNL A   1      39.349  31.300  32.280  1.00  0.00    -0.354 N 
ATOM     40  C   UNL A   1      40.423  28.609  29.049  1.00  0.00     0.074 A 
ATOM     41  C   UNL A   1      39.540  28.784  27.917  1.00  0.00     0.031 C 
ATOM     42  C   UNL A   1      38.018  32.730  33.369  1.00  0.00     0.029 A 
ATOM     43  C   UNL A   1      39.186  31.868  33.521  1.00  0.00     0.049 A 
ATOM     44  H   UNL A   1      40.099  30.703  32.053  1.00  0.00     0.167 HD
ATOM     45  C   UNL A   1      41.449  27.727  29.079  1.00  0.00     0.034 A 
ATOM     46  C   UNL A   1      39.886  31.695  34.659  1.00  0.00     0.034 A 
ATOM     47  C   UNL A   1      42.360  27.612  30.182  1.00  0.00     0.049 A 
ATOM     48  C   UNL A   1      41.068  30.766  34.650  1.00  0.00     0.074 A 
ATOM     49  C   UNL A   1      43.494  26.826  30.285  1.00  0.00     0.029 A 
ATOM     50  N   UNL A   1      42.244  28.310  31.376  1.00  0.00    -0.354 N 
ATOM     51  N   UNL A   1      41.514  30.009  33.676  1.00  0.00    -0.248 NA
ATOM     52  C   UNL A   1      41.870  30.692  35.880  1.00  0.00     0.031 C 
ATOM     53  C   UNL A   1      44.055  27.040  31.549  1.00  0.00     0.029 A 
ATOM     54  C   UNL A   1      43.287  27.978  32.221  1.00  0.00     0.049 A 
ATOM     55  H   UNL A   1      41.525  28.947  31.590  1.00  0.00     0.167 HD
ATOM     56  C   UNL A   1      42.668  29.403  34.157  1.00  0.00     0.074 A 
ATOM     57  C   UNL A   1      42.858  29.886  35.510  1.00  0.00     0.031 C 
ATOM     58  C   UNL A   1      43.492  28.523  33.539  1.00  0.00     0.034 A 
BRANCH  45  59
ATOM     59  C   UNL A   1      41.661  26.862  27.863  1.00  0.00     0.023 A 
ATOM     60  C   UNL A   1      42.307  27.398  26.729  1.00  0.00     0.012 A 
ATOM     61  C   UNL A   1      41.241  25.519  27.845  1.00  0.00     0.148 A 
ATOM     62  C   UNL A   1      42.480  26.630  25.579  1.00  0.00     0.002 A 
ATOM     63  C   UNL A   1      41.465  24.743  26.713  1.00  0.00     0.091 A 
ATOM     64  F   UNL A   1      40.608  25.028  28.921  1.00  0.00    -0.205 F 
ATOM     65  C   UNL A   1      42.068  25.301  25.573  1.00  0.00     0.022 A 
BRANCH  63  66
ATOM     66  S   UNL A   1      41.048  22.997  26.642  1.00  0.00     0.127 S 
ATOM     67  O   UNL A   1      39.601  23.046  26.446  1.00  0.00    -0.237 OA
ATOM     68  O   UNL A   1      41.808  22.545  25.476  1.00  0.00    -0.237 OA
ATOM     69  O   UNL A   1      41.494  22.430  27.907  1.00  0.00    -0.744 OA
ENDBRANCH  63  66
ENDBRANCH  45  59
BRANCH  46  70
ATOM     70  C   UNL A   1      39.520  32.476  35.874  1.00  0.00     0.023 A 
ATOM     71  C   UNL A   1      40.049  33.771  36.044  1.00  0.00     0.012 A 
ATOM     72  C   UNL A   1      38.608  31.976  36.823  1.00  0.00     0.148 A 
ATOM     73  C   UNL A   1      39.695  34.544  37.151  1.00  0.00     0.002 A 
ATOM     74  C   UNL A   1      38.218  32.772  37.895  1.00  0.00     0.091 A 
ATOM     75  F   UNL A   1      38.119  30.741  36.642  1.00  0.00    -0.205 F 
ATOM     76  C   UNL A   1      38.772  34.049  38.069  1.00  0.00     0.022 A 
BRANCH  74  77
ATOM     77  S   UNL A   1      36.938  32.276  39.053  1.00  0.00     0.127 S 
ATOM     78  O   UNL A   1      37.405  32.888  40.295  1.00  0.00    -0.237 OA
ATOM     79  O   UNL A   1      35.748  32.898  38.469  1.00  0.00    -0.237 OA
ATOM     80  O   UNL A   1      36.927  30.820  39.033  1.00  0.00    -0.744 OA
ENDBRANCH  74  77
ENDBRANCH  46  70
BRANCH  58  81
ATOM     81  C   UNL A   1      44.717  28.062  34.281  1.00  0.00     0.023 A 
ATOM     82  C   UNL A   1      45.906  28.815  34.218  1.00  0.00     0.012 A 
ATOM     83  C   UNL A   1      44.646  26.946  35.138  1.00  0.00     0.148 A 
ATOM     84  C   UNL A   1      47.013  28.451  34.984  1.00  0.00     0.002 A 
ATOM     85  C   UNL A   1      45.735  26.619  35.935  1.00  0.00     0.091 A 
ATOM     86  F   UNL A   1      43.508  26.236  35.167  1.00  0.00    -0.205 F 
ATOM     87  C   UNL A   1      46.922  27.364  35.853  1.00  0.00     0.022 A 
BRANCH  85  88
ATOM     88  S   UNL A   1      45.673  25.304  37.157  1.00  0.00     0.127 S 
ATOM     89  O   UNL A   1      47.092  25.016  37.355  1.00  0.00    -0.237 OA
ATOM     90  O   UNL A   1      45.019  25.964  38.289  1.00  0.00    -0.237 OA
ATOM     91  O   UNL A   1      44.897  24.229  36.554  1.00  0.00    -0.744 OA
ENDBRANCH  85  88
ENDBRANCH  58  81
ENDBRANCH  32  33
ENDBRANCH  24  27
ENDBRANCH  22  23
ENDBRANCH   1  22
TORSDOF 15
ENDMDL
MODEL 3
REMARK VINA RESULT:     -12.0      1.383      1.788
REMARK SMILES CC(C)c1ccc([C@]2(C(=O)NCCCNC(=O)c3ccc(-c4c5nc(c(-c6cccc(S(=O)(=O)[O-])c6F)c6ccc([nH]6)c(-c6cccc(S(=O)(=O)[O-])c6F)c6nc(c(-c7cccc(S(=O)(=O)[O-])c7F)c7ccc4[nH]7)C=C6)C=C5)cc3)CCC[C@@H]2C)cc1
REMARK SMILES IDX 13 1 12 2 11 3 9 4 10 5 8 7 81 8 84 9 82 10 83 11 85 12 7 13
REMARK SMILES IDX 4 14 5 15 87 16 6 17 86 18 2 19 1 20 3 21 14 22 15 23 16 24
REMARK SMILES IDX 17 26 18 27 19 28 80 29 20 30 79 31 21 32 22 33 23 34 73 35
REMARK SMILES IDX 24 36 78 37 72 38 74 39 25 40 77 41 71 42 70 43 26 45 58 46
REMARK SMILES IDX 38 47 57 48 39 49 42 50 56 51 75 52 40 53 41 54 55 56 76 57
REMARK SMILES IDX 43 58 27 59 28 60 36 61 29 62 31 63 37 64 30 65 32 66 33 67
REMARK SMILES IDX 34 68 35 69 59 70 60 71 68 72 61 73 63 74 69 75 62 76 64 77
REMARK SMILES IDX 65 78 66 79 67 80 44 81 45 82 53 83 46 84 48 85 54 86 47 87
REMARK SMILES IDX 49 88 50 89 51 90 52 91
REMARK H PARENT 11 6 15 25 74 44 42 55
REMARK Flexibility Score: inf
ROOT
ATOM      1  C   UNL A   1      33.283  28.205  27.273  1.00  0.00     0.042 C 
ENDROOT
BRANCH   1   2
ATOM      2  C   UNL A   1      31.783  28.089  27.086  1.00  0.00     0.117 C 
BRANCH   2   3
ATOM      3  N   UNL A   1      31.292  26.741  27.158  1.00  0.00    -0.355 N 
ATOM      4  C   UNL A   1      31.629  25.621  26.474  1.00  0.00     0.230 C 
ATOM      5  O   UNL A   1      31.481  24.597  27.160  1.00  0.00    -0.274 OA
ATOM      6  H   UNL A   1      30.580  26.607  27.824  1.00  0.00     0.163 HD
BRANCH   4   7
ATOM      7  C   UNL A   1      32.116  25.540  24.954  1.00  0.00     0.077 C 
ATOM      8  C   UNL A   1      33.603  25.946  24.792  1.00  0.00     0.022 C 
ATOM      9  C   UNL A   1      32.095  24.096  24.313  1.00  0.00     0.006 C 
ATOM     10  C   UNL A   1      34.454  24.689  24.643  1.00  0.00     0.002 C 
ATOM     11  C   UNL A   1      33.517  23.514  24.449  1.00  0.00     0.005 C 
ATOM     12  C   UNL A   1      31.799  23.971  22.803  1.00  0.00     0.009 C 
BRANCH   7  13
ATOM     13  C   UNL A   1      31.193  26.569  24.226  1.00  0.00    -0.032 A 
ATOM     14  C   UNL A   1      29.496  28.469  22.941  1.00  0.00    -0.045 A 
ATOM     15  C   UNL A   1      28.963  27.372  23.629  1.00  0.00     0.004 A 
ATOM     16  C   UNL A   1      30.880  28.655  22.982  1.00  0.00     0.004 A 
ATOM     17  C   UNL A   1      29.795  26.467  24.294  1.00  0.00     0.005 A 
ATOM     18  C   UNL A   1      31.713  27.725  23.619  1.00  0.00     0.005 A 
BRANCH  14  19
ATOM     19  C   UNL A   1      28.555  29.374  22.166  1.00  0.00     0.013 C 
ATOM     20  C   UNL A   1      27.368  29.915  22.968  1.00  0.00     0.012 C 
ATOM     21  C   UNL A   1      29.350  30.537  21.561  1.00  0.00     0.012 C 
ENDBRANCH  14  19
ENDBRANCH   7  13
ENDBRANCH   4   7
ENDBRANCH   2   3
ENDBRANCH   1   2
BRANCH   1  22
ATOM     22  C   UNL A   1      33.902  29.260  26.369  1.00  0.00     0.118 C 
BRANCH  22  23
ATOM     23  N   UNL A   1      33.847  30.594  26.966  1.00  0.00    -0.352 N 
ATOM     24  C   UNL A   1      34.627  31.160  27.948  1.00  0.00     0.251 C 
ATOM     25  H   UNL A   1      33.140  31.178  26.610  1.00  0.00     0.163 HD
ATOM     26  O   UNL A   1      34.284  32.208  28.473  1.00  0.00    -0.269 OA
BRANCH  24  27
ATOM     27  C   UNL A   1      35.876  30.489  28.359  1.00  0.00     0.039 A 
ATOM     28  C   UNL A   1      37.035  30.654  27.595  1.00  0.00     0.014 A 
ATOM     29  C   UNL A   1      35.895  29.695  29.505  1.00  0.00     0.014 A 
ATOM     30  C   UNL A   1      38.231  30.075  28.023  1.00  0.00     0.010 A 
ATOM     31  C   UNL A   1      37.103  29.217  29.987  1.00  0.00     0.010 A 
ATOM     32  C   UNL A   1      38.279  29.381  29.240  1.00  0.00    -0.014 A 
BRANCH  32  33
ATOM     33  C   UNL A   1      39.520  28.762  29.764  1.00  0.00     0.031 A 
ATOM     34  C   UNL A   1      40.257  29.448  30.884  1.00  0.00     0.074 A 
ATOM     35  C   UNL A   1      40.059  27.696  29.143  1.00  0.00     0.049 A 
ATOM     36  N   UNL A   1      41.459  29.226  31.342  1.00  0.00    -0.248 NA
ATOM     37  C   UNL A   1      39.565  30.575  31.534  1.00  0.00     0.031 C 
ATOM     38  C   UNL A   1      39.474  26.995  28.000  1.00  0.00     0.029 A 
ATOM     39  N   UNL A   1      41.249  27.047  29.358  1.00  0.00    -0.354 N 
ATOM     40  C   UNL A   1      41.692  30.223  32.282  1.00  0.00     0.074 A 
ATOM     41  C   UNL A   1      40.524  31.075  32.298  1.00  0.00     0.031 C 
ATOM     42  C   UNL A   1      40.311  26.022  27.605  1.00  0.00     0.029 A 
ATOM     43  C   UNL A   1      41.507  26.057  28.440  1.00  0.00     0.049 A 
ATOM     44  H   UNL A   1      41.859  27.270  30.098  1.00  0.00     0.167 HD
ATOM     45  C   UNL A   1      42.770  30.399  33.082  1.00  0.00     0.034 A 
ATOM     46  C   UNL A   1      42.597  25.280  28.277  1.00  0.00     0.034 A 
ATOM     47  C   UNL A   1      43.893  29.506  33.104  1.00  0.00     0.049 A 
ATOM     48  C   UNL A   1      43.753  25.442  29.225  1.00  0.00     0.074 A 
ATOM     49  C   UNL A   1      44.994  29.525  33.941  1.00  0.00     0.029 A 
ATOM     50  N   UNL A   1      44.056  28.424  32.250  1.00  0.00    -0.354 N 
ATOM     51  N   UNL A   1      43.903  26.307  30.200  1.00  0.00    -0.248 NA
ATOM     52  C   UNL A   1      44.872  24.501  29.080  1.00  0.00     0.031 C 
ATOM     53  C   UNL A   1      45.830  28.463  33.582  1.00  0.00     0.029 A 
ATOM     54  C   UNL A   1      45.237  27.766  32.540  1.00  0.00     0.049 A 
ATOM     55  H   UNL A   1      43.425  28.165  31.540  1.00  0.00     0.167 HD
ATOM     56  C   UNL A   1      45.110  25.989  30.812  1.00  0.00     0.074 A 
ATOM     57  C   UNL A   1      45.648  24.846  30.101  1.00  0.00     0.031 C 
ATOM     58  C   UNL A   1      45.719  26.590  31.862  1.00  0.00     0.034 A 
BRANCH  45  59
ATOM     59  C   UNL A   1      42.750  31.571  34.030  1.00  0.00     0.023 A 
ATOM     60  C   UNL A   1      43.313  32.801  33.632  1.00  0.00     0.012 A 
ATOM     61  C   UNL A   1      42.161  31.464  35.304  1.00  0.00     0.148 A 
ATOM     62  C   UNL A   1      43.342  33.887  34.505  1.00  0.00     0.002 A 
ATOM     63  C   UNL A   1      42.146  32.568  36.150  1.00  0.00     0.091 A 
ATOM     64  F   UNL A   1      41.649  30.282  35.679  1.00  0.00    -0.205 F 
ATOM     65  C   UNL A   1      42.750  33.775  35.759  1.00  0.00     0.022 A 
BRANCH  63  66
ATOM     66  S   UNL A   1      41.330  32.546  37.750  1.00  0.00     0.127 S 
ATOM     67  O   UNL A   1      39.994  32.073  37.395  1.00  0.00    -0.237 OA
ATOM     68  O   UNL A   1      42.140  31.582  38.497  1.00  0.00    -0.237 OA
ATOM     69  O   UNL A   1      41.404  33.910  38.253  1.00  0.00    -0.744 OA
ENDBRANCH  63  66
ENDBRANCH  45  59
BRANCH  46  70
ATOM     70  C   UNL A   1      42.604  24.238  27.212  1.00  0.00     0.023 A 
ATOM     71  C   UNL A   1      43.289  24.491  26.007  1.00  0.00     0.012 A 
ATOM     72  C   UNL A   1      41.998  22.982  27.408  1.00  0.00     0.148 A 
ATOM     73  C   UNL A   1      43.349  23.520  25.006  1.00  0.00     0.002 A 
ATOM     74  C   UNL A   1      42.106  22.001  26.428  1.00  0.00     0.091 A 
ATOM     75  F   UNL A   1      41.350  22.764  28.561  1.00  0.00    -0.205 F 
ATOM     76  C   UNL A   1      42.767  22.273  25.220  1.00  0.00     0.022 A 
BRANCH  74  77
ATOM     77  S   UNL A   1      41.508  20.324  26.667  1.00  0.00     0.127 S 
ATOM     78  O   UNL A   1      42.241  19.912  27.861  1.00  0.00    -0.237 OA
ATOM     79  O   UNL A   1      40.075  20.544  26.868  1.00  0.00    -0.237 OA
ATOM     80  O   UNL A   1      41.840  19.606  25.444  1.00  0.00    -0.744 OA
ENDBRANCH  74  77
ENDBRANCH  46  70
BRANCH  58  81
ATOM     81  C   UNL A   1      47.010  25.999  32.362  1.00  0.00     0.023 A 
ATOM     82  C   UNL A   1      47.002  25.114  33.457  1.00  0.00     0.012 A 
ATOM     83  C   UNL A   1      48.211  26.231  31.664  1.00  0.00     0.148 A 
ATOM     84  C   UNL A   1      48.179  24.483  33.861  1.00  0.00     0.002 A 
ATOM     85  C   UNL A   1      49.367  25.561  32.040  1.00  0.00     0.091 A 
ATOM     86  F   UNL A   1      48.194  27.092  30.635  1.00  0.00    -0.205 F 
ATOM     87  C   UNL A   1      49.355  24.694  33.144  1.00  0.00     0.022 A 
BRANCH  85  88
ATOM     88  S   UNL A   1      50.900  25.691  31.112  1.00  0.00     0.127 S 
ATOM     89  O   UNL A   1      50.501  25.170  29.806  1.00  0.00    -0.237 OA
ATOM     90  O   UNL A   1      51.158  27.131  31.142  1.00  0.00    -0.237 OA
ATOM     91  O   UNL A   1      51.877  24.886  31.833  1.00  0.00    -0.744 OA
ENDBRANCH  85  88
ENDBRANCH  58  81
ENDBRANCH  32  33
ENDBRANCH  24  27
ENDBRANCH  22  23
ENDBRANCH   1  22
TORSDOF 15
ENDMDL
