MODEL 1
REMARK VINA RESULT:      -9.8      0.000      0.000
REMARK SMILES CC1(C)Cc2c(-c3ccccc3)c(-c3ccc(Cl)cc3)c(CC(=O)NCCCNC(=O)c3ccc(-c4c5nc(c(-c6cccc(S(=O)(=O)[O-])c6F)c6ccc([nH]6)c(-c6cccc(S(=O)(=O)[O-])c6F)c6nc(c(-c7cccc(S(=O)(=O)[O-])c7F)c7ccc4[nH]7)C=C6)C=C5)cc3)n2C1
REMARK SMILES IDX 27 1 26 2 25 3 23 4 24 5 22 7 21 8 1 9 2 10 3 11 4 12 96 13
REMARK SMILES IDX 5 14 95 15 6 16 13 17 7 18 8 19 12 20 9 21 11 22 10 23 14 24
REMARK SMILES IDX 15 25 20 26 16 27 19 28 17 29 18 30 28 31 29 32 30 33 31 35
REMARK SMILES IDX 32 36 33 37 94 38 34 39 93 40 35 41 36 42 37 43 87 44 38 45
REMARK SMILES IDX 92 46 86 47 88 48 39 49 91 50 85 51 84 52 40 54 72 55 52 56
REMARK SMILES IDX 71 57 53 58 56 59 70 60 89 61 54 62 55 63 69 65 90 66 57 67
REMARK SMILES IDX 41 68 42 69 50 70 43 71 45 72 51 73 44 74 46 75 47 76 48 77
REMARK SMILES IDX 49 78 73 79 74 80 82 81 75 82 77 83 83 84 76 85 78 86 79 87
REMARK SMILES IDX 80 88 81 89 58 90 59 91 67 92 60 93 62 94 68 95 61 96 63 97
REMARK SMILES IDX 64 98 65 99 66 100
REMARK H PARENT 25 6 29 34 88 53 56 64
REMARK Flexibility Score: inf
ROOT
ATOM      1  C   UNL A   1      35.231  31.816  32.034  1.00  0.00     0.042 C 
ENDROOT
BRANCH   1   2
ATOM      2  C   UNL A   1      36.604  31.815  32.697  1.00  0.00     0.117 C 
BRANCH   2   3
ATOM      3  N   UNL A   1      37.009  33.091  33.239  1.00  0.00    -0.356 N 
ATOM      4  C   UNL A   1      38.206  33.734  33.084  1.00  0.00     0.225 C 
ATOM      5  O   UNL A   1      38.245  34.941  33.337  1.00  0.00    -0.275 OA
ATOM      6  H   UNL A   1      36.339  33.557  33.790  1.00  0.00     0.163 HD
BRANCH   4   7
ATOM      7  C   UNL A   1      39.420  33.007  32.522  1.00  0.00     0.154 C 
BRANCH   7   8
ATOM      8  C   UNL A   1      40.696  33.787  32.637  1.00  0.00     0.036 A 
ATOM      9  C   UNL A   1      42.079  35.979  28.385  1.00  0.00     0.013 C 
ATOM     10  C   UNL A   1      42.366  35.052  29.567  1.00  0.00    -0.012 C 
ATOM     11  C   UNL A   1      43.334  33.952  29.093  1.00  0.00     0.013 C 
ATOM     12  C   UNL A   1      43.003  35.806  30.776  1.00  0.00     0.063 C 
ATOM     13  C   UNL A   1      41.040  34.465  30.139  1.00  0.00     0.129 C 
ATOM     14  C   UNL A   1      42.383  35.122  31.936  1.00  0.00     0.027 A 
ATOM     15  N   UNL A   1      41.292  34.393  31.570  1.00  0.00    -0.346 N 
ATOM     16  C   UNL A   1      42.572  34.957  33.284  1.00  0.00     0.011 A 
ATOM     17  C   UNL A   1      41.485  34.128  33.744  1.00  0.00     0.011 A 
BRANCH  16  18
ATOM     18  C   UNL A   1      43.672  35.540  34.029  1.00  0.00    -0.016 A 
ATOM     19  C   UNL A   1      43.617  36.870  34.463  1.00  0.00     0.009 A 
ATOM     20  C   UNL A   1      44.788  34.758  34.347  1.00  0.00     0.009 A 
ATOM     21  C   UNL A   1      44.670  37.409  35.206  1.00  0.00     0.001 A 
ATOM     22  C   UNL A   1      45.839  35.298  35.088  1.00  0.00     0.001 A 
ATOM     23  C   UNL A   1      45.779  36.623  35.517  1.00  0.00     0.000 A 
ENDBRANCH  16  18
BRANCH  17  24
ATOM     24  C   UNL A   1      41.183  33.791  35.132  1.00  0.00    -0.016 A 
ATOM     25  C   UNL A   1      40.598  34.768  35.951  1.00  0.00     0.010 A 
ATOM     26  C   UNL A   1      41.559  32.566  35.698  1.00  0.00     0.010 A 
ATOM     27  C   UNL A   1      40.380  34.520  37.307  1.00  0.00     0.021 A 
ATOM     28  C   UNL A   1      41.327  32.311  37.056  1.00  0.00     0.021 A 
ATOM     29  C   UNL A   1      40.740  33.291  37.854  1.00  0.00     0.041 A 
ATOM     30  Cl  UNL A   1      40.461  33.005  39.526  1.00  0.00    -0.084 Cl
ENDBRANCH  17  24
ENDBRANCH   7   8
ENDBRANCH   4   7
ENDBRANCH   2   3
ENDBRANCH   1   2
BRANCH   1  31
ATOM     31  C   UNL A   1      35.096  32.829  30.920  1.00  0.00     0.118 C 
BRANCH  31  32
ATOM     32  N   UNL A   1      34.304  32.306  29.798  1.00  0.00    -0.352 N 
ATOM     33  C   UNL A   1      34.753  31.680  28.647  1.00  0.00     0.251 C 
ATOM     34  H   UNL A   1      33.328  32.415  29.875  1.00  0.00     0.163 HD
ATOM     35  O   UNL A   1      34.041  31.574  27.668  1.00  0.00    -0.269 OA
BRANCH  33  36
ATOM     36  C   UNL A   1      36.132  31.160  28.651  1.00  0.00     0.039 A 
ATOM     37  C   UNL A   1      37.233  32.001  28.820  1.00  0.00     0.014 A 
ATOM     38  C   UNL A   1      36.283  29.781  28.601  1.00  0.00     0.014 A 
ATOM     39  C   UNL A   1      38.482  31.424  29.037  1.00  0.00     0.010 A 
ATOM     40  C   UNL A   1      37.451  29.229  29.043  1.00  0.00     0.010 A 
ATOM     41  C   UNL A   1      38.576  30.031  29.176  1.00  0.00    -0.014 A 
BRANCH  41  42
ATOM     42  C   UNL A   1      39.833  29.382  29.533  1.00  0.00     0.031 A 
ATOM     43  C   UNL A   1      40.174  29.432  30.977  1.00  0.00     0.074 A 
ATOM     44  C   UNL A   1      40.507  28.593  28.666  1.00  0.00     0.049 A 
ATOM     45  N   UNL A   1      41.100  30.133  31.543  1.00  0.00    -0.248 NA
ATOM     46  C   UNL A   1      39.293  28.735  31.926  1.00  0.00     0.031 C 
ATOM     47  C   UNL A   1      40.075  28.162  27.326  1.00  0.00     0.029 A 
ATOM     48  N   UNL A   1      41.649  27.877  28.854  1.00  0.00    -0.354 N 
ATOM     49  C   UNL A   1      41.090  29.742  32.882  1.00  0.00     0.074 A 
ATOM     50  C   UNL A   1      39.827  29.088  33.099  1.00  0.00     0.031 C 
ATOM     51  C   UNL A   1      40.766  27.063  26.961  1.00  0.00     0.029 A 
ATOM     52  C   UNL A   1      41.832  26.865  27.919  1.00  0.00     0.049 A 
ATOM     53  H   UNL A   1      42.285  28.058  29.582  1.00  0.00     0.167 HD
ATOM     54  C   UNL A   1      42.245  29.699  33.604  1.00  0.00     0.034 A 
ATOM     55  C   UNL A   1      42.789  25.912  27.928  1.00  0.00     0.034 A 
ATOM     56  C   UNL A   1      43.324  30.314  32.873  1.00  0.00     0.049 A 
ATOM     57  C   UNL A   1      43.906  26.420  28.748  1.00  0.00     0.074 A 
ATOM     58  C   UNL A   1      43.727  31.586  32.539  1.00  0.00     0.029 A 
ATOM     59  N   UNL A   1      43.982  29.439  32.049  1.00  0.00    -0.354 N 
ATOM     60  N   UNL A   1      44.606  27.473  28.426  1.00  0.00    -0.248 NA
ATOM     61  C   UNL A   1      44.060  25.958  30.121  1.00  0.00     0.031 C 
ATOM     62  C   UNL A   1      44.510  31.450  31.353  1.00  0.00     0.029 A 
ATOM     63  C   UNL A   1      44.588  30.099  31.016  1.00  0.00     0.049 A 
ATOM     64  H   UNL A   1      44.014  28.464  32.183  1.00  0.00     0.167 HD
ATOM     65  C   UNL A   1      44.908  28.054  29.645  1.00  0.00     0.074 A 
ATOM     66  C   UNL A   1      44.731  26.994  30.629  1.00  0.00     0.031 C 
ATOM     67  C   UNL A   1      44.937  29.409  29.791  1.00  0.00     0.034 A 
BRANCH  54  68
ATOM     68  C   UNL A   1      42.576  28.729  34.726  1.00  0.00     0.023 A 
ATOM     69  C   UNL A   1      43.149  29.282  35.899  1.00  0.00     0.012 A 
ATOM     70  C   UNL A   1      42.636  27.324  34.599  1.00  0.00     0.148 A 
ATOM     71  C   UNL A   1      43.788  28.489  36.860  1.00  0.00     0.002 A 
ATOM     72  C   UNL A   1      43.202  26.531  35.595  1.00  0.00     0.091 A 
ATOM     73  F   UNL A   1      42.275  26.737  33.456  1.00  0.00    -0.205 F 
ATOM     74  C   UNL A   1      43.808  27.109  36.711  1.00  0.00     0.022 A 
BRANCH  72  75
ATOM     75  S   UNL A   1      43.214  24.737  35.476  1.00  0.00     0.127 S 
ATOM     76  O   UNL A   1      41.788  24.431  35.519  1.00  0.00    -0.237 OA
ATOM     77  O   UNL A   1      43.855  24.528  34.177  1.00  0.00    -0.237 OA
ATOM     78  O   UNL A   1      44.008  24.280  36.610  1.00  0.00    -0.744 OA
ENDBRANCH  72  75
ENDBRANCH  54  68
BRANCH  55  79
ATOM     79  C   UNL A   1      42.739  24.527  27.420  1.00  0.00     0.023 A 
ATOM     80  C   UNL A   1      41.534  23.806  27.478  1.00  0.00     0.012 A 
ATOM     81  C   UNL A   1      43.792  24.024  26.624  1.00  0.00     0.148 A 
ATOM     82  C   UNL A   1      41.361  22.639  26.725  1.00  0.00     0.002 A 
ATOM     83  C   UNL A   1      43.615  22.866  25.876  1.00  0.00     0.091 A 
ATOM     84  F   UNL A   1      44.928  24.731  26.538  1.00  0.00    -0.205 F 
ATOM     85  C   UNL A   1      42.394  22.178  25.913  1.00  0.00     0.022 A 
BRANCH  83  86
ATOM     86  S   UNL A   1      44.883  22.227  24.773  1.00  0.00     0.127 S 
ATOM     87  O   UNL A   1      45.969  21.932  25.708  1.00  0.00    -0.237 OA
ATOM     88  O   UNL A   1      44.221  21.054  24.211  1.00  0.00    -0.237 OA
ATOM     89  O   UNL A   1      45.168  23.307  23.837  1.00  0.00    -0.744 OA
ENDBRANCH  83  86
ENDBRANCH  55  79
BRANCH  67  90
ATOM     90  C   UNL A   1      45.149  30.245  28.562  1.00  0.00     0.023 A 
ATOM     91  C   UNL A   1      44.094  30.671  27.731  1.00  0.00     0.012 A 
ATOM     92  C   UNL A   1      46.450  30.710  28.306  1.00  0.00     0.148 A 
ATOM     93  C   UNL A   1      44.338  31.532  26.657  1.00  0.00     0.002 A 
ATOM     94  C   UNL A   1      46.680  31.602  27.269  1.00  0.00     0.091 A 
ATOM     95  F   UNL A   1      47.442  30.284  29.102  1.00  0.00    -0.205 F 
ATOM     96  C   UNL A   1      45.629  32.009  26.433  1.00  0.00     0.022 A 
BRANCH  94  97
ATOM     97  S   UNL A   1      48.297  32.337  27.016  1.00  0.00     0.127 S 
ATOM     98  O   UNL A   1      48.576  32.922  28.326  1.00  0.00    -0.237 OA
ATOM     99  O   UNL A   1      49.121  31.177  26.675  1.00  0.00    -0.237 OA
ATOM    100  O   UNL A   1      48.134  33.289  25.923  1.00  0.00    -0.744 OA
ENDBRANCH  94  97
ENDBRANCH  67  90
ENDBRANCH  41  42
ENDBRANCH  33  36
ENDBRANCH  31  32
ENDBRANCH   1  31
TORSDOF 16
ENDMDL
MODEL 2
REMARK VINA RESULT:      -9.7      1.759      3.459
REMARK SMILES CC1(C)Cc2c(-c3ccccc3)c(-c3ccc(Cl)cc3)c(CC(=O)NCCCNC(=O)c3ccc(-c4c5nc(c(-c6cccc(S(=O)(=O)[O-])c6F)c6ccc([nH]6)c(-c6cccc(S(=O)(=O)[O-])c6F)c6nc(c(-c7cccc(S(=O)(=O)[O-])c7F)c7ccc4[nH]7)C=C6)C=C5)cc3)n2C1
REMARK SMILES IDX 27 1 26 2 25 3 23 4 24 5 22 7 21 8 1 9 2 10 3 11 4 12 96 13
REMARK SMILES IDX 5 14 95 15 6 16 13 17 7 18 8 19 12 20 9 21 11 22 10 23 14 24
REMARK SMILES IDX 15 25 20 26 16 27 19 28 17 29 18 30 28 31 29 32 30 33 31 35
REMARK SMILES IDX 32 36 33 37 94 38 34 39 93 40 35 41 36 42 37 43 87 44 38 45
REMARK SMILES IDX 92 46 86 47 88 48 39 49 91 50 85 51 84 52 40 54 72 55 52 56
REMARK SMILES IDX 71 57 53 58 56 59 70 60 89 61 54 62 55 63 69 65 90 66 57 67
REMARK SMILES IDX 41 68 42 69 50 70 43 71 45 72 51 73 44 74 46 75 47 76 48 77
REMARK SMILES IDX 49 78 73 79 74 80 82 81 75 82 77 83 83 84 76 85 78 86 79 87
REMARK SMILES IDX 80 88 81 89 58 90 59 91 67 92 60 93 62 94 68 95 61 96 63 97
REMARK SMILES IDX 64 98 65 99 66 100
REMARK H PARENT 25 6 29 34 88 53 56 64
REMARK Flexibility Score: inf
ROOT
ATOM      1  C   UNL A   1      35.177  33.833  31.453  1.00  0.00     0.042 C 
ENDROOT
BRANCH   1   2
ATOM      2  C   UNL A   1      35.611  34.082  32.894  1.00  0.00     0.117 C 
BRANCH   2   3
ATOM      3  N   UNL A   1      36.228  32.947  33.539  1.00  0.00    -0.356 N 
ATOM      4  C   UNL A   1      37.199  32.946  34.501  1.00  0.00     0.225 C 
ATOM      5  O   UNL A   1      37.357  31.913  35.156  1.00  0.00    -0.275 OA
ATOM      6  H   UNL A   1      35.909  32.062  33.250  1.00  0.00     0.163 HD
BRANCH   4   7
ATOM      7  C   UNL A   1      37.988  34.209  34.820  1.00  0.00     0.154 C 
BRANCH   7   8
ATOM      8  C   UNL A   1      39.197  33.965  35.675  1.00  0.00     0.036 A 
ATOM      9  C   UNL A   1      38.119  33.226  40.480  1.00  0.00     0.013 C 
ATOM     10  C   UNL A   1      38.868  33.975  39.377  1.00  0.00    -0.012 C 
ATOM     11  C   UNL A   1      39.096  35.423  39.847  1.00  0.00     0.013 C 
ATOM     12  C   UNL A   1      40.247  33.324  39.044  1.00  0.00     0.063 C 
ATOM     13  C   UNL A   1      38.079  33.907  38.034  1.00  0.00     0.129 C 
ATOM     14  C   UNL A   1      40.338  33.512  37.576  1.00  0.00     0.027 A 
ATOM     15  N   UNL A   1      39.128  33.823  37.030  1.00  0.00    -0.346 N 
ATOM     16  C   UNL A   1      41.269  33.503  36.570  1.00  0.00     0.011 A 
ATOM     17  C   UNL A   1      40.545  33.765  35.350  1.00  0.00     0.011 A 
BRANCH  16  18
ATOM     18  C   UNL A   1      42.685  33.263  36.774  1.00  0.00    -0.016 A 
ATOM     19  C   UNL A   1      43.295  32.110  36.267  1.00  0.00     0.009 A 
ATOM     20  C   UNL A   1      43.459  34.208  37.457  1.00  0.00     0.009 A 
ATOM     21  C   UNL A   1      44.665  31.907  36.444  1.00  0.00     0.001 A 
ATOM     22  C   UNL A   1      44.827  34.002  37.634  1.00  0.00     0.001 A 
ATOM     23  C   UNL A   1      45.429  32.852  37.127  1.00  0.00     0.000 A 
ENDBRANCH  16  18
BRANCH  17  24
ATOM     24  C   UNL A   1      41.088  33.719  33.996  1.00  0.00    -0.016 A 
ATOM     25  C   UNL A   1      41.832  34.813  33.530  1.00  0.00     0.010 A 
ATOM     26  C   UNL A   1      40.797  32.670  33.114  1.00  0.00     0.010 A 
ATOM     27  C   UNL A   1      42.289  34.852  32.211  1.00  0.00     0.021 A 
ATOM     28  C   UNL A   1      41.268  32.701  31.794  1.00  0.00     0.021 A 
ATOM     29  C   UNL A   1      42.009  33.794  31.350  1.00  0.00     0.041 A 
ATOM     30  Cl  UNL A   1      42.583  33.861  29.731  1.00  0.00    -0.084 Cl
ENDBRANCH  17  24
ENDBRANCH   7   8
ENDBRANCH   4   7
ENDBRANCH   2   3
ENDBRANCH   1   2
BRANCH   1  31
ATOM     31  C   UNL A   1      34.734  32.411  31.191  1.00  0.00     0.118 C 
BRANCH  31  32
ATOM     32  N   UNL A   1      34.550  32.151  29.756  1.00  0.00    -0.352 N 
ATOM     33  C   UNL A   1      35.448  31.593  28.861  1.00  0.00     0.251 C 
ATOM     34  H   UNL A   1      33.674  32.406  29.383  1.00  0.00     0.163 HD
ATOM     35  O   UNL A   1      35.300  31.713  27.662  1.00  0.00    -0.269 OA
BRANCH  33  36
ATOM     36  C   UNL A   1      36.598  30.861  29.422  1.00  0.00     0.039 A 
ATOM     37  C   UNL A   1      36.546  29.487  29.662  1.00  0.00     0.014 A 
ATOM     38  C   UNL A   1      37.776  31.575  29.590  1.00  0.00     0.014 A 
ATOM     39  C   UNL A   1      37.730  28.824  29.979  1.00  0.00     0.010 A 
ATOM     40  C   UNL A   1      38.956  30.893  29.667  1.00  0.00     0.010 A 
ATOM     41  C   UNL A   1      38.940  29.534  29.950  1.00  0.00    -0.014 A 
BRANCH  41  42
ATOM     42  C   UNL A   1      40.222  28.867  30.146  1.00  0.00     0.031 A 
ATOM     43  C   UNL A   1      40.696  28.823  31.552  1.00  0.00     0.074 A 
ATOM     44  C   UNL A   1      40.812  28.140  29.170  1.00  0.00     0.049 A 
ATOM     45  N   UNL A   1      41.672  29.488  32.075  1.00  0.00    -0.248 NA
ATOM     46  C   UNL A   1      39.905  28.061  32.530  1.00  0.00     0.031 C 
ATOM     47  C   UNL A   1      40.257  27.797  27.849  1.00  0.00     0.029 A 
ATOM     48  N   UNL A   1      41.964  27.417  29.204  1.00  0.00    -0.354 N 
ATOM     49  C   UNL A   1      41.785  29.009  33.381  1.00  0.00     0.074 A 
ATOM     50  C   UNL A   1      40.546  28.338  33.669  1.00  0.00     0.031 C 
ATOM     51  C   UNL A   1      40.909  26.727  27.351  1.00  0.00     0.029 A 
ATOM     52  C   UNL A   1      42.058  26.470  28.190  1.00  0.00     0.049 A 
ATOM     53  H   UNL A   1      42.666  27.552  29.880  1.00  0.00     0.167 HD
ATOM     54  C   UNL A   1      43.002  28.923  33.988  1.00  0.00     0.034 A 
ATOM     55  C   UNL A   1      43.010  25.522  28.048  1.00  0.00     0.034 A 
ATOM     56  C   UNL A   1      44.010  29.590  33.203  1.00  0.00     0.049 A 
ATOM     57  C   UNL A   1      44.198  25.979  28.792  1.00  0.00     0.074 A 
ATOM     58  C   UNL A   1      44.383  30.882  32.918  1.00  0.00     0.029 A 
ATOM     59  N   UNL A   1      44.587  28.773  32.265  1.00  0.00    -0.354 N 
ATOM     60  N   UNL A   1      44.869  27.054  28.478  1.00  0.00    -0.248 NA
ATOM     61  C   UNL A   1      44.478  25.428  30.112  1.00  0.00     0.031 C 
ATOM     62  C   UNL A   1      45.053  30.828  31.658  1.00  0.00     0.029 A 
ATOM     63  C   UNL A   1      45.097  29.503  31.227  1.00  0.00     0.049 A 
ATOM     64  H   UNL A   1      44.629  27.792  32.331  1.00  0.00     0.167 HD
ATOM     65  C   UNL A   1      45.284  27.554  29.699  1.00  0.00     0.074 A 
ATOM     66  C   UNL A   1      45.196  26.431  30.623  1.00  0.00     0.031 C 
ATOM     67  C   UNL A   1      45.329  28.897  29.932  1.00  0.00     0.034 A 
BRANCH  54  68
ATOM     68  C   UNL A   1      43.433  27.883  35.008  1.00  0.00     0.023 A 
ATOM     69  C   UNL A   1      44.007  28.367  36.210  1.00  0.00     0.012 A 
ATOM     70  C   UNL A   1      43.582  26.502  34.752  1.00  0.00     0.148 A 
ATOM     71  C   UNL A   1      44.728  27.537  37.078  1.00  0.00     0.002 A 
ATOM     72  C   UNL A   1      44.231  25.664  35.656  1.00  0.00     0.091 A 
ATOM     73  F   UNL A   1      43.222  25.996  33.570  1.00  0.00    -0.205 F 
ATOM     74  C   UNL A   1      44.834  26.181  36.803  1.00  0.00     0.022 A 
BRANCH  72  75
ATOM     75  S   UNL A   1      44.358  23.893  35.374  1.00  0.00     0.127 S 
ATOM     76  O   UNL A   1      45.235  23.843  34.209  1.00  0.00    -0.237 OA
ATOM     77  O   UNL A   1      44.961  23.433  36.626  1.00  0.00    -0.237 OA
ATOM     78  O   UNL A   1      42.988  23.435  35.173  1.00  0.00    -0.744 OA
ENDBRANCH  72  75
ENDBRANCH  54  68
BRANCH  55  79
ATOM     79  C   UNL A   1      42.910  24.174  27.455  1.00  0.00     0.023 A 
ATOM     80  C   UNL A   1      41.687  23.482  27.499  1.00  0.00     0.012 A 
ATOM     81  C   UNL A   1      43.929  23.695  26.603  1.00  0.00     0.148 A 
ATOM     82  C   UNL A   1      41.464  22.370  26.680  1.00  0.00     0.002 A 
ATOM     83  C   UNL A   1      43.703  22.591  25.789  1.00  0.00     0.091 A 
ATOM     84  F   UNL A   1      45.082  24.377  26.533  1.00  0.00    -0.205 F 
ATOM     85  C   UNL A   1      42.465  21.935  25.814  1.00  0.00     0.022 A 
BRANCH  83  86
ATOM     86  S   UNL A   1      44.927  21.991  24.617  1.00  0.00     0.127 S 
ATOM     87  O   UNL A   1      46.090  21.787  25.480  1.00  0.00    -0.237 OA
ATOM     88  O   UNL A   1      44.296  20.765  24.136  1.00  0.00    -0.237 OA
ATOM     89  O   UNL A   1      45.083  23.055  23.633  1.00  0.00    -0.744 OA
ENDBRANCH  83  86
ENDBRANCH  55  79
BRANCH  67  90
ATOM     90  C   UNL A   1      45.428  29.813  28.746  1.00  0.00     0.023 A 
ATOM     91  C   UNL A   1      44.302  30.280  28.039  1.00  0.00     0.012 A 
ATOM     92  C   UNL A   1      46.699  30.309  28.410  1.00  0.00     0.148 A 
ATOM     93  C   UNL A   1      44.447  31.211  27.007  1.00  0.00     0.002 A 
ATOM     94  C   UNL A   1      46.833  31.269  27.418  1.00  0.00     0.091 A 
ATOM     95  F   UNL A   1      47.759  29.844  29.089  1.00  0.00    -0.205 F 
ATOM     96  C   UNL A   1      45.710  31.717  26.705  1.00  0.00     0.022 A 
BRANCH  94  97
ATOM     97  S   UNL A   1      48.416  32.039  27.076  1.00  0.00     0.127 S 
ATOM     98  O   UNL A   1      49.197  30.918  26.557  1.00  0.00    -0.237 OA
ATOM     99  O   UNL A   1      48.065  33.053  26.080  1.00  0.00    -0.237 OA
ATOM    100  O   UNL A   1      48.873  32.591  28.345  1.00  0.00    -0.744 OA
ENDBRANCH  94  97
ENDBRANCH  67  90
ENDBRANCH  41  42
ENDBRANCH  33  36
ENDBRANCH  31  32
ENDBRANCH   1  31
TORSDOF 16
ENDMDL
MODEL 3
REMARK VINA RESULT:      -9.6      4.560      9.353
REMARK SMILES CC1(C)Cc2c(-c3ccccc3)c(-c3ccc(Cl)cc3)c(CC(=O)NCCCNC(=O)c3ccc(-c4c5nc(c(-c6cccc(S(=O)(=O)[O-])c6F)c6ccc([nH]6)c(-c6cccc(S(=O)(=O)[O-])c6F)c6nc(c(-c7cccc(S(=O)(=O)[O-])c7F)c7ccc4[nH]7)C=C6)C=C5)cc3)n2C1
REMARK SMILES IDX 27 1 26 2 25 3 23 4 24 5 22 7 21 8 1 9 2 10 3 11 4 12 96 13
REMARK SMILES IDX 5 14 95 15 6 16 13 17 7 18 8 19 12 20 9 21 11 22 10 23 14 24
REMARK SMILES IDX 15 25 20 26 16 27 19 28 17 29 18 30 28 31 29 32 30 33 31 35
REMARK SMILES IDX 32 36 33 37 94 38 34 39 93 40 35 41 36 42 37 43 87 44 38 45
REMARK SMILES IDX 92 46 86 47 88 48 39 49 91 50 85 51 84 52 40 54 72 55 52 56
REMARK SMILES IDX 71 57 53 58 56 59 70 60 89 61 54 62 55 63 69 65 90 66 57 67
REMARK SMILES IDX 41 68 42 69 50 70 43 71 45 72 51 73 44 74 46 75 47 76 48 77
REMARK SMILES IDX 49 78 73 79 74 80 82 81 75 82 77 83 83 84 76 85 78 86 79 87
REMARK SMILES IDX 80 88 81 89 58 90 59 91 67 92 60 93 62 94 68 95 61 96 63 97
REMARK SMILES IDX 64 98 65 99 66 100
REMARK H PARENT 25 6 29 34 88 53 56 64
REMARK Flexibility Score: inf
ROOT
ATOM      1  C   UNL A   1      34.365  29.447  27.628  1.00  0.00     0.042 C 
ENDROOT
BRANCH   1   2
ATOM      2  C   UNL A   1      33.281  29.427  26.556  1.00  0.00     0.117 C 
BRANCH   2   3
ATOM      3  N   UNL A   1      33.763  29.165  25.220  1.00  0.00    -0.356 N 
ATOM      4  C   UNL A   1      34.077  27.960  24.656  1.00  0.00     0.225 C 
ATOM      5  O   UNL A   1      34.150  27.904  23.426  1.00  0.00    -0.275 OA
ATOM      6  H   UNL A   1      33.881  29.954  24.642  1.00  0.00     0.163 HD
BRANCH   4   7
ATOM      7  C   UNL A   1      34.231  26.710  25.512  1.00  0.00     0.154 C 
BRANCH   7   8
ATOM      8  C   UNL A   1      33.427  25.542  25.024  1.00  0.00     0.036 A 
ATOM      9  C   UNL A   1      28.840  26.771  23.526  1.00  0.00     0.013 C 
ATOM     10  C   UNL A   1      29.785  25.944  24.398  1.00  0.00    -0.012 C 
ATOM     11  C   UNL A   1      29.061  25.615  25.716  1.00  0.00     0.013 C 
ATOM     12  C   UNL A   1      30.222  24.613  23.709  1.00  0.00     0.063 C 
ATOM     13  C   UNL A   1      31.124  26.708  24.634  1.00  0.00     0.129 C 
ATOM     14  C   UNL A   1      31.632  24.478  24.149  1.00  0.00     0.027 A 
ATOM     15  N   UNL A   1      32.120  25.649  24.648  1.00  0.00    -0.346 N 
ATOM     16  C   UNL A   1      32.617  23.530  24.246  1.00  0.00     0.011 A 
ATOM     17  C   UNL A   1      33.775  24.207  24.779  1.00  0.00     0.011 A 
BRANCH  16  18
ATOM     18  C   UNL A   1      32.451  22.141  23.861  1.00  0.00    -0.016 A 
ATOM     19  C   UNL A   1      32.497  21.123  24.820  1.00  0.00     0.009 A 
ATOM     20  C   UNL A   1      32.210  21.815  22.521  1.00  0.00     0.009 A 
ATOM     21  C   UNL A   1      32.306  19.793  24.440  1.00  0.00     0.001 A 
ATOM     22  C   UNL A   1      32.021  20.486  22.143  1.00  0.00     0.001 A 
ATOM     23  C   UNL A   1      32.068  19.476  23.103  1.00  0.00     0.000 A 
ENDBRANCH  16  18
BRANCH  17  24
ATOM     24  C   UNL A   1      35.111  23.641  24.932  1.00  0.00    -0.016 A 
ATOM     25  C   UNL A   1      35.701  22.998  23.834  1.00  0.00     0.010 A 
ATOM     26  C   UNL A   1      35.773  23.622  26.167  1.00  0.00     0.010 A 
ATOM     27  C   UNL A   1      36.937  22.360  23.964  1.00  0.00     0.021 A 
ATOM     28  C   UNL A   1      37.019  22.995  26.295  1.00  0.00     0.021 A 
ATOM     29  C   UNL A   1      37.593  22.365  25.192  1.00  0.00     0.041 A 
ATOM     30  Cl  UNL A   1      39.115  21.577  25.330  1.00  0.00    -0.084 Cl
ENDBRANCH  17  24
ENDBRANCH   7   8
ENDBRANCH   4   7
ENDBRANCH   2   3
ENDBRANCH   1   2
BRANCH   1  31
ATOM     31  C   UNL A   1      35.239  30.680  27.584  1.00  0.00     0.118 C 
BRANCH  31  32
ATOM     32  N   UNL A   1      34.754  31.728  28.494  1.00  0.00    -0.352 N 
ATOM     33  C   UNL A   1      35.124  31.965  29.808  1.00  0.00     0.251 C 
ATOM     34  H   UNL A   1      34.079  32.341  28.121  1.00  0.00     0.163 HD
ATOM     35  O   UNL A   1      34.440  32.651  30.541  1.00  0.00    -0.269 OA
BRANCH  33  36
ATOM     36  C   UNL A   1      36.371  31.341  30.284  1.00  0.00     0.039 A 
ATOM     37  C   UNL A   1      36.416  30.004  30.684  1.00  0.00     0.014 A 
ATOM     38  C   UNL A   1      37.526  32.106  30.205  1.00  0.00     0.014 A 
ATOM     39  C   UNL A   1      37.662  29.420  30.908  1.00  0.00     0.010 A 
ATOM     40  C   UNL A   1      38.736  31.474  30.196  1.00  0.00     0.010 A 
ATOM     41  C   UNL A   1      38.822  30.159  30.632  1.00  0.00    -0.014 A 
BRANCH  41  42
ATOM     42  C   UNL A   1      40.149  29.560  30.723  1.00  0.00     0.031 A 
ATOM     43  C   UNL A   1      40.752  29.581  32.080  1.00  0.00     0.074 A 
ATOM     44  C   UNL A   1      40.682  28.833  29.715  1.00  0.00     0.049 A 
ATOM     45  N   UNL A   1      41.738  30.307  32.492  1.00  0.00    -0.248 NA
ATOM     46  C   UNL A   1      40.094  28.812  33.147  1.00  0.00     0.031 C 
ATOM     47  C   UNL A   1      40.024  28.424  28.462  1.00  0.00     0.029 A 
ATOM     48  N   UNL A   1      41.867  28.167  29.659  1.00  0.00    -0.354 N 
ATOM     49  C   UNL A   1      41.995  29.874  33.793  1.00  0.00     0.074 A 
ATOM     50  C   UNL A   1      40.823  29.153  34.213  1.00  0.00     0.031 C 
ATOM     51  C   UNL A   1      40.680  27.372  27.932  1.00  0.00     0.029 A 
ATOM     52  C   UNL A   1      41.914  27.195  28.666  1.00  0.00     0.049 A 
ATOM     53  H   UNL A   1      42.620  28.356  30.263  1.00  0.00     0.167 HD
ATOM     54  C   UNL A   1      43.266  29.864  34.286  1.00  0.00     0.034 A 
ATOM     55  C   UNL A   1      42.895  26.290  28.459  1.00  0.00     0.034 A 
ATOM     56  C   UNL A   1      44.162  30.554  33.392  1.00  0.00     0.049 A 
ATOM     57  C   UNL A   1      44.123  26.825  29.077  1.00  0.00     0.074 A 
ATOM     58  C   UNL A   1      44.442  31.854  33.040  1.00  0.00     0.029 A 
ATOM     59  N   UNL A   1      44.690  29.738  32.426  1.00  0.00    -0.354 N 
ATOM     60  N   UNL A   1      44.706  27.921  28.674  1.00  0.00    -0.248 NA
ATOM     61  C   UNL A   1      44.550  26.329  30.378  1.00  0.00     0.031 C 
ATOM     62  C   UNL A   1      44.994  31.793  31.726  1.00  0.00     0.029 A 
ATOM     63  C   UNL A   1      45.064  30.459  31.326  1.00  0.00     0.049 A 
ATOM     64  H   UNL A   1      44.787  28.762  32.512  1.00  0.00     0.167 HD
ATOM     65  C   UNL A   1      45.207  28.476  29.838  1.00  0.00     0.074 A 
ATOM     66  C   UNL A   1      45.261  27.379  30.794  1.00  0.00     0.031 C 
ATOM     67  C   UNL A   1      45.206  29.826  30.031  1.00  0.00     0.034 A 
BRANCH  54  68
ATOM     68  C   UNL A   1      43.840  28.876  35.287  1.00  0.00     0.023 A 
ATOM     69  C   UNL A   1      44.623  29.416  36.338  1.00  0.00     0.012 A 
ATOM     70  C   UNL A   1      43.911  27.477  35.105  1.00  0.00     0.148 A 
ATOM     71  C   UNL A   1      45.462  28.619  37.125  1.00  0.00     0.002 A 
ATOM     72  C   UNL A   1      44.686  26.677  35.941  1.00  0.00     0.091 A 
ATOM     73  F   UNL A   1      43.342  26.910  34.039  1.00  0.00    -0.205 F 
ATOM     74  C   UNL A   1      45.488  27.245  36.931  1.00  0.00     0.022 A 
BRANCH  72  75
ATOM     75  S   UNL A   1      44.720  24.888  35.764  1.00  0.00     0.127 S 
ATOM     76  O   UNL A   1      45.539  24.497  36.907  1.00  0.00    -0.237 OA
ATOM     77  O   UNL A   1      43.301  24.550  35.872  1.00  0.00    -0.237 OA
ATOM     78  O   UNL A   1      45.291  24.641  34.445  1.00  0.00    -0.744 OA
ENDBRANCH  72  75
ENDBRANCH  54  68
BRANCH  55  79
ATOM     79  C   UNL A   1      42.809  24.922  27.913  1.00  0.00     0.023 A 
ATOM     80  C   UNL A   1      41.592  24.219  27.982  1.00  0.00     0.012 A 
ATOM     81  C   UNL A   1      43.832  24.424  27.077  1.00  0.00     0.148 A 
ATOM     82  C   UNL A   1      41.381  23.078  27.201  1.00  0.00     0.002 A 
ATOM     83  C   UNL A   1      43.617  23.291  26.302  1.00  0.00     0.091 A 
ATOM     84  F   UNL A   1      44.978  25.114  26.983  1.00  0.00    -0.205 F 
ATOM     85  C   UNL A   1      42.386  22.623  26.350  1.00  0.00     0.022 A 
BRANCH  83  86
ATOM     86  S   UNL A   1      44.846  22.663  25.150  1.00  0.00     0.127 S 
ATOM     87  O   UNL A   1      45.929  22.276  26.054  1.00  0.00    -0.237 OA
ATOM     88  O   UNL A   1      44.131  21.549  24.535  1.00  0.00    -0.237 OA
ATOM     89  O   UNL A   1      45.164  23.780  24.269  1.00  0.00    -0.744 OA
ENDBRANCH  83  86
ENDBRANCH  55  79
BRANCH  67  90
ATOM     90  C   UNL A   1      45.149  30.711  28.818  1.00  0.00     0.023 A 
ATOM     91  C   UNL A   1      43.942  31.081  28.193  1.00  0.00     0.012 A 
ATOM     92  C   UNL A   1      46.353  31.276  28.367  1.00  0.00     0.148 A 
ATOM     93  C   UNL A   1      43.941  31.989  27.130  1.00  0.00     0.002 A 
ATOM     94  C   UNL A   1      46.343  32.212  27.343  1.00  0.00     0.091 A 
ATOM     95  F   UNL A   1      47.492  30.902  28.968  1.00  0.00    -0.205 F 
ATOM     96  C   UNL A   1      45.139  32.565  26.713  1.00  0.00     0.022 A 
BRANCH  94  97
ATOM     97  S   UNL A   1      47.839  33.071  26.853  1.00  0.00     0.127 S 
ATOM     98  O   UNL A   1      48.714  31.967  26.465  1.00  0.00    -0.237 OA
ATOM     99  O   UNL A   1      47.375  33.904  25.743  1.00  0.00    -0.237 OA
ATOM    100  O   UNL A   1      48.264  33.830  28.024  1.00  0.00    -0.744 OA
ENDBRANCH  94  97
ENDBRANCH  67  90
ENDBRANCH  41  42
ENDBRANCH  33  36
ENDBRANCH  31  32
ENDBRANCH   1  31
TORSDOF 16
ENDMDL
