MODEL 1
REMARK VINA RESULT:     -12.4      0.000      0.000
REMARK SMILES Cn1cc(-c2cc(C(F)(F)F)c3c(C4CC4)nn(CC(=O)NCCCNC(=O)c4ccc(-c5c6nc(c(-c7cccc(S(=O)(=O)[O-])c7F)c7ccc([nH]7)c(-c7cccc(S(=O)(=O)[O-])c7F)c7nc(c(-c8cccc(S(=O)(=O)[O-])c8F)c8ccc5[nH]8)C=C7)C=C6)cc4)c3n2)cn1
REMARK SMILES IDX 24 1 23 2 22 3 20 4 21 5 19 7 18 8 5 9 6 10 93 11 7 12 92 13
REMARK SMILES IDX 12 14 13 15 17 16 4 17 1 18 2 19 3 20 95 21 94 22 8 23 9 24
REMARK SMILES IDX 10 25 11 26 14 27 15 28 16 29 25 30 26 31 27 32 28 34 29 35
REMARK SMILES IDX 30 36 91 37 31 38 90 39 32 40 33 41 34 42 84 43 35 44 89 45
REMARK SMILES IDX 83 46 85 47 36 48 88 49 82 50 81 51 37 53 69 54 49 55 68 56
REMARK SMILES IDX 50 57 53 58 67 59 86 60 51 61 52 62 66 64 87 65 54 66 38 67
REMARK SMILES IDX 39 68 47 69 40 70 42 71 48 72 41 73 43 74 44 75 45 76 46 77
REMARK SMILES IDX 70 78 71 79 79 80 72 81 74 82 80 83 73 84 75 85 76 86 77 87
REMARK SMILES IDX 78 88 55 89 56 90 64 91 57 92 59 93 65 94 58 95 60 96 61 97
REMARK SMILES IDX 62 98 63 99
REMARK H PARENT 22 6 26 33 85 52 53 63
REMARK Flexibility Score: inf
ROOT
ATOM      1  C   UNL A   1      38.351  19.477  24.981  1.00  0.00     0.042 C 
ENDROOT
BRANCH   1   2
ATOM      2  C   UNL A   1      37.418  20.670  24.768  1.00  0.00     0.117 C 
BRANCH   2   3
ATOM      3  N   UNL A   1      38.053  21.952  25.012  1.00  0.00    -0.354 N 
ATOM      4  C   UNL A   1      37.456  23.092  25.473  1.00  0.00     0.241 C 
ATOM      5  O   UNL A   1      38.147  24.068  25.765  1.00  0.00    -0.273 OA
ATOM      6  H   UNL A   1      39.017  22.007  24.823  1.00  0.00     0.163 HD
BRANCH   4   7
ATOM      7  C   UNL A   1      35.982  23.074  25.722  1.00  0.00     0.246 C 
BRANCH   7   8
ATOM      8  N   UNL A   1      35.277  24.188  25.120  1.00  0.00    -0.237 N 
ATOM      9  C   UNL A   1      33.172  22.836  22.874  1.00  0.00     0.077 A 
ATOM     10  C   UNL A   1      32.509  23.946  22.356  1.00  0.00     0.043 A 
ATOM     11  N   UNL A   1      34.472  22.961  23.220  1.00  0.00    -0.228 NA
ATOM     12  C   UNL A   1      33.021  25.236  22.641  1.00  0.00     0.071 A 
ATOM     13  C   UNL A   1      34.613  24.093  23.936  1.00  0.00     0.159 A 
ATOM     14  C   UNL A   1      33.847  25.238  23.782  1.00  0.00     0.055 A 
ATOM     15  C   UNL A   1      33.995  25.884  25.041  1.00  0.00     0.076 A 
ATOM     16  N   UNL A   1      34.923  25.290  25.813  1.00  0.00    -0.175 NA
BRANCH   9  17
ATOM     17  C   UNL A   1      32.535  21.981  23.907  1.00  0.00     0.038 A 
ATOM     18  C   UNL A   1      32.493  22.297  27.461  1.00  0.00     0.173 C 
ATOM     19  N   UNL A   1      32.328  21.803  26.106  1.00  0.00    -0.275 N 
ATOM     20  C   UNL A   1      31.943  22.561  25.028  1.00  0.00     0.118 A 
ATOM     21  N   UNL A   1      32.867  20.624  25.740  1.00  0.00    -0.181 NA
ATOM     22  C   UNL A   1      33.068  20.770  24.425  1.00  0.00     0.145 A 
ENDBRANCH   9  17
BRANCH  12  23
ATOM     23  C   UNL A   1      32.912  26.368  21.659  1.00  0.00     0.417 C 
ATOM     24  F   UNL A   1      33.925  27.265  21.668  1.00  0.00    -0.166 F 
ATOM     25  F   UNL A   1      32.837  25.909  20.375  1.00  0.00    -0.166 F 
ATOM     26  F   UNL A   1      31.777  27.106  21.838  1.00  0.00    -0.166 F 
ENDBRANCH  12  23
BRANCH  15  27
ATOM     27  C   UNL A   1      33.077  26.901  25.723  1.00  0.00     0.041 C 
ATOM     28  C   UNL A   1      33.519  28.146  26.439  1.00  0.00     0.011 C 
ATOM     29  C   UNL A   1      32.945  28.273  25.073  1.00  0.00     0.011 C 
ENDBRANCH  15  27
ENDBRANCH   7   8
ENDBRANCH   4   7
ENDBRANCH   2   3
ENDBRANCH   1   2
BRANCH   1  30
ATOM     30  C   UNL A   1      39.390  19.779  26.031  1.00  0.00     0.118 C 
BRANCH  30  31
ATOM     31  N   UNL A   1      40.642  19.079  25.745  1.00  0.00    -0.352 N 
ATOM     32  C   UNL A   1      41.918  19.578  25.782  1.00  0.00     0.251 C 
ATOM     33  H   UNL A   1      40.557  18.131  25.494  1.00  0.00     0.163 HD
ATOM     34  O   UNL A   1      42.847  18.963  25.262  1.00  0.00    -0.269 OA
BRANCH  32  35
ATOM     35  C   UNL A   1      42.141  20.863  26.450  1.00  0.00     0.039 A 
ATOM     36  C   UNL A   1      42.527  21.985  25.717  1.00  0.00     0.014 A 
ATOM     37  C   UNL A   1      41.906  20.935  27.823  1.00  0.00     0.014 A 
ATOM     38  C   UNL A   1      42.632  23.199  26.380  1.00  0.00     0.010 A 
ATOM     39  C   UNL A   1      41.835  22.154  28.434  1.00  0.00     0.010 A 
ATOM     40  C   UNL A   1      42.275  23.269  27.735  1.00  0.00    -0.014 A 
BRANCH  40  41
ATOM     41  C   UNL A   1      42.315  24.529  28.446  1.00  0.00     0.031 A 
ATOM     42  C   UNL A   1      41.124  25.381  28.234  1.00  0.00     0.074 A 
ATOM     43  C   UNL A   1      43.270  24.810  29.356  1.00  0.00     0.049 A 
ATOM     44  N   UNL A   1      41.028  26.392  27.437  1.00  0.00    -0.248 NA
ATOM     45  C   UNL A   1      39.848  24.968  28.840  1.00  0.00     0.031 C 
ATOM     46  C   UNL A   1      44.290  23.901  29.903  1.00  0.00     0.029 A 
ATOM     47  N   UNL A   1      43.456  25.942  30.081  1.00  0.00    -0.354 N 
ATOM     48  C   UNL A   1      39.762  26.912  27.676  1.00  0.00     0.074 A 
ATOM     49  C   UNL A   1      39.009  25.882  28.344  1.00  0.00     0.031 C 
ATOM     50  C   UNL A   1      44.806  24.433  31.032  1.00  0.00     0.029 A 
ATOM     51  C   UNL A   1      44.315  25.788  31.162  1.00  0.00     0.049 A 
ATOM     52  H   UNL A   1      43.020  26.797  29.861  1.00  0.00     0.167 HD
ATOM     53  C   UNL A   1      39.537  28.253  27.620  1.00  0.00     0.034 A 
ATOM     54  C   UNL A   1      44.580  26.727  32.098  1.00  0.00     0.034 A 
ATOM     55  C   UNL A   1      40.686  28.964  27.132  1.00  0.00     0.049 A 
ATOM     56  C   UNL A   1      44.320  28.036  31.456  1.00  0.00     0.074 A 
ATOM     57  C   UNL A   1      41.273  29.221  25.915  1.00  0.00     0.029 A 
ATOM     58  N   UNL A   1      41.629  29.189  28.103  1.00  0.00    -0.354 N 
ATOM     59  N   UNL A   1      44.993  28.478  30.429  1.00  0.00    -0.248 NA
ATOM     60  C   UNL A   1      43.085  28.751  31.757  1.00  0.00     0.031 C 
ATOM     61  C   UNL A   1      42.655  29.462  26.181  1.00  0.00     0.029 A 
ATOM     62  C   UNL A   1      42.869  29.378  27.554  1.00  0.00     0.049 A 
ATOM     63  H   UNL A   1      41.440  29.211  29.069  1.00  0.00     0.167 HD
ATOM     64  C   UNL A   1      44.061  29.207  29.717  1.00  0.00     0.074 A 
ATOM     65  C   UNL A   1      42.989  29.501  30.657  1.00  0.00     0.031 C 
ATOM     66  C   UNL A   1      44.063  29.221  28.356  1.00  0.00     0.034 A 
BRANCH  53  67
ATOM     67  C   UNL A   1      38.489  28.963  28.428  1.00  0.00     0.023 A 
ATOM     68  C   UNL A   1      37.571  29.795  27.758  1.00  0.00     0.012 A 
ATOM     69  C   UNL A   1      38.523  29.032  29.839  1.00  0.00     0.148 A 
ATOM     70  C   UNL A   1      36.698  30.629  28.467  1.00  0.00     0.002 A 
ATOM     71  C   UNL A   1      37.597  29.793  30.540  1.00  0.00     0.091 A 
ATOM     72  F   UNL A   1      39.539  28.462  30.499  1.00  0.00    -0.205 F 
ATOM     73  C   UNL A   1      36.692  30.608  29.860  1.00  0.00     0.022 A 
BRANCH  71  74
ATOM     74  S   UNL A   1      37.511  29.746  32.333  1.00  0.00     0.127 S 
ATOM     75  O   UNL A   1      36.270  30.472  32.586  1.00  0.00    -0.237 OA
ATOM     76  O   UNL A   1      37.453  28.306  32.590  1.00  0.00    -0.237 OA
ATOM     77  O   UNL A   1      38.738  30.382  32.790  1.00  0.00    -0.744 OA
ENDBRANCH  71  74
ENDBRANCH  53  67
BRANCH  54  78
ATOM     78  C   UNL A   1      44.806  26.607  33.555  1.00  0.00     0.023 A 
ATOM     79  C   UNL A   1      45.978  27.180  34.093  1.00  0.00     0.012 A 
ATOM     80  C   UNL A   1      43.758  26.274  34.440  1.00  0.00     0.148 A 
ATOM     81  C   UNL A   1      46.063  27.514  35.447  1.00  0.00     0.002 A 
ATOM     82  C   UNL A   1      43.851  26.601  35.791  1.00  0.00     0.091 A 
ATOM     83  F   UNL A   1      42.636  25.735  33.943  1.00  0.00    -0.205 F 
ATOM     84  C   UNL A   1      44.991  27.247  36.291  1.00  0.00     0.022 A 
BRANCH  82  85
ATOM     85  S   UNL A   1      42.510  26.295  36.949  1.00  0.00     0.127 S 
ATOM     86  O   UNL A   1      42.278  24.860  36.775  1.00  0.00    -0.237 OA
ATOM     87  O   UNL A   1      43.118  26.666  38.222  1.00  0.00    -0.237 OA
ATOM     88  O   UNL A   1      41.407  27.134  36.499  1.00  0.00    -0.744 OA
ENDBRANCH  82  85
ENDBRANCH  54  78
BRANCH  66  89
ATOM     89  C   UNL A   1      45.344  28.897  27.653  1.00  0.00     0.023 A 
ATOM     90  C   UNL A   1      46.456  29.761  27.637  1.00  0.00     0.012 A 
ATOM     91  C   UNL A   1      45.459  27.613  27.094  1.00  0.00     0.148 A 
ATOM     92  C   UNL A   1      47.667  29.341  27.074  1.00  0.00     0.002 A 
ATOM     93  C   UNL A   1      46.670  27.189  26.569  1.00  0.00     0.091 A 
ATOM     94  F   UNL A   1      44.380  26.817  27.123  1.00  0.00    -0.205 F 
ATOM     95  C   UNL A   1      47.777  28.051  26.553  1.00  0.00     0.022 A 
BRANCH  93  96
ATOM     96  S   UNL A   1      46.902  25.515  25.973  1.00  0.00     0.127 S 
ATOM     97  O   UNL A   1      46.440  24.718  27.108  1.00  0.00    -0.237 OA
ATOM     98  O   UNL A   1      46.024  25.481  24.803  1.00  0.00    -0.237 OA
ATOM     99  O   UNL A   1      48.320  25.385  25.662  1.00  0.00    -0.744 OA
ENDBRANCH  93  96
ENDBRANCH  66  89
ENDBRANCH  40  41
ENDBRANCH  32  35
ENDBRANCH  30  31
ENDBRANCH   1  30
TORSDOF 17
ENDMDL
MODEL 2
REMARK VINA RESULT:     -12.3      4.156      9.287
REMARK SMILES Cn1cc(-c2cc(C(F)(F)F)c3c(C4CC4)nn(CC(=O)NCCCNC(=O)c4ccc(-c5c6nc(c(-c7cccc(S(=O)(=O)[O-])c7F)c7ccc([nH]7)c(-c7cccc(S(=O)(=O)[O-])c7F)c7nc(c(-c8cccc(S(=O)(=O)[O-])c8F)c8ccc5[nH]8)C=C7)C=C6)cc4)c3n2)cn1
REMARK SMILES IDX 24 1 23 2 22 3 20 4 21 5 19 7 18 8 5 9 6 10 93 11 7 12 92 13
REMARK SMILES IDX 12 14 13 15 17 16 4 17 1 18 2 19 3 20 95 21 94 22 8 23 9 24
REMARK SMILES IDX 10 25 11 26 14 27 15 28 16 29 25 30 26 31 27 32 28 34 29 35
REMARK SMILES IDX 30 36 91 37 31 38 90 39 32 40 33 41 34 42 84 43 35 44 89 45
REMARK SMILES IDX 83 46 85 47 36 48 88 49 82 50 81 51 37 53 69 54 49 55 68 56
REMARK SMILES IDX 50 57 53 58 67 59 86 60 51 61 52 62 66 64 87 65 54 66 38 67
REMARK SMILES IDX 39 68 47 69 40 70 42 71 48 72 41 73 43 74 44 75 45 76 46 77
REMARK SMILES IDX 70 78 71 79 79 80 72 81 74 82 80 83 73 84 75 85 76 86 77 87
REMARK SMILES IDX 78 88 55 89 56 90 64 91 57 92 59 93 65 94 58 95 60 96 61 97
REMARK SMILES IDX 62 98 63 99
REMARK H PARENT 22 6 26 33 85 52 53 63
REMARK Flexibility Score: inf
ROOT
ATOM      1  C   UNL A   1      31.407  32.199  26.751  1.00  0.00     0.042 C 
ENDROOT
BRANCH   1   2
ATOM      2  C   UNL A   1      31.712  30.737  26.421  1.00  0.00     0.117 C 
BRANCH   2   3
ATOM      3  N   UNL A   1      32.923  30.242  27.052  1.00  0.00    -0.354 N 
ATOM      4  C   UNL A   1      33.544  29.047  26.817  1.00  0.00     0.241 C 
ATOM      5  O   UNL A   1      34.642  28.820  27.323  1.00  0.00    -0.273 OA
ATOM      6  H   UNL A   1      33.340  30.830  27.721  1.00  0.00     0.163 HD
BRANCH   4   7
ATOM      7  C   UNL A   1      32.917  28.096  25.848  1.00  0.00     0.246 C 
BRANCH   7   8
ATOM      8  N   UNL A   1      33.418  26.740  25.958  1.00  0.00    -0.237 N 
ATOM      9  C   UNL A   1      30.700  24.775  26.184  1.00  0.00     0.077 A 
ATOM     10  C   UNL A   1      31.242  23.494  26.256  1.00  0.00     0.043 A 
ATOM     11  N   UNL A   1      31.365  25.795  26.768  1.00  0.00    -0.228 NA
ATOM     12  C   UNL A   1      32.633  23.359  26.492  1.00  0.00     0.071 A 
ATOM     13  C   UNL A   1      32.663  25.707  26.422  1.00  0.00     0.159 A 
ATOM     14  C   UNL A   1      33.343  24.529  26.155  1.00  0.00     0.055 A 
ATOM     15  C   UNL A   1      34.432  24.971  25.355  1.00  0.00     0.076 A 
ATOM     16  N   UNL A   1      34.520  26.313  25.309  1.00  0.00    -0.175 NA
BRANCH   9  17
ATOM     17  C   UNL A   1      30.150  25.298  24.908  1.00  0.00     0.038 A 
ATOM     18  C   UNL A   1      31.810  26.244  21.894  1.00  0.00     0.173 C 
ATOM     19  N   UNL A   1      30.806  26.023  22.919  1.00  0.00    -0.275 N 
ATOM     20  C   UNL A   1      30.697  24.893  23.691  1.00  0.00     0.118 A 
ATOM     21  N   UNL A   1      30.107  27.059  23.421  1.00  0.00    -0.181 NA
ATOM     22  C   UNL A   1      29.785  26.648  24.654  1.00  0.00     0.145 A 
ENDBRANCH   9  17
BRANCH  12  23
ATOM     23  C   UNL A   1      33.197  22.208  27.276  1.00  0.00     0.417 C 
ATOM     24  F   UNL A   1      33.196  21.007  26.655  1.00  0.00    -0.166 F 
ATOM     25  F   UNL A   1      34.494  22.438  27.635  1.00  0.00    -0.166 F 
ATOM     26  F   UNL A   1      32.535  22.006  28.453  1.00  0.00    -0.166 F 
ENDBRANCH  12  23
BRANCH  15  27
ATOM     27  C   UNL A   1      35.273  24.188  24.344  1.00  0.00     0.041 C 
ATOM     28  C   UNL A   1      35.344  22.692  24.226  1.00  0.00     0.011 C 
ATOM     29  C   UNL A   1      34.531  23.449  23.237  1.00  0.00     0.011 C 
ENDBRANCH  15  27
ENDBRANCH   7   8
ENDBRANCH   4   7
ENDBRANCH   2   3
ENDBRANCH   1   2
BRANCH   1  30
ATOM     30  C   UNL A   1      32.673  32.971  27.026  1.00  0.00     0.118 C 
BRANCH  30  31
ATOM     31  N   UNL A   1      32.399  34.150  27.846  1.00  0.00    -0.352 N 
ATOM     32  C   UNL A   1      33.077  34.587  28.955  1.00  0.00     0.251 C 
ATOM     33  H   UNL A   1      31.630  34.699  27.568  1.00  0.00     0.163 HD
ATOM     34  O   UNL A   1      32.582  35.430  29.700  1.00  0.00    -0.269 OA
BRANCH  32  35
ATOM     35  C   UNL A   1      34.398  34.015  29.228  1.00  0.00     0.039 A 
ATOM     36  C   UNL A   1      34.598  33.192  30.336  1.00  0.00     0.014 A 
ATOM     37  C   UNL A   1      35.425  34.280  28.322  1.00  0.00     0.014 A 
ATOM     38  C   UNL A   1      35.842  32.600  30.498  1.00  0.00     0.010 A 
ATOM     39  C   UNL A   1      36.583  33.560  28.383  1.00  0.00     0.010 A 
ATOM     40  C   UNL A   1      36.820  32.786  29.510  1.00  0.00    -0.014 A 
BRANCH  40  41
ATOM     41  C   UNL A   1      38.110  32.137  29.613  1.00  0.00     0.031 A 
ATOM     42  C   UNL A   1      38.116  30.729  29.160  1.00  0.00     0.074 A 
ATOM     43  C   UNL A   1      39.232  32.816  29.926  1.00  0.00     0.049 A 
ATOM     44  N   UNL A   1      38.071  29.675  29.904  1.00  0.00    -0.248 NA
ATOM     45  C   UNL A   1      37.985  30.455  27.720  1.00  0.00     0.031 C 
ATOM     46  C   UNL A   1      39.401  34.272  30.047  1.00  0.00     0.029 A 
ATOM     47  N   UNL A   1      40.498  32.352  30.084  1.00  0.00    -0.354 N 
ATOM     48  C   UNL A   1      38.207  28.611  29.022  1.00  0.00     0.074 A 
ATOM     49  C   UNL A   1      37.908  29.120  27.708  1.00  0.00     0.031 C 
ATOM     50  C   UNL A   1      40.717  34.577  30.003  1.00  0.00     0.029 A 
ATOM     51  C   UNL A   1      41.471  33.344  30.068  1.00  0.00     0.049 A 
ATOM     52  H   UNL A   1      40.708  31.397  30.198  1.00  0.00     0.167 HD
ATOM     53  C   UNL A   1      38.885  27.488  29.384  1.00  0.00     0.034 A 
ATOM     54  C   UNL A   1      42.807  33.137  30.096  1.00  0.00     0.034 A 
ATOM     55  C   UNL A   1      39.245  27.509  30.774  1.00  0.00     0.049 A 
ATOM     56  C   UNL A   1      43.009  31.822  30.744  1.00  0.00     0.074 A 
ATOM     57  C   UNL A   1      38.628  27.275  31.980  1.00  0.00     0.029 A 
ATOM     58  N   UNL A   1      40.378  28.242  31.023  1.00  0.00    -0.354 N 
ATOM     59  N   UNL A   1      42.669  31.569  31.978  1.00  0.00    -0.248 NA
ATOM     60  C   UNL A   1      43.315  30.656  29.922  1.00  0.00     0.031 C 
ATOM     61  C   UNL A   1      39.353  28.028  32.953  1.00  0.00     0.029 A 
ATOM     62  C   UNL A   1      40.412  28.675  32.321  1.00  0.00     0.049 A 
ATOM     63  H   UNL A   1      41.076  28.432  30.355  1.00  0.00     0.167 HD
ATOM     64  C   UNL A   1      42.293  30.241  31.948  1.00  0.00     0.074 A 
ATOM     65  C   UNL A   1      42.886  29.691  30.738  1.00  0.00     0.031 C 
ATOM     66  C   UNL A   1      41.263  29.779  32.708  1.00  0.00     0.034 A 
BRANCH  53  67
ATOM     67  C   UNL A   1      39.627  26.608  28.419  1.00  0.00     0.023 A 
ATOM     68  C   UNL A   1      39.373  25.222  28.438  1.00  0.00     0.012 A 
ATOM     69  C   UNL A   1      40.732  27.058  27.662  1.00  0.00     0.148 A 
ATOM     70  C   UNL A   1      40.164  24.331  27.704  1.00  0.00     0.002 A 
ATOM     71  C   UNL A   1      41.459  26.182  26.867  1.00  0.00     0.091 A 
ATOM     72  F   UNL A   1      41.164  28.316  27.817  1.00  0.00    -0.205 F 
ATOM     73  C   UNL A   1      41.191  24.813  26.896  1.00  0.00     0.022 A 
BRANCH  71  74
ATOM     74  S   UNL A   1      42.747  26.768  25.762  1.00  0.00     0.127 S 
ATOM     75  O   UNL A   1      42.050  27.823  25.032  1.00  0.00    -0.237 OA
ATOM     76  O   UNL A   1      43.763  27.233  26.708  1.00  0.00    -0.237 OA
ATOM     77  O   UNL A   1      43.145  25.600  24.988  1.00  0.00    -0.744 OA
ENDBRANCH  71  74
ENDBRANCH  53  67
BRANCH  54  78
ATOM     78  C   UNL A   1      43.912  33.846  29.413  1.00  0.00     0.023 A 
ATOM     79  C   UNL A   1      44.830  34.564  30.209  1.00  0.00     0.012 A 
ATOM     80  C   UNL A   1      44.274  33.540  28.084  1.00  0.00     0.148 A 
ATOM     81  C   UNL A   1      46.110  34.869  29.737  1.00  0.00     0.002 A 
ATOM     82  C   UNL A   1      45.548  33.855  27.616  1.00  0.00     0.091 A 
ATOM     83  F   UNL A   1      43.416  32.853  27.318  1.00  0.00    -0.205 F 
ATOM     84  C   UNL A   1      46.476  34.494  28.450  1.00  0.00     0.022 A 
BRANCH  82  85
ATOM     85  S   UNL A   1      46.105  33.403  25.967  1.00  0.00     0.127 S 
ATOM     86  O   UNL A   1      45.443  34.408  25.134  1.00  0.00    -0.237 OA
ATOM     87  O   UNL A   1      47.552  33.561  26.081  1.00  0.00    -0.237 OA
ATOM     88  O   UNL A   1      45.626  32.043  25.753  1.00  0.00    -0.744 OA
ENDBRANCH  82  85
ENDBRANCH  54  78
BRANCH  66  89
ATOM     89  C   UNL A   1      40.891  30.556  33.932  1.00  0.00     0.023 A 
ATOM     90  C   UNL A   1      41.692  30.604  35.089  1.00  0.00     0.012 A 
ATOM     91  C   UNL A   1      39.745  31.364  33.852  1.00  0.00     0.148 A 
ATOM     92  C   UNL A   1      41.352  31.455  36.148  1.00  0.00     0.002 A 
ATOM     93  C   UNL A   1      39.430  32.231  34.888  1.00  0.00     0.091 A 
ATOM     94  F   UNL A   1      39.002  31.292  32.738  1.00  0.00    -0.205 F 
ATOM     95  C   UNL A   1      40.229  32.277  36.041  1.00  0.00     0.022 A 
BRANCH  93  96
ATOM     96  S   UNL A   1      38.059  33.379  34.770  1.00  0.00     0.127 S 
ATOM     97  O   UNL A   1      38.186  34.137  36.013  1.00  0.00    -0.237 OA
ATOM     98  O   UNL A   1      38.390  34.130  33.558  1.00  0.00    -0.237 OA
ATOM     99  O   UNL A   1      36.855  32.566  34.661  1.00  0.00    -0.744 OA
ENDBRANCH  93  96
ENDBRANCH  66  89
ENDBRANCH  40  41
ENDBRANCH  32  35
ENDBRANCH  30  31
ENDBRANCH   1  30
TORSDOF 17
ENDMDL
MODEL 3
REMARK VINA RESULT:     -11.8      4.515      9.333
REMARK SMILES Cn1cc(-c2cc(C(F)(F)F)c3c(C4CC4)nn(CC(=O)NCCCNC(=O)c4ccc(-c5c6nc(c(-c7cccc(S(=O)(=O)[O-])c7F)c7ccc([nH]7)c(-c7cccc(S(=O)(=O)[O-])c7F)c7nc(c(-c8cccc(S(=O)(=O)[O-])c8F)c8ccc5[nH]8)C=C7)C=C6)cc4)c3n2)cn1
REMARK SMILES IDX 24 1 23 2 22 3 20 4 21 5 19 7 18 8 5 9 6 10 93 11 7 12 92 13
REMARK SMILES IDX 12 14 13 15 17 16 4 17 1 18 2 19 3 20 95 21 94 22 8 23 9 24
REMARK SMILES IDX 10 25 11 26 14 27 15 28 16 29 25 30 26 31 27 32 28 34 29 35
REMARK SMILES IDX 30 36 91 37 31 38 90 39 32 40 33 41 34 42 84 43 35 44 89 45
REMARK SMILES IDX 83 46 85 47 36 48 88 49 82 50 81 51 37 53 69 54 49 55 68 56
REMARK SMILES IDX 50 57 53 58 67 59 86 60 51 61 52 62 66 64 87 65 54 66 38 67
REMARK SMILES IDX 39 68 47 69 40 70 42 71 48 72 41 73 43 74 44 75 45 76 46 77
REMARK SMILES IDX 70 78 71 79 79 80 72 81 74 82 80 83 73 84 75 85 76 86 77 87
REMARK SMILES IDX 78 88 55 89 56 90 64 91 57 92 59 93 65 94 58 95 60 96 61 97
REMARK SMILES IDX 62 98 63 99
REMARK H PARENT 22 6 26 33 85 52 53 63
REMARK Flexibility Score: inf
ROOT
ATOM      1  C   UNL A   1      31.349  32.112  26.681  1.00  0.00     0.042 C 
ENDROOT
BRANCH   1   2
ATOM      2  C   UNL A   1      31.660  30.654  26.340  1.00  0.00     0.117 C 
BRANCH   2   3
ATOM      3  N   UNL A   1      32.915  30.184  26.897  1.00  0.00    -0.354 N 
ATOM      4  C   UNL A   1      33.489  28.956  26.716  1.00  0.00     0.241 C 
ATOM      5  O   UNL A   1      34.626  28.745  27.136  1.00  0.00    -0.273 OA
ATOM      6  H   UNL A   1      33.406  30.818  27.468  1.00  0.00     0.163 HD
BRANCH   4   7
ATOM      7  C   UNL A   1      32.754  27.940  25.900  1.00  0.00     0.246 C 
BRANCH   7   8
ATOM      8  N   UNL A   1      33.333  26.613  25.967  1.00  0.00    -0.237 N 
ATOM      9  C   UNL A   1      30.736  24.487  26.155  1.00  0.00     0.077 A 
ATOM     10  C   UNL A   1      31.352  23.239  26.186  1.00  0.00     0.043 A 
ATOM     11  N   UNL A   1      31.346  25.526  26.764  1.00  0.00    -0.228 NA
ATOM     12  C   UNL A   1      32.751  23.178  26.407  1.00  0.00     0.071 A 
ATOM     13  C   UNL A   1      32.645  25.525  26.406  1.00  0.00     0.159 A 
ATOM     14  C   UNL A   1      33.389  24.396  26.100  1.00  0.00     0.055 A 
ATOM     15  C   UNL A   1      34.444  24.924  25.305  1.00  0.00     0.076 A 
ATOM     16  N   UNL A   1      34.453  26.269  25.298  1.00  0.00    -0.175 NA
BRANCH   9  17
ATOM     17  C   UNL A   1      30.146  25.014  24.899  1.00  0.00     0.038 A 
ATOM     18  C   UNL A   1      31.723  26.257  21.949  1.00  0.00     0.173 C 
ATOM     19  N   UNL A   1      30.740  25.892  22.953  1.00  0.00    -0.275 N 
ATOM     20  C   UNL A   1      30.736  24.722  23.671  1.00  0.00     0.118 A 
ATOM     21  N   UNL A   1      29.940  26.831  23.495  1.00  0.00    -0.181 NA
ATOM     22  C   UNL A   1      29.653  26.333  24.704  1.00  0.00     0.145 A 
ENDBRANCH   9  17
BRANCH  12  23
ATOM     23  C   UNL A   1      33.388  22.039  27.153  1.00  0.00     0.417 C 
ATOM     24  F   UNL A   1      34.736  22.073  27.253  1.00  0.00    -0.166 F 
ATOM     25  F   UNL A   1      32.924  21.961  28.434  1.00  0.00    -0.166 F 
ATOM     26  F   UNL A   1      33.099  20.826  26.596  1.00  0.00    -0.166 F 
ENDBRANCH  12  23
BRANCH  15  27
ATOM     27  C   UNL A   1      35.319  24.221  24.265  1.00  0.00     0.041 C 
ATOM     28  C   UNL A   1      35.499  22.736  24.123  1.00  0.00     0.011 C 
ATOM     29  C   UNL A   1      34.612  23.443  23.162  1.00  0.00     0.011 C 
ENDBRANCH  15  27
ENDBRANCH   7   8
ENDBRANCH   4   7
ENDBRANCH   2   3
ENDBRANCH   1   2
BRANCH   1  30
ATOM     30  C   UNL A   1      32.608  32.874  27.012  1.00  0.00     0.118 C 
BRANCH  30  31
ATOM     31  N   UNL A   1      32.307  34.055  27.820  1.00  0.00    -0.352 N 
ATOM     32  C   UNL A   1      32.974  34.518  28.924  1.00  0.00     0.251 C 
ATOM     33  H   UNL A   1      31.527  34.584  27.535  1.00  0.00     0.163 HD
ATOM     34  O   UNL A   1      32.460  35.358  29.660  1.00  0.00    -0.269 OA
BRANCH  32  35
ATOM     35  C   UNL A   1      34.307  33.979  29.204  1.00  0.00     0.039 A 
ATOM     36  C   UNL A   1      34.523  33.165  30.316  1.00  0.00     0.014 A 
ATOM     37  C   UNL A   1      35.331  34.265  28.300  1.00  0.00     0.014 A 
ATOM     38  C   UNL A   1      35.780  32.603  30.484  1.00  0.00     0.010 A 
ATOM     39  C   UNL A   1      36.506  33.573  28.368  1.00  0.00     0.010 A 
ATOM     40  C   UNL A   1      36.757  32.809  29.499  1.00  0.00    -0.014 A 
BRANCH  40  41
ATOM     41  C   UNL A   1      38.061  32.191  29.609  1.00  0.00     0.031 A 
ATOM     42  C   UNL A   1      38.113  30.796  29.118  1.00  0.00     0.074 A 
ATOM     43  C   UNL A   1      39.159  32.890  29.961  1.00  0.00     0.049 A 
ATOM     44  N   UNL A   1      38.083  29.722  29.833  1.00  0.00    -0.248 NA
ATOM     45  C   UNL A   1      38.016  30.558  27.669  1.00  0.00     0.031 C 
ATOM     46  C   UNL A   1      39.288  34.347  30.124  1.00  0.00     0.029 A 
ATOM     47  N   UNL A   1      40.434  32.456  30.130  1.00  0.00    -0.354 N 
ATOM     48  C   UNL A   1      38.263  28.686  28.926  1.00  0.00     0.074 A 
ATOM     49  C   UNL A   1      37.974  29.223  27.621  1.00  0.00     0.031 C 
ATOM     50  C   UNL A   1      40.595  34.687  30.113  1.00  0.00     0.029 A 
ATOM     51  C   UNL A   1      41.381  33.472  30.160  1.00  0.00     0.049 A 
ATOM     52  H   UNL A   1      40.668  31.503  30.223  1.00  0.00     0.167 HD
ATOM     53  C   UNL A   1      38.963  27.571  29.270  1.00  0.00     0.034 A 
ATOM     54  C   UNL A   1      42.721  33.300  30.207  1.00  0.00     0.034 A 
ATOM     55  C   UNL A   1      39.298  27.564  30.667  1.00  0.00     0.049 A 
ATOM     56  C   UNL A   1      42.946  31.973  30.823  1.00  0.00     0.074 A 
ATOM     57  C   UNL A   1      38.665  27.282  31.855  1.00  0.00     0.029 A 
ATOM     58  N   UNL A   1      40.407  28.319  30.956  1.00  0.00    -0.354 N 
ATOM     59  N   UNL A   1      42.591  31.678  32.043  1.00  0.00    -0.248 NA
ATOM     60  C   UNL A   1      43.297  30.838  29.976  1.00  0.00     0.031 C 
ATOM     61  C   UNL A   1      39.353  28.026  32.860  1.00  0.00     0.029 A 
ATOM     62  C   UNL A   1      40.405  28.717  32.266  1.00  0.00     0.049 A 
ATOM     63  H   UNL A   1      41.111  28.546  30.307  1.00  0.00     0.167 HD
ATOM     64  C   UNL A   1      42.251  30.341  31.971  1.00  0.00     0.074 A 
ATOM     65  C   UNL A   1      42.880  29.840  30.758  1.00  0.00     0.031 C 
ATOM     66  C   UNL A   1      41.219  29.833  32.699  1.00  0.00     0.034 A 
BRANCH  53  67
ATOM     67  C   UNL A   1      39.746  26.738  28.296  1.00  0.00     0.023 A 
ATOM     68  C   UNL A   1      39.552  25.343  28.295  1.00  0.00     0.012 A 
ATOM     69  C   UNL A   1      40.834  27.245  27.550  1.00  0.00     0.148 A 
ATOM     70  C   UNL A   1      40.383  24.496  27.552  1.00  0.00     0.002 A 
ATOM     71  C   UNL A   1      41.600  26.413  26.746  1.00  0.00     0.091 A 
ATOM     72  F   UNL A   1      41.210  28.518  27.724  1.00  0.00    -0.205 F 
ATOM     73  C   UNL A   1      41.391  25.033  26.755  1.00  0.00     0.022 A 
BRANCH  71  74
ATOM     74  S   UNL A   1      42.865  27.069  25.654  1.00  0.00     0.127 S 
ATOM     75  O   UNL A   1      43.835  27.594  26.610  1.00  0.00    -0.237 OA
ATOM     76  O   UNL A   1      43.289  25.867  24.934  1.00  0.00    -0.237 OA
ATOM     77  O   UNL A   1      42.179  28.049  24.823  1.00  0.00    -0.744 OA
ENDBRANCH  71  74
ENDBRANCH  53  67
BRANCH  54  78
ATOM     78  C   UNL A   1      43.819  34.055  29.564  1.00  0.00     0.023 A 
ATOM     79  C   UNL A   1      43.906  34.030  28.156  1.00  0.00     0.012 A 
ATOM     80  C   UNL A   1      44.532  35.055  30.261  1.00  0.00     0.148 A 
ATOM     81  C   UNL A   1      44.586  35.030  27.457  1.00  0.00     0.002 A 
ATOM     82  C   UNL A   1      45.217  36.044  29.558  1.00  0.00     0.091 A 
ATOM     83  F   UNL A   1      44.455  35.096  31.598  1.00  0.00    -0.205 F 
ATOM     84  C   UNL A   1      45.221  36.049  28.156  1.00  0.00     0.022 A 
BRANCH  82  85
ATOM     85  S   UNL A   1      46.060  37.401  30.384  1.00  0.00     0.127 S 
ATOM     86  O   UNL A   1      44.986  37.980  31.193  1.00  0.00    -0.237 OA
ATOM     87  O   UNL A   1      47.089  36.700  31.146  1.00  0.00    -0.237 OA
ATOM     88  O   UNL A   1      46.537  38.271  29.317  1.00  0.00    -0.744 OA
ENDBRANCH  82  85
ENDBRANCH  54  78
BRANCH  66  89
ATOM     89  C   UNL A   1      40.805  30.566  33.936  1.00  0.00     0.023 A 
ATOM     90  C   UNL A   1      41.575  30.589  35.114  1.00  0.00     0.012 A 
ATOM     91  C   UNL A   1      39.650  31.361  33.850  1.00  0.00     0.148 A 
ATOM     92  C   UNL A   1      41.196  31.402  36.189  1.00  0.00     0.002 A 
ATOM     93  C   UNL A   1      39.296  32.190  34.904  1.00  0.00     0.091 A 
ATOM     94  F   UNL A   1      38.937  31.312  32.715  1.00  0.00    -0.205 F 
ATOM     95  C   UNL A   1      40.064  32.212  36.078  1.00  0.00     0.022 A 
BRANCH  93  96
ATOM     96  S   UNL A   1      37.912  33.322  34.786  1.00  0.00     0.127 S 
ATOM     97  O   UNL A   1      36.789  32.413  34.567  1.00  0.00    -0.237 OA
ATOM     98  O   UNL A   1      37.931  33.969  36.099  1.00  0.00    -0.237 OA
ATOM     99  O   UNL A   1      38.210  34.216  33.674  1.00  0.00    -0.744 OA
ENDBRANCH  93  96
ENDBRANCH  66  89
ENDBRANCH  40  41
ENDBRANCH  32  35
ENDBRANCH  30  31
ENDBRANCH   1  30
TORSDOF 17
ENDMDL
