MODEL 1
REMARK VINA RESULT:     -12.2      0.000      0.000
REMARK SMILES COCCNC(=O)c1cccc(NC(=O)[C@@H]2CCCC[C@H]2C(=O)NCCCNC(=O)c2ccc(-c3c4nc(c(-c5cccc(S(=O)(=O)[O-])c5F)c5ccc([nH]5)c(-c5cccc(S(=O)(=O)[O-])c5F)c5nc(c(-c6cccc(S(=O)(=O)[O-])c6F)c6ccc3[nH]6)C=C5)C=C4)cc2)c1
REMARK SMILES IDX 22 1 23 2 24 3 21 5 16 6 17 7 18 8 20 9 19 10 14 11 13 12
REMARK SMILES IDX 15 14 12 15 8 16 9 17 94 18 10 19 11 20 6 21 5 22 7 24 4 25
REMARK SMILES IDX 3 26 2 27 1 28 25 29 26 30 27 31 28 32 29 33 30 35 31 36
REMARK SMILES IDX 32 37 93 38 33 39 92 40 34 41 35 42 36 43 86 44 37 45 91 46
REMARK SMILES IDX 85 47 87 48 38 49 90 50 84 51 83 52 39 54 71 55 51 56 70 57
REMARK SMILES IDX 52 58 55 59 69 60 88 61 53 62 54 63 68 65 89 66 56 67 40 68
REMARK SMILES IDX 41 69 49 70 42 71 44 72 50 73 43 74 45 75 46 76 47 77 48 78
REMARK SMILES IDX 72 79 73 80 81 81 74 82 76 83 82 84 75 85 77 86 78 87 79 88
REMARK SMILES IDX 80 89 57 90 58 91 66 92 59 93 61 94 67 95 60 96 62 97 63 98
REMARK SMILES IDX 64 99 65 100
REMARK H PARENT 24 4 13 13 5 23 28 34 87 53 55 64
REMARK Flexibility Score: inf
ROOT
ATOM      1  C   UNL A   1      33.923  20.386  25.516  1.00  0.00     0.223 C 
ATOM      2  O   UNL A   1      33.179  19.422  25.738  1.00  0.00    -0.275 OA
ATOM      3  N   UNL A   1      35.250  20.094  25.344  1.00  0.00    -0.356 N 
ATOM      4  H   UNL A   1      35.461  19.154  25.549  1.00  0.00     0.163 HD
ENDROOT
BRANCH   1   5
ATOM      5  C   UNL A   1      33.312  21.794  25.404  1.00  0.00     0.091 C 
ATOM      6  C   UNL A   1      32.172  21.997  24.358  1.00  0.00     0.091 C 
ATOM      7  C   UNL A   1      31.078  22.981  24.882  1.00  0.00     0.014 C 
ATOM      8  C   UNL A   1      30.735  22.853  26.354  1.00  0.00     0.001 C 
ATOM      9  C   UNL A   1      33.046  22.147  26.889  1.00  0.00     0.014 C 
ATOM     10  C   UNL A   1      31.968  23.168  27.171  1.00  0.00     0.001 C 
BRANCH   6  11
ATOM     11  C   UNL A   1      32.593  22.560  22.947  1.00  0.00     0.228 C 
ATOM     12  N   UNL A   1      33.239  23.733  22.658  1.00  0.00    -0.326 N 
ATOM     13  H   UNL A   1      33.639  23.713  21.759  1.00  0.00     0.169 HD
ATOM     14  O   UNL A   1      32.385  21.870  21.935  1.00  0.00    -0.274 OA
BRANCH  12  15
ATOM     15  C   UNL A   1      33.481  24.955  23.304  1.00  0.00     0.041 A 
ATOM     16  C   UNL A   1      33.241  27.372  23.429  1.00  0.00     0.041 A 
ATOM     17  C   UNL A   1      33.622  27.373  24.771  1.00  0.00     0.014 A 
ATOM     18  C   UNL A   1      33.156  26.169  22.694  1.00  0.00     0.040 A 
ATOM     19  C   UNL A   1      34.006  26.184  25.348  1.00  0.00     0.003 A 
ATOM     20  C   UNL A   1      33.992  25.025  24.573  1.00  0.00     0.026 A 
BRANCH  16  21
ATOM     21  C   UNL A   1      33.077  28.695  22.802  1.00  0.00     0.251 C 
ATOM     22  N   UNL A   1      31.863  29.102  22.333  1.00  0.00    -0.350 N 
ATOM     23  H   UNL A   1      31.886  29.847  21.690  1.00  0.00     0.163 HD
ATOM     24  O   UNL A   1      34.048  29.443  22.733  1.00  0.00    -0.269 OA
BRANCH  22  25
ATOM     25  C   UNL A   1      30.541  28.590  22.647  1.00  0.00     0.144 C 
BRANCH  25  26
ATOM     26  C   UNL A   1      29.425  29.607  22.375  1.00  0.00     0.181 C 
BRANCH  26  27
ATOM     27  O   UNL A   1      29.229  30.522  23.456  1.00  0.00    -0.383 OA
ATOM     28  C   UNL A   1      27.977  31.198  23.414  1.00  0.00     0.194 C 
ENDBRANCH  26  27
ENDBRANCH  25  26
ENDBRANCH  22  25
ENDBRANCH  16  21
ENDBRANCH  12  15
ENDBRANCH   6  11
ENDBRANCH   1   5
BRANCH   3  29
ATOM     29  C   UNL A   1      36.421  20.858  24.929  1.00  0.00     0.117 C 
BRANCH  29  30
ATOM     30  C   UNL A   1      37.782  20.145  24.811  1.00  0.00     0.042 C 
BRANCH  30  31
ATOM     31  C   UNL A   1      38.839  20.237  25.911  1.00  0.00     0.118 C 
BRANCH  31  32
ATOM     32  N   UNL A   1      39.901  19.258  25.861  1.00  0.00    -0.352 N 
ATOM     33  C   UNL A   1      41.239  19.438  26.132  1.00  0.00     0.251 C 
ATOM     34  H   UNL A   1      39.634  18.347  25.599  1.00  0.00     0.163 HD
ATOM     35  O   UNL A   1      42.005  18.480  26.049  1.00  0.00    -0.269 OA
BRANCH  33  36
ATOM     36  C   UNL A   1      41.772  20.782  26.463  1.00  0.00     0.039 A 
ATOM     37  C   UNL A   1      42.052  21.654  25.406  1.00  0.00     0.014 A 
ATOM     38  C   UNL A   1      42.007  21.190  27.781  1.00  0.00     0.014 A 
ATOM     39  C   UNL A   1      42.510  22.949  25.668  1.00  0.00     0.010 A 
ATOM     40  C   UNL A   1      42.425  22.501  28.041  1.00  0.00     0.010 A 
ATOM     41  C   UNL A   1      42.674  23.398  26.989  1.00  0.00    -0.014 A 
BRANCH  41  42
ATOM     42  C   UNL A   1      43.063  24.812  27.262  1.00  0.00     0.031 A 
ATOM     43  C   UNL A   1      42.095  25.779  27.891  1.00  0.00     0.074 A 
ATOM     44  C   UNL A   1      44.288  25.247  26.897  1.00  0.00     0.049 A 
ATOM     45  N   UNL A   1      42.276  27.038  28.205  1.00  0.00    -0.248 NA
ATOM     46  C   UNL A   1      40.748  25.274  28.195  1.00  0.00     0.031 C 
ATOM     47  C   UNL A   1      45.303  24.438  26.222  1.00  0.00     0.029 A 
ATOM     48  N   UNL A   1      44.880  26.481  27.022  1.00  0.00    -0.354 N 
ATOM     49  C   UNL A   1      41.061  27.485  28.714  1.00  0.00     0.074 A 
ATOM     50  C   UNL A   1      40.145  26.365  28.647  1.00  0.00     0.031 C 
ATOM     51  C   UNL A   1      46.390  25.194  25.994  1.00  0.00     0.029 A 
ATOM     52  C   UNL A   1      46.144  26.547  26.482  1.00  0.00     0.049 A 
ATOM     53  H   UNL A   1      44.440  27.247  27.459  1.00  0.00     0.167 HD
ATOM     54  C   UNL A   1      40.741  28.705  29.210  1.00  0.00     0.034 A 
ATOM     55  C   UNL A   1      47.009  27.578  26.384  1.00  0.00     0.034 A 
ATOM     56  C   UNL A   1      41.659  29.810  29.311  1.00  0.00     0.049 A 
ATOM     57  C   UNL A   1      46.635  28.915  26.967  1.00  0.00     0.074 A 
ATOM     58  C   UNL A   1      41.449  31.052  29.887  1.00  0.00     0.029 A 
ATOM     59  N   UNL A   1      42.953  29.816  28.814  1.00  0.00    -0.354 N 
ATOM     60  N   UNL A   1      45.543  29.263  27.601  1.00  0.00    -0.248 NA
ATOM     61  C   UNL A   1      47.630  29.993  26.854  1.00  0.00     0.031 C 
ATOM     62  C   UNL A   1      42.606  31.819  29.712  1.00  0.00     0.029 A 
ATOM     63  C   UNL A   1      43.547  31.045  29.054  1.00  0.00     0.049 A 
ATOM     64  H   UNL A   1      43.385  29.059  28.357  1.00  0.00     0.167 HD
ATOM     65  C   UNL A   1      45.733  30.583  27.994  1.00  0.00     0.074 A 
ATOM     66  C   UNL A   1      47.055  30.966  27.545  1.00  0.00     0.031 C 
ATOM     67  C   UNL A   1      44.883  31.406  28.656  1.00  0.00     0.034 A 
BRANCH  54  68
ATOM     68  C   UNL A   1      39.341  28.907  29.734  1.00  0.00     0.023 A 
ATOM     69  C   UNL A   1      39.030  28.510  31.050  1.00  0.00     0.012 A 
ATOM     70  C   UNL A   1      38.362  29.559  28.958  1.00  0.00     0.148 A 
ATOM     71  C   UNL A   1      37.756  28.729  31.574  1.00  0.00     0.002 A 
ATOM     72  C   UNL A   1      37.108  29.813  29.504  1.00  0.00     0.091 A 
ATOM     73  F   UNL A   1      38.673  29.916  27.704  1.00  0.00    -0.205 F 
ATOM     74  C   UNL A   1      36.800  29.388  30.807  1.00  0.00     0.022 A 
BRANCH  72  75
ATOM     75  S   UNL A   1      35.836  30.729  28.626  1.00  0.00     0.127 S 
ATOM     76  O   UNL A   1      35.105  29.652  27.957  1.00  0.00    -0.237 OA
ATOM     77  O   UNL A   1      35.107  31.370  29.720  1.00  0.00    -0.237 OA
ATOM     78  O   UNL A   1      36.540  31.649  27.744  1.00  0.00    -0.744 OA
ENDBRANCH  72  75
ENDBRANCH  54  68
BRANCH  55  79
ATOM     79  C   UNL A   1      48.347  27.372  25.759  1.00  0.00     0.023 A 
ATOM     80  C   UNL A   1      49.426  26.948  26.559  1.00  0.00     0.012 A 
ATOM     81  C   UNL A   1      48.553  27.575  24.381  1.00  0.00     0.148 A 
ATOM     82  C   UNL A   1      50.694  26.764  26.006  1.00  0.00     0.002 A 
ATOM     83  C   UNL A   1      49.804  27.334  23.825  1.00  0.00     0.091 A 
ATOM     84  F   UNL A   1      47.517  27.992  23.639  1.00  0.00    -0.205 F 
ATOM     85  C   UNL A   1      50.880  26.946  24.637  1.00  0.00     0.022 A 
BRANCH  83  86
ATOM     86  S   UNL A   1      50.100  27.413  22.055  1.00  0.00     0.127 S 
ATOM     87  O   UNL A   1      49.698  28.783  21.744  1.00  0.00    -0.237 OA
ATOM     88  O   UNL A   1      51.539  27.160  21.977  1.00  0.00    -0.237 OA
ATOM     89  O   UNL A   1      49.276  26.363  21.472  1.00  0.00    -0.744 OA
ENDBRANCH  83  86
ENDBRANCH  55  79
BRANCH  67  90
ATOM     90  C   UNL A   1      45.359  32.801  28.975  1.00  0.00     0.023 A 
ATOM     91  C   UNL A   1      45.993  33.061  30.207  1.00  0.00     0.012 A 
ATOM     92  C   UNL A   1      45.243  33.836  28.026  1.00  0.00     0.148 A 
ATOM     93  C   UNL A   1      46.476  34.336  30.500  1.00  0.00     0.002 A 
ATOM     94  C   UNL A   1      45.771  35.092  28.307  1.00  0.00     0.091 A 
ATOM     95  F   UNL A   1      44.619  33.576  26.869  1.00  0.00    -0.205 F 
ATOM     96  C   UNL A   1      46.376  35.347  29.548  1.00  0.00     0.022 A 
BRANCH  94  97
ATOM     97  S   UNL A   1      45.772  36.427  27.103  1.00  0.00     0.127 S 
ATOM     98  O   UNL A   1      46.706  37.374  27.709  1.00  0.00    -0.237 OA
ATOM     99  O   UNL A   1      46.275  35.760  25.901  1.00  0.00    -0.237 OA
ATOM    100  O   UNL A   1      44.392  36.882  27.008  1.00  0.00    -0.744 OA
ENDBRANCH  94  97
ENDBRANCH  67  90
ENDBRANCH  41  42
ENDBRANCH  33  36
ENDBRANCH  31  32
ENDBRANCH  30  31
ENDBRANCH  29  30
ENDBRANCH   3  29
TORSDOF 19
ENDMDL
MODEL 2
REMARK VINA RESULT:     -11.8      1.556      2.273
REMARK SMILES COCCNC(=O)c1cccc(NC(=O)[C@@H]2CCCC[C@H]2C(=O)NCCCNC(=O)c2ccc(-c3c4nc(c(-c5cccc(S(=O)(=O)[O-])c5F)c5ccc([nH]5)c(-c5cccc(S(=O)(=O)[O-])c5F)c5nc(c(-c6cccc(S(=O)(=O)[O-])c6F)c6ccc3[nH]6)C=C5)C=C4)cc2)c1
REMARK SMILES IDX 22 1 23 2 24 3 21 5 16 6 17 7 18 8 20 9 19 10 14 11 13 12
REMARK SMILES IDX 15 14 12 15 8 16 9 17 94 18 10 19 11 20 6 21 5 22 7 24 4 25
REMARK SMILES IDX 3 26 2 27 1 28 25 29 26 30 27 31 28 32 29 33 30 35 31 36
REMARK SMILES IDX 32 37 93 38 33 39 92 40 34 41 35 42 36 43 86 44 37 45 91 46
REMARK SMILES IDX 85 47 87 48 38 49 90 50 84 51 83 52 39 54 71 55 51 56 70 57
REMARK SMILES IDX 52 58 55 59 69 60 88 61 53 62 54 63 68 65 89 66 56 67 40 68
REMARK SMILES IDX 41 69 49 70 42 71 44 72 50 73 43 74 45 75 46 76 47 77 48 78
REMARK SMILES IDX 72 79 73 80 81 81 74 82 76 83 82 84 75 85 77 86 78 87 79 88
REMARK SMILES IDX 80 89 57 90 58 91 66 92 59 93 61 94 67 95 60 96 62 97 63 98
REMARK SMILES IDX 64 99 65 100
REMARK H PARENT 24 4 13 13 5 23 28 34 87 53 55 64
REMARK Flexibility Score: inf
ROOT
ATOM      1  C   UNL A   1      35.645  22.847  23.684  1.00  0.00     0.223 C 
ATOM      2  O   UNL A   1      36.022  23.672  22.840  1.00  0.00    -0.275 OA
ATOM      3  N   UNL A   1      36.512  21.822  23.952  1.00  0.00    -0.356 N 
ATOM      4  H   UNL A   1      37.281  21.805  23.337  1.00  0.00     0.163 HD
ENDROOT
BRANCH   1   5
ATOM      5  C   UNL A   1      34.290  23.058  24.383  1.00  0.00     0.091 C 
ATOM      6  C   UNL A   1      33.233  21.918  24.252  1.00  0.00     0.091 C 
ATOM      7  C   UNL A   1      32.411  21.740  25.569  1.00  0.00     0.014 C 
ATOM      8  C   UNL A   1      33.200  21.893  26.857  1.00  0.00     0.001 C 
ATOM      9  C   UNL A   1      34.727  23.526  25.794  1.00  0.00     0.014 C 
ATOM     10  C   UNL A   1      33.752  23.299  26.926  1.00  0.00     0.001 C 
BRANCH   6  11
ATOM     11  C   UNL A   1      32.156  22.073  23.111  1.00  0.00     0.228 C 
ATOM     12  N   UNL A   1      31.452  23.191  22.753  1.00  0.00    -0.326 N 
ATOM     13  H   UNL A   1      31.075  23.107  21.847  1.00  0.00     0.169 HD
ATOM     14  O   UNL A   1      31.913  21.102  22.375  1.00  0.00    -0.274 OA
BRANCH  12  15
ATOM     15  C   UNL A   1      31.125  24.426  23.334  1.00  0.00     0.041 A 
ATOM     16  C   UNL A   1      30.648  26.803  23.139  1.00  0.00     0.041 A 
ATOM     17  C   UNL A   1      30.097  26.831  24.420  1.00  0.00     0.014 A 
ATOM     18  C   UNL A   1      31.151  25.605  22.586  1.00  0.00     0.040 A 
ATOM     19  C   UNL A   1      30.133  25.683  25.178  1.00  0.00     0.003 A 
ATOM     20  C   UNL A   1      30.713  24.537  24.637  1.00  0.00     0.026 A 
BRANCH  16  21
ATOM     21  C   UNL A   1      30.801  28.107  22.472  1.00  0.00     0.251 C 
ATOM     22  N   UNL A   1      32.020  28.709  22.379  1.00  0.00    -0.350 N 
ATOM     23  H   UNL A   1      32.003  29.673  22.186  1.00  0.00     0.163 HD
ATOM     24  O   UNL A   1      29.812  28.636  21.972  1.00  0.00    -0.269 OA
BRANCH  22  25
ATOM     25  C   UNL A   1      33.342  28.126  22.525  1.00  0.00     0.144 C 
BRANCH  25  26
ATOM     26  C   UNL A   1      34.023  28.508  23.846  1.00  0.00     0.181 C 
BRANCH  26  27
ATOM     27  O   UNL A   1      33.197  28.268  24.988  1.00  0.00    -0.383 OA
ATOM     28  C   UNL A   1      33.564  27.108  25.726  1.00  0.00     0.194 C 
ENDBRANCH  26  27
ENDBRANCH  25  26
ENDBRANCH  22  25
ENDBRANCH  16  21
ENDBRANCH  12  15
ENDBRANCH   6  11
ENDBRANCH   1   5
BRANCH   3  29
ATOM     29  C   UNL A   1      36.556  20.751  24.940  1.00  0.00     0.117 C 
BRANCH  29  30
ATOM     30  C   UNL A   1      37.790  19.829  24.997  1.00  0.00     0.042 C 
BRANCH  30  31
ATOM     31  C   UNL A   1      39.017  20.175  25.841  1.00  0.00     0.118 C 
BRANCH  31  32
ATOM     32  N   UNL A   1      40.082  19.198  25.850  1.00  0.00    -0.352 N 
ATOM     33  C   UNL A   1      41.412  19.391  26.150  1.00  0.00     0.251 C 
ATOM     34  H   UNL A   1      39.824  18.279  25.610  1.00  0.00     0.163 HD
ATOM     35  O   UNL A   1      42.181  18.433  26.118  1.00  0.00    -0.269 OA
BRANCH  33  36
ATOM     36  C   UNL A   1      41.933  20.747  26.452  1.00  0.00     0.039 A 
ATOM     37  C   UNL A   1      42.227  21.589  25.375  1.00  0.00     0.014 A 
ATOM     38  C   UNL A   1      42.143  21.193  27.761  1.00  0.00     0.014 A 
ATOM     39  C   UNL A   1      42.674  22.894  25.608  1.00  0.00     0.010 A 
ATOM     40  C   UNL A   1      42.551  22.513  27.991  1.00  0.00     0.010 A 
ATOM     41  C   UNL A   1      42.814  23.381  26.918  1.00  0.00    -0.014 A 
BRANCH  41  42
ATOM     42  C   UNL A   1      43.192  24.804  27.158  1.00  0.00     0.031 A 
ATOM     43  C   UNL A   1      42.235  25.765  27.811  1.00  0.00     0.074 A 
ATOM     44  C   UNL A   1      44.395  25.252  26.739  1.00  0.00     0.049 A 
ATOM     45  N   UNL A   1      42.408  27.031  28.101  1.00  0.00    -0.248 NA
ATOM     46  C   UNL A   1      40.908  25.244  28.174  1.00  0.00     0.031 C 
ATOM     47  C   UNL A   1      45.395  24.448  26.035  1.00  0.00     0.029 A 
ATOM     48  N   UNL A   1      44.972  26.496  26.825  1.00  0.00    -0.354 N 
ATOM     49  C   UNL A   1      41.207  27.467  28.651  1.00  0.00     0.074 A 
ATOM     50  C   UNL A   1      40.306  26.333  28.635  1.00  0.00     0.031 C 
ATOM     51  C   UNL A   1      46.460  25.217  25.755  1.00  0.00     0.029 A 
ATOM     52  C   UNL A   1      46.213  26.573  26.235  1.00  0.00     0.049 A 
ATOM     53  H   UNL A   1      44.538  27.262  27.268  1.00  0.00     0.167 HD
ATOM     54  C   UNL A   1      40.888  28.688  29.143  1.00  0.00     0.034 A 
ATOM     55  C   UNL A   1      47.058  27.615  26.090  1.00  0.00     0.034 A 
ATOM     56  C   UNL A   1      41.793  29.808  29.195  1.00  0.00     0.049 A 
ATOM     57  C   UNL A   1      46.687  28.954  26.669  1.00  0.00     0.074 A 
ATOM     58  C   UNL A   1      41.587  31.055  29.762  1.00  0.00     0.029 A 
ATOM     59  N   UNL A   1      43.066  29.827  28.647  1.00  0.00    -0.354 N 
ATOM     60  N   UNL A   1      45.615  29.295  27.341  1.00  0.00    -0.248 NA
ATOM     61  C   UNL A   1      47.660  30.045  26.503  1.00  0.00     0.031 C 
ATOM     62  C   UNL A   1      42.724  31.836  29.532  1.00  0.00     0.029 A 
ATOM     63  C   UNL A   1      43.650  31.067  28.848  1.00  0.00     0.049 A 
ATOM     64  H   UNL A   1      43.491  29.070  28.183  1.00  0.00     0.167 HD
ATOM     65  C   UNL A   1      45.801  30.622  27.709  1.00  0.00     0.074 A 
ATOM     66  C   UNL A   1      47.098  31.019  27.204  1.00  0.00     0.031 C 
ATOM     67  C   UNL A   1      44.964  31.443  28.393  1.00  0.00     0.034 A 
BRANCH  54  68
ATOM     68  C   UNL A   1      39.507  28.877  29.719  1.00  0.00     0.023 A 
ATOM     69  C   UNL A   1      39.252  28.491  31.051  1.00  0.00     0.012 A 
ATOM     70  C   UNL A   1      38.490  29.506  28.975  1.00  0.00     0.148 A 
ATOM     71  C   UNL A   1      37.997  28.698  31.622  1.00  0.00     0.002 A 
ATOM     72  C   UNL A   1      37.254  29.749  29.566  1.00  0.00     0.091 A 
ATOM     73  F   UNL A   1      38.747  29.853  27.706  1.00  0.00    -0.205 F 
ATOM     74  C   UNL A   1      37.003  29.335  30.884  1.00  0.00     0.022 A 
BRANCH  72  75
ATOM     75  S   UNL A   1      35.936  30.637  28.728  1.00  0.00     0.127 S 
ATOM     76  O   UNL A   1      35.155  31.140  29.858  1.00  0.00    -0.237 OA
ATOM     77  O   UNL A   1      36.674  31.665  27.994  1.00  0.00    -0.237 OA
ATOM     78  O   UNL A   1      35.261  29.657  27.889  1.00  0.00    -0.744 OA
ENDBRANCH  72  75
ENDBRANCH  54  68
BRANCH  55  79
ATOM     79  C   UNL A   1      48.374  27.420  25.415  1.00  0.00     0.023 A 
ATOM     80  C   UNL A   1      49.504  27.088  26.188  1.00  0.00     0.012 A 
ATOM     81  C   UNL A   1      48.509  27.543  24.020  1.00  0.00     0.148 A 
ATOM     82  C   UNL A   1      50.751  26.917  25.587  1.00  0.00     0.002 A 
ATOM     83  C   UNL A   1      49.742  27.315  23.420  1.00  0.00     0.091 A 
ATOM     84  F   UNL A   1      47.425  27.874  23.303  1.00  0.00    -0.205 F 
ATOM     85  C   UNL A   1      50.869  27.020  24.203  1.00  0.00     0.022 A 
BRANCH  83  86
ATOM     86  S   UNL A   1      49.955  27.294  21.636  1.00  0.00     0.127 S 
ATOM     87  O   UNL A   1      48.928  26.341  21.223  1.00  0.00    -0.237 OA
ATOM     88  O   UNL A   1      49.681  28.688  21.283  1.00  0.00    -0.237 OA
ATOM     89  O   UNL A   1      51.333  26.880  21.411  1.00  0.00    -0.744 OA
ENDBRANCH  83  86
ENDBRANCH  55  79
BRANCH  67  90
ATOM     90  C   UNL A   1      45.431  32.848  28.675  1.00  0.00     0.023 A 
ATOM     91  C   UNL A   1      45.176  33.873  27.741  1.00  0.00     0.012 A 
ATOM     92  C   UNL A   1      46.056  33.167  29.897  1.00  0.00     0.148 A 
ATOM     93  C   UNL A   1      45.564  35.186  28.007  1.00  0.00     0.002 A 
ATOM     94  C   UNL A   1      46.396  34.487  30.174  1.00  0.00     0.091 A 
ATOM     95  F   UNL A   1      46.308  32.177  30.764  1.00  0.00    -0.205 F 
ATOM     96  C   UNL A   1      46.162  35.495  29.226  1.00  0.00     0.022 A 
BRANCH  94  97
ATOM     97  S   UNL A   1      47.082  34.992  31.757  1.00  0.00     0.127 S 
ATOM     98  O   UNL A   1      48.405  34.370  31.720  1.00  0.00    -0.237 OA
ATOM     99  O   UNL A   1      47.093  36.451  31.639  1.00  0.00    -0.237 OA
ATOM    100  O   UNL A   1      46.175  34.475  32.771  1.00  0.00    -0.744 OA
ENDBRANCH  94  97
ENDBRANCH  67  90
ENDBRANCH  41  42
ENDBRANCH  33  36
ENDBRANCH  31  32
ENDBRANCH  30  31
ENDBRANCH  29  30
ENDBRANCH   3  29
TORSDOF 19
ENDMDL
MODEL 3
REMARK VINA RESULT:     -11.6      1.608      2.388
REMARK SMILES COCCNC(=O)c1cccc(NC(=O)[C@@H]2CCCC[C@H]2C(=O)NCCCNC(=O)c2ccc(-c3c4nc(c(-c5cccc(S(=O)(=O)[O-])c5F)c5ccc([nH]5)c(-c5cccc(S(=O)(=O)[O-])c5F)c5nc(c(-c6cccc(S(=O)(=O)[O-])c6F)c6ccc3[nH]6)C=C5)C=C4)cc2)c1
REMARK SMILES IDX 22 1 23 2 24 3 21 5 16 6 17 7 18 8 20 9 19 10 14 11 13 12
REMARK SMILES IDX 15 14 12 15 8 16 9 17 94 18 10 19 11 20 6 21 5 22 7 24 4 25
REMARK SMILES IDX 3 26 2 27 1 28 25 29 26 30 27 31 28 32 29 33 30 35 31 36
REMARK SMILES IDX 32 37 93 38 33 39 92 40 34 41 35 42 36 43 86 44 37 45 91 46
REMARK SMILES IDX 85 47 87 48 38 49 90 50 84 51 83 52 39 54 71 55 51 56 70 57
REMARK SMILES IDX 52 58 55 59 69 60 88 61 53 62 54 63 68 65 89 66 56 67 40 68
REMARK SMILES IDX 41 69 49 70 42 71 44 72 50 73 43 74 45 75 46 76 47 77 48 78
REMARK SMILES IDX 72 79 73 80 81 81 74 82 76 83 82 84 75 85 77 86 78 87 79 88
REMARK SMILES IDX 80 89 57 90 58 91 66 92 59 93 61 94 67 95 60 96 62 97 63 98
REMARK SMILES IDX 64 99 65 100
REMARK H PARENT 24 4 13 13 5 23 28 34 87 53 55 64
REMARK Flexibility Score: inf
ROOT
ATOM      1  C   UNL A   1      34.985  23.920  24.964  1.00  0.00     0.223 C 
ATOM      2  O   UNL A   1      35.314  25.018  25.433  1.00  0.00    -0.275 OA
ATOM      3  N   UNL A   1      35.975  22.978  24.889  1.00  0.00    -0.356 N 
ATOM      4  H   UNL A   1      36.864  23.343  25.105  1.00  0.00     0.163 HD
ENDROOT
BRANCH   1   5
ATOM      5  C   UNL A   1      33.519  23.689  24.558  1.00  0.00     0.091 C 
ATOM      6  C   UNL A   1      33.258  22.834  23.279  1.00  0.00     0.091 C 
ATOM      7  C   UNL A   1      31.995  21.929  23.440  1.00  0.00     0.014 C 
ATOM      8  C   UNL A   1      31.805  21.310  24.812  1.00  0.00     0.001 C 
ATOM      9  C   UNL A   1      32.879  23.255  25.901  1.00  0.00     0.014 C 
ATOM     10  C   UNL A   1      31.624  22.417  25.826  1.00  0.00     0.001 C 
BRANCH   6  11
ATOM     11  C   UNL A   1      33.034  23.620  21.931  1.00  0.00     0.228 C 
ATOM     12  N   UNL A   1      32.394  24.815  21.740  1.00  0.00    -0.326 N 
ATOM     13  H   UNL A   1      32.642  25.225  20.880  1.00  0.00     0.169 HD
ATOM     14  O   UNL A   1      33.526  23.171  20.882  1.00  0.00    -0.274 OA
BRANCH  12  15
ATOM     15  C   UNL A   1      31.477  25.611  22.444  1.00  0.00     0.041 A 
ATOM     16  C   UNL A   1      30.333  27.729  22.791  1.00  0.00     0.041 A 
ATOM     17  C   UNL A   1      29.371  27.116  23.593  1.00  0.00     0.014 A 
ATOM     18  C   UNL A   1      31.379  26.983  22.204  1.00  0.00     0.040 A 
ATOM     19  C   UNL A   1      29.509  25.777  23.881  1.00  0.00     0.003 A 
ATOM     20  C   UNL A   1      30.599  25.085  23.356  1.00  0.00     0.026 A 
BRANCH  16  21
ATOM     21  C   UNL A   1      30.272  29.199  22.716  1.00  0.00     0.251 C 
ATOM     22  N   UNL A   1      30.577  29.969  23.798  1.00  0.00    -0.350 N 
ATOM     23  H   UNL A   1      30.247  30.896  23.764  1.00  0.00     0.163 HD
ATOM     24  O   UNL A   1      29.967  29.725  21.649  1.00  0.00    -0.269 OA
BRANCH  22  25
ATOM     25  C   UNL A   1      31.322  29.615  24.993  1.00  0.00     0.144 C 
BRANCH  25  26
ATOM     26  C   UNL A   1      32.830  29.485  24.743  1.00  0.00     0.181 C 
BRANCH  26  27
ATOM     27  O   UNL A   1      33.595  29.456  25.951  1.00  0.00    -0.383 OA
ATOM     28  C   UNL A   1      33.866  28.142  26.425  1.00  0.00     0.194 C 
ENDBRANCH  26  27
ENDBRANCH  25  26
ENDBRANCH  22  25
ENDBRANCH  16  21
ENDBRANCH  12  15
ENDBRANCH   6  11
ENDBRANCH   1   5
BRANCH   3  29
ATOM     29  C   UNL A   1      36.014  21.557  24.563  1.00  0.00     0.117 C 
BRANCH  29  30
ATOM     30  C   UNL A   1      37.082  20.662  25.220  1.00  0.00     0.042 C 
BRANCH  30  31
ATOM     31  C   UNL A   1      38.553  21.072  25.283  1.00  0.00     0.118 C 
BRANCH  31  32
ATOM     32  N   UNL A   1      39.437  20.174  25.989  1.00  0.00    -0.352 N 
ATOM     33  C   UNL A   1      40.433  20.490  26.887  1.00  0.00     0.251 C 
ATOM     34  H   UNL A   1      39.312  19.215  25.806  1.00  0.00     0.163 HD
ATOM     35  O   UNL A   1      41.085  19.586  27.406  1.00  0.00    -0.269 OA
BRANCH  33  36
ATOM     36  C   UNL A   1      40.764  21.905  27.185  1.00  0.00     0.039 A 
ATOM     37  C   UNL A   1      41.632  22.162  28.251  1.00  0.00     0.014 A 
ATOM     38  C   UNL A   1      40.234  22.969  26.448  1.00  0.00     0.014 A 
ATOM     39  C   UNL A   1      42.014  23.476  28.542  1.00  0.00     0.010 A 
ATOM     40  C   UNL A   1      40.652  24.279  26.715  1.00  0.00     0.010 A 
ATOM     41  C   UNL A   1      41.552  24.548  27.760  1.00  0.00    -0.014 A 
BRANCH  41  42
ATOM     42  C   UNL A   1      42.043  25.933  28.011  1.00  0.00     0.031 A 
ATOM     43  C   UNL A   1      41.161  26.969  28.655  1.00  0.00     0.074 A 
ATOM     44  C   UNL A   1      43.285  26.281  27.610  1.00  0.00     0.049 A 
ATOM     45  N   UNL A   1      41.435  28.215  28.954  1.00  0.00    -0.248 NA
ATOM     46  C   UNL A   1      39.790  26.559  28.998  1.00  0.00     0.031 C 
ATOM     47  C   UNL A   1      44.225  25.399  26.917  1.00  0.00     0.029 A 
ATOM     48  N   UNL A   1      43.963  27.472  27.710  1.00  0.00    -0.354 N 
ATOM     49  C   UNL A   1      40.267  28.747  29.489  1.00  0.00     0.074 A 
ATOM     50  C   UNL A   1      39.275  27.693  29.455  1.00  0.00     0.031 C 
ATOM     51  C   UNL A   1      45.354  26.077  26.655  1.00  0.00     0.029 A 
ATOM     52  C   UNL A   1      45.214  27.447  27.137  1.00  0.00     0.049 A 
ATOM     53  H   UNL A   1      43.588  28.270  28.151  1.00  0.00     0.167 HD
ATOM     54  C   UNL A   1      40.044  29.989  29.982  1.00  0.00     0.034 A 
ATOM     55  C   UNL A   1      46.144  28.416  27.008  1.00  0.00     0.034 A 
ATOM     56  C   UNL A   1      41.038  31.030  30.051  1.00  0.00     0.049 A 
ATOM     57  C   UNL A   1      45.879  29.779  27.588  1.00  0.00     0.074 A 
ATOM     58  C   UNL A   1      40.928  32.287  30.620  1.00  0.00     0.029 A 
ATOM     59  N   UNL A   1      42.315  30.944  29.521  1.00  0.00    -0.354 N 
ATOM     60  N   UNL A   1      44.830  30.206  28.247  1.00  0.00    -0.248 NA
ATOM     61  C   UNL A   1      46.942  30.785  27.440  1.00  0.00     0.031 C 
ATOM     62  C   UNL A   1      42.130  32.972  30.410  1.00  0.00     0.029 A 
ATOM     63  C   UNL A   1      42.998  32.131  29.735  1.00  0.00     0.049 A 
ATOM     64  H   UNL A   1      42.683  30.156  29.060  1.00  0.00     0.167 HD
ATOM     65  C   UNL A   1      45.120  31.512  28.624  1.00  0.00     0.074 A 
ATOM     66  C   UNL A   1      46.453  31.801  28.137  1.00  0.00     0.031 C 
ATOM     67  C   UNL A   1      44.345  32.397  29.299  1.00  0.00     0.034 A 
BRANCH  54  68
ATOM     68  C   UNL A   1      38.676  30.291  30.540  1.00  0.00     0.023 A 
ATOM     69  C   UNL A   1      38.370  29.920  31.866  1.00  0.00     0.012 A 
ATOM     70  C   UNL A   1      37.725  31.008  29.786  1.00  0.00     0.148 A 
ATOM     71  C   UNL A   1      37.129  30.230  32.420  1.00  0.00     0.002 A 
ATOM     72  C   UNL A   1      36.506  31.351  30.361  1.00  0.00     0.091 A 
ATOM     73  F   UNL A   1      38.029  31.339  28.523  1.00  0.00    -0.205 F 
ATOM     74  C   UNL A   1      36.202  30.953  31.674  1.00  0.00     0.022 A 
BRANCH  72  75
ATOM     75  S   UNL A   1      35.280  32.351  29.512  1.00  0.00     0.127 S 
ATOM     76  O   UNL A   1      36.075  33.510  29.104  1.00  0.00    -0.237 OA
ATOM     77  O   UNL A   1      34.874  31.476  28.413  1.00  0.00    -0.237 OA
ATOM     78  O   UNL A   1      34.235  32.623  30.489  1.00  0.00    -0.744 OA
ENDBRANCH  72  75
ENDBRANCH  54  68
BRANCH  55  79
ATOM     79  C   UNL A   1      47.449  28.114  26.351  1.00  0.00     0.023 A 
ATOM     80  C   UNL A   1      48.601  27.944  27.144  1.00  0.00     0.012 A 
ATOM     81  C   UNL A   1      47.552  27.977  24.953  1.00  0.00     0.148 A 
ATOM     82  C   UNL A   1      49.837  27.679  26.556  1.00  0.00     0.002 A 
ATOM     83  C   UNL A   1      48.776  27.655  24.378  1.00  0.00     0.091 A 
ATOM     84  F   UNL A   1      46.448  28.156  24.214  1.00  0.00    -0.205 F 
ATOM     85  C   UNL A   1      49.924  27.524  25.175  1.00  0.00     0.022 A 
BRANCH  83  86
ATOM     86  S   UNL A   1      48.952  27.305  22.625  1.00  0.00     0.127 S 
ATOM     87  O   UNL A   1      48.312  25.997  22.514  1.00  0.00    -0.237 OA
ATOM     88  O   UNL A   1      48.206  28.410  22.020  1.00  0.00    -0.237 OA
ATOM     89  O   UNL A   1      50.383  27.336  22.360  1.00  0.00    -0.744 OA
ENDBRANCH  83  86
ENDBRANCH  55  79
BRANCH  67  90
ATOM     90  C   UNL A   1      44.923  33.757  29.594  1.00  0.00     0.023 A 
ATOM     91  C   UNL A   1      45.681  33.959  30.766  1.00  0.00     0.012 A 
ATOM     92  C   UNL A   1      44.777  34.816  28.676  1.00  0.00     0.148 A 
ATOM     93  C   UNL A   1      46.258  35.201  31.032  1.00  0.00     0.002 A 
ATOM     94  C   UNL A   1      45.396  36.037  28.925  1.00  0.00     0.091 A 
ATOM     95  F   UNL A   1      44.037  34.612  27.577  1.00  0.00    -0.205 F 
ATOM     96  C   UNL A   1      46.126  36.234  30.109  1.00  0.00     0.022 A 
BRANCH  94  97
ATOM     97  S   UNL A   1      45.359  37.393  27.747  1.00  0.00     0.127 S 
ATOM     98  O   UNL A   1      43.930  37.692  27.680  1.00  0.00    -0.237 OA
ATOM     99  O   UNL A   1      46.163  38.414  28.423  1.00  0.00    -0.237 OA
ATOM    100  O   UNL A   1      45.949  36.875  26.520  1.00  0.00    -0.744 OA
ENDBRANCH  94  97
ENDBRANCH  67  90
ENDBRANCH  41  42
ENDBRANCH  33  36
ENDBRANCH  31  32
ENDBRANCH  30  31
ENDBRANCH  29  30
ENDBRANCH   3  29
TORSDOF 19
ENDMDL
