MODEL 1
REMARK VINA RESULT:     -12.8      0.000      0.000
REMARK SMILES Cc1cscc1C(=O)N1C[C@@H](C(=O)NCCCNC(=O)c2ccc(-c3c4nc(c(-c5cccc(S(=O)(=O)[O-])c5F)c5ccc([nH]5)c(-c5cccc(S(=O)(=O)[O-])c5F)c5nc(c(-c6cccc(S(=O)(=O)[O-])c6F)c6ccc3[nH]6)C=C5)C=C4)cc2)Oc2ccccc21
REMARK SMILES IDX 16 1 15 2 14 3 12 4 13 5 11 7 9 8 10 9 90 10 85 11 89 12
REMARK SMILES IDX 84 13 86 14 88 15 87 16 7 17 8 18 6 19 1 20 2 21 3 22 4 23
REMARK SMILES IDX 5 24 17 25 18 26 19 27 20 29 21 30 22 31 83 32 23 33 82 34
REMARK SMILES IDX 24 35 25 36 26 37 76 38 27 39 81 40 75 41 77 42 28 43 80 44
REMARK SMILES IDX 74 45 73 46 29 48 61 49 41 50 60 51 42 52 45 53 59 54 78 55
REMARK SMILES IDX 43 56 44 57 58 59 79 60 46 61 30 62 31 63 39 64 32 65 34 66
REMARK SMILES IDX 40 67 33 68 35 69 36 70 37 71 38 72 62 73 63 74 71 75 64 76
REMARK SMILES IDX 66 77 72 78 65 79 67 80 68 81 69 82 70 83 47 84 48 85 56 86
REMARK SMILES IDX 49 87 51 88 57 89 50 90 52 91 53 92 54 93 55 94
REMARK H PARENT 14 6 18 28 77 47 45 58
REMARK Flexibility Score: inf
ROOT
ATOM      1  C   UNL A   1      31.793  29.138  26.768  1.00  0.00     0.042 C 
ENDROOT
BRANCH   1   2
ATOM      2  C   UNL A   1      32.233  27.716  27.071  1.00  0.00     0.118 C 
BRANCH   2   3
ATOM      3  N   UNL A   1      31.274  26.703  26.676  1.00  0.00    -0.353 N 
ATOM      4  C   UNL A   1      31.453  25.371  26.462  1.00  0.00     0.262 C 
ATOM      5  O   UNL A   1      30.431  24.695  26.283  1.00  0.00    -0.271 OA
ATOM      6  H   UNL A   1      30.354  27.027  26.543  1.00  0.00     0.163 HD
BRANCH   4   7
ATOM      7  C   UNL A   1      32.846  24.701  26.368  1.00  0.00     0.281 C 
ATOM      8  N   UNL A   1      33.221  24.876  23.929  1.00  0.00    -0.301 N 
ATOM      9  C   UNL A   1      33.650  25.370  25.244  1.00  0.00     0.181 C 
ATOM     10  C   UNL A   1      32.871  23.492  23.887  1.00  0.00     0.086 A 
ATOM     11  C   UNL A   1      32.869  22.745  25.073  1.00  0.00     0.144 A 
ATOM     12  C   UNL A   1      32.591  22.826  22.686  1.00  0.00     0.030 A 
ATOM     13  O   UNL A   1      33.023  23.293  26.322  1.00  0.00    -0.477 OA
ATOM     14  C   UNL A   1      32.644  21.365  25.054  1.00  0.00     0.049 A 
ATOM     15  C   UNL A   1      32.324  21.454  22.672  1.00  0.00     0.002 A 
ATOM     16  C   UNL A   1      32.361  20.721  23.853  1.00  0.00     0.004 A 
BRANCH   8  17
ATOM     17  C   UNL A   1      33.028  25.724  22.843  1.00  0.00     0.259 C 
ATOM     18  O   UNL A   1      33.642  25.587  21.779  1.00  0.00    -0.269 OA
BRANCH  17  19
ATOM     19  C   UNL A   1      32.083  26.845  22.987  1.00  0.00     0.053 A 
ATOM     20  C   UNL A   1      33.654  28.965  22.857  1.00  0.00     0.046 C 
ATOM     21  C   UNL A   1      32.332  28.278  22.972  1.00  0.00    -0.028 A 
ATOM     22  C   UNL A   1      31.145  28.990  23.026  1.00  0.00     0.069 A 
ATOM     23  S   UNL A   1      29.763  27.997  23.061  1.00  0.00    -0.151 S 
ATOM     24  C   UNL A   1      30.720  26.590  23.006  1.00  0.00     0.079 A 
ENDBRANCH  17  19
ENDBRANCH   8  17
ENDBRANCH   4   7
ENDBRANCH   2   3
ENDBRANCH   1   2
BRANCH   1  25
ATOM     25  C   UNL A   1      32.879  30.061  26.234  1.00  0.00     0.118 C 
BRANCH  25  26
ATOM     26  N   UNL A   1      32.792  31.427  26.730  1.00  0.00    -0.352 N 
ATOM     27  C   UNL A   1      33.645  32.123  27.559  1.00  0.00     0.251 C 
ATOM     28  H   UNL A   1      32.004  31.933  26.426  1.00  0.00     0.163 HD
ATOM     29  O   UNL A   1      33.338  33.251  27.942  1.00  0.00    -0.269 OA
BRANCH  27  30
ATOM     30  C   UNL A   1      34.909  31.509  28.028  1.00  0.00     0.039 A 
ATOM     31  C   UNL A   1      36.058  32.302  28.109  1.00  0.00     0.014 A 
ATOM     32  C   UNL A   1      34.968  30.166  28.404  1.00  0.00     0.014 A 
ATOM     33  C   UNL A   1      37.233  31.776  28.659  1.00  0.00     0.010 A 
ATOM     34  C   UNL A   1      36.105  29.673  29.039  1.00  0.00     0.010 A 
ATOM     35  C   UNL A   1      37.251  30.470  29.176  1.00  0.00    -0.014 A 
BRANCH  35  36
ATOM     36  C   UNL A   1      38.442  29.915  29.871  1.00  0.00     0.031 A 
ATOM     37  C   UNL A   1      38.805  30.399  31.250  1.00  0.00     0.074 A 
ATOM     38  C   UNL A   1      39.266  29.067  29.221  1.00  0.00     0.049 A 
ATOM     39  N   UNL A   1      39.873  30.141  31.961  1.00  0.00    -0.248 NA
ATOM     40  C   UNL A   1      37.864  31.327  31.900  1.00  0.00     0.031 C 
ATOM     41  C   UNL A   1      39.080  28.588  27.849  1.00  0.00     0.029 A 
ATOM     42  N   UNL A   1      40.443  28.482  29.616  1.00  0.00    -0.354 N 
ATOM     43  C   UNL A   1      39.762  30.919  33.108  1.00  0.00     0.074 A 
ATOM     44  C   UNL A   1      38.534  31.675  32.990  1.00  0.00     0.031 C 
ATOM     45  C   UNL A   1      40.099  27.777  27.522  1.00  0.00     0.029 A 
ATOM     46  C   UNL A   1      41.025  27.697  28.647  1.00  0.00     0.049 A 
ATOM     47  H   UNL A   1      40.835  28.611  30.510  1.00  0.00     0.167 HD
ATOM     48  C   UNL A   1      40.587  30.976  34.179  1.00  0.00     0.034 A 
ATOM     49  C   UNL A   1      42.174  26.991  28.663  1.00  0.00     0.034 A 
ATOM     50  C   UNL A   1      41.753  30.153  34.342  1.00  0.00     0.049 A 
ATOM     51  C   UNL A   1      43.013  26.985  29.910  1.00  0.00     0.074 A 
ATOM     52  C   UNL A   1      42.596  30.062  35.437  1.00  0.00     0.029 A 
ATOM     53  N   UNL A   1      42.231  29.264  33.394  1.00  0.00    -0.354 N 
ATOM     54  N   UNL A   1      42.810  27.614  31.042  1.00  0.00    -0.248 NA
ATOM     55  C   UNL A   1      44.220  26.144  29.898  1.00  0.00     0.031 C 
ATOM     56  C   UNL A   1      43.576  29.104  35.153  1.00  0.00     0.029 A 
ATOM     57  C   UNL A   1      43.347  28.608  33.880  1.00  0.00     0.049 A 
ATOM     58  H   UNL A   1      41.834  29.121  32.503  1.00  0.00     0.167 HD
ATOM     59  C   UNL A   1      43.843  27.223  31.885  1.00  0.00     0.074 A 
ATOM     60  C   UNL A   1      44.660  26.287  31.142  1.00  0.00     0.031 C 
ATOM     61  C   UNL A   1      44.105  27.622  33.154  1.00  0.00     0.034 A 
BRANCH  48  62
ATOM     62  C   UNL A   1      40.204  31.899  35.303  1.00  0.00     0.023 A 
ATOM     63  C   UNL A   1      40.852  33.146  35.418  1.00  0.00     0.012 A 
ATOM     64  C   UNL A   1      39.183  31.564  36.212  1.00  0.00     0.148 A 
ATOM     65  C   UNL A   1      40.511  34.033  36.437  1.00  0.00     0.002 A 
ATOM     66  C   UNL A   1      38.822  32.470  37.204  1.00  0.00     0.091 A 
ATOM     67  F   UNL A   1      38.596  30.363  36.105  1.00  0.00    -0.205 F 
ATOM     68  C   UNL A   1      39.491  33.699  37.323  1.00  0.00     0.022 A 
BRANCH  66  69
ATOM     69  S   UNL A   1      37.472  32.150  38.347  1.00  0.00     0.127 S 
ATOM     70  O   UNL A   1      38.021  32.654  39.604  1.00  0.00    -0.237 OA
ATOM     71  O   UNL A   1      36.389  32.960  37.788  1.00  0.00    -0.237 OA
ATOM     72  O   UNL A   1      37.239  30.715  38.286  1.00  0.00    -0.744 OA
ENDBRANCH  66  69
ENDBRANCH  48  62
BRANCH  49  73
ATOM     73  C   UNL A   1      42.539  26.147  27.490  1.00  0.00     0.023 A 
ATOM     74  C   UNL A   1      43.366  26.694  26.490  1.00  0.00     0.012 A 
ATOM     75  C   UNL A   1      42.119  24.808  27.376  1.00  0.00     0.148 A 
ATOM     76  C   UNL A   1      43.747  25.933  25.385  1.00  0.00     0.002 A 
ATOM     77  C   UNL A   1      42.543  24.040  26.296  1.00  0.00     0.091 A 
ATOM     78  F   UNL A   1      41.317  24.306  28.326  1.00  0.00    -0.205 F 
ATOM     79  C   UNL A   1      43.346  24.603  25.293  1.00  0.00     0.022 A 
BRANCH  77  80
ATOM     80  S   UNL A   1      42.172  22.285  26.188  1.00  0.00     0.127 S 
ATOM     81  O   UNL A   1      42.915  21.891  24.994  1.00  0.00    -0.237 OA
ATOM     82  O   UNL A   1      42.715  21.770  27.447  1.00  0.00    -0.237 OA
ATOM     83  O   UNL A   1      40.720  22.212  26.098  1.00  0.00    -0.744 OA
ENDBRANCH  77  80
ENDBRANCH  49  73
BRANCH  61  84
ATOM     84  C   UNL A   1      45.307  27.033  33.840  1.00  0.00     0.023 A 
ATOM     85  C   UNL A   1      46.534  27.724  33.792  1.00  0.00     0.012 A 
ATOM     86  C   UNL A   1      45.202  25.856  34.602  1.00  0.00     0.148 A 
ATOM     87  C   UNL A   1      47.644  27.240  34.482  1.00  0.00     0.002 A 
ATOM     88  C   UNL A   1      46.304  25.398  35.315  1.00  0.00     0.091 A 
ATOM     89  F   UNL A   1      44.033  25.198  34.614  1.00  0.00    -0.205 F 
ATOM     90  C   UNL A   1      47.527  26.086  35.252  1.00  0.00     0.022 A 
BRANCH  88  91
ATOM     91  S   UNL A   1      46.203  23.965  36.395  1.00  0.00     0.127 S 
ATOM     92  O   UNL A   1      44.948  24.210  37.103  1.00  0.00    -0.237 OA
ATOM     93  O   UNL A   1      46.159  22.851  35.446  1.00  0.00    -0.237 OA
ATOM     94  O   UNL A   1      47.410  24.007  37.210  1.00  0.00    -0.744 OA
ENDBRANCH  88  91
ENDBRANCH  61  84
ENDBRANCH  35  36
ENDBRANCH  27  30
ENDBRANCH  25  26
ENDBRANCH   1  25
TORSDOF 15
ENDMDL
MODEL 2
REMARK VINA RESULT:     -12.6      5.059     10.122
REMARK SMILES Cc1cscc1C(=O)N1C[C@@H](C(=O)NCCCNC(=O)c2ccc(-c3c4nc(c(-c5cccc(S(=O)(=O)[O-])c5F)c5ccc([nH]5)c(-c5cccc(S(=O)(=O)[O-])c5F)c5nc(c(-c6cccc(S(=O)(=O)[O-])c6F)c6ccc3[nH]6)C=C5)C=C4)cc2)Oc2ccccc21
REMARK SMILES IDX 16 1 15 2 14 3 12 4 13 5 11 7 9 8 10 9 90 10 85 11 89 12
REMARK SMILES IDX 84 13 86 14 88 15 87 16 7 17 8 18 6 19 1 20 2 21 3 22 4 23
REMARK SMILES IDX 5 24 17 25 18 26 19 27 20 29 21 30 22 31 83 32 23 33 82 34
REMARK SMILES IDX 24 35 25 36 26 37 76 38 27 39 81 40 75 41 77 42 28 43 80 44
REMARK SMILES IDX 74 45 73 46 29 48 61 49 41 50 60 51 42 52 45 53 59 54 78 55
REMARK SMILES IDX 43 56 44 57 58 59 79 60 46 61 30 62 31 63 39 64 32 65 34 66
REMARK SMILES IDX 40 67 33 68 35 69 36 70 37 71 38 72 62 73 63 74 71 75 64 76
REMARK SMILES IDX 66 77 72 78 65 79 67 80 68 81 69 82 70 83 47 84 48 85 56 86
REMARK SMILES IDX 49 87 51 88 57 89 50 90 52 91 53 92 54 93 55 94
REMARK H PARENT 14 6 18 28 77 47 45 58
REMARK Flexibility Score: inf
ROOT
ATOM      1  C   UNL A   1      36.794  22.287  24.310  1.00  0.00     0.042 C 
ENDROOT
BRANCH   1   2
ATOM      2  C   UNL A   1      36.105  23.636  24.182  1.00  0.00     0.118 C 
BRANCH   2   3
ATOM      3  N   UNL A   1      34.976  23.639  23.271  1.00  0.00    -0.353 N 
ATOM      4  C   UNL A   1      34.063  24.615  23.021  1.00  0.00     0.262 C 
ATOM      5  O   UNL A   1      33.286  24.421  22.076  1.00  0.00    -0.271 OA
ATOM      6  H   UNL A   1      34.853  22.810  22.755  1.00  0.00     0.163 HD
BRANCH   4   7
ATOM      7  C   UNL A   1      33.916  25.890  23.889  1.00  0.00     0.281 C 
ATOM      8  N   UNL A   1      32.169  25.117  25.460  1.00  0.00    -0.301 N 
ATOM      9  C   UNL A   1      33.586  25.480  25.331  1.00  0.00     0.181 C 
ATOM     10  C   UNL A   1      31.269  25.898  24.672  1.00  0.00     0.086 A 
ATOM     11  C   UNL A   1      31.782  26.860  23.792  1.00  0.00     0.144 A 
ATOM     12  C   UNL A   1      29.877  25.787  24.794  1.00  0.00     0.030 A 
ATOM     13  O   UNL A   1      33.117  26.998  23.503  1.00  0.00    -0.477 OA
ATOM     14  C   UNL A   1      30.931  27.720  23.090  1.00  0.00     0.049 A 
ATOM     15  C   UNL A   1      29.025  26.619  24.060  1.00  0.00     0.002 A 
ATOM     16  C   UNL A   1      29.551  27.592  23.217  1.00  0.00     0.004 A 
BRANCH   8  17
ATOM     17  C   UNL A   1      31.750  24.002  26.179  1.00  0.00     0.259 C 
ATOM     18  O   UNL A   1      30.956  24.083  27.123  1.00  0.00    -0.269 OA
BRANCH  17  19
ATOM     19  C   UNL A   1      32.304  22.686  25.821  1.00  0.00     0.053 A 
ATOM     20  C   UNL A   1      34.008  22.204  27.781  1.00  0.00     0.046 C 
ATOM     21  C   UNL A   1      33.280  21.865  26.521  1.00  0.00    -0.028 A 
ATOM     22  C   UNL A   1      33.441  20.639  25.896  1.00  0.00     0.069 A 
ATOM     23  S   UNL A   1      32.442  20.441  24.532  1.00  0.00    -0.151 S 
ATOM     24  C   UNL A   1      31.773  21.991  24.744  1.00  0.00     0.079 A 
ENDBRANCH  17  19
ENDBRANCH   8  17
ENDBRANCH   4   7
ENDBRANCH   2   3
ENDBRANCH   1   2
BRANCH   1  25
ATOM     25  C   UNL A   1      37.079  21.830  25.733  1.00  0.00     0.118 C 
BRANCH  25  26
ATOM     26  N   UNL A   1      38.236  20.953  25.854  1.00  0.00    -0.352 N 
ATOM     27  C   UNL A   1      39.519  21.233  26.271  1.00  0.00     0.251 C 
ATOM     28  H   UNL A   1      38.077  20.015  25.598  1.00  0.00     0.163 HD
ATOM     29  O   UNL A   1      40.384  20.362  26.206  1.00  0.00    -0.269 OA
BRANCH  27  30
ATOM     30  C   UNL A   1      39.875  22.587  26.756  1.00  0.00     0.039 A 
ATOM     31  C   UNL A   1      40.822  22.711  27.778  1.00  0.00     0.014 A 
ATOM     32  C   UNL A   1      39.300  23.732  26.203  1.00  0.00     0.014 A 
ATOM     33  C   UNL A   1      41.261  23.981  28.172  1.00  0.00     0.010 A 
ATOM     34  C   UNL A   1      39.807  24.987  26.526  1.00  0.00     0.010 A 
ATOM     35  C   UNL A   1      40.794  25.129  27.511  1.00  0.00    -0.014 A 
BRANCH  35  36
ATOM     36  C   UNL A   1      41.321  26.485  27.821  1.00  0.00     0.031 A 
ATOM     37  C   UNL A   1      42.733  26.849  27.445  1.00  0.00     0.074 A 
ATOM     38  C   UNL A   1      40.577  27.346  28.545  1.00  0.00     0.049 A 
ATOM     39  N   UNL A   1      43.417  27.922  27.748  1.00  0.00    -0.248 NA
ATOM     40  C   UNL A   1      43.491  25.860  26.660  1.00  0.00     0.031 C 
ATOM     41  C   UNL A   1      39.227  27.085  29.051  1.00  0.00     0.029 A 
ATOM     42  N   UNL A   1      40.863  28.607  29.008  1.00  0.00    -0.354 N 
ATOM     43  C   UNL A   1      44.696  27.712  27.247  1.00  0.00     0.074 A 
ATOM     44  C   UNL A   1      44.701  26.400  26.639  1.00  0.00     0.031 C 
ATOM     45  C   UNL A   1      38.801  28.154  29.744  1.00  0.00     0.029 A 
ATOM     46  C   UNL A   1      39.852  29.165  29.756  1.00  0.00     0.049 A 
ATOM     47  H   UNL A   1      41.712  29.069  28.823  1.00  0.00     0.167 HD
ATOM     48  C   UNL A   1      45.762  28.546  27.259  1.00  0.00     0.034 A 
ATOM     49  C   UNL A   1      39.779  30.358  30.381  1.00  0.00     0.034 A 
ATOM     50  C   UNL A   1      45.730  29.886  27.774  1.00  0.00     0.049 A 
ATOM     51  C   UNL A   1      40.938  31.309  30.281  1.00  0.00     0.074 A 
ATOM     52  C   UNL A   1      46.727  30.846  27.738  1.00  0.00     0.029 A 
ATOM     53  N   UNL A   1      44.638  30.466  28.399  1.00  0.00    -0.354 N 
ATOM     54  N   UNL A   1      42.088  31.146  29.673  1.00  0.00    -0.248 NA
ATOM     55  C   UNL A   1      40.780  32.624  30.923  1.00  0.00     0.031 C 
ATOM     56  C   UNL A   1      46.230  32.012  28.331  1.00  0.00     0.029 A 
ATOM     57  C   UNL A   1      44.929  31.774  28.742  1.00  0.00     0.049 A 
ATOM     58  H   UNL A   1      43.781  30.012  28.574  1.00  0.00     0.167 HD
ATOM     59  C   UNL A   1      42.775  32.344  29.830  1.00  0.00     0.074 A 
ATOM     60  C   UNL A   1      41.907  33.232  30.575  1.00  0.00     0.031 C 
ATOM     61  C   UNL A   1      44.024  32.670  29.416  1.00  0.00     0.034 A 
BRANCH  48  62
ATOM     62  C   UNL A   1      47.031  28.061  26.614  1.00  0.00     0.023 A 
ATOM     63  C   UNL A   1      48.067  27.559  27.429  1.00  0.00     0.012 A 
ATOM     64  C   UNL A   1      47.187  28.055  25.215  1.00  0.00     0.148 A 
ATOM     65  C   UNL A   1      49.249  27.086  26.863  1.00  0.00     0.002 A 
ATOM     66  C   UNL A   1      48.356  27.548  24.657  1.00  0.00     0.091 A 
ATOM     67  F   UNL A   1      46.204  28.562  24.457  1.00  0.00    -0.205 F 
ATOM     68  C   UNL A   1      49.390  27.072  25.479  1.00  0.00     0.022 A 
BRANCH  66  69
ATOM     69  S   UNL A   1      48.593  27.430  22.879  1.00  0.00     0.127 S 
ATOM     70  O   UNL A   1      49.938  27.980  22.722  1.00  0.00    -0.237 OA
ATOM     71  O   UNL A   1      48.495  25.988  22.644  1.00  0.00    -0.237 OA
ATOM     72  O   UNL A   1      47.516  28.208  22.287  1.00  0.00    -0.744 OA
ENDBRANCH  66  69
ENDBRANCH  48  62
BRANCH  49  73
ATOM     73  C   UNL A   1      38.517  30.758  31.067  1.00  0.00     0.023 A 
ATOM     74  C   UNL A   1      38.377  30.491  32.443  1.00  0.00     0.012 A 
ATOM     75  C   UNL A   1      37.482  31.431  30.391  1.00  0.00     0.148 A 
ATOM     76  C   UNL A   1      37.221  30.865  33.127  1.00  0.00     0.002 A 
ATOM     77  C   UNL A   1      36.353  31.844  31.090  1.00  0.00     0.091 A 
ATOM     78  F   UNL A   1      37.621  31.661  29.077  1.00  0.00    -0.205 F 
ATOM     79  C   UNL A   1      36.214  31.552  32.455  1.00  0.00     0.022 A 
BRANCH  77  80
ATOM     80  S   UNL A   1      35.081  32.848  30.313  1.00  0.00     0.127 S 
ATOM     81  O   UNL A   1      35.850  33.993  29.834  1.00  0.00    -0.237 OA
ATOM     82  O   UNL A   1      34.579  31.961  29.260  1.00  0.00    -0.237 OA
ATOM     83  O   UNL A   1      34.115  33.115  31.369  1.00  0.00    -0.744 OA
ENDBRANCH  77  80
ENDBRANCH  49  73
BRANCH  61  84
ATOM     84  C   UNL A   1      44.527  34.052  29.728  1.00  0.00     0.023 A 
ATOM     85  C   UNL A   1      45.195  34.282  30.946  1.00  0.00     0.012 A 
ATOM     86  C   UNL A   1      44.422  35.091  28.785  1.00  0.00     0.148 A 
ATOM     87  C   UNL A   1      45.738  35.535  31.228  1.00  0.00     0.002 A 
ATOM     88  C   UNL A   1      44.996  36.327  29.059  1.00  0.00     0.091 A 
ATOM     89  F   UNL A   1      43.760  34.860  27.643  1.00  0.00    -0.205 F 
ATOM     90  C   UNL A   1      45.650  36.553  30.281  1.00  0.00     0.022 A 
BRANCH  88  91
ATOM     91  S   UNL A   1      44.994  37.658  27.852  1.00  0.00     0.127 S 
ATOM     92  O   UNL A   1      43.564  37.894  27.666  1.00  0.00    -0.237 OA
ATOM     93  O   UNL A   1      45.701  38.730  28.555  1.00  0.00    -0.237 OA
ATOM     94  O   UNL A   1      45.707  37.134  26.694  1.00  0.00    -0.744 OA
ENDBRANCH  88  91
ENDBRANCH  61  84
ENDBRANCH  35  36
ENDBRANCH  27  30
ENDBRANCH  25  26
ENDBRANCH   1  25
TORSDOF 15
ENDMDL
MODEL 3
REMARK VINA RESULT:     -12.6      2.050      3.282
REMARK SMILES Cc1cscc1C(=O)N1C[C@@H](C(=O)NCCCNC(=O)c2ccc(-c3c4nc(c(-c5cccc(S(=O)(=O)[O-])c5F)c5ccc([nH]5)c(-c5cccc(S(=O)(=O)[O-])c5F)c5nc(c(-c6cccc(S(=O)(=O)[O-])c6F)c6ccc3[nH]6)C=C5)C=C4)cc2)Oc2ccccc21
REMARK SMILES IDX 16 1 15 2 14 3 12 4 13 5 11 7 9 8 10 9 90 10 85 11 89 12
REMARK SMILES IDX 84 13 86 14 88 15 87 16 7 17 8 18 6 19 1 20 2 21 3 22 4 23
REMARK SMILES IDX 5 24 17 25 18 26 19 27 20 29 21 30 22 31 83 32 23 33 82 34
REMARK SMILES IDX 24 35 25 36 26 37 76 38 27 39 81 40 75 41 77 42 28 43 80 44
REMARK SMILES IDX 74 45 73 46 29 48 61 49 41 50 60 51 42 52 45 53 59 54 78 55
REMARK SMILES IDX 43 56 44 57 58 59 79 60 46 61 30 62 31 63 39 64 32 65 34 66
REMARK SMILES IDX 40 67 33 68 35 69 36 70 37 71 38 72 62 73 63 74 71 75 64 76
REMARK SMILES IDX 66 77 72 78 65 79 67 80 68 81 69 82 70 83 47 84 48 85 56 86
REMARK SMILES IDX 49 87 51 88 57 89 50 90 52 91 53 92 54 93 55 94
REMARK H PARENT 14 6 18 28 77 47 45 58
REMARK Flexibility Score: inf
ROOT
ATOM      1  C   UNL A   1      32.903  28.149  27.259  1.00  0.00     0.042 C 
ENDROOT
BRANCH   1   2
ATOM      2  C   UNL A   1      31.556  27.679  26.735  1.00  0.00     0.118 C 
BRANCH   2   3
ATOM      3  N   UNL A   1      31.346  26.249  26.843  1.00  0.00    -0.353 N 
ATOM      4  C   UNL A   1      30.893  25.363  25.916  1.00  0.00     0.262 C 
ATOM      5  O   UNL A   1      30.955  24.163  26.216  1.00  0.00    -0.271 OA
ATOM      6  H   UNL A   1      31.564  25.859  27.721  1.00  0.00     0.163 HD
BRANCH   4   7
ATOM      7  C   UNL A   1      30.260  25.787  24.567  1.00  0.00     0.281 C 
ATOM      8  N   UNL A   1      32.027  25.007  23.022  1.00  0.00    -0.301 N 
ATOM      9  C   UNL A   1      30.654  24.770  23.486  1.00  0.00     0.181 C 
ATOM     10  C   UNL A   1      32.411  26.381  22.944  1.00  0.00     0.086 A 
ATOM     11  C   UNL A   1      31.523  27.370  23.385  1.00  0.00     0.144 A 
ATOM     12  C   UNL A   1      33.626  26.787  22.376  1.00  0.00     0.030 A 
ATOM     13  O   UNL A   1      30.353  27.106  24.052  1.00  0.00    -0.477 OA
ATOM     14  C   UNL A   1      31.817  28.728  23.219  1.00  0.00     0.049 A 
ATOM     15  C   UNL A   1      33.939  28.144  22.248  1.00  0.00     0.002 A 
ATOM     16  C   UNL A   1      33.031  29.114  22.659  1.00  0.00     0.004 A 
BRANCH   8  17
ATOM     17  C   UNL A   1      32.932  23.970  22.816  1.00  0.00     0.259 C 
ATOM     18  O   UNL A   1      33.354  23.673  21.693  1.00  0.00    -0.269 OA
BRANCH  17  19
ATOM     19  C   UNL A   1      33.369  23.179  23.979  1.00  0.00     0.053 A 
ATOM     20  C   UNL A   1      34.702  24.941  25.429  1.00  0.00     0.046 C 
ATOM     21  C   UNL A   1      34.127  23.590  25.151  1.00  0.00    -0.028 A 
ATOM     22  C   UNL A   1      34.228  22.555  26.066  1.00  0.00     0.069 A 
ATOM     23  S   UNL A   1      33.420  21.139  25.576  1.00  0.00    -0.151 S 
ATOM     24  C   UNL A   1      32.919  21.876  24.126  1.00  0.00     0.079 A 
ENDBRANCH  17  19
ENDBRANCH   8  17
ENDBRANCH   4   7
ENDBRANCH   2   3
ENDBRANCH   1   2
BRANCH   1  25
ATOM     25  C   UNL A   1      33.646  29.132  26.367  1.00  0.00     0.118 C 
BRANCH  25  26
ATOM     26  N   UNL A   1      33.707  30.487  26.898  1.00  0.00    -0.352 N 
ATOM     27  C   UNL A   1      34.653  31.079  27.706  1.00  0.00     0.251 C 
ATOM     28  H   UNL A   1      32.956  31.071  26.639  1.00  0.00     0.163 HD
ATOM     29  O   UNL A   1      34.467  32.219  28.128  1.00  0.00    -0.269 OA
BRANCH  27  30
ATOM     30  C   UNL A   1      35.872  30.339  28.106  1.00  0.00     0.039 A 
ATOM     31  C   UNL A   1      37.004  30.405  27.286  1.00  0.00     0.014 A 
ATOM     32  C   UNL A   1      35.917  29.596  29.287  1.00  0.00     0.014 A 
ATOM     33  C   UNL A   1      38.202  29.812  27.701  1.00  0.00     0.010 A 
ATOM     34  C   UNL A   1      37.131  29.091  29.743  1.00  0.00     0.010 A 
ATOM     35  C   UNL A   1      38.289  29.194  28.959  1.00  0.00    -0.014 A 
BRANCH  35  36
ATOM     36  C   UNL A   1      39.572  28.655  29.484  1.00  0.00     0.031 A 
ATOM     37  C   UNL A   1      40.281  29.358  30.611  1.00  0.00     0.074 A 
ATOM     38  C   UNL A   1      40.161  27.606  28.872  1.00  0.00     0.049 A 
ATOM     39  N   UNL A   1      41.467  29.126  31.112  1.00  0.00    -0.248 NA
ATOM     40  C   UNL A   1      39.583  30.498  31.229  1.00  0.00     0.031 C 
ATOM     41  C   UNL A   1      39.626  26.889  27.712  1.00  0.00     0.029 A 
ATOM     42  N   UNL A   1      41.357  26.980  29.122  1.00  0.00    -0.354 N 
ATOM     43  C   UNL A   1      41.681  30.123  32.056  1.00  0.00     0.074 A 
ATOM     44  C   UNL A   1      40.513  30.976  32.044  1.00  0.00     0.031 C 
ATOM     45  C   UNL A   1      40.483  25.917  27.359  1.00  0.00     0.029 A 
ATOM     46  C   UNL A   1      41.641  25.957  28.247  1.00  0.00     0.049 A 
ATOM     47  H   UNL A   1      41.956  27.238  29.859  1.00  0.00     0.167 HD
ATOM     48  C   UNL A   1      42.738  30.297  32.885  1.00  0.00     0.034 A 
ATOM     49  C   UNL A   1      42.712  25.141  28.167  1.00  0.00     0.034 A 
ATOM     50  C   UNL A   1      43.852  29.395  32.968  1.00  0.00     0.049 A 
ATOM     51  C   UNL A   1      43.819  25.287  29.174  1.00  0.00     0.074 A 
ATOM     52  C   UNL A   1      44.921  29.426  33.847  1.00  0.00     0.029 A 
ATOM     53  N   UNL A   1      44.033  28.286  32.157  1.00  0.00    -0.354 N 
ATOM     54  N   UNL A   1      43.931  26.147  30.156  1.00  0.00    -0.248 NA
ATOM     55  C   UNL A   1      44.931  24.328  29.085  1.00  0.00     0.031 C 
ATOM     56  C   UNL A   1      45.742  28.326  33.574  1.00  0.00     0.029 A 
ATOM     57  C   UNL A   1      45.187  27.616  32.522  1.00  0.00     0.049 A 
ATOM     58  H   UNL A   1      43.429  28.016  31.427  1.00  0.00     0.167 HD
ATOM     59  C   UNL A   1      45.106  25.815  30.821  1.00  0.00     0.074 A 
ATOM     60  C   UNL A   1      45.661  24.663  30.142  1.00  0.00     0.031 C 
ATOM     61  C   UNL A   1      45.685  26.426  31.884  1.00  0.00     0.034 A 
BRANCH  48  62
ATOM     62  C   UNL A   1      42.693  31.462  33.834  1.00  0.00     0.023 A 
ATOM     63  C   UNL A   1      43.194  32.711  33.413  1.00  0.00     0.012 A 
ATOM     64  C   UNL A   1      42.119  31.343  35.114  1.00  0.00     0.148 A 
ATOM     65  C   UNL A   1      43.152  33.815  34.260  1.00  0.00     0.002 A 
ATOM     66  C   UNL A   1      42.049  32.459  35.941  1.00  0.00     0.091 A 
ATOM     67  F   UNL A   1      41.673  30.142  35.510  1.00  0.00    -0.205 F 
ATOM     68  C   UNL A   1      42.572  33.693  35.519  1.00  0.00     0.022 A 
BRANCH  66  69
ATOM     69  S   UNL A   1      41.256  32.407  37.554  1.00  0.00     0.127 S 
ATOM     70  O   UNL A   1      42.120  31.477  38.278  1.00  0.00    -0.237 OA
ATOM     71  O   UNL A   1      41.354  33.799  37.997  1.00  0.00    -0.237 OA
ATOM     72  O   UNL A   1      39.897  31.950  37.308  1.00  0.00    -0.744 OA
ENDBRANCH  66  69
ENDBRANCH  48  62
BRANCH  49  73
ATOM     73  C   UNL A   1      42.734  24.045  27.158  1.00  0.00     0.023 A 
ATOM     74  C   UNL A   1      43.456  24.235  25.964  1.00  0.00     0.012 A 
ATOM     75  C   UNL A   1      42.092  22.813  27.382  1.00  0.00     0.148 A 
ATOM     76  C   UNL A   1      43.518  23.228  25.001  1.00  0.00     0.002 A 
ATOM     77  C   UNL A   1      42.198  21.795  26.439  1.00  0.00     0.091 A 
ATOM     78  F   UNL A   1      41.392  22.653  28.515  1.00  0.00    -0.205 F 
ATOM     79  C   UNL A   1      42.900  22.005  25.243  1.00  0.00     0.022 A 
BRANCH  77  80
ATOM     80  S   UNL A   1      41.538  20.153  26.749  1.00  0.00     0.127 S 
ATOM     81  O   UNL A   1      40.137  20.440  27.044  1.00  0.00    -0.237 OA
ATOM     82  O   UNL A   1      41.771  19.474  25.472  1.00  0.00    -0.237 OA
ATOM     83  O   UNL A   1      42.335  19.628  27.850  1.00  0.00    -0.744 OA
ENDBRANCH  77  80
ENDBRANCH  49  73
BRANCH  61  84
ATOM     84  C   UNL A   1      46.973  25.851  32.405  1.00  0.00     0.023 A 
ATOM     85  C   UNL A   1      48.197  26.339  31.906  1.00  0.00     0.012 A 
ATOM     86  C   UNL A   1      46.976  24.903  33.444  1.00  0.00     0.148 A 
ATOM     87  C   UNL A   1      49.405  25.879  32.425  1.00  0.00     0.002 A 
ATOM     88  C   UNL A   1      48.185  24.475  33.981  1.00  0.00     0.091 A 
ATOM     89  F   UNL A   1      45.801  24.431  33.888  1.00  0.00    -0.205 F 
ATOM     90  C   UNL A   1      49.400  24.957  33.469  1.00  0.00     0.022 A 
BRANCH  88  91
ATOM     91  S   UNL A   1      48.252  23.353  35.383  1.00  0.00     0.127 S 
ATOM     92  O   UNL A   1      47.664  22.137  34.824  1.00  0.00    -0.237 OA
ATOM     93  O   UNL A   1      49.687  23.265  35.655  1.00  0.00    -0.237 OA
ATOM     94  O   UNL A   1      47.484  24.002  36.438  1.00  0.00    -0.744 OA
ENDBRANCH  88  91
ENDBRANCH  61  84
ENDBRANCH  35  36
ENDBRANCH  27  30
ENDBRANCH  25  26
ENDBRANCH   1  25
TORSDOF 15
ENDMDL
