MODEL 1
REMARK VINA RESULT:     -12.6      0.000      0.000
REMARK SMILES Cc1nn(C)c(=O)c(C(=O)N[C@H]2C=C[C@H](C(=O)NCCCNC(=O)c3ccc(-c4c5nc(c(-c6cccc(S(=O)(=O)[O-])c6F)c6ccc([nH]6)c(-c6cccc(S(=O)(=O)[O-])c6F)c6nc(c(-c7cccc(S(=O)(=O)[O-])c7F)c7ccc4[nH]7)C=C6)C=C5)cc3)C2)c1C
REMARK SMILES IDX 20 1 19 2 18 3 16 4 17 5 15 7 12 8 13 9 88 10 14 11 11 12
REMARK SMILES IDX 9 13 10 14 8 16 1 17 2 18 3 19 89 20 4 21 90 22 5 23 6 24
REMARK SMILES IDX 7 25 21 26 22 27 23 28 24 30 25 31 26 32 87 33 27 34 86 35
REMARK SMILES IDX 28 36 29 37 30 38 80 39 31 40 85 41 79 42 81 43 32 44 84 45
REMARK SMILES IDX 78 46 77 47 33 49 65 50 45 51 64 52 46 53 49 54 63 55 82 56
REMARK SMILES IDX 47 57 48 58 62 60 83 61 50 62 34 63 35 64 43 65 36 66 38 67
REMARK SMILES IDX 44 68 37 69 39 70 40 71 41 72 42 73 66 74 67 75 75 76 68 77
REMARK SMILES IDX 70 78 76 79 69 80 71 81 72 82 73 83 74 84 51 85 52 86 60 87
REMARK SMILES IDX 53 88 55 89 61 90 54 91 56 92 57 93 58 94 59 95
REMARK H PARENT 18 6 11 15 22 29 81 48 49 59
REMARK Flexibility Score: inf
ROOT
ATOM      1  C   UNL A   1      31.516  30.486  25.762  1.00  0.00     0.042 C 
ENDROOT
BRANCH   1   2
ATOM      2  C   UNL A   1      31.860  29.219  24.985  1.00  0.00     0.117 C 
BRANCH   2   3
ATOM      3  N   UNL A   1      30.703  28.661  24.307  1.00  0.00    -0.356 N 
ATOM      4  C   UNL A   1      30.308  27.369  24.149  1.00  0.00     0.227 C 
ATOM      5  O   UNL A   1      29.269  27.173  23.513  1.00  0.00    -0.274 OA
ATOM      6  H   UNL A   1      30.107  29.328  23.893  1.00  0.00     0.163 HD
BRANCH   4   7
ATOM      7  C   UNL A   1      31.131  26.216  24.745  1.00  0.00     0.103 C 
ATOM      8  C   UNL A   1      32.131  25.147  22.822  1.00  0.00     0.106 C 
ATOM      9  C   UNL A   1      31.067  24.274  23.413  1.00  0.00    -0.006 C 
ATOM     10  C   UNL A   1      32.465  26.072  23.989  1.00  0.00     0.047 C 
ATOM     11  C   UNL A   1      30.478  24.889  24.448  1.00  0.00    -0.016 C 
BRANCH   8  12
ATOM     12  N   UNL A   1      33.210  24.359  22.290  1.00  0.00    -0.346 N 
ATOM     13  C   UNL A   1      33.999  23.406  22.871  1.00  0.00     0.257 C 
ATOM     14  O   UNL A   1      35.073  23.159  22.321  1.00  0.00    -0.269 OA
ATOM     15  H   UNL A   1      33.417  24.536  21.344  1.00  0.00     0.164 HD
BRANCH  13  16
ATOM     16  C   UNL A   1      33.582  22.643  24.089  1.00  0.00     0.111 A 
ATOM     17  C   UNL A   1      33.348  22.553  27.830  1.00  0.00     0.069 C 
ATOM     18  C   UNL A   1      33.449  22.031  26.413  1.00  0.00     0.062 A 
ATOM     19  N   UNL A   1      32.985  20.843  26.210  1.00  0.00    -0.175 NA
ATOM     20  C   UNL A   1      34.013  22.899  25.341  1.00  0.00    -0.010 A 
ATOM     21  N   UNL A   1      32.857  20.443  24.912  1.00  0.00    -0.232 N 
ATOM     22  C   UNL A   1      35.088  23.846  25.761  1.00  0.00     0.047 C 
ATOM     23  C   UNL A   1      32.484  19.053  24.720  1.00  0.00     0.178 C 
ATOM     24  C   UNL A   1      32.877  21.334  23.841  1.00  0.00     0.279 A 
ATOM     25  O   UNL A   1      32.423  21.056  22.733  1.00  0.00    -0.267 OA
ENDBRANCH  13  16
ENDBRANCH   8  12
ENDBRANCH   4   7
ENDBRANCH   2   3
ENDBRANCH   1   2
BRANCH   1  26
ATOM     26  C   UNL A   1      32.521  30.838  26.858  1.00  0.00     0.118 C 
BRANCH  26  27
ATOM     27  N   UNL A   1      32.649  32.275  27.069  1.00  0.00    -0.352 N 
ATOM     28  C   UNL A   1      33.601  32.999  27.750  1.00  0.00     0.251 C 
ATOM     29  H   UNL A   1      31.937  32.817  26.658  1.00  0.00     0.163 HD
ATOM     30  O   UNL A   1      33.411  34.187  27.973  1.00  0.00    -0.269 OA
BRANCH  28  31
ATOM     31  C   UNL A   1      34.839  32.344  28.227  1.00  0.00     0.039 A 
ATOM     32  C   UNL A   1      36.035  33.065  28.210  1.00  0.00     0.014 A 
ATOM     33  C   UNL A   1      34.825  31.020  28.674  1.00  0.00     0.014 A 
ATOM     34  C   UNL A   1      37.199  32.485  28.724  1.00  0.00     0.010 A 
ATOM     35  C   UNL A   1      35.966  30.473  29.259  1.00  0.00     0.010 A 
ATOM     36  C   UNL A   1      37.164  31.201  29.293  1.00  0.00    -0.014 A 
BRANCH  36  37
ATOM     37  C   UNL A   1      38.362  30.629  29.960  1.00  0.00     0.031 A 
ATOM     38  C   UNL A   1      38.760  31.072  31.342  1.00  0.00     0.074 A 
ATOM     39  C   UNL A   1      39.133  29.750  29.288  1.00  0.00     0.049 A 
ATOM     40  N   UNL A   1      39.763  30.666  32.075  1.00  0.00    -0.248 NA
ATOM     41  C   UNL A   1      37.942  32.120  31.974  1.00  0.00     0.031 C 
ATOM     42  C   UNL A   1      38.902  29.311  27.909  1.00  0.00     0.029 A 
ATOM     43  N   UNL A   1      40.268  29.076  29.663  1.00  0.00    -0.354 N 
ATOM     44  C   UNL A   1      39.709  31.417  33.243  1.00  0.00     0.074 A 
ATOM     45  C   UNL A   1      38.605  32.339  33.101  1.00  0.00     0.031 C 
ATOM     46  C   UNL A   1      39.845  28.419  27.567  1.00  0.00     0.029 A 
ATOM     47  C   UNL A   1      40.762  28.239  28.688  1.00  0.00     0.049 A 
ATOM     48  H   UNL A   1      40.689  29.181  30.546  1.00  0.00     0.167 HD
ATOM     49  C   UNL A   1      40.481  31.317  34.350  1.00  0.00     0.034 A 
ATOM     50  C   UNL A   1      41.824  27.409  28.700  1.00  0.00     0.034 A 
ATOM     51  C   UNL A   1      41.546  30.365  34.505  1.00  0.00     0.049 A 
ATOM     52  C   UNL A   1      42.647  27.293  29.955  1.00  0.00     0.074 A 
ATOM     53  C   UNL A   1      42.329  30.129  35.620  1.00  0.00     0.029 A 
ATOM     54  N   UNL A   1      41.978  29.493  33.519  1.00  0.00    -0.354 N 
ATOM     55  N   UNL A   1      42.475  27.891  31.109  1.00  0.00    -0.248 NA
ATOM     56  C   UNL A   1      43.787  26.365  29.926  1.00  0.00     0.031 C 
ATOM     57  C   UNL A   1      43.245  29.123  35.304  1.00  0.00     0.029 A 
ATOM     58  C   UNL A   1      43.023  28.722  33.996  1.00  0.00     0.049 A 
ATOM     59  H   UNL A   1      41.598  29.431  32.613  1.00  0.00     0.167 HD
ATOM     60  C   UNL A   1      43.464  27.394  31.950  1.00  0.00     0.074 A 
ATOM     61  C   UNL A   1      44.220  26.429  31.179  1.00  0.00     0.031 C 
ATOM     62  C   UNL A   1      43.732  27.723  33.236  1.00  0.00     0.034 A 
BRANCH  49  63
ATOM     63  C   UNL A   1      40.148  32.200  35.525  1.00  0.00     0.023 A 
ATOM     64  C   UNL A   1      40.834  33.424  35.676  1.00  0.00     0.012 A 
ATOM     65  C   UNL A   1      39.108  31.875  36.418  1.00  0.00     0.148 A 
ATOM     66  C   UNL A   1      40.509  34.298  36.711  1.00  0.00     0.002 A 
ATOM     67  C   UNL A   1      38.762  32.773  37.422  1.00  0.00     0.091 A 
ATOM     68  F   UNL A   1      38.481  30.700  36.269  1.00  0.00    -0.205 F 
ATOM     69  C   UNL A   1      39.466  33.978  37.575  1.00  0.00     0.022 A 
BRANCH  67  70
ATOM     70  S   UNL A   1      37.383  32.495  38.540  1.00  0.00     0.127 S 
ATOM     71  O   UNL A   1      37.739  33.360  39.665  1.00  0.00    -0.237 OA
ATOM     72  O   UNL A   1      36.246  32.963  37.749  1.00  0.00    -0.237 OA
ATOM     73  O   UNL A   1      37.380  31.068  38.829  1.00  0.00    -0.744 OA
ENDBRANCH  67  70
ENDBRANCH  49  63
BRANCH  50  74
ATOM     74  C   UNL A   1      42.096  26.543  27.516  1.00  0.00     0.023 A 
ATOM     75  C   UNL A   1      42.818  27.077  26.431  1.00  0.00     0.012 A 
ATOM     76  C   UNL A   1      41.711  25.189  27.483  1.00  0.00     0.148 A 
ATOM     77  C   UNL A   1      43.137  26.284  25.327  1.00  0.00     0.002 A 
ATOM     78  C   UNL A   1      42.081  24.390  26.406  1.00  0.00     0.091 A 
ATOM     79  F   UNL A   1      41.014  24.702  28.520  1.00  0.00    -0.205 F 
ATOM     80  C   UNL A   1      42.779  24.939  25.321  1.00  0.00     0.022 A 
BRANCH  78  81
ATOM     81  S   UNL A   1      41.793  22.616  26.379  1.00  0.00     0.127 S 
ATOM     82  O   UNL A   1      42.472  22.221  25.149  1.00  0.00    -0.237 OA
ATOM     83  O   UNL A   1      42.451  22.185  27.613  1.00  0.00    -0.237 OA
ATOM     84  O   UNL A   1      40.345  22.454  26.386  1.00  0.00    -0.744 OA
ENDBRANCH  78  81
ENDBRANCH  50  74
BRANCH  62  85
ATOM     85  C   UNL A   1      44.885  27.039  33.923  1.00  0.00     0.023 A 
ATOM     86  C   UNL A   1      46.157  27.641  33.896  1.00  0.00     0.012 A 
ATOM     87  C   UNL A   1      44.676  25.891  34.712  1.00  0.00     0.148 A 
ATOM     88  C   UNL A   1      47.209  27.107  34.638  1.00  0.00     0.002 A 
ATOM     89  C   UNL A   1      45.716  25.393  35.488  1.00  0.00     0.091 A 
ATOM     90  F   UNL A   1      43.459  25.329  34.712  1.00  0.00    -0.205 F 
ATOM     91  C   UNL A   1      46.984  25.994  35.446  1.00  0.00     0.022 A 
BRANCH  89  92
ATOM     92  S   UNL A   1      45.499  24.030  36.639  1.00  0.00     0.127 S 
ATOM     93  O   UNL A   1      44.969  22.983  35.765  1.00  0.00    -0.237 OA
ATOM     94  O   UNL A   1      46.866  23.800  37.106  1.00  0.00    -0.237 OA
ATOM     95  O   UNL A   1      44.579  24.507  37.662  1.00  0.00    -0.744 OA
ENDBRANCH  89  92
ENDBRANCH  62  85
ENDBRANCH  36  37
ENDBRANCH  28  31
ENDBRANCH  26  27
ENDBRANCH   1  26
TORSDOF 15
ENDMDL
MODEL 2
REMARK VINA RESULT:     -12.6      1.569      2.343
REMARK SMILES Cc1nn(C)c(=O)c(C(=O)N[C@H]2C=C[C@H](C(=O)NCCCNC(=O)c3ccc(-c4c5nc(c(-c6cccc(S(=O)(=O)[O-])c6F)c6ccc([nH]6)c(-c6cccc(S(=O)(=O)[O-])c6F)c6nc(c(-c7cccc(S(=O)(=O)[O-])c7F)c7ccc4[nH]7)C=C6)C=C5)cc3)C2)c1C
REMARK SMILES IDX 20 1 19 2 18 3 16 4 17 5 15 7 12 8 13 9 88 10 14 11 11 12
REMARK SMILES IDX 9 13 10 14 8 16 1 17 2 18 3 19 89 20 4 21 90 22 5 23 6 24
REMARK SMILES IDX 7 25 21 26 22 27 23 28 24 30 25 31 26 32 87 33 27 34 86 35
REMARK SMILES IDX 28 36 29 37 30 38 80 39 31 40 85 41 79 42 81 43 32 44 84 45
REMARK SMILES IDX 78 46 77 47 33 49 65 50 45 51 64 52 46 53 49 54 63 55 82 56
REMARK SMILES IDX 47 57 48 58 62 60 83 61 50 62 34 63 35 64 43 65 36 66 38 67
REMARK SMILES IDX 44 68 37 69 39 70 40 71 41 72 42 73 66 74 67 75 75 76 68 77
REMARK SMILES IDX 70 78 76 79 69 80 71 81 72 82 73 83 74 84 51 85 52 86 60 87
REMARK SMILES IDX 53 88 55 89 61 90 54 91 56 92 57 93 58 94 59 95
REMARK H PARENT 18 6 11 15 22 29 81 48 49 59
REMARK Flexibility Score: inf
ROOT
ATOM      1  C   UNL A   1      31.561  29.031  25.877  1.00  0.00     0.042 C 
ENDROOT
BRANCH   1   2
ATOM      2  C   UNL A   1      31.804  27.844  26.804  1.00  0.00     0.117 C 
BRANCH   2   3
ATOM      3  N   UNL A   1      30.628  27.005  26.939  1.00  0.00    -0.356 N 
ATOM      4  C   UNL A   1      30.341  25.790  26.399  1.00  0.00     0.227 C 
ATOM      5  O   UNL A   1      29.246  25.294  26.680  1.00  0.00    -0.274 OA
ATOM      6  H   UNL A   1      29.920  27.376  27.516  1.00  0.00     0.163 HD
BRANCH   4   7
ATOM      7  C   UNL A   1      31.349  25.078  25.483  1.00  0.00     0.103 C 
ATOM      8  C   UNL A   1      31.457  22.827  26.357  1.00  0.00     0.106 C 
ATOM      9  C   UNL A   1      32.727  23.565  26.650  1.00  0.00    -0.006 C 
ATOM     10  C   UNL A   1      30.881  23.639  25.199  1.00  0.00     0.047 C 
ATOM     11  C   UNL A   1      32.647  24.829  26.210  1.00  0.00    -0.016 C 
BRANCH   8  12
ATOM     12  N   UNL A   1      31.715  21.434  26.107  1.00  0.00    -0.346 N 
ATOM     13  C   UNL A   1      32.405  20.813  25.105  1.00  0.00     0.257 C 
ATOM     14  O   UNL A   1      32.163  19.620  24.916  1.00  0.00    -0.269 OA
ATOM     15  H   UNL A   1      31.328  20.822  26.774  1.00  0.00     0.164 HD
BRANCH  13  16
ATOM     16  C   UNL A   1      33.450  21.509  24.290  1.00  0.00     0.111 A 
ATOM     17  C   UNL A   1      37.095  22.221  23.774  1.00  0.00     0.069 C 
ATOM     18  C   UNL A   1      35.598  22.432  23.716  1.00  0.00     0.062 A 
ATOM     19  N   UNL A   1      35.165  23.185  22.759  1.00  0.00    -0.175 NA
ATOM     20  C   UNL A   1      34.712  21.747  24.699  1.00  0.00    -0.010 A 
ATOM     21  N   UNL A   1      33.817  23.205  22.549  1.00  0.00    -0.232 N 
ATOM     22  C   UNL A   1      35.285  21.537  26.063  1.00  0.00     0.047 C 
ATOM     23  C   UNL A   1      33.351  24.176  21.575  1.00  0.00     0.178 C 
ATOM     24  C   UNL A   1      32.957  22.240  23.067  1.00  0.00     0.279 A 
ATOM     25  O   UNL A   1      31.831  22.038  22.615  1.00  0.00    -0.267 OA
ENDBRANCH  13  16
ENDBRANCH   8  12
ENDBRANCH   4   7
ENDBRANCH   2   3
ENDBRANCH   1   2
BRANCH   1  26
ATOM     26  C   UNL A   1      32.776  29.940  25.695  1.00  0.00     0.118 C 
BRANCH  26  27
ATOM     27  N   UNL A   1      32.552  31.292  26.192  1.00  0.00    -0.352 N 
ATOM     28  C   UNL A   1      33.218  32.014  27.156  1.00  0.00     0.251 C 
ATOM     29  H   UNL A   1      31.801  31.767  25.769  1.00  0.00     0.163 HD
ATOM     30  O   UNL A   1      32.741  33.065  27.560  1.00  0.00    -0.269 OA
BRANCH  28  31
ATOM     31  C   UNL A   1      34.494  31.515  27.715  1.00  0.00     0.039 A 
ATOM     32  C   UNL A   1      35.542  32.416  27.916  1.00  0.00     0.014 A 
ATOM     33  C   UNL A   1      34.663  30.164  28.026  1.00  0.00     0.014 A 
ATOM     34  C   UNL A   1      36.728  31.976  28.510  1.00  0.00     0.010 A 
ATOM     35  C   UNL A   1      35.813  29.743  28.690  1.00  0.00     0.010 A 
ATOM     36  C   UNL A   1      36.857  30.644  28.943  1.00  0.00    -0.014 A 
BRANCH  36  37
ATOM     37  C   UNL A   1      38.059  30.198  29.693  1.00  0.00     0.031 A 
ATOM     38  C   UNL A   1      38.324  30.693  31.089  1.00  0.00     0.074 A 
ATOM     39  C   UNL A   1      38.953  29.391  29.085  1.00  0.00     0.049 A 
ATOM     40  N   UNL A   1      39.312  30.394  31.890  1.00  0.00    -0.248 NA
ATOM     41  C   UNL A   1      37.370  31.663  31.651  1.00  0.00     0.031 C 
ATOM     42  C   UNL A   1      38.854  28.917  27.702  1.00  0.00     0.029 A 
ATOM     43  N   UNL A   1      40.121  28.835  29.542  1.00  0.00    -0.354 N 
ATOM     44  C   UNL A   1      39.112  31.149  33.040  1.00  0.00     0.074 A 
ATOM     45  C   UNL A   1      37.935  31.958  32.814  1.00  0.00     0.031 C 
ATOM     46  C   UNL A   1      39.898  28.118  27.434  1.00  0.00     0.029 A 
ATOM     47  C   UNL A   1      40.754  28.040  28.614  1.00  0.00     0.049 A 
ATOM     48  H   UNL A   1      40.473  28.989  30.447  1.00  0.00     0.167 HD
ATOM     49  C   UNL A   1      39.817  31.136  34.195  1.00  0.00     0.034 A 
ATOM     50  C   UNL A   1      41.889  27.316  28.706  1.00  0.00     0.034 A 
ATOM     51  C   UNL A   1      40.956  30.294  34.432  1.00  0.00     0.049 A 
ATOM     52  C   UNL A   1      42.637  27.294  30.012  1.00  0.00     0.074 A 
ATOM     53  C   UNL A   1      41.686  30.146  35.598  1.00  0.00     0.029 A 
ATOM     54  N   UNL A   1      41.533  29.457  33.490  1.00  0.00    -0.354 N 
ATOM     55  N   UNL A   1      42.335  27.886  31.142  1.00  0.00    -0.248 NA
ATOM     56  C   UNL A   1      43.861  26.482  30.070  1.00  0.00     0.031 C 
ATOM     57  C   UNL A   1      42.713  29.230  35.356  1.00  0.00     0.029 A 
ATOM     58  C   UNL A   1      42.615  28.796  34.044  1.00  0.00     0.049 A 
ATOM     59  H   UNL A   1      41.220  29.349  32.563  1.00  0.00     0.167 HD
ATOM     60  C   UNL A   1      43.311  27.496  32.052  1.00  0.00     0.074 A 
ATOM     61  C   UNL A   1      44.205  26.600  31.346  1.00  0.00     0.031 C 
ATOM     62  C   UNL A   1      43.464  27.863  33.347  1.00  0.00     0.034 A 
BRANCH  49  63
ATOM     63  C   UNL A   1      39.326  31.995  35.331  1.00  0.00     0.023 A 
ATOM     64  C   UNL A   1      38.432  31.440  36.271  1.00  0.00     0.012 A 
ATOM     65  C   UNL A   1      39.810  33.304  35.526  1.00  0.00     0.148 A 
ATOM     66  C   UNL A   1      38.008  32.180  37.372  1.00  0.00     0.002 A 
ATOM     67  C   UNL A   1      39.414  34.021  36.651  1.00  0.00     0.091 A 
ATOM     68  F   UNL A   1      40.644  33.820  34.613  1.00  0.00    -0.205 F 
ATOM     69  C   UNL A   1      38.507  33.464  37.568  1.00  0.00     0.022 A 
BRANCH  67  70
ATOM     70  S   UNL A   1      40.058  35.652  37.040  1.00  0.00     0.127 S 
ATOM     71  O   UNL A   1      39.614  36.427  35.881  1.00  0.00    -0.237 OA
ATOM     72  O   UNL A   1      39.363  35.968  38.287  1.00  0.00    -0.237 OA
ATOM     73  O   UNL A   1      41.500  35.495  37.168  1.00  0.00    -0.744 OA
ENDBRANCH  67  70
ENDBRANCH  49  63
BRANCH  50  74
ATOM     74  C   UNL A   1      42.318  26.469  27.557  1.00  0.00     0.023 A 
ATOM     75  C   UNL A   1      43.205  27.008  26.604  1.00  0.00     0.012 A 
ATOM     76  C   UNL A   1      41.916  25.125  27.434  1.00  0.00     0.148 A 
ATOM     77  C   UNL A   1      43.670  26.230  25.542  1.00  0.00     0.002 A 
ATOM     78  C   UNL A   1      42.426  24.339  26.406  1.00  0.00     0.091 A 
ATOM     79  F   UNL A   1      41.061  24.634  28.343  1.00  0.00    -0.205 F 
ATOM     80  C   UNL A   1      43.291  24.894  25.450  1.00  0.00     0.022 A 
BRANCH  78  81
ATOM     81  S   UNL A   1      42.111  22.574  26.295  1.00  0.00     0.127 S 
ATOM     82  O   UNL A   1      42.692  22.086  27.542  1.00  0.00    -0.237 OA
ATOM     83  O   UNL A   1      40.649  22.532  26.237  1.00  0.00    -0.237 OA
ATOM     84  O   UNL A   1      42.770  22.135  25.072  1.00  0.00    -0.744 OA
ENDBRANCH  78  81
ENDBRANCH  50  74
BRANCH  62  85
ATOM     85  C   UNL A   1      44.631  27.302  34.116  1.00  0.00     0.023 A 
ATOM     86  C   UNL A   1      45.814  28.058  34.220  1.00  0.00     0.012 A 
ATOM     87  C   UNL A   1      44.502  26.107  34.852  1.00  0.00     0.148 A 
ATOM     88  C   UNL A   1      46.857  27.630  35.039  1.00  0.00     0.002 A 
ATOM     89  C   UNL A   1      45.527  25.712  35.704  1.00  0.00     0.091 A 
ATOM     90  F   UNL A   1      43.371  25.399  34.727  1.00  0.00    -0.205 F 
ATOM     91  C   UNL A   1      46.707  26.467  35.792  1.00  0.00     0.022 A 
BRANCH  89  92
ATOM     92  S   UNL A   1      45.386  24.290  36.793  1.00  0.00     0.127 S 
ATOM     93  O   UNL A   1      46.776  24.092  37.205  1.00  0.00    -0.237 OA
ATOM     94  O   UNL A   1      44.504  24.793  37.845  1.00  0.00    -0.237 OA
ATOM     95  O   UNL A   1      44.822  23.217  35.987  1.00  0.00    -0.744 OA
ENDBRANCH  89  92
ENDBRANCH  62  85
ENDBRANCH  36  37
ENDBRANCH  28  31
ENDBRANCH  26  27
ENDBRANCH   1  26
TORSDOF 15
ENDMDL
MODEL 3
REMARK VINA RESULT:     -12.5      4.965      9.882
REMARK SMILES Cc1nn(C)c(=O)c(C(=O)N[C@H]2C=C[C@H](C(=O)NCCCNC(=O)c3ccc(-c4c5nc(c(-c6cccc(S(=O)(=O)[O-])c6F)c6ccc([nH]6)c(-c6cccc(S(=O)(=O)[O-])c6F)c6nc(c(-c7cccc(S(=O)(=O)[O-])c7F)c7ccc4[nH]7)C=C6)C=C5)cc3)C2)c1C
REMARK SMILES IDX 20 1 19 2 18 3 16 4 17 5 15 7 12 8 13 9 88 10 14 11 11 12
REMARK SMILES IDX 9 13 10 14 8 16 1 17 2 18 3 19 89 20 4 21 90 22 5 23 6 24
REMARK SMILES IDX 7 25 21 26 22 27 23 28 24 30 25 31 26 32 87 33 27 34 86 35
REMARK SMILES IDX 28 36 29 37 30 38 80 39 31 40 85 41 79 42 81 43 32 44 84 45
REMARK SMILES IDX 78 46 77 47 33 49 65 50 45 51 64 52 46 53 49 54 63 55 82 56
REMARK SMILES IDX 47 57 48 58 62 60 83 61 50 62 34 63 35 64 43 65 36 66 38 67
REMARK SMILES IDX 44 68 37 69 39 70 40 71 41 72 42 73 66 74 67 75 75 76 68 77
REMARK SMILES IDX 70 78 76 79 69 80 71 81 72 82 73 83 74 84 51 85 52 86 60 87
REMARK SMILES IDX 53 88 55 89 61 90 54 91 56 92 57 93 58 94 59 95
REMARK H PARENT 18 6 11 15 22 29 81 48 49 59
REMARK Flexibility Score: inf
ROOT
ATOM      1  C   UNL A   1      36.800  23.706  24.597  1.00  0.00     0.042 C 
ENDROOT
BRANCH   1   2
ATOM      2  C   UNL A   1      36.073  22.947  23.491  1.00  0.00     0.117 C 
BRANCH   2   3
ATOM      3  N   UNL A   1      35.075  22.034  24.018  1.00  0.00    -0.356 N 
ATOM      4  C   UNL A   1      33.737  22.197  24.201  1.00  0.00     0.227 C 
ATOM      5  O   UNL A   1      33.115  21.244  24.681  1.00  0.00    -0.274 OA
ATOM      6  H   UNL A   1      35.423  21.153  24.288  1.00  0.00     0.163 HD
BRANCH   4   7
ATOM      7  C   UNL A   1      33.044  23.514  23.821  1.00  0.00     0.103 C 
ATOM      8  C   UNL A   1      31.858  24.160  25.825  1.00  0.00     0.106 C 
ATOM      9  C   UNL A   1      30.896  23.717  24.766  1.00  0.00    -0.006 C 
ATOM     10  C   UNL A   1      33.098  24.501  25.002  1.00  0.00     0.047 C 
ATOM     11  C   UNL A   1      31.557  23.310  23.673  1.00  0.00    -0.016 C 
BRANCH   8  12
ATOM     12  N   UNL A   1      31.298  25.219  26.621  1.00  0.00    -0.346 N 
ATOM     13  C   UNL A   1      31.325  26.576  26.461  1.00  0.00     0.257 C 
ATOM     14  O   UNL A   1      31.101  27.261  27.460  1.00  0.00    -0.269 OA
ATOM     15  H   UNL A   1      30.809  24.914  27.419  1.00  0.00     0.164 HD
BRANCH  13  16
ATOM     16  C   UNL A   1      31.563  27.230  25.136  1.00  0.00     0.111 A 
ATOM     17  C   UNL A   1      34.046  28.709  22.747  1.00  0.00     0.069 C 
ATOM     18  C   UNL A   1      32.713  28.471  23.424  1.00  0.00     0.062 A 
ATOM     19  N   UNL A   1      31.662  28.725  22.718  1.00  0.00    -0.175 NA
ATOM     20  C   UNL A   1      32.672  27.924  24.810  1.00  0.00    -0.010 A 
ATOM     21  N   UNL A   1      30.464  28.306  23.219  1.00  0.00    -0.232 N 
ATOM     22  C   UNL A   1      33.793  28.330  25.709  1.00  0.00     0.047 C 
ATOM     23  C   UNL A   1      29.291  28.744  22.483  1.00  0.00     0.178 C 
ATOM     24  C   UNL A   1      30.360  27.363  24.238  1.00  0.00     0.279 A 
ATOM     25  O   UNL A   1      29.331  26.726  24.454  1.00  0.00    -0.267 OA
ENDBRANCH  13  16
ENDBRANCH   8  12
ENDBRANCH   4   7
ENDBRANCH   2   3
ENDBRANCH   1   2
BRANCH   1  26
ATOM     26  C   UNL A   1      36.808  22.987  25.945  1.00  0.00     0.118 C 
BRANCH  26  27
ATOM     27  N   UNL A   1      38.024  22.214  26.169  1.00  0.00    -0.352 N 
ATOM     28  C   UNL A   1      39.294  22.620  26.508  1.00  0.00     0.251 C 
ATOM     29  H   UNL A   1      37.919  21.241  26.059  1.00  0.00     0.163 HD
ATOM     30  O   UNL A   1      40.219  21.821  26.452  1.00  0.00    -0.269 OA
BRANCH  28  31
ATOM     31  C   UNL A   1      39.546  24.019  26.918  1.00  0.00     0.039 A 
ATOM     32  C   UNL A   1      39.308  24.388  28.245  1.00  0.00     0.014 A 
ATOM     33  C   UNL A   1      40.001  24.968  25.999  1.00  0.00     0.014 A 
ATOM     34  C   UNL A   1      39.609  25.686  28.667  1.00  0.00     0.010 A 
ATOM     35  C   UNL A   1      40.375  26.236  26.438  1.00  0.00     0.010 A 
ATOM     36  C   UNL A   1      40.187  26.608  27.777  1.00  0.00    -0.014 A 
BRANCH  36  37
ATOM     37  C   UNL A   1      40.632  27.945  28.247  1.00  0.00     0.031 A 
ATOM     38  C   UNL A   1      42.090  28.317  28.241  1.00  0.00     0.074 A 
ATOM     39  C   UNL A   1      39.720  28.807  28.742  1.00  0.00     0.049 A 
ATOM     40  N   UNL A   1      42.650  29.443  28.601  1.00  0.00    -0.248 NA
ATOM     41  C   UNL A   1      43.046  27.289  27.798  1.00  0.00     0.031 C 
ATOM     42  C   UNL A   1      38.289  28.527  28.884  1.00  0.00     0.029 A 
ATOM     43  N   UNL A   1      39.857  30.083  29.226  1.00  0.00    -0.354 N 
ATOM     44  C   UNL A   1      44.018  29.255  28.445  1.00  0.00     0.074 A 
ATOM     45  C   UNL A   1      44.209  27.891  28.005  1.00  0.00     0.031 C 
ATOM     46  C   UNL A   1      37.676  29.610  29.389  1.00  0.00     0.029 A 
ATOM     47  C   UNL A   1      38.670  30.651  29.630  1.00  0.00     0.049 A 
ATOM     48  H   UNL A   1      40.722  30.549  29.280  1.00  0.00     0.167 HD
ATOM     49  C   UNL A   1      45.019  30.150  28.608  1.00  0.00     0.034 A 
ATOM     50  C   UNL A   1      38.407  31.878  30.124  1.00  0.00     0.034 A 
ATOM     51  C   UNL A   1      44.819  31.519  28.996  1.00  0.00     0.049 A 
ATOM     52  C   UNL A   1      39.535  32.866  30.266  1.00  0.00     0.074 A 
ATOM     53  C   UNL A   1      45.762  32.525  29.106  1.00  0.00     0.029 A 
ATOM     54  N   UNL A   1      43.597  32.075  29.338  1.00  0.00    -0.354 N 
ATOM     55  N   UNL A   1      40.799  32.720  29.952  1.00  0.00    -0.248 NA
ATOM     56  C   UNL A   1      39.198  34.195  30.797  1.00  0.00     0.031 C 
ATOM     57  C   UNL A   1      45.111  33.687  29.529  1.00  0.00     0.029 A 
ATOM     58  C   UNL A   1      43.761  33.409  29.667  1.00  0.00     0.049 A 
ATOM     59  H   UNL A   1      42.739  31.592  29.346  1.00  0.00     0.167 HD
ATOM     60  C   UNL A   1      41.403  33.943  30.218  1.00  0.00     0.074 A 
ATOM     61  C   UNL A   1      40.362  34.826  30.701  1.00  0.00     0.031 C 
ATOM     62  C   UNL A   1      42.706  34.294  30.093  1.00  0.00     0.034 A 
BRANCH  49  63
ATOM     63  C   UNL A   1      46.422  29.708  28.280  1.00  0.00     0.023 A 
ATOM     64  C   UNL A   1      46.918  29.919  26.976  1.00  0.00     0.012 A 
ATOM     65  C   UNL A   1      47.275  29.176  29.267  1.00  0.00     0.148 A 
ATOM     66  C   UNL A   1      48.230  29.584  26.652  1.00  0.00     0.002 A 
ATOM     67  C   UNL A   1      48.597  28.884  28.946  1.00  0.00     0.091 A 
ATOM     68  F   UNL A   1      46.780  28.966  30.495  1.00  0.00    -0.205 F 
ATOM     69  C   UNL A   1      49.072  29.079  27.638  1.00  0.00     0.022 A 
BRANCH  67  70
ATOM     70  S   UNL A   1      49.786  28.304  30.160  1.00  0.00     0.127 S 
ATOM     71  O   UNL A   1      51.009  28.231  29.362  1.00  0.00    -0.237 OA
ATOM     72  O   UNL A   1      49.768  29.381  31.149  1.00  0.00    -0.237 OA
ATOM     73  O   UNL A   1      49.280  27.026  30.642  1.00  0.00    -0.744 OA
ENDBRANCH  67  70
ENDBRANCH  49  63
BRANCH  50  74
ATOM     74  C   UNL A   1      36.998  32.270  30.413  1.00  0.00     0.023 A 
ATOM     75  C   UNL A   1      36.505  32.129  31.726  1.00  0.00     0.012 A 
ATOM     76  C   UNL A   1      36.169  32.841  29.428  1.00  0.00     0.148 A 
ATOM     77  C   UNL A   1      35.207  32.531  32.048  1.00  0.00     0.002 A 
ATOM     78  C   UNL A   1      34.898  33.292  29.768  1.00  0.00     0.091 A 
ATOM     79  F   UNL A   1      36.651  32.955  28.182  1.00  0.00    -0.205 F 
ATOM     80  C   UNL A   1      34.410  33.123  31.073  1.00  0.00     0.022 A 
BRANCH  78  81
ATOM     81  S   UNL A   1      33.857  34.199  28.618  1.00  0.00     0.127 S 
ATOM     82  O   UNL A   1      34.759  35.252  28.163  1.00  0.00    -0.237 OA
ATOM     83  O   UNL A   1      33.549  33.174  27.619  1.00  0.00    -0.237 OA
ATOM     84  O   UNL A   1      32.706  34.640  29.395  1.00  0.00    -0.744 OA
ENDBRANCH  78  81
ENDBRANCH  50  74
BRANCH  62  85
ATOM     85  C   UNL A   1      43.107  35.696  30.470  1.00  0.00     0.023 A 
ATOM     86  C   UNL A   1      43.574  35.952  31.773  1.00  0.00     0.012 A 
ATOM     87  C   UNL A   1      43.163  36.715  29.499  1.00  0.00     0.148 A 
ATOM     88  C   UNL A   1      44.083  37.205  32.108  1.00  0.00     0.002 A 
ATOM     89  C   UNL A   1      43.717  37.947  29.827  1.00  0.00     0.091 A 
ATOM     90  F   UNL A   1      42.701  36.451  28.268  1.00  0.00    -0.205 F 
ATOM     91  C   UNL A   1      44.170  38.196  31.132  1.00  0.00     0.022 A 
BRANCH  89  92
ATOM     92  S   UNL A   1      43.969  39.250  28.615  1.00  0.00     0.127 S 
ATOM     93  O   UNL A   1      44.532  38.504  27.489  1.00  0.00    -0.237 OA
ATOM     94  O   UNL A   1      42.608  39.741  28.402  1.00  0.00    -0.237 OA
ATOM     95  O   UNL A   1      44.872  40.209  29.235  1.00  0.00    -0.744 OA
ENDBRANCH  89  92
ENDBRANCH  62  85
ENDBRANCH  36  37
ENDBRANCH  28  31
ENDBRANCH  26  27
ENDBRANCH   1  26
TORSDOF 15
ENDMDL
