MODEL 1
REMARK VINA RESULT:     -12.5      0.000      0.000
REMARK SMILES C[C@@H]1[C@H](C(=O)NCCCNC(=O)c2ccc(-c3c4nc(c(-c5cccc(S(=O)(=O)[O-])c5F)c5ccc([nH]5)c(-c5cccc(S(=O)(=O)[O-])c5F)c5nc(c(-c6cccc(S(=O)(=O)[O-])c6F)c6ccc3[nH]6)C=C5)C=C4)cc2)CCN1C(=O)/C=C/c1cccc(Br)c1
REMARK SMILES IDX 8 1 7 2 6 3 4 4 5 5 3 7 1 8 2 9 78 10 76 11 77 12 79 13
REMARK SMILES IDX 80 14 81 15 82 16 83 17 84 18 89 19 85 20 87 21 86 22 88 23
REMARK SMILES IDX 9 24 10 25 11 26 12 28 13 29 14 30 75 31 15 32 74 33 16 34
REMARK SMILES IDX 17 35 18 36 68 37 19 38 73 39 67 40 69 41 20 42 72 43 66 44
REMARK SMILES IDX 65 45 21 47 53 48 33 49 52 50 34 51 37 52 51 53 70 54 35 55
REMARK SMILES IDX 36 56 50 58 71 59 38 60 22 61 23 62 31 63 24 64 26 65 32 66
REMARK SMILES IDX 25 67 27 68 28 69 29 70 30 71 54 72 55 73 63 74 56 75 58 76
REMARK SMILES IDX 64 77 57 78 59 79 60 80 61 81 62 82 39 83 40 84 48 85 41 86
REMARK SMILES IDX 43 87 49 88 42 89 44 90 45 91 46 92 47 93
REMARK H PARENT 6 6 10 27 69 46 37 57
REMARK Flexibility Score: inf
ROOT
ATOM      1  C   UNL A   1      37.715  19.461  24.937  1.00  0.00     0.042 C 
ENDROOT
BRANCH   1   2
ATOM      2  C   UNL A   1      36.371  20.191  24.972  1.00  0.00     0.117 C 
BRANCH   2   3
ATOM      3  N   UNL A   1      35.217  19.302  24.928  1.00  0.00    -0.356 N 
ATOM      4  C   UNL A   1      33.880  19.479  24.799  1.00  0.00     0.225 C 
ATOM      5  O   UNL A   1      33.207  18.439  24.761  1.00  0.00    -0.275 OA
ATOM      6  H   UNL A   1      35.467  18.353  25.013  1.00  0.00     0.163 HD
BRANCH   4   7
ATOM      7  C   UNL A   1      33.152  20.816  24.738  1.00  0.00     0.102 C 
ATOM      8  C   UNL A   1      33.795  21.334  27.178  1.00  0.00     0.032 C 
ATOM      9  C   UNL A   1      32.764  21.463  26.077  1.00  0.00     0.094 C 
ATOM     10  N   UNL A   1      32.524  22.871  25.737  1.00  0.00    -0.336 N 
ATOM     11  C   UNL A   1      33.727  21.944  23.895  1.00  0.00     0.037 C 
ATOM     12  C   UNL A   1      32.959  23.168  24.379  1.00  0.00     0.121 C 
BRANCH  10  13
ATOM     13  C   UNL A   1      31.981  23.883  26.507  1.00  0.00     0.246 C 
ATOM     14  O   UNL A   1      31.344  23.648  27.534  1.00  0.00    -0.270 OA
BRANCH  13  15
ATOM     15  C   UNL A   1      32.040  25.294  26.029  1.00  0.00     0.072 C 
ATOM     16  C   UNL A   1      30.979  26.068  25.756  1.00  0.00     0.014 C 
BRANCH  16  17
ATOM     17  C   UNL A   1      31.094  27.482  25.386  1.00  0.00    -0.024 A 
ATOM     18  C   UNL A   1      31.711  28.399  26.251  1.00  0.00     0.008 A 
ATOM     19  C   UNL A   1      30.530  27.939  24.194  1.00  0.00     0.023 A 
ATOM     20  C   UNL A   1      31.741  29.760  25.937  1.00  0.00     0.002 A 
ATOM     21  C   UNL A   1      30.554  29.302  23.893  1.00  0.00     0.018 A 
ATOM     22  C   UNL A   1      31.152  30.215  24.760  1.00  0.00     0.016 A 
ATOM     23  Br  UNL A   1      29.736  29.918  22.303  1.00  0.00    -0.051 Br
ENDBRANCH  16  17
ENDBRANCH  13  15
ENDBRANCH  10  13
ENDBRANCH   4   7
ENDBRANCH   2   3
ENDBRANCH   1   2
BRANCH   1  24
ATOM     24  C   UNL A   1      38.846  20.170  25.663  1.00  0.00     0.118 C 
BRANCH  24  25
ATOM     25  N   UNL A   1      39.936  19.260  25.961  1.00  0.00    -0.352 N 
ATOM     26  C   UNL A   1      41.269  19.533  26.159  1.00  0.00     0.251 C 
ATOM     27  H   UNL A   1      39.685  18.311  26.031  1.00  0.00     0.163 HD
ATOM     28  O   UNL A   1      42.078  18.610  26.097  1.00  0.00    -0.269 OA
BRANCH  26  29
ATOM     29  C   UNL A   1      41.740  20.912  26.438  1.00  0.00     0.039 A 
ATOM     30  C   UNL A   1      41.818  21.343  27.767  1.00  0.00     0.014 A 
ATOM     31  C   UNL A   1      42.035  21.809  25.408  1.00  0.00     0.014 A 
ATOM     32  C   UNL A   1      42.221  22.653  28.057  1.00  0.00     0.010 A 
ATOM     33  C   UNL A   1      42.526  23.081  25.701  1.00  0.00     0.010 A 
ATOM     34  C   UNL A   1      42.596  23.530  27.026  1.00  0.00    -0.014 A 
BRANCH  34  35
ATOM     35  C   UNL A   1      43.024  24.926  27.309  1.00  0.00     0.031 A 
ATOM     36  C   UNL A   1      42.065  25.898  27.950  1.00  0.00     0.074 A 
ATOM     37  C   UNL A   1      44.246  25.348  26.928  1.00  0.00     0.049 A 
ATOM     38  N   UNL A   1      42.231  27.167  28.220  1.00  0.00    -0.248 NA
ATOM     39  C   UNL A   1      40.731  25.383  28.309  1.00  0.00     0.031 C 
ATOM     40  C   UNL A   1      45.244  24.532  26.232  1.00  0.00     0.029 A 
ATOM     41  N   UNL A   1      44.850  26.575  27.049  1.00  0.00    -0.354 N 
ATOM     42  C   UNL A   1      41.018  27.610  28.737  1.00  0.00     0.074 A 
ATOM     43  C   UNL A   1      40.112  26.484  28.710  1.00  0.00     0.031 C 
ATOM     44  C   UNL A   1      46.335  25.277  25.995  1.00  0.00     0.029 A 
ATOM     45  C   UNL A   1      46.107  26.631  26.495  1.00  0.00     0.049 A 
ATOM     46  H   UNL A   1      44.422  27.344  27.490  1.00  0.00     0.167 HD
ATOM     47  C   UNL A   1      40.694  28.832  29.225  1.00  0.00     0.034 A 
ATOM     48  C   UNL A   1      46.979  27.654  26.397  1.00  0.00     0.034 A 
ATOM     49  C   UNL A   1      41.613  29.935  29.308  1.00  0.00     0.049 A 
ATOM     50  C   UNL A   1      46.613  28.988  26.991  1.00  0.00     0.074 A 
ATOM     51  C   UNL A   1      41.409  31.184  29.868  1.00  0.00     0.029 A 
ATOM     52  N   UNL A   1      42.909  29.923  28.819  1.00  0.00    -0.354 N 
ATOM     53  N   UNL A   1      45.515  29.340  27.613  1.00  0.00    -0.248 NA
ATOM     54  C   UNL A   1      47.622  30.053  26.903  1.00  0.00     0.031 C 
ATOM     55  C   UNL A   1      42.579  31.933  29.703  1.00  0.00     0.029 A 
ATOM     56  C   UNL A   1      43.517  31.143  29.059  1.00  0.00     0.049 A 
ATOM     57  H   UNL A   1      43.336  29.158  28.368  1.00  0.00     0.167 HD
ATOM     58  C   UNL A   1      45.714  30.654  28.022  1.00  0.00     0.074 A 
ATOM     59  C   UNL A   1      47.047  31.028  27.595  1.00  0.00     0.031 C 
ATOM     60  C   UNL A   1      44.864  31.482  28.679  1.00  0.00     0.034 A 
BRANCH  47  61
ATOM     61  C   UNL A   1      39.300  29.024  29.767  1.00  0.00     0.023 A 
ATOM     62  C   UNL A   1      39.020  28.666  31.102  1.00  0.00     0.012 A 
ATOM     63  C   UNL A   1      38.287  29.609  28.983  1.00  0.00     0.148 A 
ATOM     64  C   UNL A   1      37.746  28.852  31.636  1.00  0.00     0.002 A 
ATOM     65  C   UNL A   1      37.031  29.832  29.535  1.00  0.00     0.091 A 
ATOM     66  F   UNL A   1      38.565  29.925  27.709  1.00  0.00    -0.205 F 
ATOM     67  C   UNL A   1      36.756  29.444  30.857  1.00  0.00     0.022 A 
BRANCH  65  68
ATOM     68  S   UNL A   1      35.711  30.660  28.641  1.00  0.00     0.127 S 
ATOM     69  O   UNL A   1      36.467  31.494  27.708  1.00  0.00    -0.237 OA
ATOM     70  O   UNL A   1      35.006  29.538  28.023  1.00  0.00    -0.237 OA
ATOM     71  O   UNL A   1      34.941  31.384  29.643  1.00  0.00    -0.744 OA
ENDBRANCH  65  68
ENDBRANCH  47  61
BRANCH  48  72
ATOM     72  C   UNL A   1      48.314  27.436  25.772  1.00  0.00     0.023 A 
ATOM     73  C   UNL A   1      49.404  27.064  26.583  1.00  0.00     0.012 A 
ATOM     74  C   UNL A   1      48.504  27.566  24.383  1.00  0.00     0.148 A 
ATOM     75  C   UNL A   1      50.665  26.854  26.025  1.00  0.00     0.002 A 
ATOM     76  C   UNL A   1      49.750  27.302  23.827  1.00  0.00     0.091 A 
ATOM     77  F   UNL A   1      47.457  27.935  23.630  1.00  0.00    -0.205 F 
ATOM     78  C   UNL A   1      50.837  26.961  24.648  1.00  0.00     0.022 A 
BRANCH  76  79
ATOM     79  S   UNL A   1      50.027  27.286  22.053  1.00  0.00     0.127 S 
ATOM     80  O   UNL A   1      49.013  26.338  21.600  1.00  0.00    -0.237 OA
ATOM     81  O   UNL A   1      49.776  28.681  21.695  1.00  0.00    -0.237 OA
ATOM     82  O   UNL A   1      51.413  26.864  21.879  1.00  0.00    -0.744 OA
ENDBRANCH  76  79
ENDBRANCH  48  72
BRANCH  60  83
ATOM     83  C   UNL A   1      45.354  32.866  29.015  1.00  0.00     0.023 A 
ATOM     84  C   UNL A   1      46.096  33.080  30.192  1.00  0.00     0.012 A 
ATOM     85  C   UNL A   1      45.147  33.938  28.124  1.00  0.00     0.148 A 
ATOM     86  C   UNL A   1      46.599  34.344  30.495  1.00  0.00     0.002 A 
ATOM     87  C   UNL A   1      45.691  35.184  28.407  1.00  0.00     0.091 A 
ATOM     88  F   UNL A   1      44.421  33.719  27.017  1.00  0.00    -0.205 F 
ATOM     89  C   UNL A   1      46.406  35.393  29.597  1.00  0.00     0.022 A 
BRANCH  87  90
ATOM     90  S   UNL A   1      45.576  36.566  27.264  1.00  0.00     0.127 S 
ATOM     91  O   UNL A   1      46.171  37.649  28.045  1.00  0.00    -0.237 OA
ATOM     92  O   UNL A   1      46.390  36.107  26.138  1.00  0.00    -0.237 OA
ATOM     93  O   UNL A   1      44.159  36.718  26.961  1.00  0.00    -0.744 OA
ENDBRANCH  87  90
ENDBRANCH  60  83
ENDBRANCH  34  35
ENDBRANCH  26  29
ENDBRANCH  24  25
ENDBRANCH   1  24
TORSDOF 16
ENDMDL
MODEL 2
REMARK VINA RESULT:     -12.4      5.718      9.011
REMARK SMILES C[C@@H]1[C@H](C(=O)NCCCNC(=O)c2ccc(-c3c4nc(c(-c5cccc(S(=O)(=O)[O-])c5F)c5ccc([nH]5)c(-c5cccc(S(=O)(=O)[O-])c5F)c5nc(c(-c6cccc(S(=O)(=O)[O-])c6F)c6ccc3[nH]6)C=C5)C=C4)cc2)CCN1C(=O)/C=C/c1cccc(Br)c1
REMARK SMILES IDX 8 1 7 2 6 3 4 4 5 5 3 7 1 8 2 9 78 10 76 11 77 12 79 13
REMARK SMILES IDX 80 14 81 15 82 16 83 17 84 18 89 19 85 20 87 21 86 22 88 23
REMARK SMILES IDX 9 24 10 25 11 26 12 28 13 29 14 30 75 31 15 32 74 33 16 34
REMARK SMILES IDX 17 35 18 36 68 37 19 38 73 39 67 40 69 41 20 42 72 43 66 44
REMARK SMILES IDX 65 45 21 47 53 48 33 49 52 50 34 51 37 52 51 53 70 54 35 55
REMARK SMILES IDX 36 56 50 58 71 59 38 60 22 61 23 62 31 63 24 64 26 65 32 66
REMARK SMILES IDX 25 67 27 68 28 69 29 70 30 71 54 72 55 73 63 74 56 75 58 76
REMARK SMILES IDX 64 77 57 78 59 79 60 80 61 81 62 82 39 83 40 84 48 85 41 86
REMARK SMILES IDX 43 87 49 88 42 89 44 90 45 91 46 92 47 93
REMARK H PARENT 6 6 10 27 69 46 37 57
REMARK Flexibility Score: inf
ROOT
ATOM      1  C   UNL A   1      33.491  29.176  23.953  1.00  0.00     0.042 C 
ENDROOT
BRANCH   1   2
ATOM      2  C   UNL A   1      32.468  28.885  22.854  1.00  0.00     0.117 C 
BRANCH   2   3
ATOM      3  N   UNL A   1      32.881  27.840  21.926  1.00  0.00    -0.356 N 
ATOM      4  C   UNL A   1      32.693  26.500  21.850  1.00  0.00     0.225 C 
ATOM      5  O   UNL A   1      33.183  25.951  20.854  1.00  0.00    -0.275 OA
ATOM      6  H   UNL A   1      33.423  28.189  21.181  1.00  0.00     0.163 HD
BRANCH   4   7
ATOM      7  C   UNL A   1      31.984  25.633  22.882  1.00  0.00     0.102 C 
ATOM      8  C   UNL A   1      34.005  25.783  24.472  1.00  0.00     0.032 C 
ATOM      9  C   UNL A   1      32.861  24.946  23.941  1.00  0.00     0.094 C 
ATOM     10  N   UNL A   1      31.920  24.594  25.012  1.00  0.00    -0.336 N 
ATOM     11  C   UNL A   1      30.796  26.198  23.646  1.00  0.00     0.037 C 
ATOM     12  C   UNL A   1      30.619  25.212  24.795  1.00  0.00     0.121 C 
BRANCH  10  13
ATOM     13  C   UNL A   1      32.114  23.806  26.131  1.00  0.00     0.246 C 
ATOM     14  O   UNL A   1      31.684  24.132  27.238  1.00  0.00    -0.270 OA
BRANCH  13  15
ATOM     15  C   UNL A   1      32.977  22.593  26.046  1.00  0.00     0.072 C 
ATOM     16  C   UNL A   1      32.950  21.687  25.058  1.00  0.00     0.014 C 
BRANCH  16  17
ATOM     17  C   UNL A   1      33.891  20.566  24.975  1.00  0.00    -0.024 A 
ATOM     18  C   UNL A   1      35.266  20.772  25.166  1.00  0.00     0.008 A 
ATOM     19  C   UNL A   1      33.431  19.292  24.637  1.00  0.00     0.023 A 
ATOM     20  C   UNL A   1      36.171  19.721  24.998  1.00  0.00     0.002 A 
ATOM     21  C   UNL A   1      34.343  18.250  24.461  1.00  0.00     0.018 A 
ATOM     22  C   UNL A   1      35.710  18.459  24.635  1.00  0.00     0.016 A 
ATOM     23  Br  UNL A   1      33.713  16.542  23.947  1.00  0.00    -0.051 Br
ENDBRANCH  16  17
ENDBRANCH  13  15
ENDBRANCH  10  13
ENDBRANCH   4   7
ENDBRANCH   2   3
ENDBRANCH   1   2
BRANCH   1  24
ATOM     24  C   UNL A   1      32.925  29.208  25.362  1.00  0.00     0.118 C 
BRANCH  24  25
ATOM     25  N   UNL A   1      32.561  30.556  25.756  1.00  0.00    -0.352 N 
ATOM     26  C   UNL A   1      32.977  31.288  26.843  1.00  0.00     0.251 C 
ATOM     27  H   UNL A   1      31.925  31.012  25.159  1.00  0.00     0.163 HD
ATOM     28  O   UNL A   1      32.333  32.282  27.169  1.00  0.00    -0.269 OA
BRANCH  26  29
ATOM     29  C   UNL A   1      34.178  30.895  27.622  1.00  0.00     0.039 A 
ATOM     30  C   UNL A   1      35.188  31.841  27.829  1.00  0.00     0.014 A 
ATOM     31  C   UNL A   1      34.354  29.590  28.090  1.00  0.00     0.014 A 
ATOM     32  C   UNL A   1      36.350  31.485  28.526  1.00  0.00     0.010 A 
ATOM     33  C   UNL A   1      35.466  29.264  28.864  1.00  0.00     0.010 A 
ATOM     34  C   UNL A   1      36.492  30.197  29.066  1.00  0.00    -0.014 A 
BRANCH  34  35
ATOM     35  C   UNL A   1      37.718  29.795  29.808  1.00  0.00     0.031 A 
ATOM     36  C   UNL A   1      37.977  30.334  31.193  1.00  0.00     0.074 A 
ATOM     37  C   UNL A   1      38.636  29.006  29.216  1.00  0.00     0.049 A 
ATOM     38  N   UNL A   1      39.012  30.150  31.971  1.00  0.00    -0.248 NA
ATOM     39  C   UNL A   1      36.950  31.222  31.768  1.00  0.00     0.031 C 
ATOM     40  C   UNL A   1      38.545  28.477  27.853  1.00  0.00     0.029 A 
ATOM     41  N   UNL A   1      39.840  28.531  29.675  1.00  0.00    -0.354 N 
ATOM     42  C   UNL A   1      38.783  30.927  33.102  1.00  0.00     0.074 A 
ATOM     43  C   UNL A   1      37.528  31.614  32.895  1.00  0.00     0.031 C 
ATOM     44  C   UNL A   1      39.640  27.745  27.591  1.00  0.00     0.029 A 
ATOM     45  C   UNL A   1      40.525  27.776  28.752  1.00  0.00     0.049 A 
ATOM     46  H   UNL A   1      40.181  28.714  30.580  1.00  0.00     0.167 HD
ATOM     47  C   UNL A   1      39.528  31.033  34.229  1.00  0.00     0.034 A 
ATOM     48  C   UNL A   1      41.730  27.176  28.830  1.00  0.00     0.034 A 
ATOM     49  C   UNL A   1      40.745  30.303  34.462  1.00  0.00     0.049 A 
ATOM     50  C   UNL A   1      42.515  27.270  30.110  1.00  0.00     0.074 A 
ATOM     51  C   UNL A   1      41.524  30.273  35.604  1.00  0.00     0.029 A 
ATOM     52  N   UNL A   1      41.359  29.475  33.536  1.00  0.00    -0.354 N 
ATOM     53  N   UNL A   1      42.205  27.887  31.224  1.00  0.00    -0.248 NA
ATOM     54  C   UNL A   1      43.798  26.553  30.157  1.00  0.00     0.031 C 
ATOM     55  C   UNL A   1      42.620  29.438  35.363  1.00  0.00     0.029 A 
ATOM     56  C   UNL A   1      42.511  28.932  34.078  1.00  0.00     0.049 A 
ATOM     57  H   UNL A   1      41.025  29.299  32.626  1.00  0.00     0.167 HD
ATOM     58  C   UNL A   1      43.234  27.603  32.115  1.00  0.00     0.074 A 
ATOM     59  C   UNL A   1      44.166  26.742  31.418  1.00  0.00     0.031 C 
ATOM     60  C   UNL A   1      43.400  28.030  33.391  1.00  0.00     0.034 A 
BRANCH  47  61
ATOM     61  C   UNL A   1      39.014  31.929  35.327  1.00  0.00     0.023 A 
ATOM     62  C   UNL A   1      39.114  33.329  35.184  1.00  0.00     0.012 A 
ATOM     63  C   UNL A   1      38.383  31.397  36.468  1.00  0.00     0.148 A 
ATOM     64  C   UNL A   1      38.629  34.182  36.174  1.00  0.00     0.002 A 
ATOM     65  C   UNL A   1      37.863  32.254  37.431  1.00  0.00     0.091 A 
ATOM     66  F   UNL A   1      38.315  30.063  36.598  1.00  0.00    -0.205 F 
ATOM     67  C   UNL A   1      37.995  33.646  37.290  1.00  0.00     0.022 A 
BRANCH  65  68
ATOM     68  S   UNL A   1      36.957  31.665  38.867  1.00  0.00     0.127 S 
ATOM     69  O   UNL A   1      35.820  32.584  38.893  1.00  0.00    -0.237 OA
ATOM     70  O   UNL A   1      36.626  30.294  38.481  1.00  0.00    -0.237 OA
ATOM     71  O   UNL A   1      37.875  31.775  39.991  1.00  0.00    -0.744 OA
ENDBRANCH  65  68
ENDBRANCH  47  61
BRANCH  48  72
ATOM     72  C   UNL A   1      42.235  26.372  27.681  1.00  0.00     0.023 A 
ATOM     73  C   UNL A   1      43.129  26.962  26.766  1.00  0.00     0.012 A 
ATOM     74  C   UNL A   1      41.861  25.026  27.506  1.00  0.00     0.148 A 
ATOM     75  C   UNL A   1      43.619  26.234  25.681  1.00  0.00     0.002 A 
ATOM     76  C   UNL A   1      42.395  24.291  26.455  1.00  0.00     0.091 A 
ATOM     77  F   UNL A   1      40.998  24.488  28.380  1.00  0.00    -0.205 F 
ATOM     78  C   UNL A   1      43.261  24.897  25.531  1.00  0.00     0.022 A 
BRANCH  76  79
ATOM     79  S   UNL A   1      42.095  22.531  26.263  1.00  0.00     0.127 S 
ATOM     80  O   UNL A   1      42.808  22.239  25.023  1.00  0.00    -0.237 OA
ATOM     81  O   UNL A   1      42.707  21.985  27.473  1.00  0.00    -0.237 OA
ATOM     82  O   UNL A   1      40.644  22.387  26.209  1.00  0.00    -0.744 OA
ENDBRANCH  76  79
ENDBRANCH  48  72
BRANCH  60  83
ATOM     83  C   UNL A   1      44.615  27.548  34.139  1.00  0.00     0.023 A 
ATOM     84  C   UNL A   1      45.795  28.317  34.128  1.00  0.00     0.012 A 
ATOM     85  C   UNL A   1      44.561  26.375  34.917  1.00  0.00     0.148 A 
ATOM     86  C   UNL A   1      46.914  27.910  34.854  1.00  0.00     0.002 A 
ATOM     87  C   UNL A   1      45.662  26.000  35.676  1.00  0.00     0.091 A 
ATOM     88  F   UNL A   1      43.435  25.646  34.900  1.00  0.00    -0.205 F 
ATOM     89  C   UNL A   1      46.844  26.759  35.636  1.00  0.00     0.022 A 
BRANCH  87  90
ATOM     90  S   UNL A   1      45.630  24.589  36.788  1.00  0.00     0.127 S 
ATOM     91  O   UNL A   1      45.330  23.492  35.869  1.00  0.00    -0.237 OA
ATOM     92  O   UNL A   1      46.991  24.582  37.323  1.00  0.00    -0.237 OA
ATOM     93  O   UNL A   1      44.597  24.879  37.773  1.00  0.00    -0.744 OA
ENDBRANCH  87  90
ENDBRANCH  60  83
ENDBRANCH  34  35
ENDBRANCH  26  29
ENDBRANCH  24  25
ENDBRANCH   1  24
TORSDOF 16
ENDMDL
MODEL 3
REMARK VINA RESULT:     -12.4      6.566     11.878
REMARK SMILES C[C@@H]1[C@H](C(=O)NCCCNC(=O)c2ccc(-c3c4nc(c(-c5cccc(S(=O)(=O)[O-])c5F)c5ccc([nH]5)c(-c5cccc(S(=O)(=O)[O-])c5F)c5nc(c(-c6cccc(S(=O)(=O)[O-])c6F)c6ccc3[nH]6)C=C5)C=C4)cc2)CCN1C(=O)/C=C/c1cccc(Br)c1
REMARK SMILES IDX 8 1 7 2 6 3 4 4 5 5 3 7 1 8 2 9 78 10 76 11 77 12 79 13
REMARK SMILES IDX 80 14 81 15 82 16 83 17 84 18 89 19 85 20 87 21 86 22 88 23
REMARK SMILES IDX 9 24 10 25 11 26 12 28 13 29 14 30 75 31 15 32 74 33 16 34
REMARK SMILES IDX 17 35 18 36 68 37 19 38 73 39 67 40 69 41 20 42 72 43 66 44
REMARK SMILES IDX 65 45 21 47 53 48 33 49 52 50 34 51 37 52 51 53 70 54 35 55
REMARK SMILES IDX 36 56 50 58 71 59 38 60 22 61 23 62 31 63 24 64 26 65 32 66
REMARK SMILES IDX 25 67 27 68 28 69 29 70 30 71 54 72 55 73 63 74 56 75 58 76
REMARK SMILES IDX 64 77 57 78 59 79 60 80 61 81 62 82 39 83 40 84 48 85 41 86
REMARK SMILES IDX 43 87 49 88 42 89 44 90 45 91 46 92 47 93
REMARK H PARENT 6 6 10 27 69 46 37 57
REMARK Flexibility Score: inf
ROOT
ATOM      1  C   UNL A   1      31.401  32.294  26.564  1.00  0.00     0.042 C 
ENDROOT
BRANCH   1   2
ATOM      2  C   UNL A   1      31.427  30.808  26.206  1.00  0.00     0.117 C 
BRANCH   2   3
ATOM      3  N   UNL A   1      32.398  30.034  26.970  1.00  0.00    -0.356 N 
ATOM      4  C   UNL A   1      33.349  29.121  26.658  1.00  0.00     0.225 C 
ATOM      5  O   UNL A   1      34.023  28.709  27.612  1.00  0.00    -0.275 OA
ATOM      6  H   UNL A   1      32.351  30.218  27.936  1.00  0.00     0.163 HD
BRANCH   4   7
ATOM      7  C   UNL A   1      33.624  28.547  25.274  1.00  0.00     0.102 C 
ATOM      8  C   UNL A   1      31.858  26.706  25.632  1.00  0.00     0.032 C 
ATOM      9  C   UNL A   1      33.186  27.096  25.019  1.00  0.00     0.094 C 
ATOM     10  N   UNL A   1      33.147  26.985  23.556  1.00  0.00    -0.336 N 
ATOM     11  C   UNL A   1      33.189  29.323  24.041  1.00  0.00     0.037 C 
ATOM     12  C   UNL A   1      33.290  28.290  22.924  1.00  0.00     0.121 C 
BRANCH  10  13
ATOM     13  C   UNL A   1      32.990  25.865  22.760  1.00  0.00     0.246 C 
ATOM     14  O   UNL A   1      32.404  25.913  21.678  1.00  0.00    -0.270 OA
BRANCH  13  15
ATOM     15  C   UNL A   1      33.416  24.529  23.266  1.00  0.00     0.072 C 
ATOM     16  C   UNL A   1      34.684  24.133  23.446  1.00  0.00     0.014 C 
BRANCH  16  17
ATOM     17  C   UNL A   1      35.043  22.843  24.042  1.00  0.00    -0.024 A 
ATOM     18  C   UNL A   1      36.384  22.527  24.307  1.00  0.00     0.008 A 
ATOM     19  C   UNL A   1      34.054  21.889  24.289  1.00  0.00     0.023 A 
ATOM     20  C   UNL A   1      36.733  21.264  24.792  1.00  0.00     0.002 A 
ATOM     21  C   UNL A   1      34.411  20.626  24.763  1.00  0.00     0.018 A 
ATOM     22  C   UNL A   1      35.745  20.306  25.011  1.00  0.00     0.016 A 
ATOM     23  Br  UNL A   1      33.069  19.322  25.040  1.00  0.00    -0.051 Br
ENDBRANCH  16  17
ENDBRANCH  13  15
ENDBRANCH  10  13
ENDBRANCH   4   7
ENDBRANCH   2   3
ENDBRANCH   1   2
BRANCH   1  24
ATOM     24  C   UNL A   1      32.687  32.828  27.171  1.00  0.00     0.118 C 
BRANCH  24  25
ATOM     25  N   UNL A   1      32.533  34.201  27.614  1.00  0.00    -0.352 N 
ATOM     26  C   UNL A   1      33.072  34.827  28.713  1.00  0.00     0.251 C 
ATOM     27  H   UNL A   1      31.960  34.765  27.046  1.00  0.00     0.163 HD
ATOM     28  O   UNL A   1      32.587  35.894  29.085  1.00  0.00    -0.269 OA
BRANCH  26  29
ATOM     29  C   UNL A   1      34.215  34.236  29.453  1.00  0.00     0.039 A 
ATOM     30  C   UNL A   1      35.516  34.500  29.009  1.00  0.00     0.014 A 
ATOM     31  C   UNL A   1      34.021  33.369  30.532  1.00  0.00     0.014 A 
ATOM     32  C   UNL A   1      36.611  33.923  29.664  1.00  0.00     0.010 A 
ATOM     33  C   UNL A   1      35.114  32.872  31.240  1.00  0.00     0.010 A 
ATOM     34  C   UNL A   1      36.421  33.117  30.799  1.00  0.00    -0.014 A 
BRANCH  34  35
ATOM     35  C   UNL A   1      37.569  32.490  31.509  1.00  0.00     0.031 A 
ATOM     36  C   UNL A   1      38.326  31.354  30.870  1.00  0.00     0.074 A 
ATOM     37  C   UNL A   1      37.888  32.888  32.757  1.00  0.00     0.049 A 
ATOM     38  N   UNL A   1      39.312  30.642  31.354  1.00  0.00    -0.248 NA
ATOM     39  C   UNL A   1      37.903  30.942  29.520  1.00  0.00     0.031 C 
ATOM     40  C   UNL A   1      37.189  33.925  33.519  1.00  0.00     0.029 A 
ATOM     41  N   UNL A   1      38.867  32.452  33.614  1.00  0.00    -0.354 N 
ATOM     42  C   UNL A   1      39.596  29.678  30.393  1.00  0.00     0.074 A 
ATOM     43  C   UNL A   1      38.655  29.871  29.311  1.00  0.00     0.031 C 
ATOM     44  C   UNL A   1      37.766  34.049  34.726  1.00  0.00     0.029 A 
ATOM     45  C   UNL A   1      38.856  33.083  34.836  1.00  0.00     0.049 A 
ATOM     46  H   UNL A   1      39.517  31.751  33.377  1.00  0.00     0.167 HD
ATOM     47  C   UNL A   1      40.572  28.739  30.388  1.00  0.00     0.034 A 
ATOM     48  C   UNL A   1      39.632  32.906  35.923  1.00  0.00     0.034 A 
ATOM     49  C   UNL A   1      41.547  28.586  31.435  1.00  0.00     0.049 A 
ATOM     50  C   UNL A   1      40.741  31.889  35.874  1.00  0.00     0.074 A 
ATOM     51  C   UNL A   1      42.629  27.726  31.483  1.00  0.00     0.029 A 
ATOM     52  N   UNL A   1      41.557  29.309  32.617  1.00  0.00    -0.354 N 
ATOM     53  N   UNL A   1      41.087  31.093  34.893  1.00  0.00    -0.248 NA
ATOM     54  C   UNL A   1      41.590  31.775  37.068  1.00  0.00     0.031 C 
ATOM     55  C   UNL A   1      43.286  27.918  32.703  1.00  0.00     0.029 A 
ATOM     56  C   UNL A   1      42.623  28.912  33.405  1.00  0.00     0.049 A 
ATOM     57  H   UNL A   1      40.902  30.002  32.861  1.00  0.00     0.167 HD
ATOM     58  C   UNL A   1      42.215  30.410  35.336  1.00  0.00     0.074 A 
ATOM     59  C   UNL A   1      42.505  30.902  36.667  1.00  0.00     0.031 C 
ATOM     60  C   UNL A   1      42.935  29.451  34.704  1.00  0.00     0.034 A 
BRANCH  47  61
ATOM     61  C   UNL A   1      40.676  27.840  29.182  1.00  0.00     0.023 A 
ATOM     62  C   UNL A   1      39.856  26.695  29.098  1.00  0.00     0.012 A 
ATOM     63  C   UNL A   1      41.534  28.153  28.110  1.00  0.00     0.148 A 
ATOM     64  C   UNL A   1      39.915  25.857  27.986  1.00  0.00     0.002 A 
ATOM     65  C   UNL A   1      41.556  27.337  26.985  1.00  0.00     0.091 A 
ATOM     66  F   UNL A   1      42.322  29.234  28.216  1.00  0.00    -0.205 F 
ATOM     67  C   UNL A   1      40.757  26.184  26.926  1.00  0.00     0.022 A 
BRANCH  65  68
ATOM     68  S   UNL A   1      42.546  27.713  25.533  1.00  0.00     0.127 S 
ATOM     69  O   UNL A   1      42.304  26.536  24.700  1.00  0.00    -0.237 OA
ATOM     70  O   UNL A   1      41.924  28.944  25.046  1.00  0.00    -0.237 OA
ATOM     71  O   UNL A   1      43.913  27.871  26.010  1.00  0.00    -0.744 OA
ENDBRANCH  65  68
ENDBRANCH  47  61
BRANCH  48  72
ATOM     72  C   UNL A   1      39.432  33.762  37.127  1.00  0.00     0.023 A 
ATOM     73  C   UNL A   1      39.910  35.086  37.119  1.00  0.00     0.012 A 
ATOM     74  C   UNL A   1      38.750  33.283  38.262  1.00  0.00     0.148 A 
ATOM     75  C   UNL A   1      39.738  35.911  38.231  1.00  0.00     0.002 A 
ATOM     76  C   UNL A   1      38.534  34.127  39.345  1.00  0.00     0.091 A 
ATOM     77  F   UNL A   1      38.316  32.015  38.255  1.00  0.00    -0.205 F 
ATOM     78  C   UNL A   1      39.041  35.436  39.339  1.00  0.00     0.022 A 
BRANCH  76  79
ATOM     79  S   UNL A   1      37.534  33.642  40.756  1.00  0.00     0.127 S 
ATOM     80  O   UNL A   1      38.383  32.641  41.395  1.00  0.00    -0.237 OA
ATOM     81  O   UNL A   1      37.407  34.904  41.485  1.00  0.00    -0.237 OA
ATOM     82  O   UNL A   1      36.282  33.148  40.194  1.00  0.00    -0.744 OA
ENDBRANCH  76  79
ENDBRANCH  48  72
BRANCH  60  83
ATOM     83  C   UNL A   1      44.133  28.888  35.421  1.00  0.00     0.023 A 
ATOM     84  C   UNL A   1      45.404  29.460  35.216  1.00  0.00     0.012 A 
ATOM     85  C   UNL A   1      43.987  27.846  36.358  1.00  0.00     0.148 A 
ATOM     86  C   UNL A   1      46.516  28.983  35.908  1.00  0.00     0.002 A 
ATOM     87  C   UNL A   1      45.090  27.408  37.079  1.00  0.00     0.091 A 
ATOM     88  F   UNL A   1      42.772  27.302  36.526  1.00  0.00    -0.205 F 
ATOM     89  C   UNL A   1      46.358  27.966  36.847  1.00  0.00     0.022 A 
BRANCH  87  90
ATOM     90  S   UNL A   1      44.962  26.171  38.377  1.00  0.00     0.127 S 
ATOM     91  O   UNL A   1      46.339  26.106  38.863  1.00  0.00    -0.237 OA
ATOM     92  O   UNL A   1      44.016  26.791  39.305  1.00  0.00    -0.237 OA
ATOM     93  O   UNL A   1      44.468  24.963  37.731  1.00  0.00    -0.744 OA
ENDBRANCH  87  90
ENDBRANCH  60  83
ENDBRANCH  34  35
ENDBRANCH  26  29
ENDBRANCH  24  25
ENDBRANCH   1  24
TORSDOF 16
ENDMDL
