MODEL 1
REMARK VINA RESULT:     -13.1      0.000      0.000
REMARK SMILES CC(C)Cc1cc2c(cc1Cl)C=C(C(=O)NCCCNC(=O)c1ccc(-c3c4nc(c(-c5cccc(S(=O)(=O)[O-])c5F)c5ccc([nH]5)c(-c5cccc(S(=O)(=O)[O-])c5F)c5nc(c(-c6cccc(S(=O)(=O)[O-])c6F)c6ccc3[nH]6)C=C5)C=C4)cc1)[C@H](C(F)(F)F)O2
REMARK SMILES IDX 18 1 17 2 16 3 14 4 15 5 13 7 5 8 6 9 10 10 7 11 9 12 11 13
REMARK SMILES IDX 8 14 91 15 12 16 86 17 4 18 2 19 1 20 3 21 87 22 88 23 89 24
REMARK SMILES IDX 90 25 19 26 20 27 21 28 22 30 23 31 24 32 85 33 25 34 84 35
REMARK SMILES IDX 26 36 27 37 28 38 78 39 29 40 83 41 77 42 79 43 30 44 82 45
REMARK SMILES IDX 76 46 75 47 31 49 63 50 43 51 62 52 44 53 47 54 61 55 80 56
REMARK SMILES IDX 45 57 46 58 60 60 81 61 48 62 32 63 33 64 41 65 34 66 36 67
REMARK SMILES IDX 42 68 35 69 37 70 38 71 39 72 40 73 64 74 65 75 73 76 66 77
REMARK SMILES IDX 68 78 74 79 67 80 69 81 70 82 71 83 72 84 49 85 50 86 58 87
REMARK SMILES IDX 51 88 53 89 59 90 52 91 54 92 55 93 56 94 57 95
REMARK H PARENT 16 6 20 29 79 48 47 59
REMARK Flexibility Score: inf
ROOT
ATOM      1  C   UNL A   1      36.076  21.680  24.250  1.00  0.00     0.042 C 
ENDROOT
BRANCH   1   2
ATOM      2  C   UNL A   1      34.696  21.231  24.715  1.00  0.00     0.118 C 
BRANCH   2   3
ATOM      3  N   UNL A   1      34.558  21.329  26.159  1.00  0.00    -0.352 N 
ATOM      4  C   UNL A   1      33.917  22.133  27.036  1.00  0.00     0.251 C 
ATOM      5  O   UNL A   1      33.999  21.794  28.221  1.00  0.00    -0.270 OA
ATOM      6  H   UNL A   1      35.068  20.624  26.619  1.00  0.00     0.163 HD
BRANCH   4   7
ATOM      7  C   UNL A   1      33.137  23.350  26.671  1.00  0.00     0.067 C 
ATOM      8  C   UNL A   1      31.748  27.772  24.675  1.00  0.00    -0.025 A 
ATOM      9  C   UNL A   1      31.138  26.838  25.529  1.00  0.00     0.052 A 
ATOM     10  C   UNL A   1      33.088  27.566  24.309  1.00  0.00     0.045 A 
ATOM     11  C   UNL A   1      31.829  25.708  25.956  1.00  0.00     0.128 A 
ATOM     12  C   UNL A   1      33.779  26.429  24.744  1.00  0.00     0.032 A 
ATOM     13  Cl  UNL A   1      33.956  28.699  23.334  1.00  0.00    -0.084 Cl
ATOM     14  C   UNL A   1      33.145  25.491  25.562  1.00  0.00     0.019 A 
ATOM     15  O   UNL A   1      31.156  24.868  26.793  1.00  0.00    -0.475 OA
ATOM     16  C   UNL A   1      33.840  24.302  26.030  1.00  0.00     0.025 C 
ATOM     17  C   UNL A   1      31.653  23.504  26.879  1.00  0.00     0.314 C 
BRANCH   8  18
ATOM     18  C   UNL A   1      30.909  28.919  24.159  1.00  0.00     0.040 C 
BRANCH  18  19
ATOM     19  C   UNL A   1      30.120  28.588  22.874  1.00  0.00    -0.013 C 
ATOM     20  C   UNL A   1      28.741  27.988  23.163  1.00  0.00     0.008 C 
ATOM     21  C   UNL A   1      29.964  29.851  22.026  1.00  0.00     0.008 C 
ENDBRANCH  18  19
ENDBRANCH   8  18
BRANCH  17  22
ATOM     22  C   UNL A   1      30.798  22.586  25.990  1.00  0.00     0.429 C 
ATOM     23  F   UNL A   1      30.514  23.140  24.791  1.00  0.00    -0.167 F 
ATOM     24  F   UNL A   1      31.467  21.432  25.740  1.00  0.00    -0.167 F 
ATOM     25  F   UNL A   1      29.621  22.254  26.564  1.00  0.00    -0.167 F 
ENDBRANCH  17  22
ENDBRANCH   4   7
ENDBRANCH   2   3
ENDBRANCH   1   2
BRANCH   1  26
ATOM     26  C   UNL A   1      36.988  22.059  25.411  1.00  0.00     0.118 C 
BRANCH  26  27
ATOM     27  N   UNL A   1      37.983  21.025  25.679  1.00  0.00    -0.352 N 
ATOM     28  C   UNL A   1      39.281  21.143  26.118  1.00  0.00     0.251 C 
ATOM     29  H   UNL A   1      37.679  20.103  25.522  1.00  0.00     0.163 HD
ATOM     30  O   UNL A   1      40.035  20.175  26.032  1.00  0.00    -0.269 OA
BRANCH  28  31
ATOM     31  C   UNL A   1      39.769  22.428  26.665  1.00  0.00     0.039 A 
ATOM     32  C   UNL A   1      39.286  23.635  26.163  1.00  0.00     0.014 A 
ATOM     33  C   UNL A   1      40.717  22.431  27.692  1.00  0.00     0.014 A 
ATOM     34  C   UNL A   1      39.891  24.827  26.533  1.00  0.00     0.010 A 
ATOM     35  C   UNL A   1      41.240  23.644  28.152  1.00  0.00     0.010 A 
ATOM     36  C   UNL A   1      40.870  24.852  27.540  1.00  0.00    -0.014 A 
BRANCH  36  37
ATOM     37  C   UNL A   1      41.460  26.158  27.939  1.00  0.00     0.031 A 
ATOM     38  C   UNL A   1      42.864  26.534  27.544  1.00  0.00     0.074 A 
ATOM     39  C   UNL A   1      40.695  27.036  28.620  1.00  0.00     0.049 A 
ATOM     40  N   UNL A   1      43.505  27.650  27.774  1.00  0.00    -0.248 NA
ATOM     41  C   UNL A   1      43.655  25.537  26.803  1.00  0.00     0.031 C 
ATOM     42  C   UNL A   1      39.326  26.780  29.079  1.00  0.00     0.029 A 
ATOM     43  N   UNL A   1      40.943  28.322  29.026  1.00  0.00    -0.354 N 
ATOM     44  C   UNL A   1      44.780  27.477  27.250  1.00  0.00     0.074 A 
ATOM     45  C   UNL A   1      44.829  26.145  26.690  1.00  0.00     0.031 C 
ATOM     46  C   UNL A   1      38.837  27.890  29.648  1.00  0.00     0.029 A 
ATOM     47  C   UNL A   1      39.875  28.914  29.657  1.00  0.00     0.049 A 
ATOM     48  H   UNL A   1      41.803  28.779  28.878  1.00  0.00     0.167 HD
ATOM     49  C   UNL A   1      45.810  28.354  27.222  1.00  0.00     0.034 A 
ATOM     50  C   UNL A   1      39.739  30.141  30.198  1.00  0.00     0.034 A 
ATOM     51  C   UNL A   1      45.741  29.699  27.725  1.00  0.00     0.049 A 
ATOM     52  C   UNL A   1      40.893  31.096  30.142  1.00  0.00     0.074 A 
ATOM     53  C   UNL A   1      46.719  30.677  27.683  1.00  0.00     0.029 A 
ATOM     54  N   UNL A   1      44.642  30.255  28.356  1.00  0.00    -0.354 N 
ATOM     55  N   UNL A   1      42.061  30.934  29.573  1.00  0.00    -0.248 NA
ATOM     56  C   UNL A   1      40.710  32.403  30.789  1.00  0.00     0.031 C 
ATOM     57  C   UNL A   1      46.216  31.822  28.306  1.00  0.00     0.029 A 
ATOM     58  C   UNL A   1      44.919  31.561  28.718  1.00  0.00     0.049 A 
ATOM     59  H   UNL A   1      43.789  29.791  28.523  1.00  0.00     0.167 HD
ATOM     60  C   UNL A   1      42.751  32.121  29.780  1.00  0.00     0.074 A 
ATOM     61  C   UNL A   1      41.864  33.001  30.513  1.00  0.00     0.031 C 
ATOM     62  C   UNL A   1      44.012  32.441  29.407  1.00  0.00     0.034 A 
BRANCH  49  63
ATOM     63  C   UNL A   1      47.102  27.922  26.585  1.00  0.00     0.023 A 
ATOM     64  C   UNL A   1      48.126  27.388  27.390  1.00  0.00     0.012 A 
ATOM     65  C   UNL A   1      47.250  27.926  25.183  1.00  0.00     0.148 A 
ATOM     66  C   UNL A   1      49.283  26.868  26.811  1.00  0.00     0.002 A 
ATOM     67  C   UNL A   1      48.392  27.380  24.612  1.00  0.00     0.091 A 
ATOM     68  F   UNL A   1      46.264  28.449  24.441  1.00  0.00    -0.205 F 
ATOM     69  C   UNL A   1      49.411  26.854  25.425  1.00  0.00     0.022 A 
BRANCH  67  70
ATOM     70  S   UNL A   1      48.633  27.261  22.836  1.00  0.00     0.127 S 
ATOM     71  O   UNL A   1      48.316  25.855  22.590  1.00  0.00    -0.237 OA
ATOM     72  O   UNL A   1      47.640  28.208  22.330  1.00  0.00    -0.237 OA
ATOM     73  O   UNL A   1      50.018  27.634  22.589  1.00  0.00    -0.744 OA
ENDBRANCH  67  70
ENDBRANCH  49  63
BRANCH  50  74
ATOM     74  C   UNL A   1      38.436  30.526  30.800  1.00  0.00     0.023 A 
ATOM     75  C   UNL A   1      38.207  30.281  32.167  1.00  0.00     0.012 A 
ATOM     76  C   UNL A   1      37.465  31.216  30.049  1.00  0.00     0.148 A 
ATOM     77  C   UNL A   1      37.030  30.717  32.776  1.00  0.00     0.002 A 
ATOM     78  C   UNL A   1      36.315  31.685  30.671  1.00  0.00     0.091 A 
ATOM     79  F   UNL A   1      37.710  31.436  28.749  1.00  0.00    -0.205 F 
ATOM     80  C   UNL A   1      36.090  31.428  32.033  1.00  0.00     0.022 A 
BRANCH  78  81
ATOM     81  S   UNL A   1      35.102  32.704  29.824  1.00  0.00     0.127 S 
ATOM     82  O   UNL A   1      34.583  31.776  28.821  1.00  0.00    -0.237 OA
ATOM     83  O   UNL A   1      34.173  33.023  30.909  1.00  0.00    -0.237 OA
ATOM     84  O   UNL A   1      35.837  33.846  29.300  1.00  0.00    -0.744 OA
ENDBRANCH  78  81
ENDBRANCH  50  74
BRANCH  62  85
ATOM     85  C   UNL A   1      44.531  33.806  29.759  1.00  0.00     0.023 A 
ATOM     86  C   UNL A   1      45.259  33.981  30.950  1.00  0.00     0.012 A 
ATOM     87  C   UNL A   1      44.425  34.869  28.841  1.00  0.00     0.148 A 
ATOM     88  C   UNL A   1      45.879  35.199  31.224  1.00  0.00     0.002 A 
ATOM     89  C   UNL A   1      45.074  36.068  29.104  1.00  0.00     0.091 A 
ATOM     90  F   UNL A   1      43.721  34.672  27.717  1.00  0.00    -0.205 F 
ATOM     91  C   UNL A   1      45.799  36.236  30.296  1.00  0.00     0.022 A 
BRANCH  89  92
ATOM     92  S   UNL A   1      45.094  37.435  27.939  1.00  0.00     0.127 S 
ATOM     93  O   UNL A   1      45.720  36.820  26.770  1.00  0.00    -0.237 OA
ATOM     94  O   UNL A   1      43.670  37.728  27.786  1.00  0.00    -0.237 OA
ATOM     95  O   UNL A   1      45.872  38.493  28.568  1.00  0.00    -0.744 OA
ENDBRANCH  89  92
ENDBRANCH  62  85
ENDBRANCH  36  37
ENDBRANCH  28  31
ENDBRANCH  26  27
ENDBRANCH   1  26
TORSDOF 16
ENDMDL
MODEL 2
REMARK VINA RESULT:     -13.0      5.402     10.149
REMARK SMILES CC(C)Cc1cc2c(cc1Cl)C=C(C(=O)NCCCNC(=O)c1ccc(-c3c4nc(c(-c5cccc(S(=O)(=O)[O-])c5F)c5ccc([nH]5)c(-c5cccc(S(=O)(=O)[O-])c5F)c5nc(c(-c6cccc(S(=O)(=O)[O-])c6F)c6ccc3[nH]6)C=C5)C=C4)cc1)[C@H](C(F)(F)F)O2
REMARK SMILES IDX 18 1 17 2 16 3 14 4 15 5 13 7 5 8 6 9 10 10 7 11 9 12 11 13
REMARK SMILES IDX 8 14 91 15 12 16 86 17 4 18 2 19 1 20 3 21 87 22 88 23 89 24
REMARK SMILES IDX 90 25 19 26 20 27 21 28 22 30 23 31 24 32 85 33 25 34 84 35
REMARK SMILES IDX 26 36 27 37 28 38 78 39 29 40 83 41 77 42 79 43 30 44 82 45
REMARK SMILES IDX 76 46 75 47 31 49 63 50 43 51 62 52 44 53 47 54 61 55 80 56
REMARK SMILES IDX 45 57 46 58 60 60 81 61 48 62 32 63 33 64 41 65 34 66 36 67
REMARK SMILES IDX 42 68 35 69 37 70 38 71 39 72 40 73 64 74 65 75 73 76 66 77
REMARK SMILES IDX 68 78 74 79 67 80 69 81 70 82 71 83 72 84 49 85 50 86 58 87
REMARK SMILES IDX 51 88 53 89 59 90 52 91 54 92 55 93 56 94 57 95
REMARK H PARENT 16 6 20 29 79 48 47 59
REMARK Flexibility Score: inf
ROOT
ATOM      1  C   UNL A   1      32.017  28.036  25.957  1.00  0.00     0.042 C 
ENDROOT
BRANCH   1   2
ATOM      2  C   UNL A   1      31.054  27.478  24.916  1.00  0.00     0.118 C 
BRANCH   2   3
ATOM      3  N   UNL A   1      31.730  27.189  23.661  1.00  0.00    -0.352 N 
ATOM      4  C   UNL A   1      32.252  26.104  23.050  1.00  0.00     0.251 C 
ATOM      5  O   UNL A   1      32.670  26.292  21.903  1.00  0.00    -0.270 OA
ATOM      6  H   UNL A   1      31.834  28.000  23.112  1.00  0.00     0.163 HD
BRANCH   4   7
ATOM      7  C   UNL A   1      32.342  24.742  23.651  1.00  0.00     0.067 C 
ATOM      8  C   UNL A   1      32.533  19.734  24.245  1.00  0.00    -0.025 A 
ATOM      9  C   UNL A   1      32.567  20.835  25.118  1.00  0.00     0.052 A 
ATOM     10  C   UNL A   1      32.302  19.971  22.881  1.00  0.00     0.045 A 
ATOM     11  C   UNL A   1      32.430  22.131  24.631  1.00  0.00     0.128 A 
ATOM     12  C   UNL A   1      32.163  21.277  22.397  1.00  0.00     0.032 A 
ATOM     13  Cl  UNL A   1      32.156  18.681  21.739  1.00  0.00    -0.084 Cl
ATOM     14  C   UNL A   1      32.237  22.363  23.273  1.00  0.00     0.019 A 
ATOM     15  O   UNL A   1      32.464  23.132  25.557  1.00  0.00    -0.475 OA
ATOM     16  C   UNL A   1      32.094  23.730  22.798  1.00  0.00     0.025 C 
ATOM     17  C   UNL A   1      32.783  24.462  25.063  1.00  0.00     0.314 C 
BRANCH   8  18
ATOM     18  C   UNL A   1      32.798  18.361  24.821  1.00  0.00     0.040 C 
BRANCH  18  19
ATOM     19  C   UNL A   1      33.968  17.615  24.145  1.00  0.00    -0.013 C 
ATOM     20  C   UNL A   1      35.339  18.096  24.631  1.00  0.00     0.008 C 
ATOM     21  C   UNL A   1      33.832  16.112  24.394  1.00  0.00     0.008 C 
ENDBRANCH  18  19
ENDBRANCH   8  18
BRANCH  17  22
ATOM     22  C   UNL A   1      34.266  24.769  25.328  1.00  0.00     0.429 C 
ATOM     23  F   UNL A   1      34.768  24.060  26.364  1.00  0.00    -0.167 F 
ATOM     24  F   UNL A   1      35.006  24.448  24.237  1.00  0.00    -0.167 F 
ATOM     25  F   UNL A   1      34.488  26.075  25.596  1.00  0.00    -0.167 F 
ENDBRANCH  17  22
ENDBRANCH   4   7
ENDBRANCH   2   3
ENDBRANCH   1   2
BRANCH   1  26
ATOM     26  C   UNL A   1      32.913  29.133  25.395  1.00  0.00     0.118 C 
BRANCH  26  27
ATOM     27  N   UNL A   1      32.502  30.457  25.851  1.00  0.00    -0.352 N 
ATOM     28  C   UNL A   1      33.015  31.241  26.857  1.00  0.00     0.251 C 
ATOM     29  H   UNL A   1      31.742  30.848  25.364  1.00  0.00     0.163 HD
ATOM     30  O   UNL A   1      32.367  32.208  27.256  1.00  0.00    -0.269 OA
BRANCH  28  31
ATOM     31  C   UNL A   1      34.322  30.911  27.466  1.00  0.00     0.039 A 
ATOM     32  C   UNL A   1      34.607  29.604  27.855  1.00  0.00     0.014 A 
ATOM     33  C   UNL A   1      35.276  31.916  27.651  1.00  0.00     0.014 A 
ATOM     34  C   UNL A   1      35.743  29.340  28.607  1.00  0.00     0.010 A 
ATOM     35  C   UNL A   1      36.478  31.621  28.304  1.00  0.00     0.010 A 
ATOM     36  C   UNL A   1      36.701  30.341  28.834  1.00  0.00    -0.014 A 
BRANCH  36  37
ATOM     37  C   UNL A   1      37.926  30.003  29.605  1.00  0.00     0.031 A 
ATOM     38  C   UNL A   1      38.131  30.511  31.009  1.00  0.00     0.074 A 
ATOM     39  C   UNL A   1      38.839  29.181  29.048  1.00  0.00     0.049 A 
ATOM     40  N   UNL A   1      39.121  30.269  31.828  1.00  0.00    -0.248 NA
ATOM     41  C   UNL A   1      37.104  31.408  31.567  1.00  0.00     0.031 C 
ATOM     42  C   UNL A   1      38.765  28.640  27.688  1.00  0.00     0.029 A 
ATOM     43  N   UNL A   1      39.992  28.638  29.556  1.00  0.00    -0.354 N 
ATOM     44  C   UNL A   1      38.862  31.011  32.974  1.00  0.00     0.074 A 
ATOM     45  C   UNL A   1      37.623  31.719  32.749  1.00  0.00     0.031 C 
ATOM     46  C   UNL A   1      39.789  27.799  27.491  1.00  0.00     0.029 A 
ATOM     47  C   UNL A   1      40.631  27.791  28.681  1.00  0.00     0.049 A 
ATOM     48  H   UNL A   1      40.329  28.834  30.460  1.00  0.00     0.167 HD
ATOM     49  C   UNL A   1      39.584  31.082  34.117  1.00  0.00     0.034 A 
ATOM     50  C   UNL A   1      41.775  27.091  28.809  1.00  0.00     0.034 A 
ATOM     51  C   UNL A   1      40.785  30.331  34.363  1.00  0.00     0.049 A 
ATOM     52  C   UNL A   1      42.547  27.179  30.090  1.00  0.00     0.074 A 
ATOM     53  C   UNL A   1      41.548  30.297  35.518  1.00  0.00     0.029 A 
ATOM     54  N   UNL A   1      41.396  29.489  33.451  1.00  0.00    -0.354 N 
ATOM     55  N   UNL A   1      42.241  27.828  31.186  1.00  0.00    -0.248 NA
ATOM     56  C   UNL A   1      43.813  26.435  30.161  1.00  0.00     0.031 C 
ATOM     57  C   UNL A   1      42.633  29.445  35.296  1.00  0.00     0.029 A 
ATOM     58  C   UNL A   1      42.533  28.935  34.011  1.00  0.00     0.049 A 
ATOM     59  H   UNL A   1      41.070  29.310  32.538  1.00  0.00     0.167 HD
ATOM     60  C   UNL A   1      43.267  27.561  32.083  1.00  0.00     0.074 A 
ATOM     61  C   UNL A   1      44.196  26.679  31.409  1.00  0.00     0.031 C 
ATOM     62  C   UNL A   1      43.426  28.023  33.346  1.00  0.00     0.034 A 
BRANCH  49  63
ATOM     63  C   UNL A   1      39.083  31.964  35.227  1.00  0.00     0.023 A 
ATOM     64  C   UNL A   1      38.152  31.452  36.151  1.00  0.00     0.012 A 
ATOM     65  C   UNL A   1      39.627  33.249  35.427  1.00  0.00     0.148 A 
ATOM     66  C   UNL A   1      37.765  32.208  37.258  1.00  0.00     0.002 A 
ATOM     67  C   UNL A   1      39.260  33.984  36.547  1.00  0.00     0.091 A 
ATOM     68  F   UNL A   1      40.504  33.715  34.526  1.00  0.00    -0.205 F 
ATOM     69  C   UNL A   1      38.326  33.466  37.461  1.00  0.00     0.022 A 
BRANCH  67  70
ATOM     70  S   UNL A   1      39.963  35.591  36.932  1.00  0.00     0.127 S 
ATOM     71  O   UNL A   1      39.268  35.925  38.175  1.00  0.00    -0.237 OA
ATOM     72  O   UNL A   1      41.381  35.272  37.094  1.00  0.00    -0.237 OA
ATOM     73  O   UNL A   1      39.652  36.451  35.801  1.00  0.00    -0.744 OA
ENDBRANCH  67  70
ENDBRANCH  49  63
BRANCH  50  74
ATOM     74  C   UNL A   1      42.219  26.219  27.689  1.00  0.00     0.023 A 
ATOM     75  C   UNL A   1      43.171  26.702  26.773  1.00  0.00     0.012 A 
ATOM     76  C   UNL A   1      41.773  24.887  27.586  1.00  0.00     0.148 A 
ATOM     77  C   UNL A   1      43.672  25.872  25.770  1.00  0.00     0.002 A 
ATOM     78  C   UNL A   1      42.307  24.053  26.612  1.00  0.00     0.091 A 
ATOM     79  F   UNL A   1      40.865  24.454  28.473  1.00  0.00    -0.205 F 
ATOM     80  C   UNL A   1      43.250  24.547  25.696  1.00  0.00     0.022 A 
BRANCH  78  81
ATOM     81  S   UNL A   1      41.909  22.305  26.508  1.00  0.00     0.127 S 
ATOM     82  O   UNL A   1      42.339  21.824  27.820  1.00  0.00    -0.237 OA
ATOM     83  O   UNL A   1      40.460  22.343  26.310  1.00  0.00    -0.237 OA
ATOM     84  O   UNL A   1      42.664  21.791  25.374  1.00  0.00    -0.744 OA
ENDBRANCH  78  81
ENDBRANCH  50  74
BRANCH  62  85
ATOM     85  C   UNL A   1      44.638  27.582  34.114  1.00  0.00     0.023 A 
ATOM     86  C   UNL A   1      45.787  28.395  34.116  1.00  0.00     0.012 A 
ATOM     87  C   UNL A   1      44.583  26.448  34.948  1.00  0.00     0.148 A 
ATOM     88  C   UNL A   1      46.867  28.086  34.941  1.00  0.00     0.002 A 
ATOM     89  C   UNL A   1      45.648  26.165  35.792  1.00  0.00     0.091 A 
ATOM     90  F   UNL A   1      43.476  25.691  34.921  1.00  0.00    -0.205 F 
ATOM     91  C   UNL A   1      46.792  26.982  35.788  1.00  0.00     0.022 A 
BRANCH  89  92
ATOM     92  S   UNL A   1      45.617  24.812  36.972  1.00  0.00     0.127 S 
ATOM     93  O   UNL A   1      46.908  24.971  37.641  1.00  0.00    -0.237 OA
ATOM     94  O   UNL A   1      44.457  25.150  37.796  1.00  0.00    -0.237 OA
ATOM     95  O   UNL A   1      45.476  23.593  36.189  1.00  0.00    -0.744 OA
ENDBRANCH  89  92
ENDBRANCH  62  85
ENDBRANCH  36  37
ENDBRANCH  28  31
ENDBRANCH  26  27
ENDBRANCH   1  26
TORSDOF 16
ENDMDL
MODEL 3
REMARK VINA RESULT:     -13.0      5.290     10.304
REMARK SMILES CC(C)Cc1cc2c(cc1Cl)C=C(C(=O)NCCCNC(=O)c1ccc(-c3c4nc(c(-c5cccc(S(=O)(=O)[O-])c5F)c5ccc([nH]5)c(-c5cccc(S(=O)(=O)[O-])c5F)c5nc(c(-c6cccc(S(=O)(=O)[O-])c6F)c6ccc3[nH]6)C=C5)C=C4)cc1)[C@H](C(F)(F)F)O2
REMARK SMILES IDX 18 1 17 2 16 3 14 4 15 5 13 7 5 8 6 9 10 10 7 11 9 12 11 13
REMARK SMILES IDX 8 14 91 15 12 16 86 17 4 18 2 19 1 20 3 21 87 22 88 23 89 24
REMARK SMILES IDX 90 25 19 26 20 27 21 28 22 30 23 31 24 32 85 33 25 34 84 35
REMARK SMILES IDX 26 36 27 37 28 38 78 39 29 40 83 41 77 42 79 43 30 44 82 45
REMARK SMILES IDX 76 46 75 47 31 49 63 50 43 51 62 52 44 53 47 54 61 55 80 56
REMARK SMILES IDX 45 57 46 58 60 60 81 61 48 62 32 63 33 64 41 65 34 66 36 67
REMARK SMILES IDX 42 68 35 69 37 70 38 71 39 72 40 73 64 74 65 75 73 76 66 77
REMARK SMILES IDX 68 78 74 79 67 80 69 81 70 82 71 83 72 84 49 85 50 86 58 87
REMARK SMILES IDX 51 88 53 89 59 90 52 91 54 92 55 93 56 94 57 95
REMARK H PARENT 16 6 20 29 79 48 47 59
REMARK Flexibility Score: inf
ROOT
ATOM      1  C   UNL A   1      32.720  29.845  25.309  1.00  0.00     0.042 C 
ENDROOT
BRANCH   1   2
ATOM      2  C   UNL A   1      32.501  28.355  25.084  1.00  0.00     0.118 C 
BRANCH   2   3
ATOM      3  N   UNL A   1      31.827  28.097  23.822  1.00  0.00    -0.352 N 
ATOM      4  C   UNL A   1      31.455  27.012  23.106  1.00  0.00     0.251 C 
ATOM      5  O   UNL A   1      30.798  27.250  22.087  1.00  0.00    -0.270 OA
ATOM      6  H   UNL A   1      31.575  28.933  23.368  1.00  0.00     0.163 HD
BRANCH   4   7
ATOM      7  C   UNL A   1      31.768  25.600  23.466  1.00  0.00     0.067 C 
ATOM      8  C   UNL A   1      34.227  21.307  24.465  1.00  0.00    -0.025 A 
ATOM      9  C   UNL A   1      32.875  21.687  24.435  1.00  0.00     0.052 A 
ATOM     10  C   UNL A   1      35.192  22.238  24.046  1.00  0.00     0.045 A 
ATOM     11  C   UNL A   1      32.507  22.974  24.053  1.00  0.00     0.128 A 
ATOM     12  C   UNL A   1      34.816  23.530  23.660  1.00  0.00     0.032 A 
ATOM     13  Cl  UNL A   1      36.872  21.841  23.963  1.00  0.00    -0.084 Cl
ATOM     14  C   UNL A   1      33.470  23.904  23.672  1.00  0.00     0.019 A 
ATOM     15  O   UNL A   1      31.170  23.244  24.043  1.00  0.00    -0.475 OA
ATOM     16  C   UNL A   1      33.051  25.238  23.274  1.00  0.00     0.025 C 
ATOM     17  C   UNL A   1      30.792  24.646  24.102  1.00  0.00     0.314 C 
BRANCH   8  18
ATOM     18  C   UNL A   1      34.568  19.933  24.995  1.00  0.00     0.040 C 
BRANCH  18  19
ATOM     19  C   UNL A   1      33.597  18.826  24.535  1.00  0.00    -0.013 C 
ATOM     20  C   UNL A   1      34.314  17.641  23.881  1.00  0.00     0.008 C 
ATOM     21  C   UNL A   1      32.773  18.335  25.726  1.00  0.00     0.008 C 
ENDBRANCH  18  19
ENDBRANCH   8  18
BRANCH  17  22
ATOM     22  C   UNL A   1      30.406  25.017  25.544  1.00  0.00     0.429 C 
ATOM     23  F   UNL A   1      29.333  25.838  25.601  1.00  0.00    -0.167 F 
ATOM     24  F   UNL A   1      30.080  23.897  26.237  1.00  0.00    -0.167 F 
ATOM     25  F   UNL A   1      31.410  25.628  26.212  1.00  0.00    -0.167 F 
ENDBRANCH  17  22
ENDBRANCH   4   7
ENDBRANCH   2   3
ENDBRANCH   1   2
BRANCH   1  26
ATOM     26  C   UNL A   1      32.224  30.310  26.673  1.00  0.00     0.118 C 
BRANCH  26  27
ATOM     27  N   UNL A   1      32.206  31.766  26.777  1.00  0.00    -0.352 N 
ATOM     28  C   UNL A   1      33.057  32.611  27.449  1.00  0.00     0.251 C 
ATOM     29  H   UNL A   1      31.474  32.210  26.292  1.00  0.00     0.163 HD
ATOM     30  O   UNL A   1      32.722  33.782  27.628  1.00  0.00    -0.269 OA
BRANCH  28  31
ATOM     31  C   UNL A   1      34.348  32.112  27.968  1.00  0.00     0.039 A 
ATOM     32  C   UNL A   1      34.476  30.786  28.378  1.00  0.00     0.014 A 
ATOM     33  C   UNL A   1      35.446  32.974  28.048  1.00  0.00     0.014 A 
ATOM     34  C   UNL A   1      35.620  30.379  29.049  1.00  0.00     0.010 A 
ATOM     35  C   UNL A   1      36.643  32.524  28.617  1.00  0.00     0.010 A 
ATOM     36  C   UNL A   1      36.724  31.237  29.171  1.00  0.00    -0.014 A 
BRANCH  36  37
ATOM     37  C   UNL A   1      37.947  30.745  29.858  1.00  0.00     0.031 A 
ATOM     38  C   UNL A   1      38.237  31.107  31.291  1.00  0.00     0.074 A 
ATOM     39  C   UNL A   1      38.777  29.915  29.193  1.00  0.00     0.049 A 
ATOM     40  N   UNL A   1      39.234  30.721  32.045  1.00  0.00    -0.248 NA
ATOM     41  C   UNL A   1      37.299  32.018  31.969  1.00  0.00     0.031 C 
ATOM     42  C   UNL A   1      38.617  29.508  27.794  1.00  0.00     0.029 A 
ATOM     43  N   UNL A   1      39.904  29.248  29.602  1.00  0.00    -0.354 N 
ATOM     44  C   UNL A   1      39.071  31.371  33.261  1.00  0.00     0.074 A 
ATOM     45  C   UNL A   1      37.880  32.182  33.151  1.00  0.00     0.031 C 
ATOM     46  C   UNL A   1      39.568  28.618  27.481  1.00  0.00     0.029 A 
ATOM     47  C   UNL A   1      40.449  28.443  28.630  1.00  0.00     0.049 A 
ATOM     48  H   UNL A   1      40.285  29.336  30.505  1.00  0.00     0.167 HD
ATOM     49  C   UNL A   1      39.835  31.286  34.376  1.00  0.00     0.034 A 
ATOM     50  C   UNL A   1      41.541  27.654  28.648  1.00  0.00     0.034 A 
ATOM     51  C   UNL A   1      40.985  30.433  34.505  1.00  0.00     0.049 A 
ATOM     52  C   UNL A   1      42.361  27.571  29.899  1.00  0.00     0.074 A 
ATOM     53  C   UNL A   1      41.783  30.240  35.619  1.00  0.00     0.029 A 
ATOM     54  N   UNL A   1      41.500  29.638  33.496  1.00  0.00    -0.354 N 
ATOM     55  N   UNL A   1      42.142  28.136  31.060  1.00  0.00    -0.248 NA
ATOM     56  C   UNL A   1      43.570  26.736  29.852  1.00  0.00     0.031 C 
ATOM     57  C   UNL A   1      42.793  29.337  35.278  1.00  0.00     0.029 A 
ATOM     58  C   UNL A   1      42.612  28.956  33.958  1.00  0.00     0.049 A 
ATOM     59  H   UNL A   1      41.131  29.566  32.586  1.00  0.00     0.167 HD
ATOM     60  C   UNL A   1      43.175  27.717  31.887  1.00  0.00     0.074 A 
ATOM     61  C   UNL A   1      44.014  26.837  31.099  1.00  0.00     0.031 C 
ATOM     62  C   UNL A   1      43.412  28.048  33.178  1.00  0.00     0.034 A 
BRANCH  49  63
ATOM     63  C   UNL A   1      39.439  32.096  35.579  1.00  0.00     0.023 A 
ATOM     64  C   UNL A   1      39.766  33.465  35.630  1.00  0.00     0.012 A 
ATOM     65  C   UNL A   1      38.637  31.534  36.593  1.00  0.00     0.148 A 
ATOM     66  C   UNL A   1      39.304  34.264  36.676  1.00  0.00     0.002 A 
ATOM     67  C   UNL A   1      38.156  32.342  37.615  1.00  0.00     0.091 A 
ATOM     68  F   UNL A   1      38.348  30.227  36.524  1.00  0.00    -0.205 F 
ATOM     69  C   UNL A   1      38.492  33.706  37.660  1.00  0.00     0.022 A 
BRANCH  67  70
ATOM     70  S   UNL A   1      37.058  31.737  38.902  1.00  0.00     0.127 S 
ATOM     71  O   UNL A   1      37.877  31.924  40.099  1.00  0.00    -0.237 OA
ATOM     72  O   UNL A   1      35.924  32.654  38.791  1.00  0.00    -0.237 OA
ATOM     73  O   UNL A   1      36.764  30.352  38.565  1.00  0.00    -0.744 OA
ENDBRANCH  67  70
ENDBRANCH  49  63
BRANCH  50  74
ATOM     74  C   UNL A   1      41.880  26.860  27.438  1.00  0.00     0.023 A 
ATOM     75  C   UNL A   1      42.507  27.494  26.349  1.00  0.00     0.012 A 
ATOM     76  C   UNL A   1      41.671  25.468  27.402  1.00  0.00     0.148 A 
ATOM     77  C   UNL A   1      42.919  26.753  25.241  1.00  0.00     0.002 A 
ATOM     78  C   UNL A   1      42.122  24.729  26.315  1.00  0.00     0.091 A 
ATOM     79  F   UNL A   1      41.072  24.891  28.453  1.00  0.00    -0.205 F 
ATOM     80  C   UNL A   1      42.738  25.371  25.229  1.00  0.00     0.022 A 
BRANCH  78  81
ATOM     81  S   UNL A   1      42.033  22.937  26.258  1.00  0.00     0.127 S 
ATOM     82  O   UNL A   1      42.753  22.565  27.475  1.00  0.00    -0.237 OA
ATOM     83  O   UNL A   1      40.589  22.710  26.302  1.00  0.00    -0.237 OA
ATOM     84  O   UNL A   1      42.672  22.546  25.009  1.00  0.00    -0.744 OA
ENDBRANCH  78  81
ENDBRANCH  50  74
BRANCH  62  85
ATOM     85  C   UNL A   1      44.614  27.455  33.854  1.00  0.00     0.023 A 
ATOM     86  C   UNL A   1      45.825  28.172  33.862  1.00  0.00     0.012 A 
ATOM     87  C   UNL A   1      44.500  26.267  34.603  1.00  0.00     0.148 A 
ATOM     88  C   UNL A   1      46.909  27.715  34.610  1.00  0.00     0.002 A 
ATOM     89  C   UNL A   1      45.572  25.836  35.373  1.00  0.00     0.091 A 
ATOM     90  F   UNL A   1      43.334  25.605  34.571  1.00  0.00    -0.205 F 
ATOM     91  C   UNL A   1      46.778  26.557  35.375  1.00  0.00     0.022 A 
BRANCH  89  92
ATOM     92  S   UNL A   1      45.478  24.402  36.449  1.00  0.00     0.127 S 
ATOM     93  O   UNL A   1      44.618  24.894  37.525  1.00  0.00    -0.237 OA
ATOM     94  O   UNL A   1      44.856  23.405  35.578  1.00  0.00    -0.237 OA
ATOM     95  O   UNL A   1      46.846  24.100  36.844  1.00  0.00    -0.744 OA
ENDBRANCH  89  92
ENDBRANCH  62  85
ENDBRANCH  36  37
ENDBRANCH  28  31
ENDBRANCH  26  27
ENDBRANCH   1  26
TORSDOF 16
ENDMDL
