MODEL 1
REMARK VINA RESULT:     -12.2      0.000      0.000
REMARK SMILES C=CCn1nc(C(=O)NCCCNC(=O)c2ccc(-c3c4nc(c(-c5cccc(S(=O)(=O)[O-])c5F)c5ccc([nH]5)c(-c5cccc(S(=O)(=O)[O-])c5F)c5nc(c(-c6cccc(S(=O)(=O)[O-])c6F)c6ccc3[nH]6)C=C5)C=C4)cc2)c2c1CC[C@@H]([NH+]1CCC(C(C)(C)O)CC1)C2
REMARK SMILES IDX 11 1 10 2 9 3 7 4 8 5 6 7 4 8 5 9 80 10 79 11 81 12 94 13
REMARK SMILES IDX 82 14 83 15 3 16 2 17 1 18 84 19 85 20 93 21 86 23 92 24
REMARK SMILES IDX 87 25 88 26 89 27 90 28 91 29 12 31 13 32 14 33 15 35 16 36
REMARK SMILES IDX 17 37 78 38 18 39 77 40 19 41 20 42 21 43 71 44 22 45 76 46
REMARK SMILES IDX 70 47 72 48 23 49 75 50 69 51 68 52 24 54 56 55 36 56 55 57
REMARK SMILES IDX 37 58 40 59 54 60 73 61 38 62 39 63 53 65 74 66 41 67 25 68
REMARK SMILES IDX 26 69 34 70 27 71 29 72 35 73 28 74 30 75 31 76 32 77 33 78
REMARK SMILES IDX 57 79 58 80 66 81 59 82 61 83 67 84 60 85 62 86 63 87 64 88
REMARK SMILES IDX 65 89 42 90 43 91 51 92 44 93 46 94 52 95 45 96 47 97 48 98
REMARK SMILES IDX 49 99 50 100
REMARK H PARENT 9 6 84 22 91 30 13 34 72 53 40 64
REMARK Flexibility Score: inf
ROOT
ATOM      1  C   UNL A   1      38.592  20.160  25.276  1.00  0.00     0.042 C 
ENDROOT
BRANCH   1   2
ATOM      2  C   UNL A   1      37.734  21.428  25.114  1.00  0.00     0.118 C 
BRANCH   2   3
ATOM      3  N   UNL A   1      36.688  21.554  26.126  1.00  0.00    -0.351 N 
ATOM      4  C   UNL A   1      35.382  22.017  26.166  1.00  0.00     0.272 C 
ATOM      5  O   UNL A   1      34.779  21.727  27.206  1.00  0.00    -0.267 OA
ATOM      6  H   UNL A   1      36.987  21.227  27.005  1.00  0.00     0.163 HD
BRANCH   4   7
ATOM      7  C   UNL A   1      34.706  22.789  25.087  1.00  0.00     0.153 A 
ATOM      8  N   UNL A   1      33.384  23.080  23.403  1.00  0.00    -0.265 N 
ATOM      9  N   UNL A   1      34.054  22.130  24.094  1.00  0.00    -0.167 NA
ATOM     10  C   UNL A   1      33.859  24.328  23.683  1.00  0.00     0.043 A 
ATOM     11  C   UNL A   1      34.506  24.179  24.885  1.00  0.00     0.012 A 
ATOM     12  C   UNL A   1      33.574  25.618  23.007  1.00  0.00     0.062 C 
ATOM     13  C   UNL A   1      34.783  25.334  25.738  1.00  0.00     0.105 C 
ATOM     14  C   UNL A   1      34.027  26.802  23.893  1.00  0.00     0.072 C 
ATOM     15  C   UNL A   1      33.992  26.609  25.428  1.00  0.00     0.189 C 
BRANCH   8  16
ATOM     16  C   UNL A   1      32.251  22.730  22.542  1.00  0.00     0.171 C 
BRANCH  16  17
ATOM     17  C   UNL A   1      30.898  22.956  23.170  1.00  0.00    -0.011 C 
ATOM     18  C   UNL A   1      30.207  24.106  23.162  1.00  0.00     0.006 C 
ENDBRANCH  16  17
ENDBRANCH   8  16
BRANCH  15  19
ATOM     19  N   UNL A   1      32.801  26.673  26.298  1.00  0.00    -0.332 N 
ATOM     20  C   UNL A   1      31.575  25.995  25.921  1.00  0.00     0.262 C 
ATOM     21  C   UNL A   1      32.494  27.955  26.900  1.00  0.00     0.262 C 
ATOM     22  H   UNL A   1      33.210  26.060  27.004  1.00  0.00     0.348 HD
ATOM     23  C   UNL A   1      30.771  26.760  24.886  1.00  0.00     0.068 C 
ATOM     24  C   UNL A   1      31.871  28.910  25.902  1.00  0.00     0.068 C 
ATOM     25  C   UNL A   1      30.750  28.305  25.015  1.00  0.00     0.031 C 
BRANCH  25  26
ATOM     26  C   UNL A   1      30.679  29.037  23.626  1.00  0.00     0.062 C 
ATOM     27  C   UNL A   1      30.367  28.100  22.456  1.00  0.00     0.042 C 
ATOM     28  C   UNL A   1      29.663  30.182  23.675  1.00  0.00     0.042 C 
BRANCH  26  29
ATOM     29  O   UNL A   1      31.939  29.638  23.318  1.00  0.00    -0.390 OA
ATOM     30  H   UNL A   1      31.843  30.214  22.545  1.00  0.00     0.211 HD
ENDBRANCH  26  29
ENDBRANCH  25  26
ENDBRANCH  15  19
ENDBRANCH   4   7
ENDBRANCH   2   3
ENDBRANCH   1   2
BRANCH   1  31
ATOM     31  C   UNL A   1      39.701  20.197  26.292  1.00  0.00     0.118 C 
BRANCH  31  32
ATOM     32  N   UNL A   1      40.831  19.356  25.896  1.00  0.00    -0.352 N 
ATOM     33  C   UNL A   1      42.141  19.758  25.713  1.00  0.00     0.251 C 
ATOM     34  H   UNL A   1      40.638  18.403  25.743  1.00  0.00     0.163 HD
ATOM     35  O   UNL A   1      42.902  19.124  25.005  1.00  0.00    -0.269 OA
BRANCH  33  36
ATOM     36  C   UNL A   1      42.567  20.995  26.387  1.00  0.00     0.039 A 
ATOM     37  C   UNL A   1      42.744  22.172  25.660  1.00  0.00     0.014 A 
ATOM     38  C   UNL A   1      42.658  20.981  27.778  1.00  0.00     0.014 A 
ATOM     39  C   UNL A   1      42.907  23.360  26.361  1.00  0.00     0.010 A 
ATOM     40  C   UNL A   1      42.642  22.170  28.462  1.00  0.00     0.010 A 
ATOM     41  C   UNL A   1      42.807  23.360  27.765  1.00  0.00    -0.014 A 
BRANCH  41  42
ATOM     42  C   UNL A   1      42.695  24.624  28.488  1.00  0.00     0.031 A 
ATOM     43  C   UNL A   1      41.408  25.328  28.239  1.00  0.00     0.074 A 
ATOM     44  C   UNL A   1      43.578  25.035  29.424  1.00  0.00     0.049 A 
ATOM     45  N   UNL A   1      41.222  26.357  27.481  1.00  0.00    -0.248 NA
ATOM     46  C   UNL A   1      40.157  24.700  28.697  1.00  0.00     0.031 C 
ATOM     47  C   UNL A   1      44.708  24.277  29.979  1.00  0.00     0.029 A 
ATOM     48  N   UNL A   1      43.582  26.168  30.181  1.00  0.00    -0.354 N 
ATOM     49  C   UNL A   1      39.873  26.679  27.619  1.00  0.00     0.074 A 
ATOM     50  C   UNL A   1      39.244  25.497  28.138  1.00  0.00     0.031 C 
ATOM     51  C   UNL A   1      45.114  24.847  31.133  1.00  0.00     0.029 A 
ATOM     52  C   UNL A   1      44.406  26.100  31.304  1.00  0.00     0.049 A 
ATOM     53  H   UNL A   1      43.048  26.964  29.956  1.00  0.00     0.167 HD
ATOM     54  C   UNL A   1      39.479  27.985  27.617  1.00  0.00     0.034 A 
ATOM     55  C   UNL A   1      44.487  26.997  32.316  1.00  0.00     0.034 A 
ATOM     56  C   UNL A   1      40.561  28.825  27.153  1.00  0.00     0.049 A 
ATOM     57  C   UNL A   1      43.961  28.274  31.796  1.00  0.00     0.074 A 
ATOM     58  C   UNL A   1      41.286  28.977  25.992  1.00  0.00     0.029 A 
ATOM     59  N   UNL A   1      41.291  29.396  28.164  1.00  0.00    -0.354 N 
ATOM     60  N   UNL A   1      44.565  28.979  30.882  1.00  0.00    -0.248 NA
ATOM     61  C   UNL A   1      42.566  28.610  32.033  1.00  0.00     0.031 C 
ATOM     62  C   UNL A   1      42.592  29.375  26.408  1.00  0.00     0.029 A 
ATOM     63  C   UNL A   1      42.598  29.522  27.797  1.00  0.00     0.049 A 
ATOM     64  H   UNL A   1      40.923  29.677  29.033  1.00  0.00     0.167 HD
ATOM     65  C   UNL A   1      43.527  29.479  30.114  1.00  0.00     0.074 A 
ATOM     66  C   UNL A   1      42.347  29.383  30.967  1.00  0.00     0.031 C 
ATOM     67  C   UNL A   1      43.672  29.611  28.764  1.00  0.00     0.034 A 
BRANCH  54  68
ATOM     68  C   UNL A   1      38.381  28.590  28.492  1.00  0.00     0.023 A 
ATOM     69  C   UNL A   1      37.434  29.412  27.829  1.00  0.00     0.012 A 
ATOM     70  C   UNL A   1      38.395  28.669  29.904  1.00  0.00     0.148 A 
ATOM     71  C   UNL A   1      36.639  30.337  28.516  1.00  0.00     0.002 A 
ATOM     72  C   UNL A   1      37.560  29.547  30.589  1.00  0.00     0.091 A 
ATOM     73  F   UNL A   1      39.280  27.972  30.612  1.00  0.00    -0.205 F 
ATOM     74  C   UNL A   1      36.707  30.410  29.899  1.00  0.00     0.022 A 
BRANCH  72  75
ATOM     75  S   UNL A   1      37.575  29.666  32.385  1.00  0.00     0.127 S 
ATOM     76  O   UNL A   1      38.904  30.221  32.629  1.00  0.00    -0.237 OA
ATOM     77  O   UNL A   1      36.463  30.587  32.627  1.00  0.00    -0.237 OA
ATOM     78  O   UNL A   1      37.354  28.314  32.878  1.00  0.00    -0.744 OA
ENDBRANCH  72  75
ENDBRANCH  54  68
BRANCH  55  79
ATOM     79  C   UNL A   1      44.835  26.839  33.746  1.00  0.00     0.023 A 
ATOM     80  C   UNL A   1      46.046  27.378  34.228  1.00  0.00     0.012 A 
ATOM     81  C   UNL A   1      43.859  26.449  34.687  1.00  0.00     0.148 A 
ATOM     82  C   UNL A   1      46.255  27.581  35.597  1.00  0.00     0.002 A 
ATOM     83  C   UNL A   1      44.070  26.653  36.048  1.00  0.00     0.091 A 
ATOM     84  F   UNL A   1      42.690  25.970  34.240  1.00  0.00    -0.205 F 
ATOM     85  C   UNL A   1      45.261  27.234  36.505  1.00  0.00     0.022 A 
BRANCH  83  86
ATOM     86  S   UNL A   1      42.820  26.271  37.281  1.00  0.00     0.127 S 
ATOM     87  O   UNL A   1      41.764  27.228  36.946  1.00  0.00    -0.237 OA
ATOM     88  O   UNL A   1      42.507  24.879  36.968  1.00  0.00    -0.237 OA
ATOM     89  O   UNL A   1      43.454  26.503  38.571  1.00  0.00    -0.744 OA
ENDBRANCH  83  86
ENDBRANCH  55  79
BRANCH  67  90
ATOM     90  C   UNL A   1      45.068  29.671  28.212  1.00  0.00     0.023 A 
ATOM     91  C   UNL A   1      45.781  28.540  27.766  1.00  0.00     0.012 A 
ATOM     92  C   UNL A   1      45.619  30.948  28.014  1.00  0.00     0.148 A 
ATOM     93  C   UNL A   1      47.028  28.686  27.151  1.00  0.00     0.002 A 
ATOM     94  C   UNL A   1      46.829  31.092  27.352  1.00  0.00     0.091 A 
ATOM     95  F   UNL A   1      44.931  32.011  28.461  1.00  0.00    -0.205 F 
ATOM     96  C   UNL A   1      47.544  29.962  26.928  1.00  0.00     0.022 A 
BRANCH  94  97
ATOM     97  S   UNL A   1      47.459  32.714  26.926  1.00  0.00     0.127 S 
ATOM     98  O   UNL A   1      47.492  33.381  28.225  1.00  0.00    -0.237 OA
ATOM     99  O   UNL A   1      48.774  32.403  26.363  1.00  0.00    -0.237 OA
ATOM    100  O   UNL A   1      46.517  33.266  25.959  1.00  0.00    -0.744 OA
ENDBRANCH  94  97
ENDBRANCH  67  90
ENDBRANCH  41  42
ENDBRANCH  33  36
ENDBRANCH  31  32
ENDBRANCH   1  31
TORSDOF 18
ENDMDL
MODEL 2
REMARK VINA RESULT:     -12.1      3.403      9.070
REMARK SMILES C=CCn1nc(C(=O)NCCCNC(=O)c2ccc(-c3c4nc(c(-c5cccc(S(=O)(=O)[O-])c5F)c5ccc([nH]5)c(-c5cccc(S(=O)(=O)[O-])c5F)c5nc(c(-c6cccc(S(=O)(=O)[O-])c6F)c6ccc3[nH]6)C=C5)C=C4)cc2)c2c1CC[C@@H]([NH+]1CCC(C(C)(C)O)CC1)C2
REMARK SMILES IDX 11 1 10 2 9 3 7 4 8 5 6 7 4 8 5 9 80 10 79 11 81 12 94 13
REMARK SMILES IDX 82 14 83 15 3 16 2 17 1 18 84 19 85 20 93 21 86 23 92 24
REMARK SMILES IDX 87 25 88 26 89 27 90 28 91 29 12 31 13 32 14 33 15 35 16 36
REMARK SMILES IDX 17 37 78 38 18 39 77 40 19 41 20 42 21 43 71 44 22 45 76 46
REMARK SMILES IDX 70 47 72 48 23 49 75 50 69 51 68 52 24 54 56 55 36 56 55 57
REMARK SMILES IDX 37 58 40 59 54 60 73 61 38 62 39 63 53 65 74 66 41 67 25 68
REMARK SMILES IDX 26 69 34 70 27 71 29 72 35 73 28 74 30 75 31 76 32 77 33 78
REMARK SMILES IDX 57 79 58 80 66 81 59 82 61 83 67 84 60 85 62 86 63 87 64 88
REMARK SMILES IDX 65 89 42 90 43 91 51 92 44 93 46 94 52 95 45 96 47 97 48 98
REMARK SMILES IDX 49 99 50 100
REMARK H PARENT 9 6 84 22 91 30 13 34 72 53 40 64
REMARK Flexibility Score: inf
ROOT
ATOM      1  C   UNL A   1      32.410  31.590  27.264  1.00  0.00     0.042 C 
ENDROOT
BRANCH   1   2
ATOM      2  C   UNL A   1      33.078  30.211  27.116  1.00  0.00     0.118 C 
BRANCH   2   3
ATOM      3  N   UNL A   1      33.491  29.909  25.748  1.00  0.00    -0.351 N 
ATOM      4  C   UNL A   1      33.007  29.142  24.700  1.00  0.00     0.272 C 
ATOM      5  O   UNL A   1      33.571  29.353  23.621  1.00  0.00    -0.267 OA
ATOM      6  H   UNL A   1      34.329  30.368  25.508  1.00  0.00     0.163 HD
BRANCH   4   7
ATOM      7  C   UNL A   1      31.906  28.144  24.798  1.00  0.00     0.153 A 
ATOM      8  N   UNL A   1      29.944  27.328  24.406  1.00  0.00    -0.265 N 
ATOM      9  N   UNL A   1      30.655  28.479  24.389  1.00  0.00    -0.167 NA
ATOM     10  C   UNL A   1      30.573  26.364  25.138  1.00  0.00     0.043 A 
ATOM     11  C   UNL A   1      31.881  26.779  25.184  1.00  0.00     0.012 A 
ATOM     12  C   UNL A   1      30.065  25.048  25.596  1.00  0.00     0.062 C 
ATOM     13  C   UNL A   1      32.958  25.838  25.495  1.00  0.00     0.105 C 
ATOM     14  C   UNL A   1      31.236  24.149  26.057  1.00  0.00     0.072 C 
ATOM     15  C   UNL A   1      32.612  24.350  25.376  1.00  0.00     0.189 C 
BRANCH   8  16
ATOM     16  C   UNL A   1      28.701  27.197  23.640  1.00  0.00     0.171 C 
BRANCH  16  17
ATOM     17  C   UNL A   1      28.313  28.433  22.865  1.00  0.00    -0.011 C 
ATOM     18  C   UNL A   1      27.318  29.278  23.176  1.00  0.00     0.006 C 
ENDBRANCH  16  17
ENDBRANCH   8  16
BRANCH  15  19
ATOM     19  N   UNL A   1      33.018  23.857  24.045  1.00  0.00    -0.332 N 
ATOM     20  C   UNL A   1      33.039  22.436  23.760  1.00  0.00     0.262 C 
ATOM     21  C   UNL A   1      34.156  24.505  23.423  1.00  0.00     0.262 C 
ATOM     22  H   UNL A   1      32.161  24.182  23.597  1.00  0.00     0.348 HD
ATOM     23  C   UNL A   1      34.269  21.739  24.314  1.00  0.00     0.068 C 
ATOM     24  C   UNL A   1      35.464  24.055  24.038  1.00  0.00     0.068 C 
ATOM     25  C   UNL A   1      35.605  22.524  24.254  1.00  0.00     0.031 C 
BRANCH  25  26
ATOM     26  C   UNL A   1      36.555  22.215  25.468  1.00  0.00     0.062 C 
ATOM     27  C   UNL A   1      37.586  21.121  25.174  1.00  0.00     0.042 C 
ATOM     28  C   UNL A   1      37.255  23.492  25.940  1.00  0.00     0.042 C 
BRANCH  26  29
ATOM     29  O   UNL A   1      35.794  21.743  26.582  1.00  0.00    -0.390 OA
ATOM     30  H   UNL A   1      35.339  22.488  27.002  1.00  0.00     0.211 HD
ENDBRANCH  26  29
ENDBRANCH  25  26
ENDBRANCH  15  19
ENDBRANCH   4   7
ENDBRANCH   2   3
ENDBRANCH   1   2
BRANCH   1  31
ATOM     31  C   UNL A   1      33.293  32.804  27.160  1.00  0.00     0.118 C 
BRANCH  31  32
ATOM     32  N   UNL A   1      32.757  33.934  27.918  1.00  0.00    -0.352 N 
ATOM     33  C   UNL A   1      33.175  34.373  29.161  1.00  0.00     0.251 C 
ATOM     34  H   UNL A   1      32.020  34.434  27.500  1.00  0.00     0.163 HD
ATOM     35  O   UNL A   1      32.437  35.019  29.882  1.00  0.00    -0.269 OA
BRANCH  33  36
ATOM     36  C   UNL A   1      34.536  34.005  29.583  1.00  0.00     0.039 A 
ATOM     37  C   UNL A   1      34.733  33.034  30.565  1.00  0.00     0.014 A 
ATOM     38  C   UNL A   1      35.607  34.557  28.883  1.00  0.00     0.014 A 
ATOM     39  C   UNL A   1      36.019  32.547  30.758  1.00  0.00     0.010 A 
ATOM     40  C   UNL A   1      36.836  33.952  28.953  1.00  0.00     0.010 A 
ATOM     41  C   UNL A   1      37.061  32.976  29.915  1.00  0.00    -0.014 A 
BRANCH  41  42
ATOM     42  C   UNL A   1      38.341  32.271  29.920  1.00  0.00     0.031 A 
ATOM     43  C   UNL A   1      38.259  30.904  29.340  1.00  0.00     0.074 A 
ATOM     44  C   UNL A   1      39.516  32.851  30.248  1.00  0.00     0.049 A 
ATOM     45  N   UNL A   1      38.245  29.786  29.988  1.00  0.00    -0.248 NA
ATOM     46  C   UNL A   1      37.934  30.759  27.910  1.00  0.00     0.031 C 
ATOM     47  C   UNL A   1      39.763  34.272  30.528  1.00  0.00     0.029 A 
ATOM     48  N   UNL A   1      40.772  32.321  30.275  1.00  0.00    -0.354 N 
ATOM     49  C   UNL A   1      38.217  28.793  29.010  1.00  0.00     0.074 A 
ATOM     50  C   UNL A   1      37.759  29.439  27.813  1.00  0.00     0.031 C 
ATOM     51  C   UNL A   1      41.085  34.529  30.437  1.00  0.00     0.029 A 
ATOM     52  C   UNL A   1      41.791  33.274  30.280  1.00  0.00     0.049 A 
ATOM     53  H   UNL A   1      40.944  31.352  30.289  1.00  0.00     0.167 HD
ATOM     54  C   UNL A   1      38.898  27.626  29.203  1.00  0.00     0.034 A 
ATOM     55  C   UNL A   1      43.120  33.051  30.141  1.00  0.00     0.034 A 
ATOM     56  C   UNL A   1      39.304  27.515  30.587  1.00  0.00     0.049 A 
ATOM     57  C   UNL A   1      43.355  31.639  30.497  1.00  0.00     0.074 A 
ATOM     58  C   UNL A   1      38.679  27.425  31.811  1.00  0.00     0.029 A 
ATOM     59  N   UNL A   1      40.595  27.916  30.819  1.00  0.00    -0.354 N 
ATOM     60  N   UNL A   1      43.219  31.172  31.706  1.00  0.00    -0.248 NA
ATOM     61  C   UNL A   1      43.400  30.643  29.438  1.00  0.00     0.031 C 
ATOM     62  C   UNL A   1      39.550  28.082  32.732  1.00  0.00     0.029 A 
ATOM     63  C   UNL A   1      40.703  28.483  32.054  1.00  0.00     0.049 A 
ATOM     64  H   UNL A   1      41.339  27.809  30.183  1.00  0.00     0.167 HD
ATOM     65  C   UNL A   1      42.678  29.913  31.514  1.00  0.00     0.074 A 
ATOM     66  C   UNL A   1      42.990  29.576  30.128  1.00  0.00     0.031 C 
ATOM     67  C   UNL A   1      41.757  29.418  32.390  1.00  0.00     0.034 A 
BRANCH  54  68
ATOM     68  C   UNL A   1      39.664  26.850  28.132  1.00  0.00     0.023 A 
ATOM     69  C   UNL A   1      39.531  25.438  28.167  1.00  0.00     0.012 A 
ATOM     70  C   UNL A   1      40.711  27.357  27.328  1.00  0.00     0.148 A 
ATOM     71  C   UNL A   1      40.451  24.586  27.544  1.00  0.00     0.002 A 
ATOM     72  C   UNL A   1      41.589  26.509  26.660  1.00  0.00     0.091 A 
ATOM     73  F   UNL A   1      40.945  28.666  27.269  1.00  0.00    -0.205 F 
ATOM     74  C   UNL A   1      41.487  25.123  26.794  1.00  0.00     0.022 A 
BRANCH  72  75
ATOM     75  S   UNL A   1      42.933  27.141  25.644  1.00  0.00     0.127 S 
ATOM     76  O   UNL A   1      42.211  27.990  24.701  1.00  0.00    -0.237 OA
ATOM     77  O   UNL A   1      43.738  27.856  26.635  1.00  0.00    -0.237 OA
ATOM     78  O   UNL A   1      43.586  25.972  25.070  1.00  0.00    -0.744 OA
ENDBRANCH  72  75
ENDBRANCH  54  68
BRANCH  55  79
ATOM     79  C   UNL A   1      44.206  33.891  29.586  1.00  0.00     0.023 A 
ATOM     80  C   UNL A   1      45.072  34.573  30.466  1.00  0.00     0.012 A 
ATOM     81  C   UNL A   1      44.587  33.775  28.233  1.00  0.00     0.148 A 
ATOM     82  C   UNL A   1      46.306  35.069  30.029  1.00  0.00     0.002 A 
ATOM     83  C   UNL A   1      45.816  34.269  27.803  1.00  0.00     0.091 A 
ATOM     84  F   UNL A   1      43.790  33.097  27.396  1.00  0.00    -0.205 F 
ATOM     85  C   UNL A   1      46.684  34.902  28.702  1.00  0.00     0.022 A 
BRANCH  83  86
ATOM     86  S   UNL A   1      46.396  34.057  26.115  1.00  0.00     0.127 S 
ATOM     87  O   UNL A   1      47.135  35.301  25.891  1.00  0.00    -0.237 OA
ATOM     88  O   UNL A   1      47.229  32.863  26.233  1.00  0.00    -0.237 OA
ATOM     89  O   UNL A   1      45.198  33.916  25.300  1.00  0.00    -0.744 OA
ENDBRANCH  83  86
ENDBRANCH  55  79
BRANCH  67  90
ATOM     90  C   UNL A   1      41.706  30.019  33.766  1.00  0.00     0.023 A 
ATOM     91  C   UNL A   1      42.589  29.664  34.806  1.00  0.00     0.012 A 
ATOM     92  C   UNL A   1      40.812  31.084  33.962  1.00  0.00     0.148 A 
ATOM     93  C   UNL A   1      42.564  30.352  36.022  1.00  0.00     0.002 A 
ATOM     94  C   UNL A   1      40.829  31.801  35.149  1.00  0.00     0.091 A 
ATOM     95  F   UNL A   1      39.968  31.395  32.966  1.00  0.00    -0.205 F 
ATOM     96  C   UNL A   1      41.696  31.432  36.188  1.00  0.00     0.022 A 
BRANCH  94  97
ATOM     97  S   UNL A   1      39.830  33.275  35.350  1.00  0.00     0.127 S 
ATOM     98  O   UNL A   1      40.320  34.127  34.269  1.00  0.00    -0.237 OA
ATOM     99  O   UNL A   1      38.471  32.763  35.158  1.00  0.00    -0.237 OA
ATOM    100  O   UNL A   1      40.095  33.756  36.701  1.00  0.00    -0.744 OA
ENDBRANCH  94  97
ENDBRANCH  67  90
ENDBRANCH  41  42
ENDBRANCH  33  36
ENDBRANCH  31  32
ENDBRANCH   1  31
TORSDOF 18
ENDMDL
MODEL 3
REMARK VINA RESULT:     -12.1      1.673      2.119
REMARK SMILES C=CCn1nc(C(=O)NCCCNC(=O)c2ccc(-c3c4nc(c(-c5cccc(S(=O)(=O)[O-])c5F)c5ccc([nH]5)c(-c5cccc(S(=O)(=O)[O-])c5F)c5nc(c(-c6cccc(S(=O)(=O)[O-])c6F)c6ccc3[nH]6)C=C5)C=C4)cc2)c2c1CC[C@@H]([NH+]1CCC(C(C)(C)O)CC1)C2
REMARK SMILES IDX 11 1 10 2 9 3 7 4 8 5 6 7 4 8 5 9 80 10 79 11 81 12 94 13
REMARK SMILES IDX 82 14 83 15 3 16 2 17 1 18 84 19 85 20 93 21 86 23 92 24
REMARK SMILES IDX 87 25 88 26 89 27 90 28 91 29 12 31 13 32 14 33 15 35 16 36
REMARK SMILES IDX 17 37 78 38 18 39 77 40 19 41 20 42 21 43 71 44 22 45 76 46
REMARK SMILES IDX 70 47 72 48 23 49 75 50 69 51 68 52 24 54 56 55 36 56 55 57
REMARK SMILES IDX 37 58 40 59 54 60 73 61 38 62 39 63 53 65 74 66 41 67 25 68
REMARK SMILES IDX 26 69 34 70 27 71 29 72 35 73 28 74 30 75 31 76 32 77 33 78
REMARK SMILES IDX 57 79 58 80 66 81 59 82 61 83 67 84 60 85 62 86 63 87 64 88
REMARK SMILES IDX 65 89 42 90 43 91 51 92 44 93 46 94 52 95 45 96 47 97 48 98
REMARK SMILES IDX 49 99 50 100
REMARK H PARENT 9 6 84 22 91 30 13 34 72 53 40 64
REMARK Flexibility Score: inf
ROOT
ATOM      1  C   UNL A   1      39.034  19.477  25.722  1.00  0.00     0.042 C 
ENDROOT
BRANCH   1   2
ATOM      2  C   UNL A   1      38.014  20.222  24.841  1.00  0.00     0.118 C 
BRANCH   2   3
ATOM      3  N   UNL A   1      37.614  21.518  25.385  1.00  0.00    -0.351 N 
ATOM      4  C   UNL A   1      36.434  22.235  25.505  1.00  0.00     0.272 C 
ATOM      5  O   UNL A   1      36.519  23.221  26.247  1.00  0.00    -0.267 OA
ATOM      6  H   UNL A   1      38.380  22.009  25.762  1.00  0.00     0.163 HD
BRANCH   4   7
ATOM      7  C   UNL A   1      35.147  21.897  24.836  1.00  0.00     0.153 A 
ATOM      8  N   UNL A   1      33.479  20.636  24.294  1.00  0.00    -0.265 N 
ATOM      9  N   UNL A   1      34.750  20.601  24.755  1.00  0.00    -0.167 NA
ATOM     10  C   UNL A   1      33.181  21.849  23.745  1.00  0.00     0.043 A 
ATOM     11  C   UNL A   1      34.115  22.699  24.284  1.00  0.00     0.012 A 
ATOM     12  C   UNL A   1      32.002  22.255  22.941  1.00  0.00     0.062 C 
ATOM     13  C   UNL A   1      33.896  24.145  24.298  1.00  0.00     0.105 C 
ATOM     14  C   UNL A   1      31.907  23.797  22.864  1.00  0.00     0.072 C 
ATOM     15  C   UNL A   1      32.457  24.614  24.058  1.00  0.00     0.189 C 
BRANCH   8  16
ATOM     16  C   UNL A   1      32.579  19.493  24.473  1.00  0.00     0.171 C 
BRANCH  16  17
ATOM     17  C   UNL A   1      32.480  18.584  23.272  1.00  0.00    -0.011 C 
ATOM     18  C   UNL A   1      33.114  17.413  23.115  1.00  0.00     0.006 C 
ENDBRANCH  16  17
ENDBRANCH   8  16
BRANCH  15  19
ATOM     19  N   UNL A   1      31.790  24.836  25.356  1.00  0.00    -0.332 N 
ATOM     20  C   UNL A   1      30.416  25.295  25.411  1.00  0.00     0.262 C 
ATOM     21  C   UNL A   1      32.570  25.481  26.395  1.00  0.00     0.262 C 
ATOM     22  H   UNL A   1      31.721  23.839  25.559  1.00  0.00     0.348 HD
ATOM     23  C   UNL A   1      30.281  26.787  25.167  1.00  0.00     0.068 C 
ATOM     24  C   UNL A   1      32.700  26.971  26.155  1.00  0.00     0.068 C 
ATOM     25  C   UNL A   1      31.387  27.698  25.761  1.00  0.00     0.031 C 
BRANCH  25  26
ATOM     26  C   UNL A   1      31.690  28.958  24.871  1.00  0.00     0.062 C 
ATOM     27  C   UNL A   1      31.765  30.264  25.666  1.00  0.00     0.042 C 
ATOM     28  C   UNL A   1      32.976  28.749  24.067  1.00  0.00     0.042 C 
BRANCH  26  29
ATOM     29  O   UNL A   1      30.647  29.146  23.911  1.00  0.00    -0.390 OA
ATOM     30  H   UNL A   1      30.977  28.924  23.027  1.00  0.00     0.211 HD
ENDBRANCH  26  29
ENDBRANCH  25  26
ENDBRANCH  15  19
ENDBRANCH   4   7
ENDBRANCH   2   3
ENDBRANCH   1   2
BRANCH   1  31
ATOM     31  C   UNL A   1      40.302  20.202  26.079  1.00  0.00     0.118 C 
BRANCH  31  32
ATOM     32  N   UNL A   1      41.489  19.480  25.622  1.00  0.00    -0.352 N 
ATOM     33  C   UNL A   1      42.771  19.983  25.497  1.00  0.00     0.251 C 
ATOM     34  H   UNL A   1      41.362  18.535  25.376  1.00  0.00     0.163 HD
ATOM     35  O   UNL A   1      43.578  19.472  24.744  1.00  0.00    -0.269 OA
BRANCH  33  36
ATOM     36  C   UNL A   1      43.107  21.176  26.293  1.00  0.00     0.039 A 
ATOM     37  C   UNL A   1      43.512  22.353  25.665  1.00  0.00     0.014 A 
ATOM     38  C   UNL A   1      42.882  21.126  27.667  1.00  0.00     0.014 A 
ATOM     39  C   UNL A   1      43.584  23.513  26.425  1.00  0.00     0.010 A 
ATOM     40  C   UNL A   1      42.783  22.299  28.372  1.00  0.00     0.010 A 
ATOM     41  C   UNL A   1      43.171  23.490  27.771  1.00  0.00    -0.014 A 
BRANCH  41  42
ATOM     42  C   UNL A   1      42.974  24.744  28.494  1.00  0.00     0.031 A 
ATOM     43  C   UNL A   1      41.651  25.369  28.232  1.00  0.00     0.074 A 
ATOM     44  C   UNL A   1      43.820  25.205  29.441  1.00  0.00     0.049 A 
ATOM     45  N   UNL A   1      41.411  26.387  27.473  1.00  0.00    -0.248 NA
ATOM     46  C   UNL A   1      40.435  24.666  28.675  1.00  0.00     0.031 C 
ATOM     47  C   UNL A   1      44.988  24.516  30.007  1.00  0.00     0.029 A 
ATOM     48  N   UNL A   1      43.747  26.336  30.200  1.00  0.00    -0.354 N 
ATOM     49  C   UNL A   1      40.043  26.626  27.597  1.00  0.00     0.074 A 
ATOM     50  C   UNL A   1      39.481  25.408  28.106  1.00  0.00     0.031 C 
ATOM     51  C   UNL A   1      45.345  25.107  31.167  1.00  0.00     0.029 A 
ATOM     52  C   UNL A   1      44.562  26.315  31.331  1.00  0.00     0.049 A 
ATOM     53  H   UNL A   1      43.169  27.098  29.969  1.00  0.00     0.167 HD
ATOM     54  C   UNL A   1      39.571  27.906  27.592  1.00  0.00     0.034 A 
ATOM     55  C   UNL A   1      44.577  27.213  32.346  1.00  0.00     0.034 A 
ATOM     56  C   UNL A   1      40.606  28.811  27.141  1.00  0.00     0.049 A 
ATOM     57  C   UNL A   1      43.981  28.457  31.822  1.00  0.00     0.074 A 
ATOM     58  C   UNL A   1      41.333  29.009  25.989  1.00  0.00     0.029 A 
ATOM     59  N   UNL A   1      41.288  29.423  28.161  1.00  0.00    -0.354 N 
ATOM     60  N   UNL A   1      44.550  29.199  30.915  1.00  0.00    -0.248 NA
ATOM     61  C   UNL A   1      42.565  28.708  32.043  1.00  0.00     0.031 C 
ATOM     62  C   UNL A   1      42.607  29.484  26.420  1.00  0.00     0.029 A 
ATOM     63  C   UNL A   1      42.589  29.628  27.809  1.00  0.00     0.049 A 
ATOM     64  H   UNL A   1      40.894  29.679  29.027  1.00  0.00     0.167 HD
ATOM     65  C   UNL A   1      43.493  29.637  30.136  1.00  0.00     0.074 A 
ATOM     66  C   UNL A   1      42.311  29.468  30.976  1.00  0.00     0.031 C 
ATOM     67  C   UNL A   1      43.645  29.780  28.788  1.00  0.00     0.034 A 
BRANCH  54  68
ATOM     68  C   UNL A   1      38.429  28.441  28.455  1.00  0.00     0.023 A 
ATOM     69  C   UNL A   1      37.429  29.185  27.778  1.00  0.00     0.012 A 
ATOM     70  C   UNL A   1      38.430  28.539  29.866  1.00  0.00     0.148 A 
ATOM     71  C   UNL A   1      36.566  30.060  28.450  1.00  0.00     0.002 A 
ATOM     72  C   UNL A   1      37.532  29.363  30.537  1.00  0.00     0.091 A 
ATOM     73  F   UNL A   1      39.360  27.917  30.586  1.00  0.00    -0.205 F 
ATOM     74  C   UNL A   1      36.623  30.155  29.832  1.00  0.00     0.022 A 
BRANCH  72  75
ATOM     75  S   UNL A   1      37.531  29.506  32.331  1.00  0.00     0.127 S 
ATOM     76  O   UNL A   1      38.778  30.228  32.567  1.00  0.00    -0.237 OA
ATOM     77  O   UNL A   1      36.310  30.280  32.562  1.00  0.00    -0.237 OA
ATOM     78  O   UNL A   1      37.483  28.142  32.841  1.00  0.00    -0.744 OA
ENDBRANCH  72  75
ENDBRANCH  54  68
BRANCH  55  79
ATOM     79  C   UNL A   1      44.918  27.073  33.780  1.00  0.00     0.023 A 
ATOM     80  C   UNL A   1      46.055  27.734  34.288  1.00  0.00     0.012 A 
ATOM     81  C   UNL A   1      43.975  26.566  34.698  1.00  0.00     0.148 A 
ATOM     82  C   UNL A   1      46.220  27.939  35.663  1.00  0.00     0.002 A 
ATOM     83  C   UNL A   1      44.142  26.773  36.065  1.00  0.00     0.091 A 
ATOM     84  F   UNL A   1      42.872  25.969  34.226  1.00  0.00    -0.205 F 
ATOM     85  C   UNL A   1      45.255  27.473  36.550  1.00  0.00     0.022 A 
BRANCH  83  86
ATOM     86  S   UNL A   1      42.921  26.239  37.272  1.00  0.00     0.127 S 
ATOM     87  O   UNL A   1      41.796  27.127  36.975  1.00  0.00    -0.237 OA
ATOM     88  O   UNL A   1      42.717  24.843  36.894  1.00  0.00    -0.237 OA
ATOM     89  O   UNL A   1      43.533  26.460  38.575  1.00  0.00    -0.744 OA
ENDBRANCH  83  86
ENDBRANCH  55  79
BRANCH  67  90
ATOM     90  C   UNL A   1      45.041  29.926  28.252  1.00  0.00     0.023 A 
ATOM     91  C   UNL A   1      45.761  31.137  28.268  1.00  0.00     0.012 A 
ATOM     92  C   UNL A   1      45.690  28.750  27.842  1.00  0.00     0.148 A 
ATOM     93  C   UNL A   1      47.099  31.171  27.865  1.00  0.00     0.002 A 
ATOM     94  C   UNL A   1      47.033  28.777  27.498  1.00  0.00     0.091 A 
ATOM     95  F   UNL A   1      44.982  27.610  27.818  1.00  0.00    -0.205 F 
ATOM     96  C   UNL A   1      47.740  29.989  27.497  1.00  0.00     0.022 A 
BRANCH  94  97
ATOM     97  S   UNL A   1      47.927  27.263  27.152  1.00  0.00     0.127 S 
ATOM     98  O   UNL A   1      47.300  26.815  25.911  1.00  0.00    -0.237 OA
ATOM     99  O   UNL A   1      49.305  27.737  27.005  1.00  0.00    -0.237 OA
ATOM    100  O   UNL A   1      47.718  26.403  28.311  1.00  0.00    -0.744 OA
ENDBRANCH  94  97
ENDBRANCH  67  90
ENDBRANCH  41  42
ENDBRANCH  33  36
ENDBRANCH  31  32
ENDBRANCH   1  31
TORSDOF 18
ENDMDL
