MODEL 1
REMARK VINA RESULT:     -12.4      0.000      0.000
REMARK SMILES CCN(CC)c1ncc(NC(=O)c2ccc(C)cc2)cc1C(=O)NCCCNC(=O)c1ccc(-c2c3nc(c(-c4cccc(S(=O)(=O)[O-])c4F)c4ccc([nH]4)c(-c4cccc(S(=O)(=O)[O-])c4F)c4nc(c(-c5cccc(S(=O)(=O)[O-])c5F)c5ccc2[nH]5)C=C4)C=C3)cc1
REMARK SMILES IDX 26 1 25 2 24 3 22 4 23 5 21 7 6 8 7 9 8 10 20 11 9 12 3 13
REMARK SMILES IDX 2 14 1 15 4 16 5 17 10 18 11 19 12 21 13 22 14 23 19 24
REMARK SMILES IDX 15 25 18 26 16 27 17 28 27 29 28 30 29 31 30 33 31 34 32 35
REMARK SMILES IDX 93 36 33 37 92 38 34 39 35 40 36 41 86 42 37 43 91 44 85 45
REMARK SMILES IDX 87 46 38 47 90 48 84 49 83 50 39 52 71 53 51 54 70 55 52 56
REMARK SMILES IDX 55 57 69 58 88 59 53 60 54 61 68 63 89 64 56 65 40 66 41 67
REMARK SMILES IDX 49 68 42 69 44 70 50 71 43 72 45 73 46 74 47 75 48 76 72 77
REMARK SMILES IDX 73 78 81 79 74 80 76 81 82 82 75 83 77 84 78 85 79 86 80 87
REMARK SMILES IDX 57 88 58 89 66 90 59 91 61 92 67 93 60 94 62 95 63 96 64 97
REMARK SMILES IDX 65 98
REMARK H PARENT 24 6 10 20 28 32 87 51 55 62
REMARK Flexibility Score: inf
ROOT
ATOM      1  C   UNL A   1      37.896  21.195  25.130  1.00  0.00     0.042 C 
ENDROOT
BRANCH   1   2
ATOM      2  C   UNL A   1      36.374  21.103  25.153  1.00  0.00     0.118 C 
BRANCH   2   3
ATOM      3  N   UNL A   1      35.727  22.053  26.045  1.00  0.00    -0.352 N 
ATOM      4  C   UNL A   1      34.571  22.803  25.983  1.00  0.00     0.255 C 
ATOM      5  O   UNL A   1      34.087  23.105  27.075  1.00  0.00    -0.269 OA
ATOM      6  H   UNL A   1      36.227  22.191  26.881  1.00  0.00     0.163 HD
BRANCH   4   7
ATOM      7  C   UNL A   1      33.901  23.242  24.716  1.00  0.00     0.084 A 
ATOM      8  C   UNL A   1      32.935  22.428  24.084  1.00  0.00     0.141 A 
ATOM      9  N   UNL A   1      32.441  22.755  22.859  1.00  0.00    -0.236 NA
ATOM     10  C   UNL A   1      32.841  23.896  22.262  1.00  0.00     0.139 A 
ATOM     11  C   UNL A   1      34.266  24.429  24.061  1.00  0.00     0.045 A 
ATOM     12  C   UNL A   1      33.698  24.804  22.843  1.00  0.00     0.060 A 
BRANCH   8  13
ATOM     13  N   UNL A   1      32.404  21.271  24.627  1.00  0.00    -0.357 N 
BRANCH  13  14
ATOM     14  C   UNL A   1      33.068  20.000  24.341  1.00  0.00     0.114 C 
ATOM     15  C   UNL A   1      32.912  18.997  25.473  1.00  0.00     0.027 C 
ENDBRANCH  13  14
BRANCH  13  16
ATOM     16  C   UNL A   1      31.654  21.396  25.877  1.00  0.00     0.114 C 
ATOM     17  C   UNL A   1      30.713  22.596  25.914  1.00  0.00     0.027 C 
ENDBRANCH  13  16
ENDBRANCH   8  13
BRANCH  12  18
ATOM     18  N   UNL A   1      34.087  26.043  22.295  1.00  0.00    -0.321 N 
ATOM     19  C   UNL A   1      33.766  27.339  22.629  1.00  0.00     0.255 C 
ATOM     20  H   UNL A   1      34.702  25.967  21.531  1.00  0.00     0.170 HD
ATOM     21  O   UNL A   1      34.002  28.245  21.831  1.00  0.00    -0.269 OA
BRANCH  19  22
ATOM     22  C   UNL A   1      33.195  27.689  23.948  1.00  0.00     0.040 A 
ATOM     23  C   UNL A   1      31.814  27.563  24.130  1.00  0.00     0.014 A 
ATOM     24  C   UNL A   1      33.998  28.169  24.988  1.00  0.00     0.014 A 
ATOM     25  C   UNL A   1      31.252  27.833  25.379  1.00  0.00     0.004 A 
ATOM     26  C   UNL A   1      33.434  28.420  26.240  1.00  0.00     0.004 A 
ATOM     27  C   UNL A   1      32.063  28.231  26.450  1.00  0.00    -0.051 A 
ATOM     28  C   UNL A   1      31.455  28.483  27.798  1.00  0.00     0.044 C 
ENDBRANCH  19  22
ENDBRANCH  12  18
ENDBRANCH   4   7
ENDBRANCH   2   3
ENDBRANCH   1   2
BRANCH   1  29
ATOM     29  C   UNL A   1      38.402  22.474  25.781  1.00  0.00     0.118 C 
BRANCH  29  30
ATOM     30  N   UNL A   1      39.791  22.394  26.225  1.00  0.00    -0.352 N 
ATOM     31  C   UNL A   1      40.641  23.404  26.641  1.00  0.00     0.251 C 
ATOM     32  H   UNL A   1      40.179  21.489  26.232  1.00  0.00     0.163 HD
ATOM     33  O   UNL A   1      41.822  23.137  26.853  1.00  0.00    -0.269 OA
BRANCH  31  34
ATOM     34  C   UNL A   1      40.092  24.746  26.936  1.00  0.00     0.039 A 
ATOM     35  C   UNL A   1      40.659  25.851  26.286  1.00  0.00     0.014 A 
ATOM     36  C   UNL A   1      39.216  24.931  28.001  1.00  0.00     0.014 A 
ATOM     37  C   UNL A   1      40.570  27.109  26.875  1.00  0.00     0.010 A 
ATOM     38  C   UNL A   1      39.199  26.152  28.634  1.00  0.00     0.010 A 
ATOM     39  C   UNL A   1      39.946  27.214  28.113  1.00  0.00    -0.014 A 
BRANCH  39  40
ATOM     40  C   UNL A   1      40.044  28.364  28.996  1.00  0.00     0.031 A 
ATOM     41  C   UNL A   1      39.192  29.541  28.755  1.00  0.00     0.074 A 
ATOM     42  C   UNL A   1      40.759  28.225  30.135  1.00  0.00     0.049 A 
ATOM     43  N   UNL A   1      39.324  30.677  29.349  1.00  0.00    -0.248 NA
ATOM     44  C   UNL A   1      38.114  29.521  27.774  1.00  0.00     0.031 C 
ATOM     45  C   UNL A   1      40.692  29.048  31.336  1.00  0.00     0.029 A 
ATOM     46  N   UNL A   1      41.869  27.401  30.357  1.00  0.00    -0.354 N 
ATOM     47  C   UNL A   1      38.205  31.430  29.056  1.00  0.00     0.074 A 
ATOM     48  C   UNL A   1      37.542  30.705  28.000  1.00  0.00     0.031 C 
ATOM     49  C   UNL A   1      41.842  28.909  32.014  1.00  0.00     0.029 A 
ATOM     50  C   UNL A   1      42.744  28.168  31.146  1.00  0.00     0.049 A 
ATOM     51  H   UNL A   1      42.008  26.482  30.030  1.00  0.00     0.167 HD
ATOM     52  C   UNL A   1      37.908  32.494  29.858  1.00  0.00     0.034 A 
ATOM     53  C   UNL A   1      43.953  28.629  30.698  1.00  0.00     0.034 A 
ATOM     54  C   UNL A   1      39.015  32.754  30.794  1.00  0.00     0.049 A 
ATOM     55  C   UNL A   1      44.090  30.144  30.788  1.00  0.00     0.074 A 
ATOM     56  C   UNL A   1      39.236  32.411  32.119  1.00  0.00     0.029 A 
ATOM     57  N   UNL A   1      40.237  33.194  30.296  1.00  0.00    -0.354 N 
ATOM     58  N   UNL A   1      43.095  30.957  31.016  1.00  0.00    -0.248 NA
ATOM     59  C   UNL A   1      45.351  30.861  30.603  1.00  0.00     0.031 C 
ATOM     60  C   UNL A   1      40.631  32.533  32.374  1.00  0.00     0.029 A 
ATOM     61  C   UNL A   1      41.248  32.990  31.222  1.00  0.00     0.049 A 
ATOM     62  H   UNL A   1      40.365  33.596  29.406  1.00  0.00     0.167 HD
ATOM     63  C   UNL A   1      43.511  32.255  30.889  1.00  0.00     0.074 A 
ATOM     64  C   UNL A   1      44.950  32.141  30.710  1.00  0.00     0.031 C 
ATOM     65  C   UNL A   1      42.632  33.304  30.875  1.00  0.00     0.034 A 
BRANCH  52  66
ATOM     66  C   UNL A   1      36.525  33.122  30.022  1.00  0.00     0.023 A 
ATOM     67  C   UNL A   1      35.974  33.771  28.893  1.00  0.00     0.012 A 
ATOM     68  C   UNL A   1      35.757  33.213  31.208  1.00  0.00     0.148 A 
ATOM     69  C   UNL A   1      34.803  34.541  28.955  1.00  0.00     0.002 A 
ATOM     70  C   UNL A   1      34.618  34.024  31.288  1.00  0.00     0.091 A 
ATOM     71  F   UNL A   1      36.065  32.462  32.262  1.00  0.00    -0.205 F 
ATOM     72  C   UNL A   1      34.141  34.696  30.163  1.00  0.00     0.022 A 
BRANCH  70  73
ATOM     73  S   UNL A   1      33.743  34.309  32.840  1.00  0.00     0.127 S 
ATOM     74  O   UNL A   1      33.361  32.949  33.232  1.00  0.00    -0.237 OA
ATOM     75  O   UNL A   1      34.775  34.915  33.677  1.00  0.00    -0.237 OA
ATOM     76  O   UNL A   1      32.612  35.173  32.522  1.00  0.00    -0.744 OA
ENDBRANCH  70  73
ENDBRANCH  52  66
BRANCH  53  77
ATOM     77  C   UNL A   1      44.568  27.775  29.633  1.00  0.00     0.023 A 
ATOM     78  C   UNL A   1      44.911  26.447  29.990  1.00  0.00     0.012 A 
ATOM     79  C   UNL A   1      44.465  28.098  28.268  1.00  0.00     0.148 A 
ATOM     80  C   UNL A   1      44.974  25.436  29.030  1.00  0.00     0.002 A 
ATOM     81  C   UNL A   1      44.550  27.084  27.312  1.00  0.00     0.091 A 
ATOM     82  F   UNL A   1      44.226  29.369  27.921  1.00  0.00    -0.205 F 
ATOM     83  C   UNL A   1      44.753  25.749  27.694  1.00  0.00     0.022 A 
BRANCH  81  84
ATOM     84  S   UNL A   1      44.284  27.424  25.565  1.00  0.00     0.127 S 
ATOM     85  O   UNL A   1      45.572  27.989  25.177  1.00  0.00    -0.237 OA
ATOM     86  O   UNL A   1      44.006  26.095  25.020  1.00  0.00    -0.237 OA
ATOM     87  O   UNL A   1      43.142  28.326  25.539  1.00  0.00    -0.744 OA
ENDBRANCH  81  84
ENDBRANCH  53  77
BRANCH  65  88
ATOM     88  C   UNL A   1      42.979  34.730  30.491  1.00  0.00     0.023 A 
ATOM     89  C   UNL A   1      43.455  35.666  31.430  1.00  0.00     0.012 A 
ATOM     90  C   UNL A   1      43.003  35.126  29.128  1.00  0.00     0.148 A 
ATOM     91  C   UNL A   1      43.877  36.945  31.052  1.00  0.00     0.002 A 
ATOM     92  C   UNL A   1      43.531  36.356  28.746  1.00  0.00     0.091 A 
ATOM     93  F   UNL A   1      42.499  34.313  28.189  1.00  0.00    -0.205 F 
ATOM     94  C   UNL A   1      43.940  37.283  29.707  1.00  0.00     0.022 A 
BRANCH  92  95
ATOM     95  S   UNL A   1      43.861  36.715  27.014  1.00  0.00     0.127 S 
ATOM     96  O   UNL A   1      42.513  36.811  26.458  1.00  0.00    -0.237 OA
ATOM     97  O   UNL A   1      44.581  37.988  27.082  1.00  0.00    -0.237 OA
ATOM     98  O   UNL A   1      44.674  35.598  26.551  1.00  0.00    -0.744 OA
ENDBRANCH  92  95
ENDBRANCH  65  88
ENDBRANCH  39  40
ENDBRANCH  31  34
ENDBRANCH  29  30
ENDBRANCH   1  29
TORSDOF 18
ENDMDL
MODEL 2
REMARK VINA RESULT:     -12.4      3.763      9.440
REMARK SMILES CCN(CC)c1ncc(NC(=O)c2ccc(C)cc2)cc1C(=O)NCCCNC(=O)c1ccc(-c2c3nc(c(-c4cccc(S(=O)(=O)[O-])c4F)c4ccc([nH]4)c(-c4cccc(S(=O)(=O)[O-])c4F)c4nc(c(-c5cccc(S(=O)(=O)[O-])c5F)c5ccc2[nH]5)C=C4)C=C3)cc1
REMARK SMILES IDX 26 1 25 2 24 3 22 4 23 5 21 7 6 8 7 9 8 10 20 11 9 12 3 13
REMARK SMILES IDX 2 14 1 15 4 16 5 17 10 18 11 19 12 21 13 22 14 23 19 24
REMARK SMILES IDX 15 25 18 26 16 27 17 28 27 29 28 30 29 31 30 33 31 34 32 35
REMARK SMILES IDX 93 36 33 37 92 38 34 39 35 40 36 41 86 42 37 43 91 44 85 45
REMARK SMILES IDX 87 46 38 47 90 48 84 49 83 50 39 52 71 53 51 54 70 55 52 56
REMARK SMILES IDX 55 57 69 58 88 59 53 60 54 61 68 63 89 64 56 65 40 66 41 67
REMARK SMILES IDX 49 68 42 69 44 70 50 71 43 72 45 73 46 74 47 75 48 76 72 77
REMARK SMILES IDX 73 78 81 79 74 80 76 81 82 82 75 83 77 84 78 85 79 86 80 87
REMARK SMILES IDX 57 88 58 89 66 90 59 91 61 92 67 93 60 94 62 95 63 96 64 97
REMARK SMILES IDX 65 98
REMARK H PARENT 24 6 10 20 28 32 87 51 55 62
REMARK Flexibility Score: inf
ROOT
ATOM      1  C   UNL A   1      32.490  29.715  27.279  1.00  0.00     0.042 C 
ENDROOT
BRANCH   1   2
ATOM      2  C   UNL A   1      32.922  28.259  27.411  1.00  0.00     0.118 C 
BRANCH   2   3
ATOM      3  N   UNL A   1      31.868  27.292  27.144  1.00  0.00    -0.352 N 
ATOM      4  C   UNL A   1      31.816  26.072  26.500  1.00  0.00     0.255 C 
ATOM      5  O   UNL A   1      30.914  25.323  26.878  1.00  0.00    -0.269 OA
ATOM      6  H   UNL A   1      30.995  27.571  27.503  1.00  0.00     0.163 HD
BRANCH   4   7
ATOM      7  C   UNL A   1      32.759  25.630  25.423  1.00  0.00     0.084 A 
ATOM      8  C   UNL A   1      32.427  25.779  24.059  1.00  0.00     0.141 A 
ATOM      9  N   UNL A   1      33.212  25.241  23.087  1.00  0.00    -0.236 NA
ATOM     10  C   UNL A   1      34.348  24.599  23.427  1.00  0.00     0.139 A 
ATOM     11  C   UNL A   1      33.964  24.973  25.720  1.00  0.00     0.045 A 
ATOM     12  C   UNL A   1      34.809  24.492  24.720  1.00  0.00     0.060 A 
BRANCH   8  13
ATOM     13  N   UNL A   1      31.323  26.470  23.588  1.00  0.00    -0.357 N 
BRANCH  13  14
ATOM     14  C   UNL A   1      31.545  27.629  22.724  1.00  0.00     0.114 C 
ATOM     15  C   UNL A   1      32.232  28.772  23.452  1.00  0.00     0.027 C 
ENDBRANCH  13  14
BRANCH  13  16
ATOM     16  C   UNL A   1      30.074  25.723  23.440  1.00  0.00     0.114 C 
ATOM     17  C   UNL A   1      28.852  26.454  23.987  1.00  0.00     0.027 C 
ENDBRANCH  13  16
ENDBRANCH   8  13
BRANCH  12  18
ATOM     18  N   UNL A   1      36.023  23.900  25.120  1.00  0.00    -0.321 N 
ATOM     19  C   UNL A   1      36.315  22.666  25.655  1.00  0.00     0.255 C 
ATOM     20  H   UNL A   1      36.810  24.477  24.993  1.00  0.00     0.170 HD
ATOM     21  O   UNL A   1      37.409  22.480  26.185  1.00  0.00    -0.269 OA
BRANCH  19  22
ATOM     22  C   UNL A   1      35.372  21.531  25.563  1.00  0.00     0.040 A 
ATOM     23  C   UNL A   1      34.167  21.607  26.268  1.00  0.00     0.014 A 
ATOM     24  C   UNL A   1      35.677  20.385  24.820  1.00  0.00     0.014 A 
ATOM     25  C   UNL A   1      33.232  20.576  26.158  1.00  0.00     0.004 A 
ATOM     26  C   UNL A   1      34.731  19.365  24.698  1.00  0.00     0.004 A 
ATOM     27  C   UNL A   1      33.494  19.465  25.346  1.00  0.00    -0.051 A 
ATOM     28  C   UNL A   1      32.468  18.380  25.205  1.00  0.00     0.044 C 
ENDBRANCH  19  22
ENDBRANCH  12  18
ENDBRANCH   4   7
ENDBRANCH   2   3
ENDBRANCH   1   2
BRANCH   1  29
ATOM     29  C   UNL A   1      33.645  30.622  26.881  1.00  0.00     0.118 C 
BRANCH  29  30
ATOM     30  N   UNL A   1      34.035  31.566  27.925  1.00  0.00    -0.352 N 
ATOM     31  C   UNL A   1      34.980  31.429  28.927  1.00  0.00     0.251 C 
ATOM     32  H   UNL A   1      33.556  32.426  27.914  1.00  0.00     0.163 HD
ATOM     33  O   UNL A   1      35.063  32.301  29.788  1.00  0.00    -0.269 OA
BRANCH  31  34
ATOM     34  C   UNL A   1      35.944  30.307  28.873  1.00  0.00     0.039 A 
ATOM     35  C   UNL A   1      36.274  29.660  30.071  1.00  0.00     0.014 A 
ATOM     36  C   UNL A   1      36.682  30.067  27.718  1.00  0.00     0.014 A 
ATOM     37  C   UNL A   1      37.496  29.001  30.177  1.00  0.00     0.010 A 
ATOM     38  C   UNL A   1      37.927  29.495  27.840  1.00  0.00     0.010 A 
ATOM     39  C   UNL A   1      38.362  29.041  29.090  1.00  0.00    -0.014 A 
BRANCH  39  40
ATOM     40  C   UNL A   1      39.771  28.689  29.139  1.00  0.00     0.031 A 
ATOM     41  C   UNL A   1      40.181  27.293  28.913  1.00  0.00     0.074 A 
ATOM     42  C   UNL A   1      40.671  29.698  29.177  1.00  0.00     0.049 A 
ATOM     43  N   UNL A   1      41.368  26.834  29.117  1.00  0.00    -0.248 NA
ATOM     44  C   UNL A   1      39.239  26.282  28.451  1.00  0.00     0.031 C 
ATOM     45  C   UNL A   1      42.088  29.640  28.841  1.00  0.00     0.029 A 
ATOM     46  N   UNL A   1      40.512  30.970  29.740  1.00  0.00    -0.354 N 
ATOM     47  C   UNL A   1      41.427  25.574  28.557  1.00  0.00     0.074 A 
ATOM     48  C   UNL A   1      40.056  25.245  28.249  1.00  0.00     0.031 C 
ATOM     49  C   UNL A   1      42.713  30.661  29.450  1.00  0.00     0.029 A 
ATOM     50  C   UNL A   1      41.743  31.255  30.357  1.00  0.00     0.049 A 
ATOM     51  H   UNL A   1      39.711  31.543  29.710  1.00  0.00     0.167 HD
ATOM     52  C   UNL A   1      42.653  25.038  28.286  1.00  0.00     0.034 A 
ATOM     53  C   UNL A   1      41.899  31.352  31.715  1.00  0.00     0.034 A 
ATOM     54  C   UNL A   1      43.716  25.874  28.868  1.00  0.00     0.049 A 
ATOM     55  C   UNL A   1      42.942  30.390  32.271  1.00  0.00     0.074 A 
ATOM     56  C   UNL A   1      44.544  26.854  28.345  1.00  0.00     0.029 A 
ATOM     57  N   UNL A   1      43.823  25.969  30.252  1.00  0.00    -0.354 N 
ATOM     58  N   UNL A   1      43.455  29.397  31.597  1.00  0.00    -0.248 NA
ATOM     59  C   UNL A   1      43.468  30.456  33.633  1.00  0.00     0.031 C 
ATOM     60  C   UNL A   1      45.054  27.620  29.432  1.00  0.00     0.029 A 
ATOM     61  C   UNL A   1      44.571  27.080  30.612  1.00  0.00     0.049 A 
ATOM     62  H   UNL A   1      43.422  25.334  30.888  1.00  0.00     0.167 HD
ATOM     63  C   UNL A   1      44.245  28.634  32.415  1.00  0.00     0.074 A 
ATOM     64  C   UNL A   1      44.284  29.386  33.658  1.00  0.00     0.031 C 
ATOM     65  C   UNL A   1      44.742  27.420  32.022  1.00  0.00     0.034 A 
BRANCH  52  66
ATOM     66  C   UNL A   1      42.935  23.943  27.259  1.00  0.00     0.023 A 
ATOM     67  C   UNL A   1      43.574  24.334  26.059  1.00  0.00     0.012 A 
ATOM     68  C   UNL A   1      42.548  22.583  27.323  1.00  0.00     0.148 A 
ATOM     69  C   UNL A   1      43.727  23.472  24.963  1.00  0.00     0.002 A 
ATOM     70  C   UNL A   1      42.649  21.734  26.214  1.00  0.00     0.091 A 
ATOM     71  F   UNL A   1      42.144  22.057  28.477  1.00  0.00    -0.205 F 
ATOM     72  C   UNL A   1      43.233  22.178  25.028  1.00  0.00     0.022 A 
BRANCH  70  73
ATOM     73  S   UNL A   1      41.981  20.058  26.216  1.00  0.00     0.127 S 
ATOM     74  O   UNL A   1      42.621  19.470  25.036  1.00  0.00    -0.237 OA
ATOM     75  O   UNL A   1      42.458  19.530  27.492  1.00  0.00    -0.237 OA
ATOM     76  O   UNL A   1      40.533  20.192  26.099  1.00  0.00    -0.744 OA
ENDBRANCH  70  73
ENDBRANCH  52  66
BRANCH  53  77
ATOM     77  C   UNL A   1      40.660  31.783  32.436  1.00  0.00     0.023 A 
ATOM     78  C   UNL A   1      39.654  30.803  32.628  1.00  0.00     0.012 A 
ATOM     79  C   UNL A   1      40.625  32.946  33.225  1.00  0.00     0.148 A 
ATOM     80  C   UNL A   1      38.750  30.897  33.688  1.00  0.00     0.002 A 
ATOM     81  C   UNL A   1      39.704  33.042  34.270  1.00  0.00     0.091 A 
ATOM     82  F   UNL A   1      41.520  33.913  32.991  1.00  0.00    -0.205 F 
ATOM     83  C   UNL A   1      38.802  31.999  34.534  1.00  0.00     0.022 A 
BRANCH  81  84
ATOM     84  S   UNL A   1      39.712  34.446  35.396  1.00  0.00     0.127 S 
ATOM     85  O   UNL A   1      39.433  35.552  34.486  1.00  0.00    -0.237 OA
ATOM     86  O   UNL A   1      38.626  34.121  36.320  1.00  0.00    -0.237 OA
ATOM     87  O   UNL A   1      41.035  34.419  36.003  1.00  0.00    -0.744 OA
ENDBRANCH  81  84
ENDBRANCH  53  77
BRANCH  65  88
ATOM     88  C   UNL A   1      45.405  26.410  32.940  1.00  0.00     0.023 A 
ATOM     89  C   UNL A   1      46.798  26.388  33.150  1.00  0.00     0.012 A 
ATOM     90  C   UNL A   1      44.623  25.556  33.760  1.00  0.00     0.148 A 
ATOM     91  C   UNL A   1      47.392  25.526  34.079  1.00  0.00     0.002 A 
ATOM     92  C   UNL A   1      45.209  24.786  34.761  1.00  0.00     0.091 A 
ATOM     93  F   UNL A   1      43.299  25.474  33.565  1.00  0.00    -0.205 F 
ATOM     94  C   UNL A   1      46.596  24.743  34.904  1.00  0.00     0.022 A 
BRANCH  92  95
ATOM     95  S   UNL A   1      44.193  23.968  36.001  1.00  0.00     0.127 S 
ATOM     96  O   UNL A   1      45.198  23.376  36.880  1.00  0.00    -0.237 OA
ATOM     97  O   UNL A   1      43.450  25.083  36.593  1.00  0.00    -0.237 OA
ATOM     98  O   UNL A   1      43.364  23.037  35.247  1.00  0.00    -0.744 OA
ENDBRANCH  92  95
ENDBRANCH  65  88
ENDBRANCH  39  40
ENDBRANCH  31  34
ENDBRANCH  29  30
ENDBRANCH   1  29
TORSDOF 18
ENDMDL
MODEL 3
REMARK VINA RESULT:     -12.3      3.861      9.379
REMARK SMILES CCN(CC)c1ncc(NC(=O)c2ccc(C)cc2)cc1C(=O)NCCCNC(=O)c1ccc(-c2c3nc(c(-c4cccc(S(=O)(=O)[O-])c4F)c4ccc([nH]4)c(-c4cccc(S(=O)(=O)[O-])c4F)c4nc(c(-c5cccc(S(=O)(=O)[O-])c5F)c5ccc2[nH]5)C=C4)C=C3)cc1
REMARK SMILES IDX 26 1 25 2 24 3 22 4 23 5 21 7 6 8 7 9 8 10 20 11 9 12 3 13
REMARK SMILES IDX 2 14 1 15 4 16 5 17 10 18 11 19 12 21 13 22 14 23 19 24
REMARK SMILES IDX 15 25 18 26 16 27 17 28 27 29 28 30 29 31 30 33 31 34 32 35
REMARK SMILES IDX 93 36 33 37 92 38 34 39 35 40 36 41 86 42 37 43 91 44 85 45
REMARK SMILES IDX 87 46 38 47 90 48 84 49 83 50 39 52 71 53 51 54 70 55 52 56
REMARK SMILES IDX 55 57 69 58 88 59 53 60 54 61 68 63 89 64 56 65 40 66 41 67
REMARK SMILES IDX 49 68 42 69 44 70 50 71 43 72 45 73 46 74 47 75 48 76 72 77
REMARK SMILES IDX 73 78 81 79 74 80 76 81 82 82 75 83 77 84 78 85 79 86 80 87
REMARK SMILES IDX 57 88 58 89 66 90 59 91 61 92 67 93 60 94 62 95 63 96 64 97
REMARK SMILES IDX 65 98
REMARK H PARENT 24 6 10 20 28 32 87 51 55 62
REMARK Flexibility Score: inf
ROOT
ATOM      1  C   UNL A   1      34.060  29.526  26.461  1.00  0.00     0.042 C 
ENDROOT
BRANCH   1   2
ATOM      2  C   UNL A   1      33.699  28.046  26.422  1.00  0.00     0.118 C 
BRANCH   2   3
ATOM      3  N   UNL A   1      32.281  27.767  26.603  1.00  0.00    -0.352 N 
ATOM      4  C   UNL A   1      31.391  26.883  26.030  1.00  0.00     0.255 C 
ATOM      5  O   UNL A   1      30.428  26.582  26.739  1.00  0.00    -0.269 OA
ATOM      6  H   UNL A   1      31.865  28.339  27.287  1.00  0.00     0.163 HD
BRANCH   4   7
ATOM      7  C   UNL A   1      31.530  26.291  24.661  1.00  0.00     0.084 A 
ATOM      8  C   UNL A   1      31.567  27.114  23.513  1.00  0.00     0.141 A 
ATOM      9  N   UNL A   1      31.539  26.572  22.265  1.00  0.00    -0.236 NA
ATOM     10  C   UNL A   1      31.524  25.231  22.120  1.00  0.00     0.139 A 
ATOM     11  C   UNL A   1      31.537  24.902  24.453  1.00  0.00     0.045 A 
ATOM     12  C   UNL A   1      31.590  24.347  23.175  1.00  0.00     0.060 A 
BRANCH   8  13
ATOM     13  N   UNL A   1      31.648  28.495  23.537  1.00  0.00    -0.357 N 
BRANCH  13  14
ATOM     14  C   UNL A   1      32.736  29.141  22.803  1.00  0.00     0.114 C 
ATOM     15  C   UNL A   1      34.045  28.378  22.916  1.00  0.00     0.027 C 
ENDBRANCH  13  14
BRANCH  13  16
ATOM     16  C   UNL A   1      30.403  29.240  23.730  1.00  0.00     0.114 C 
ATOM     17  C   UNL A   1      29.197  28.612  23.038  1.00  0.00     0.027 C 
ENDBRANCH  13  16
ENDBRANCH   8  13
BRANCH  12  18
ATOM     18  N   UNL A   1      31.654  22.943  23.074  1.00  0.00    -0.321 N 
ATOM     19  C   UNL A   1      32.697  22.057  23.213  1.00  0.00     0.255 C 
ATOM     20  H   UNL A   1      30.792  22.518  22.864  1.00  0.00     0.170 HD
ATOM     21  O   UNL A   1      32.570  20.904  22.802  1.00  0.00    -0.269 OA
BRANCH  19  22
ATOM     22  C   UNL A   1      33.955  22.428  23.897  1.00  0.00     0.040 A 
ATOM     23  C   UNL A   1      35.012  22.921  23.125  1.00  0.00     0.014 A 
ATOM     24  C   UNL A   1      34.113  22.265  25.277  1.00  0.00     0.014 A 
ATOM     25  C   UNL A   1      36.192  23.332  23.747  1.00  0.00     0.004 A 
ATOM     26  C   UNL A   1      35.287  22.695  25.897  1.00  0.00     0.004 A 
ATOM     27  C   UNL A   1      36.324  23.253  25.139  1.00  0.00    -0.051 A 
ATOM     28  C   UNL A   1      37.582  23.731  25.802  1.00  0.00     0.044 C 
ENDBRANCH  19  22
ENDBRANCH  12  18
ENDBRANCH   4   7
ENDBRANCH   2   3
ENDBRANCH   1   2
BRANCH   1  29
ATOM     29  C   UNL A   1      33.747  30.158  27.809  1.00  0.00     0.118 C 
BRANCH  29  30
ATOM     30  N   UNL A   1      34.518  31.367  28.082  1.00  0.00    -0.352 N 
ATOM     31  C   UNL A   1      35.821  31.498  28.532  1.00  0.00     0.251 C 
ATOM     32  H   UNL A   1      34.043  32.214  27.921  1.00  0.00     0.163 HD
ATOM     33  O   UNL A   1      36.240  32.616  28.820  1.00  0.00    -0.269 OA
BRANCH  31  34
ATOM     34  C   UNL A   1      36.713  30.316  28.540  1.00  0.00     0.039 A 
ATOM     35  C   UNL A   1      37.005  29.717  29.772  1.00  0.00     0.014 A 
ATOM     36  C   UNL A   1      37.430  29.967  27.401  1.00  0.00     0.014 A 
ATOM     37  C   UNL A   1      38.184  28.990  29.915  1.00  0.00     0.010 A 
ATOM     38  C   UNL A   1      38.637  29.325  27.555  1.00  0.00     0.010 A 
ATOM     39  C   UNL A   1      39.047  28.915  28.828  1.00  0.00    -0.014 A 
BRANCH  39  40
ATOM     40  C   UNL A   1      40.431  28.478  28.897  1.00  0.00     0.031 A 
ATOM     41  C   UNL A   1      40.755  27.052  28.721  1.00  0.00     0.074 A 
ATOM     42  C   UNL A   1      41.392  29.430  28.904  1.00  0.00     0.049 A 
ATOM     43  N   UNL A   1      41.909  26.528  28.947  1.00  0.00    -0.248 NA
ATOM     44  C   UNL A   1      39.753  26.086  28.289  1.00  0.00     0.031 C 
ATOM     45  C   UNL A   1      42.803  29.273  28.579  1.00  0.00     0.029 A 
ATOM     46  N   UNL A   1      41.311  30.728  29.422  1.00  0.00    -0.354 N 
ATOM     47  C   UNL A   1      41.892  25.248  28.431  1.00  0.00     0.074 A 
ATOM     48  C   UNL A   1      40.505  24.995  28.128  1.00  0.00     0.031 C 
ATOM     49  C   UNL A   1      43.489  30.274  29.155  1.00  0.00     0.029 A 
ATOM     50  C   UNL A   1      42.555  30.957  30.036  1.00  0.00     0.049 A 
ATOM     51  H   UNL A   1      40.547  31.348  29.368  1.00  0.00     0.167 HD
ATOM     52  C   UNL A   1      43.083  24.628  28.186  1.00  0.00     0.034 A 
ATOM     53  C   UNL A   1      42.712  31.092  31.390  1.00  0.00     0.034 A 
ATOM     54  C   UNL A   1      44.194  25.416  28.745  1.00  0.00     0.049 A 
ATOM     55  C   UNL A   1      43.691  30.088  31.985  1.00  0.00     0.074 A 
ATOM     56  C   UNL A   1      45.084  26.325  28.193  1.00  0.00     0.029 A 
ATOM     57  N   UNL A   1      44.303  25.553  30.125  1.00  0.00    -0.354 N 
ATOM     58  N   UNL A   1      44.144  29.042  31.349  1.00  0.00    -0.248 NA
ATOM     59  C   UNL A   1      44.215  30.168  33.347  1.00  0.00     0.031 C 
ATOM     60  C   UNL A   1      45.636  27.095  29.255  1.00  0.00     0.029 A 
ATOM     61  C   UNL A   1      45.117  26.627  30.451  1.00  0.00     0.049 A 
ATOM     62  H   UNL A   1      43.861  24.967  30.780  1.00  0.00     0.167 HD
ATOM     63  C   UNL A   1      44.882  28.260  32.196  1.00  0.00     0.074 A 
ATOM     64  C   UNL A   1      44.964  29.051  33.414  1.00  0.00     0.031 C 
ATOM     65  C   UNL A   1      45.304  27.005  31.849  1.00  0.00     0.034 A 
BRANCH  52  66
ATOM     66  C   UNL A   1      43.300  23.483  27.198  1.00  0.00     0.023 A 
ATOM     67  C   UNL A   1      43.992  23.785  26.002  1.00  0.00     0.012 A 
ATOM     68  C   UNL A   1      42.807  22.159  27.295  1.00  0.00     0.148 A 
ATOM     69  C   UNL A   1      44.099  22.880  24.937  1.00  0.00     0.002 A 
ATOM     70  C   UNL A   1      42.865  21.270  26.214  1.00  0.00     0.091 A 
ATOM     71  F   UNL A   1      42.340  21.703  28.454  1.00  0.00    -0.205 F 
ATOM     72  C   UNL A   1      43.505  21.630  25.029  1.00  0.00     0.022 A 
BRANCH  70  73
ATOM     73  S   UNL A   1      42.068  19.651  26.251  1.00  0.00     0.127 S 
ATOM     74  O   UNL A   1      40.649  20.005  26.181  1.00  0.00    -0.237 OA
ATOM     75  O   UNL A   1      42.596  19.014  25.047  1.00  0.00    -0.237 OA
ATOM     76  O   UNL A   1      42.462  19.028  27.509  1.00  0.00    -0.744 OA
ENDBRANCH  70  73
ENDBRANCH  52  66
BRANCH  53  77
ATOM     77  C   UNL A   1      41.499  31.624  32.089  1.00  0.00     0.023 A 
ATOM     78  C   UNL A   1      41.071  32.927  31.734  1.00  0.00     0.012 A 
ATOM     79  C   UNL A   1      40.597  30.778  32.759  1.00  0.00     0.148 A 
ATOM     80  C   UNL A   1      39.737  33.311  31.882  1.00  0.00     0.002 A 
ATOM     81  C   UNL A   1      39.269  31.179  32.922  1.00  0.00     0.091 A 
ATOM     82  F   UNL A   1      41.021  29.578  33.173  1.00  0.00    -0.205 F 
ATOM     83  C   UNL A   1      38.827  32.421  32.439  1.00  0.00     0.022 A 
BRANCH  81  84
ATOM     84  S   UNL A   1      38.043  30.077  33.645  1.00  0.00     0.127 S 
ATOM     85  O   UNL A   1      38.265  30.288  35.071  1.00  0.00    -0.237 OA
ATOM     86  O   UNL A   1      36.785  30.619  33.131  1.00  0.00    -0.237 OA
ATOM     87  O   UNL A   1      38.380  28.762  33.119  1.00  0.00    -0.744 OA
ENDBRANCH  81  84
ENDBRANCH  53  77
BRANCH  65  88
ATOM     88  C   UNL A   1      45.900  25.988  32.804  1.00  0.00     0.023 A 
ATOM     89  C   UNL A   1      47.280  25.940  33.085  1.00  0.00     0.012 A 
ATOM     90  C   UNL A   1      45.061  25.154  33.588  1.00  0.00     0.148 A 
ATOM     91  C   UNL A   1      47.809  25.074  34.047  1.00  0.00     0.002 A 
ATOM     92  C   UNL A   1      45.580  24.380  34.622  1.00  0.00     0.091 A 
ATOM     93  F   UNL A   1      43.747  25.097  33.327  1.00  0.00    -0.205 F 
ATOM     94  C   UNL A   1      46.958  24.311  34.836  1.00  0.00     0.022 A 
BRANCH  92  95
ATOM     95  S   UNL A   1      44.487  23.589  35.813  1.00  0.00     0.127 S 
ATOM     96  O   UNL A   1      44.097  22.369  35.110  1.00  0.00    -0.237 OA
ATOM     97  O   UNL A   1      45.369  23.372  36.962  1.00  0.00    -0.237 OA
ATOM     98  O   UNL A   1      43.431  24.563  36.053  1.00  0.00    -0.744 OA
ENDBRANCH  92  95
ENDBRANCH  65  88
ENDBRANCH  39  40
ENDBRANCH  31  34
ENDBRANCH  29  30
ENDBRANCH   1  29
TORSDOF 18
ENDMDL
