MODEL 1
REMARK VINA RESULT:     -14.2      0.000      0.000
REMARK SMILES Cc1cccc(OC2(C(=O)NCCCNC(=O)c3ccc(-c4c5nc(c(-c6cccc(S(=O)(=O)[O-])c6F)c6ccc([nH]6)c(-c6cccc(S(=O)(=O)[O-])c6F)c6nc(c(-c7cccc(S(=O)(=O)[O-])c7F)c7ccc4[nH]7)C=C6)C=C5)cc3)CCN(C(=O)c3cnc[nH]c3=O)CC2)c1
REMARK SMILES IDX 13 1 12 2 11 3 9 4 10 5 8 7 81 8 94 9 82 10 93 11 83 12
REMARK SMILES IDX 84 13 85 14 7 15 6 16 1 17 2 18 3 19 95 20 4 21 5 22 86 23
REMARK SMILES IDX 87 24 91 25 88 26 90 27 92 28 89 29 14 31 15 32 16 33 17 35
REMARK SMILES IDX 18 36 19 37 80 38 20 39 79 40 21 41 22 42 23 43 73 44 24 45
REMARK SMILES IDX 78 46 72 47 74 48 25 49 77 50 71 51 70 52 26 54 58 55 38 56
REMARK SMILES IDX 57 57 39 58 42 59 56 60 75 61 40 62 41 63 55 65 76 66 43 67
REMARK SMILES IDX 27 68 28 69 36 70 29 71 31 72 37 73 30 74 32 75 33 76 34 77
REMARK SMILES IDX 35 78 59 79 60 80 68 81 61 82 63 83 69 84 62 85 64 86 65 87
REMARK SMILES IDX 66 88 67 89 44 90 45 91 53 92 46 93 48 94 54 95 47 96 49 97
REMARK SMILES IDX 50 98 51 99 52 100
REMARK H PARENT 11 6 90 30 15 34 74 53 42 64
REMARK Flexibility Score: inf
ROOT
ATOM      1  C   UNL A   1      33.143  30.236  27.665  1.00  0.00     0.042 C 
ENDROOT
BRANCH   1   2
ATOM      2  C   UNL A   1      33.367  28.754  27.343  1.00  0.00     0.118 C 
BRANCH   2   3
ATOM      3  N   UNL A   1      32.177  27.902  27.397  1.00  0.00    -0.353 N 
ATOM      4  C   UNL A   1      31.464  27.199  26.458  1.00  0.00     0.264 C 
ATOM      5  O   UNL A   1      30.801  26.257  26.915  1.00  0.00    -0.270 OA
ATOM      6  H   UNL A   1      31.808  27.813  28.305  1.00  0.00     0.163 HD
BRANCH   4   7
ATOM      7  C   UNL A   1      31.451  27.507  24.910  1.00  0.00     0.190 C 
ATOM      8  C   UNL A   1      30.322  26.734  24.237  1.00  0.00     0.080 C 
ATOM      9  C   UNL A   1      31.249  29.029  24.673  1.00  0.00     0.080 C 
ATOM     10  C   UNL A   1      29.981  27.122  22.817  1.00  0.00     0.124 C 
ATOM     11  C   UNL A   1      30.938  29.331  23.194  1.00  0.00     0.124 C 
ATOM     12  N   UNL A   1      29.775  28.553  22.782  1.00  0.00    -0.338 N 
ATOM     13  C   UNL A   1      28.482  29.045  22.827  1.00  0.00     0.261 C 
ATOM     14  O   UNL A   1      27.531  28.427  23.298  1.00  0.00    -0.269 OA
BRANCH   7  15
ATOM     15  O   UNL A   1      32.810  27.284  24.468  1.00  0.00    -0.477 OA
BRANCH  15  16
ATOM     16  C   UNL A   1      33.548  26.166  24.306  1.00  0.00     0.121 A 
ATOM     17  C   UNL A   1      35.789  23.606  26.001  1.00  0.00     0.044 C 
ATOM     18  C   UNL A   1      34.966  24.288  24.947  1.00  0.00    -0.047 A 
ATOM     19  C   UNL A   1      34.736  23.674  23.716  1.00  0.00     0.003 A 
ATOM     20  C   UNL A   1      34.408  25.552  25.205  1.00  0.00     0.049 A 
ATOM     21  C   UNL A   1      33.943  24.310  22.767  1.00  0.00     0.004 A 
ATOM     22  C   UNL A   1      33.346  25.537  23.070  1.00  0.00     0.046 A 
ENDBRANCH  15  16
ENDBRANCH   7  15
BRANCH  13  23
ATOM     23  C   UNL A   1      28.285  30.366  22.212  1.00  0.00     0.123 A 
ATOM     24  C   UNL A   1      27.967  30.473  20.915  1.00  0.00     0.132 A 
ATOM     25  C   UNL A   1      28.498  31.613  22.967  1.00  0.00     0.263 A 
ATOM     26  N   UNL A   1      27.764  31.661  20.251  1.00  0.00    -0.246 NA
ATOM     27  N   UNL A   1      28.303  32.759  22.251  1.00  0.00    -0.312 N 
ATOM     28  O   UNL A   1      28.836  31.654  24.145  1.00  0.00    -0.269 OA
ATOM     29  C   UNL A   1      27.946  32.739  20.936  1.00  0.00     0.199 A 
ATOM     30  H   UNL A   1      28.423  33.628  22.698  1.00  0.00     0.171 HD
ENDBRANCH  13  23
ENDBRANCH   4   7
ENDBRANCH   2   3
ENDBRANCH   1   2
BRANCH   1  31
ATOM     31  C   UNL A   1      34.171  31.215  27.119  1.00  0.00     0.118 C 
BRANCH  31  32
ATOM     32  N   UNL A   1      34.814  31.925  28.231  1.00  0.00    -0.352 N 
ATOM     33  C   UNL A   1      35.702  31.479  29.189  1.00  0.00     0.251 C 
ATOM     34  H   UNL A   1      34.570  32.876  28.307  1.00  0.00     0.163 HD
ATOM     35  O   UNL A   1      35.987  32.167  30.169  1.00  0.00    -0.269 OA
BRANCH  33  36
ATOM     36  C   UNL A   1      36.387  30.204  28.936  1.00  0.00     0.039 A 
ATOM     37  C   UNL A   1      36.738  29.484  30.082  1.00  0.00     0.014 A 
ATOM     38  C   UNL A   1      37.055  30.041  27.725  1.00  0.00     0.014 A 
ATOM     39  C   UNL A   1      37.962  28.838  30.115  1.00  0.00     0.010 A 
ATOM     40  C   UNL A   1      38.294  29.436  27.773  1.00  0.00     0.010 A 
ATOM     41  C   UNL A   1      38.776  28.936  28.993  1.00  0.00    -0.014 A 
BRANCH  41  42
ATOM     42  C   UNL A   1      40.175  28.560  28.995  1.00  0.00     0.031 A 
ATOM     43  C   UNL A   1      40.522  27.156  28.749  1.00  0.00     0.074 A 
ATOM     44  C   UNL A   1      41.132  29.512  29.083  1.00  0.00     0.049 A 
ATOM     45  N   UNL A   1      41.664  26.642  29.035  1.00  0.00    -0.248 NA
ATOM     46  C   UNL A   1      39.570  26.208  28.186  1.00  0.00     0.031 C 
ATOM     47  C   UNL A   1      42.531  29.379  28.702  1.00  0.00     0.029 A 
ATOM     48  N   UNL A   1      41.065  30.756  29.722  1.00  0.00    -0.354 N 
ATOM     49  C   UNL A   1      41.705  25.399  28.447  1.00  0.00     0.074 A 
ATOM     50  C   UNL A   1      40.354  25.141  28.005  1.00  0.00     0.031 C 
ATOM     51  C   UNL A   1      43.240  30.337  29.313  1.00  0.00     0.029 A 
ATOM     52  C   UNL A   1      42.351  31.003  30.247  1.00  0.00     0.049 A 
ATOM     53  H   UNL A   1      40.278  31.342  29.792  1.00  0.00     0.167 HD
ATOM     54  C   UNL A   1      42.914  24.804  28.263  1.00  0.00     0.034 A 
ATOM     55  C   UNL A   1      42.606  31.208  31.571  1.00  0.00     0.034 A 
ATOM     56  C   UNL A   1      43.997  25.631  28.818  1.00  0.00     0.049 A 
ATOM     57  C   UNL A   1      43.534  30.158  32.174  1.00  0.00     0.074 A 
ATOM     58  C   UNL A   1      44.899  26.535  28.278  1.00  0.00     0.029 A 
ATOM     59  N   UNL A   1      44.050  25.819  30.188  1.00  0.00    -0.354 N 
ATOM     60  N   UNL A   1      44.158  29.229  31.500  1.00  0.00    -0.248 NA
ATOM     61  C   UNL A   1      43.737  30.016  33.615  1.00  0.00     0.031 C 
ATOM     62  C   UNL A   1      45.501  27.260  29.348  1.00  0.00     0.029 A 
ATOM     63  C   UNL A   1      44.984  26.783  30.538  1.00  0.00     0.049 A 
ATOM     64  H   UNL A   1      43.493  25.328  30.835  1.00  0.00     0.167 HD
ATOM     65  C   UNL A   1      44.662  28.287  32.369  1.00  0.00     0.074 A 
ATOM     66  C   UNL A   1      44.407  28.855  33.684  1.00  0.00     0.031 C 
ATOM     67  C   UNL A   1      45.166  27.079  31.954  1.00  0.00     0.034 A 
BRANCH  54  68
ATOM     68  C   UNL A   1      43.151  23.635  27.330  1.00  0.00     0.023 A 
ATOM     69  C   UNL A   1      43.980  23.864  26.209  1.00  0.00     0.012 A 
ATOM     70  C   UNL A   1      42.587  22.341  27.431  1.00  0.00     0.148 A 
ATOM     71  C   UNL A   1      44.152  22.920  25.194  1.00  0.00     0.002 A 
ATOM     72  C   UNL A   1      42.697  21.421  26.383  1.00  0.00     0.091 A 
ATOM     73  F   UNL A   1      42.005  21.959  28.574  1.00  0.00    -0.205 F 
ATOM     74  C   UNL A   1      43.478  21.711  25.261  1.00  0.00     0.022 A 
BRANCH  72  75
ATOM     75  S   UNL A   1      41.780  19.871  26.346  1.00  0.00     0.127 S 
ATOM     76  O   UNL A   1      42.092  19.298  27.659  1.00  0.00    -0.237 OA
ATOM     77  O   UNL A   1      40.398  20.323  26.198  1.00  0.00    -0.237 OA
ATOM     78  O   UNL A   1      42.320  19.109  25.226  1.00  0.00    -0.744 OA
ENDBRANCH  72  75
ENDBRANCH  54  68
BRANCH  55  79
ATOM     79  C   UNL A   1      41.481  31.882  32.285  1.00  0.00     0.023 A 
ATOM     80  C   UNL A   1      41.161  33.201  31.880  1.00  0.00     0.012 A 
ATOM     81  C   UNL A   1      40.530  31.142  33.005  1.00  0.00     0.148 A 
ATOM     82  C   UNL A   1      39.878  33.716  32.068  1.00  0.00     0.002 A 
ATOM     83  C   UNL A   1      39.249  31.657  33.178  1.00  0.00     0.091 A 
ATOM     84  F   UNL A   1      40.857  29.914  33.425  1.00  0.00    -0.205 F 
ATOM     85  C   UNL A   1      38.911  32.926  32.680  1.00  0.00     0.022 A 
BRANCH  83  86
ATOM     86  S   UNL A   1      37.930  30.668  33.890  1.00  0.00     0.127 S 
ATOM     87  O   UNL A   1      38.078  30.965  35.311  1.00  0.00    -0.237 OA
ATOM     88  O   UNL A   1      36.743  31.241  33.259  1.00  0.00    -0.237 OA
ATOM     89  O   UNL A   1      38.226  29.303  33.481  1.00  0.00    -0.744 OA
ENDBRANCH  83  86
ENDBRANCH  55  79
BRANCH  67  90
ATOM     90  C   UNL A   1      45.787  26.018  32.864  1.00  0.00     0.023 A 
ATOM     91  C   UNL A   1      47.176  25.795  32.901  1.00  0.00     0.012 A 
ATOM     92  C   UNL A   1      44.999  25.132  33.653  1.00  0.00     0.148 A 
ATOM     93  C   UNL A   1      47.761  24.871  33.778  1.00  0.00     0.002 A 
ATOM     94  C   UNL A   1      45.576  24.203  34.513  1.00  0.00     0.091 A 
ATOM     95  F   UNL A   1      43.669  25.130  33.538  1.00  0.00    -0.205 F 
ATOM     96  C   UNL A   1      46.962  24.091  34.603  1.00  0.00     0.022 A 
BRANCH  94  97
ATOM     97  S   UNL A   1      44.592  23.089  35.528  1.00  0.00     0.127 S 
ATOM     98  O   UNL A   1      44.359  21.980  34.603  1.00  0.00    -0.237 OA
ATOM     99  O   UNL A   1      45.512  22.785  36.624  1.00  0.00    -0.237 OA
ATOM    100  O   UNL A   1      43.406  23.837  35.921  1.00  0.00    -0.744 OA
ENDBRANCH  94  97
ENDBRANCH  67  90
ENDBRANCH  41  42
ENDBRANCH  33  36
ENDBRANCH  31  32
ENDBRANCH   1  31
TORSDOF 16
ENDMDL
MODEL 2
REMARK VINA RESULT:     -13.8      4.405      9.660
REMARK SMILES Cc1cccc(OC2(C(=O)NCCCNC(=O)c3ccc(-c4c5nc(c(-c6cccc(S(=O)(=O)[O-])c6F)c6ccc([nH]6)c(-c6cccc(S(=O)(=O)[O-])c6F)c6nc(c(-c7cccc(S(=O)(=O)[O-])c7F)c7ccc4[nH]7)C=C6)C=C5)cc3)CCN(C(=O)c3cnc[nH]c3=O)CC2)c1
REMARK SMILES IDX 13 1 12 2 11 3 9 4 10 5 8 7 81 8 94 9 82 10 93 11 83 12
REMARK SMILES IDX 84 13 85 14 7 15 6 16 1 17 2 18 3 19 95 20 4 21 5 22 86 23
REMARK SMILES IDX 87 24 91 25 88 26 90 27 92 28 89 29 14 31 15 32 16 33 17 35
REMARK SMILES IDX 18 36 19 37 80 38 20 39 79 40 21 41 22 42 23 43 73 44 24 45
REMARK SMILES IDX 78 46 72 47 74 48 25 49 77 50 71 51 70 52 26 54 58 55 38 56
REMARK SMILES IDX 57 57 39 58 42 59 56 60 75 61 40 62 41 63 55 65 76 66 43 67
REMARK SMILES IDX 27 68 28 69 36 70 29 71 31 72 37 73 30 74 32 75 33 76 34 77
REMARK SMILES IDX 35 78 59 79 60 80 68 81 61 82 63 83 69 84 62 85 64 86 65 87
REMARK SMILES IDX 66 88 67 89 44 90 45 91 53 92 46 93 48 94 54 95 47 96 49 97
REMARK SMILES IDX 50 98 51 99 52 100
REMARK H PARENT 11 6 90 30 15 34 74 53 42 64
REMARK Flexibility Score: inf
ROOT
ATOM      1  C   UNL A   1      38.158  21.868  26.122  1.00  0.00     0.042 C 
ENDROOT
BRANCH   1   2
ATOM      2  C   UNL A   1      36.751  22.335  25.734  1.00  0.00     0.118 C 
BRANCH   2   3
ATOM      3  N   UNL A   1      35.766  22.365  26.817  1.00  0.00    -0.353 N 
ATOM      4  C   UNL A   1      34.398  22.271  26.864  1.00  0.00     0.264 C 
ATOM      5  O   UNL A   1      33.945  21.897  27.955  1.00  0.00    -0.270 OA
ATOM      6  H   UNL A   1      36.173  22.478  27.706  1.00  0.00     0.163 HD
BRANCH   4   7
ATOM      7  C   UNL A   1      33.424  22.589  25.663  1.00  0.00     0.190 C 
ATOM      8  C   UNL A   1      31.975  22.415  26.109  1.00  0.00     0.080 C 
ATOM      9  C   UNL A   1      33.642  24.049  25.175  1.00  0.00     0.080 C 
ATOM     10  C   UNL A   1      30.907  22.948  25.183  1.00  0.00     0.124 C 
ATOM     11  C   UNL A   1      32.522  24.493  24.213  1.00  0.00     0.124 C 
ATOM     12  N   UNL A   1      31.232  24.322  24.871  1.00  0.00    -0.338 N 
ATOM     13  C   UNL A   1      30.600  25.336  25.570  1.00  0.00     0.261 C 
ATOM     14  O   UNL A   1      30.108  25.192  26.686  1.00  0.00    -0.269 OA
BRANCH   7  15
ATOM     15  O   UNL A   1      33.914  21.798  24.557  1.00  0.00    -0.477 OA
BRANCH  15  16
ATOM     16  C   UNL A   1      33.738  20.506  24.207  1.00  0.00     0.121 A 
ATOM     17  C   UNL A   1      34.830  16.913  24.796  1.00  0.00     0.044 C 
ATOM     18  C   UNL A   1      34.060  18.090  24.269  1.00  0.00    -0.047 A 
ATOM     19  C   UNL A   1      32.918  17.902  23.491  1.00  0.00     0.003 A 
ATOM     20  C   UNL A   1      34.482  19.395  24.575  1.00  0.00     0.049 A 
ATOM     21  C   UNL A   1      32.201  19.006  23.041  1.00  0.00     0.004 A 
ATOM     22  C   UNL A   1      32.604  20.293  23.411  1.00  0.00     0.046 A 
ENDBRANCH  15  16
ENDBRANCH   7  15
BRANCH  13  23
ATOM     23  C   UNL A   1      30.493  26.620  24.864  1.00  0.00     0.123 A 
ATOM     24  C   UNL A   1      29.637  26.769  23.844  1.00  0.00     0.132 A 
ATOM     25  C   UNL A   1      31.363  27.763  25.196  1.00  0.00     0.263 A 
ATOM     26  N   UNL A   1      29.466  27.928  23.123  1.00  0.00    -0.246 NA
ATOM     27  N   UNL A   1      31.162  28.878  24.434  1.00  0.00    -0.312 N 
ATOM     28  O   UNL A   1      32.218  27.743  26.074  1.00  0.00    -0.269 OA
ATOM     29  C   UNL A   1      30.231  28.918  23.440  1.00  0.00     0.199 A 
ATOM     30  H   UNL A   1      31.707  29.679  24.608  1.00  0.00     0.171 HD
ENDBRANCH  13  23
ENDBRANCH   4   7
ENDBRANCH   2   3
ENDBRANCH   1   2
BRANCH   1  31
ATOM     31  C   UNL A   1      39.314  22.769  25.713  1.00  0.00     0.118 C 
BRANCH  31  32
ATOM     32  N   UNL A   1      40.296  22.834  26.802  1.00  0.00    -0.352 N 
ATOM     33  C   UNL A   1      40.731  23.904  27.558  1.00  0.00     0.251 C 
ATOM     34  H   UNL A   1      40.713  21.973  27.030  1.00  0.00     0.163 HD
ATOM     35  O   UNL A   1      41.709  23.810  28.300  1.00  0.00    -0.269 OA
BRANCH  33  36
ATOM     36  C   UNL A   1      39.914  25.125  27.536  1.00  0.00     0.039 A 
ATOM     37  C   UNL A   1      40.388  26.139  26.698  1.00  0.00     0.014 A 
ATOM     38  C   UNL A   1      39.093  25.391  28.629  1.00  0.00     0.014 A 
ATOM     39  C   UNL A   1      40.314  27.451  27.131  1.00  0.00     0.010 A 
ATOM     40  C   UNL A   1      39.060  26.693  29.082  1.00  0.00     0.010 A 
ATOM     41  C   UNL A   1      39.760  27.689  28.383  1.00  0.00    -0.014 A 
BRANCH  41  42
ATOM     42  C   UNL A   1      39.879  28.958  29.072  1.00  0.00     0.031 A 
ATOM     43  C   UNL A   1      38.870  29.991  28.814  1.00  0.00     0.074 A 
ATOM     44  C   UNL A   1      40.819  29.122  30.031  1.00  0.00     0.049 A 
ATOM     45  N   UNL A   1      39.031  31.233  29.100  1.00  0.00    -0.248 NA
ATOM     46  C   UNL A   1      37.599  29.692  28.168  1.00  0.00     0.031 C 
ATOM     47  C   UNL A   1      40.828  30.135  31.079  1.00  0.00     0.029 A 
ATOM     48  N   UNL A   1      42.073  28.507  30.136  1.00  0.00    -0.354 N 
ATOM     49  C   UNL A   1      37.807  31.843  28.947  1.00  0.00     0.074 A 
ATOM     50  C   UNL A   1      36.973  30.866  28.288  1.00  0.00     0.031 C 
ATOM     51  C   UNL A   1      42.076  30.261  31.549  1.00  0.00     0.029 A 
ATOM     52  C   UNL A   1      42.941  29.466  30.697  1.00  0.00     0.049 A 
ATOM     53  H   UNL A   1      42.303  27.589  29.870  1.00  0.00     0.167 HD
ATOM     54  C   UNL A   1      37.601  33.049  29.542  1.00  0.00     0.034 A 
ATOM     55  C   UNL A   1      44.076  29.915  30.087  1.00  0.00     0.034 A 
ATOM     56  C   UNL A   1      38.820  33.517  30.220  1.00  0.00     0.049 A 
ATOM     57  C   UNL A   1      44.051  31.411  29.795  1.00  0.00     0.074 A 
ATOM     58  C   UNL A   1      39.271  33.488  31.531  1.00  0.00     0.029 A 
ATOM     59  N   UNL A   1      39.924  33.837  29.449  1.00  0.00    -0.354 N 
ATOM     60  N   UNL A   1      43.126  32.241  30.198  1.00  0.00    -0.248 NA
ATOM     61  C   UNL A   1      45.026  32.063  28.921  1.00  0.00     0.031 C 
ATOM     62  C   UNL A   1      40.661  33.808  31.533  1.00  0.00     0.029 A 
ATOM     63  C   UNL A   1      41.050  34.053  30.230  1.00  0.00     0.049 A 
ATOM     64  H   UNL A   1      39.911  33.905  28.466  1.00  0.00     0.167 HD
ATOM     65  C   UNL A   1      43.249  33.435  29.520  1.00  0.00     0.074 A 
ATOM     66  C   UNL A   1      44.483  33.281  28.766  1.00  0.00     0.031 C 
ATOM     67  C   UNL A   1      42.291  34.418  29.556  1.00  0.00     0.034 A 
BRANCH  54  68
ATOM     68  C   UNL A   1      36.234  33.662  29.768  1.00  0.00     0.023 A 
ATOM     69  C   UNL A   1      35.567  34.179  28.635  1.00  0.00     0.012 A 
ATOM     70  C   UNL A   1      35.569  33.819  31.007  1.00  0.00     0.148 A 
ATOM     71  C   UNL A   1      34.376  34.905  28.729  1.00  0.00     0.002 A 
ATOM     72  C   UNL A   1      34.418  34.607  31.113  1.00  0.00     0.091 A 
ATOM     73  F   UNL A   1      35.998  33.146  32.080  1.00  0.00    -0.205 F 
ATOM     74  C   UNL A   1      33.821  35.154  29.974  1.00  0.00     0.022 A 
BRANCH  72  75
ATOM     75  S   UNL A   1      33.690  35.058  32.698  1.00  0.00     0.127 S 
ATOM     76  O   UNL A   1      32.583  35.929  32.291  1.00  0.00    -0.237 OA
ATOM     77  O   UNL A   1      33.274  33.766  33.236  1.00  0.00    -0.237 OA
ATOM     78  O   UNL A   1      34.738  35.747  33.443  1.00  0.00    -0.744 OA
ENDBRANCH  72  75
ENDBRANCH  54  68
BRANCH  55  79
ATOM     79  C   UNL A   1      44.730  28.877  29.236  1.00  0.00     0.023 A 
ATOM     80  C   UNL A   1      45.268  27.747  29.899  1.00  0.00     0.012 A 
ATOM     81  C   UNL A   1      44.471  28.797  27.859  1.00  0.00     0.148 A 
ATOM     82  C   UNL A   1      45.412  26.528  29.235  1.00  0.00     0.002 A 
ATOM     83  C   UNL A   1      44.605  27.575  27.206  1.00  0.00     0.091 A 
ATOM     84  F   UNL A   1      44.007  29.883  27.230  1.00  0.00    -0.205 F 
ATOM     85  C   UNL A   1      45.041  26.434  27.898  1.00  0.00     0.022 A 
BRANCH  83  86
ATOM     86  S   UNL A   1      44.074  27.360  25.503  1.00  0.00     0.127 S 
ATOM     87  O   UNL A   1      43.717  25.946  25.486  1.00  0.00    -0.237 OA
ATOM     88  O   UNL A   1      42.946  28.284  25.417  1.00  0.00    -0.237 OA
ATOM     89  O   UNL A   1      45.227  27.746  24.702  1.00  0.00    -0.744 OA
ENDBRANCH  83  86
ENDBRANCH  55  79
BRANCH  67  90
ATOM     90  C   UNL A   1      42.394  35.781  28.871  1.00  0.00     0.023 A 
ATOM     91  C   UNL A   1      41.928  35.989  27.560  1.00  0.00     0.012 A 
ATOM     92  C   UNL A   1      43.048  36.893  29.477  1.00  0.00     0.148 A 
ATOM     93  C   UNL A   1      41.960  37.249  26.947  1.00  0.00     0.002 A 
ATOM     94  C   UNL A   1      43.094  38.142  28.863  1.00  0.00     0.091 A 
ATOM     95  F   UNL A   1      43.695  36.745  30.635  1.00  0.00    -0.205 F 
ATOM     96  C   UNL A   1      42.520  38.333  27.608  1.00  0.00     0.022 A 
BRANCH  94  97
ATOM     97  S   UNL A   1      43.903  39.558  29.625  1.00  0.00     0.127 S 
ATOM     98  O   UNL A   1      45.310  39.166  29.551  1.00  0.00    -0.237 OA
ATOM     99  O   UNL A   1      43.525  40.644  28.720  1.00  0.00    -0.237 OA
ATOM    100  O   UNL A   1      43.351  39.669  30.967  1.00  0.00    -0.744 OA
ENDBRANCH  94  97
ENDBRANCH  67  90
ENDBRANCH  41  42
ENDBRANCH  33  36
ENDBRANCH  31  32
ENDBRANCH   1  31
TORSDOF 16
ENDMDL
MODEL 3
REMARK VINA RESULT:     -13.8      2.277      4.615
REMARK SMILES Cc1cccc(OC2(C(=O)NCCCNC(=O)c3ccc(-c4c5nc(c(-c6cccc(S(=O)(=O)[O-])c6F)c6ccc([nH]6)c(-c6cccc(S(=O)(=O)[O-])c6F)c6nc(c(-c7cccc(S(=O)(=O)[O-])c7F)c7ccc4[nH]7)C=C6)C=C5)cc3)CCN(C(=O)c3cnc[nH]c3=O)CC2)c1
REMARK SMILES IDX 13 1 12 2 11 3 9 4 10 5 8 7 81 8 94 9 82 10 93 11 83 12
REMARK SMILES IDX 84 13 85 14 7 15 6 16 1 17 2 18 3 19 95 20 4 21 5 22 86 23
REMARK SMILES IDX 87 24 91 25 88 26 90 27 92 28 89 29 14 31 15 32 16 33 17 35
REMARK SMILES IDX 18 36 19 37 80 38 20 39 79 40 21 41 22 42 23 43 73 44 24 45
REMARK SMILES IDX 78 46 72 47 74 48 25 49 77 50 71 51 70 52 26 54 58 55 38 56
REMARK SMILES IDX 57 57 39 58 42 59 56 60 75 61 40 62 41 63 55 65 76 66 43 67
REMARK SMILES IDX 27 68 28 69 36 70 29 71 31 72 37 73 30 74 32 75 33 76 34 77
REMARK SMILES IDX 35 78 59 79 60 80 68 81 61 82 63 83 69 84 62 85 64 86 65 87
REMARK SMILES IDX 66 88 67 89 44 90 45 91 53 92 46 93 48 94 54 95 47 96 49 97
REMARK SMILES IDX 50 98 51 99 52 100
REMARK H PARENT 11 6 90 30 15 34 74 53 42 64
REMARK Flexibility Score: inf
ROOT
ATOM      1  C   UNL A   1      33.754  30.246  27.934  1.00  0.00     0.042 C 
ENDROOT
BRANCH   1   2
ATOM      2  C   UNL A   1      33.512  28.973  27.116  1.00  0.00     0.118 C 
BRANCH   2   3
ATOM      3  N   UNL A   1      34.126  28.939  25.787  1.00  0.00    -0.353 N 
ATOM      4  C   UNL A   1      33.757  28.402  24.580  1.00  0.00     0.264 C 
ATOM      5  O   UNL A   1      34.289  28.935  23.595  1.00  0.00    -0.270 OA
ATOM      6  H   UNL A   1      34.994  29.403  25.752  1.00  0.00     0.163 HD
BRANCH   4   7
ATOM      7  C   UNL A   1      32.740  27.210  24.389  1.00  0.00     0.190 C 
ATOM      8  C   UNL A   1      32.831  26.673  22.964  1.00  0.00     0.080 C 
ATOM      9  C   UNL A   1      33.065  26.068  25.393  1.00  0.00     0.080 C 
ATOM     10  C   UNL A   1      32.142  25.358  22.685  1.00  0.00     0.124 C 
ATOM     11  C   UNL A   1      32.294  24.779  25.047  1.00  0.00     0.124 C 
ATOM     12  N   UNL A   1      32.591  24.400  23.670  1.00  0.00    -0.338 N 
ATOM     13  C   UNL A   1      33.598  23.512  23.332  1.00  0.00     0.261 C 
ATOM     14  O   UNL A   1      34.418  23.717  22.441  1.00  0.00    -0.269 OA
BRANCH   7  15
ATOM     15  O   UNL A   1      31.472  27.713  24.866  1.00  0.00    -0.477 OA
BRANCH  15  16
ATOM     16  C   UNL A   1      30.429  28.303  24.244  1.00  0.00     0.121 A 
ATOM     17  C   UNL A   1      29.140  31.473  22.588  1.00  0.00     0.044 C 
ATOM     18  C   UNL A   1      29.201  30.052  23.069  1.00  0.00    -0.047 A 
ATOM     19  C   UNL A   1      28.209  29.138  22.713  1.00  0.00     0.003 A 
ATOM     20  C   UNL A   1      30.273  29.631  23.874  1.00  0.00     0.049 A 
ATOM     21  C   UNL A   1      28.302  27.818  23.143  1.00  0.00     0.004 A 
ATOM     22  C   UNL A   1      29.411  27.408  23.889  1.00  0.00     0.046 A 
ENDBRANCH  15  16
ENDBRANCH   7  15
BRANCH  13  23
ATOM     23  C   UNL A   1      33.604  22.247  24.078  1.00  0.00     0.123 A 
ATOM     24  C   UNL A   1      32.672  21.313  23.845  1.00  0.00     0.132 A 
ATOM     25  C   UNL A   1      34.578  21.983  25.153  1.00  0.00     0.263 A 
ATOM     26  N   UNL A   1      32.593  20.101  24.491  1.00  0.00    -0.246 NA
ATOM     27  N   UNL A   1      34.438  20.774  25.771  1.00  0.00    -0.312 N 
ATOM     28  O   UNL A   1      35.451  22.772  25.497  1.00  0.00    -0.269 OA
ATOM     29  C   UNL A   1      33.464  19.889  25.419  1.00  0.00     0.199 A 
ATOM     30  H   UNL A   1      35.061  20.534  26.495  1.00  0.00     0.171 HD
ENDBRANCH  13  23
ENDBRANCH   4   7
ENDBRANCH   2   3
ENDBRANCH   1   2
BRANCH   1  31
ATOM     31  C   UNL A   1      34.551  31.351  27.256  1.00  0.00     0.118 C 
BRANCH  31  32
ATOM     32  N   UNL A   1      35.436  31.992  28.237  1.00  0.00    -0.352 N 
ATOM     33  C   UNL A   1      36.427  31.460  29.036  1.00  0.00     0.251 C 
ATOM     34  H   UNL A   1      35.298  32.960  28.342  1.00  0.00     0.163 HD
ATOM     35  O   UNL A   1      36.937  32.113  29.947  1.00  0.00    -0.269 OA
BRANCH  33  36
ATOM     36  C   UNL A   1      36.938  30.128  28.685  1.00  0.00     0.039 A 
ATOM     37  C   UNL A   1      37.000  29.220  29.748  1.00  0.00     0.014 A 
ATOM     38  C   UNL A   1      37.745  30.004  27.558  1.00  0.00     0.014 A 
ATOM     39  C   UNL A   1      38.091  28.374  29.838  1.00  0.00     0.010 A 
ATOM     40  C   UNL A   1      38.855  29.194  27.670  1.00  0.00     0.010 A 
ATOM     41  C   UNL A   1      39.068  28.469  28.854  1.00  0.00    -0.014 A 
BRANCH  41  42
ATOM     42  C   UNL A   1      40.377  27.860  28.976  1.00  0.00     0.031 A 
ATOM     43  C   UNL A   1      40.510  26.426  28.695  1.00  0.00     0.074 A 
ATOM     44  C   UNL A   1      41.464  28.631  29.207  1.00  0.00     0.049 A 
ATOM     45  N   UNL A   1      41.513  25.716  29.067  1.00  0.00    -0.248 NA
ATOM     46  C   UNL A   1      39.479  25.673  27.993  1.00  0.00     0.031 C 
ATOM     47  C   UNL A   1      42.855  28.274  28.960  1.00  0.00     0.029 A 
ATOM     48  N   UNL A   1      41.538  29.847  29.898  1.00  0.00    -0.354 N 
ATOM     49  C   UNL A   1      41.409  24.504  28.424  1.00  0.00     0.074 A 
ATOM     50  C   UNL A   1      40.090  24.495  27.837  1.00  0.00     0.031 C 
ATOM     51  C   UNL A   1      43.644  29.076  29.687  1.00  0.00     0.029 A 
ATOM     52  C   UNL A   1      42.783  29.853  30.560  1.00  0.00     0.049 A 
ATOM     53  H   UNL A   1      40.856  30.555  29.919  1.00  0.00     0.167 HD
ATOM     54  C   UNL A   1      42.516  23.717  28.331  1.00  0.00     0.034 A 
ATOM     55  C   UNL A   1      42.926  29.967  31.912  1.00  0.00     0.034 A 
ATOM     56  C   UNL A   1      43.655  24.329  29.032  1.00  0.00     0.049 A 
ATOM     57  C   UNL A   1      43.597  28.755  32.550  1.00  0.00     0.074 A 
ATOM     58  C   UNL A   1      44.747  25.082  28.631  1.00  0.00     0.029 A 
ATOM     59  N   UNL A   1      43.592  24.460  30.408  1.00  0.00    -0.354 N 
ATOM     60  N   UNL A   1      44.126  27.756  31.895  1.00  0.00    -0.248 NA
ATOM     61  C   UNL A   1      43.618  28.533  33.995  1.00  0.00     0.031 C 
ATOM     62  C   UNL A   1      45.344  25.659  29.791  1.00  0.00     0.029 A 
ATOM     63  C   UNL A   1      44.631  25.238  30.897  1.00  0.00     0.049 A 
ATOM     64  H   UNL A   1      42.896  24.050  30.971  1.00  0.00     0.167 HD
ATOM     65  C   UNL A   1      44.371  26.713  32.762  1.00  0.00     0.074 A 
ATOM     66  C   UNL A   1      44.075  27.273  34.071  1.00  0.00     0.031 C 
ATOM     67  C   UNL A   1      44.708  25.451  32.338  1.00  0.00     0.034 A 
BRANCH  54  68
ATOM     68  C   UNL A   1      42.653  22.556  27.368  1.00  0.00     0.023 A 
ATOM     69  C   UNL A   1      41.960  21.369  27.690  1.00  0.00     0.012 A 
ATOM     70  C   UNL A   1      43.449  22.514  26.199  1.00  0.00     0.148 A 
ATOM     71  C   UNL A   1      42.126  20.182  26.972  1.00  0.00     0.002 A 
ATOM     72  C   UNL A   1      43.675  21.311  25.522  1.00  0.00     0.091 A 
ATOM     73  F   UNL A   1      43.931  23.651  25.684  1.00  0.00    -0.205 F 
ATOM     74  C   UNL A   1      43.015  20.141  25.910  1.00  0.00     0.022 A 
BRANCH  72  75
ATOM     75  S   UNL A   1      44.884  21.151  24.196  1.00  0.00     0.127 S 
ATOM     76  O   UNL A   1      46.147  21.383  24.903  1.00  0.00    -0.237 OA
ATOM     77  O   UNL A   1      44.686  19.774  23.750  1.00  0.00    -0.237 OA
ATOM     78  O   UNL A   1      44.554  22.185  23.223  1.00  0.00    -0.744 OA
ENDBRANCH  72  75
ENDBRANCH  54  68
BRANCH  55  79
ATOM     79  C   UNL A   1      41.860  30.800  32.544  1.00  0.00     0.023 A 
ATOM     80  C   UNL A   1      41.811  32.167  32.179  1.00  0.00     0.012 A 
ATOM     81  C   UNL A   1      40.726  30.210  33.124  1.00  0.00     0.148 A 
ATOM     82  C   UNL A   1      40.620  32.889  32.263  1.00  0.00     0.002 A 
ATOM     83  C   UNL A   1      39.538  30.932  33.193  1.00  0.00     0.091 A 
ATOM     84  F   UNL A   1      40.794  28.930  33.508  1.00  0.00    -0.205 F 
ATOM     85  C   UNL A   1      39.473  32.256  32.732  1.00  0.00     0.022 A 
BRANCH  83  86
ATOM     86  S   UNL A   1      38.002  30.160  33.715  1.00  0.00     0.127 S 
ATOM     87  O   UNL A   1      38.128  30.214  35.167  1.00  0.00    -0.237 OA
ATOM     88  O   UNL A   1      37.000  31.059  33.147  1.00  0.00    -0.237 OA
ATOM     89  O   UNL A   1      38.027  28.835  33.112  1.00  0.00    -0.744 OA
ENDBRANCH  83  86
ENDBRANCH  55  79
BRANCH  67  90
ATOM     90  C   UNL A   1      45.043  24.271  33.250  1.00  0.00     0.023 A 
ATOM     91  C   UNL A   1      44.063  23.346  33.656  1.00  0.00     0.012 A 
ATOM     92  C   UNL A   1      46.337  24.086  33.817  1.00  0.00     0.148 A 
ATOM     93  C   UNL A   1      44.372  22.226  34.439  1.00  0.00     0.002 A 
ATOM     94  C   UNL A   1      46.643  22.982  34.607  1.00  0.00     0.091 A 
ATOM     95  F   UNL A   1      47.283  25.014  33.653  1.00  0.00    -0.205 F 
ATOM     96  C   UNL A   1      45.668  22.028  34.894  1.00  0.00     0.022 A 
BRANCH  94  97
ATOM     97  S   UNL A   1      48.277  22.729  35.317  1.00  0.00     0.127 S 
ATOM     98  O   UNL A   1      49.140  22.998  34.166  1.00  0.00    -0.237 OA
ATOM     99  O   UNL A   1      48.316  23.754  36.360  1.00  0.00    -0.237 OA
ATOM    100  O   UNL A   1      48.300  21.360  35.811  1.00  0.00    -0.744 OA
ENDBRANCH  94  97
ENDBRANCH  67  90
ENDBRANCH  41  42
ENDBRANCH  33  36
ENDBRANCH  31  32
ENDBRANCH   1  31
TORSDOF 16
ENDMDL
