MODEL 1
REMARK VINA RESULT:     -10.2      0.000      0.000
REMARK SMILES COC(=O)[C@H]1CC[C@]2(C)[C@H](CC[C@]3(C)[C@H]2CC=C2[C@H]4CC(C)(C)CC[C@]4(C(=O)NCCCNC(=O)c4ccc(-c5c6nc(c(-c7cccc(S(=O)(=O)[O-])c7F)c7ccc([nH]7)c(-c7cccc(S(=O)(=O)[O-])c7F)c7nc(c(-c8cccc(S(=O)(=O)[O-])c8F)c8ccc5[nH]8)C=C7)C=C6)cc4)CC[C@@]23C)C1(C)C
REMARK SMILES IDX 31 1 30 2 29 3 27 4 28 5 26 7 5 8 6 9 103 10 7 11 10 12
REMARK SMILES IDX 104 13 105 14 8 15 11 16 15 17 9 18 12 19 16 20 13 21 17 22
REMARK SMILES IDX 101 23 14 24 18 25 100 26 102 27 19 28 99 29 20 30 21 31
REMARK SMILES IDX 25 32 24 33 22 34 23 35 3 36 4 37 2 38 1 39 32 40 33 41
REMARK SMILES IDX 34 42 35 44 36 45 37 46 98 47 38 48 97 49 39 50 40 51 41 52
REMARK SMILES IDX 91 53 42 54 96 55 90 56 92 57 43 58 95 59 89 60 88 61 44 63
REMARK SMILES IDX 76 64 56 65 75 66 57 67 60 68 74 69 93 70 58 71 59 72 73 74
REMARK SMILES IDX 94 75 61 76 45 77 46 78 54 79 47 80 49 81 55 82 48 83 50 84
REMARK SMILES IDX 51 85 52 86 53 87 77 88 78 89 86 90 79 91 81 92 87 93 80 94
REMARK SMILES IDX 82 95 83 96 84 97 85 98 62 99 63 100 71 101 64 102 66 103
REMARK SMILES IDX 72 104 65 105 67 106 68 107 69 108 70 109
REMARK H PARENT 29 6 33 43 92 62 60 73
REMARK Flexibility Score: inf
ROOT
ATOM      1  C   UNL A   1      47.250  36.124  26.544  1.00  0.00     0.042 C 
ENDROOT
BRANCH   1   2
ATOM      2  C   UNL A   1      47.612  37.717  26.469  1.00  0.00     0.117 C 
BRANCH   2   3
ATOM      3  N   UNL A   1      48.802  38.574  26.997  1.00  0.00    -0.356 N 
ATOM      4  C   UNL A   1      49.014  39.828  27.706  1.00  0.00     0.226 C 
ATOM      5  O   UNL A   1      50.071  39.860  28.361  1.00  0.00    -0.274 OA
ATOM      6  H   UNL A   1      49.660  38.140  26.791  1.00  0.00     0.163 HD
BRANCH   4   7
ATOM      7  C   UNL A   1      48.060  41.256  27.743  1.00  0.00     0.056 C 
ATOM      8  C   UNL A   1      44.005  41.420  34.474  1.00  0.00     0.105 C 
ATOM      9  C   UNL A   1      43.780  39.895  34.191  1.00  0.00     0.016 C 
ATOM     10  C   UNL A   1      45.026  42.099  33.482  1.00  0.00    -0.019 C 
ATOM     11  C   UNL A   1      43.565  39.507  32.720  1.00  0.00     0.008 C 
ATOM     12  C   UNL A   1      44.526  41.655  32.006  1.00  0.00     0.002 C 
ATOM     13  C   UNL A   1      45.085  43.648  33.569  1.00  0.00     0.012 C 
ATOM     14  C   UNL A   1      46.454  41.729  34.032  1.00  0.00     0.012 C 
ATOM     15  C   UNL A   1      44.593  40.131  31.741  1.00  0.00    -0.026 C 
ATOM     16  C   UNL A   1      44.987  42.504  30.828  1.00  0.00     0.005 C 
ATOM     17  C   UNL A   1      44.162  39.661  30.260  1.00  0.00     0.006 C 
ATOM     18  C   UNL A   1      45.933  39.547  32.185  1.00  0.00     0.012 C 
ATOM     19  C   UNL A   1      44.269  42.207  29.493  1.00  0.00     0.008 C 
ATOM     20  C   UNL A   1      44.884  38.359  29.802  1.00  0.00     0.032 C 
ATOM     21  C   UNL A   1      44.063  40.738  29.024  1.00  0.00    -0.020 C 
ATOM     22  C   UNL A   1      46.170  38.684  29.089  1.00  0.00    -0.027 C 
ATOM     23  C   UNL A   1      45.060  40.284  27.801  1.00  0.00    -0.006 C 
ATOM     24  C   UNL A   1      42.578  40.638  28.545  1.00  0.00     0.012 C 
ATOM     25  C   UNL A   1      46.294  39.935  28.631  1.00  0.00    -0.064 C 
ATOM     26  C   UNL A   1      45.572  41.150  26.627  1.00  0.00     0.013 C 
ATOM     27  C   UNL A   1      44.346  39.130  26.944  1.00  0.00     0.017 C 
ATOM     28  C   UNL A   1      47.309  41.105  29.018  1.00  0.00     0.031 C 
ATOM     29  C   UNL A   1      47.084  41.437  26.506  1.00  0.00     0.018 C 
ATOM     30  C   UNL A   1      48.512  41.289  30.129  1.00  0.00     0.015 C 
ATOM     31  C   UNL A   1      49.171  42.707  30.257  1.00  0.00    -0.035 C 
ATOM     32  C   UNL A   1      48.773  42.710  27.754  1.00  0.00     0.018 C 
ATOM     33  C   UNL A   1      48.778  43.536  29.058  1.00  0.00     0.007 C 
ATOM     34  C   UNL A   1      50.723  42.696  30.299  1.00  0.00     0.011 C 
ATOM     35  C   UNL A   1      48.732  43.367  31.577  1.00  0.00     0.011 C 
BRANCH   8  36
ATOM     36  C   UNL A   1      42.648  42.098  34.528  1.00  0.00     0.309 C 
ATOM     37  O   UNL A   1      41.767  42.043  33.668  1.00  0.00    -0.252 OA
BRANCH  36  38
ATOM     38  O   UNL A   1      42.522  42.770  35.700  1.00  0.00    -0.469 OA
ATOM     39  C   UNL A   1      43.403  42.323  36.722  1.00  0.00     0.282 C 
ENDBRANCH  36  38
ENDBRANCH   8  36
ENDBRANCH   4   7
ENDBRANCH   2   3
ENDBRANCH   1   2
BRANCH   1  40
ATOM     40  C   UNL A   1      47.463  34.851  25.639  1.00  0.00     0.118 C 
BRANCH  40  41
ATOM     41  N   UNL A   1      46.193  34.589  24.848  1.00  0.00    -0.352 N 
ATOM     42  C   UNL A   1      44.884  34.186  25.064  1.00  0.00     0.251 C 
ATOM     43  H   UNL A   1      46.347  34.755  23.890  1.00  0.00     0.163 HD
ATOM     44  O   UNL A   1      44.255  33.836  24.058  1.00  0.00    -0.269 OA
BRANCH  42  45
ATOM     45  C   UNL A   1      44.141  34.196  26.362  1.00  0.00     0.039 A 
ATOM     46  C   UNL A   1      43.475  35.379  26.766  1.00  0.00     0.014 A 
ATOM     47  C   UNL A   1      44.207  33.150  27.274  1.00  0.00     0.014 A 
ATOM     48  C   UNL A   1      42.938  35.518  28.061  1.00  0.00     0.010 A 
ATOM     49  C   UNL A   1      43.608  33.265  28.544  1.00  0.00     0.010 A 
ATOM     50  C   UNL A   1      43.016  34.463  28.979  1.00  0.00    -0.014 A 
BRANCH  50  51
ATOM     51  C   UNL A   1      42.572  34.640  30.400  1.00  0.00     0.031 A 
ATOM     52  C   UNL A   1      41.141  34.336  30.800  1.00  0.00     0.074 A 
ATOM     53  C   UNL A   1      43.435  35.077  31.343  1.00  0.00     0.049 A 
ATOM     54  N   UNL A   1      40.579  34.378  31.982  1.00  0.00    -0.248 NA
ATOM     55  C   UNL A   1      40.211  33.959  29.723  1.00  0.00     0.031 C 
ATOM     56  C   UNL A   1      44.820  35.476  31.092  1.00  0.00     0.029 A 
ATOM     57  N   UNL A   1      43.280  35.267  32.696  1.00  0.00    -0.354 N 
ATOM     58  C   UNL A   1      39.234  34.071  31.785  1.00  0.00     0.074 A 
ATOM     59  C   UNL A   1      39.053  33.888  30.364  1.00  0.00     0.031 C 
ATOM     60  C   UNL A   1      45.395  35.836  32.251  1.00  0.00     0.029 A 
ATOM     61  C   UNL A   1      44.416  35.722  33.329  1.00  0.00     0.049 A 
ATOM     62  H   UNL A   1      42.434  35.093  33.170  1.00  0.00     0.167 HD
ATOM     63  C   UNL A   1      38.243  33.921  32.698  1.00  0.00     0.034 A 
ATOM     64  C   UNL A   1      44.648  36.010  34.625  1.00  0.00     0.034 A 
ATOM     65  C   UNL A   1      38.433  34.066  34.116  1.00  0.00     0.049 A 
ATOM     66  C   UNL A   1      43.548  35.792  35.630  1.00  0.00     0.074 A 
ATOM     67  C   UNL A   1      37.520  33.857  35.135  1.00  0.00     0.029 A 
ATOM     68  N   UNL A   1      39.615  34.469  34.717  1.00  0.00    -0.354 N 
ATOM     69  N   UNL A   1      42.326  35.356  35.433  1.00  0.00    -0.248 NA
ATOM     70  C   UNL A   1      43.866  36.063  37.039  1.00  0.00     0.031 C 
ATOM     71  C   UNL A   1      38.140  34.175  36.349  1.00  0.00     0.029 A 
ATOM     72  C   UNL A   1      39.453  34.531  36.089  1.00  0.00     0.049 A 
ATOM     73  H   UNL A   1      40.449  34.679  34.236  1.00  0.00     0.167 HD
ATOM     74  C   UNL A   1      41.743  35.269  36.691  1.00  0.00     0.074 A 
ATOM     75  C   UNL A   1      42.755  35.673  37.647  1.00  0.00     0.031 C 
ATOM     76  C   UNL A   1      40.483  34.899  37.027  1.00  0.00     0.034 A 
BRANCH  63  77
ATOM     77  C   UNL A   1      36.867  33.546  32.197  1.00  0.00     0.023 A 
ATOM     78  C   UNL A   1      36.570  32.202  31.890  1.00  0.00     0.012 A 
ATOM     79  C   UNL A   1      35.851  34.516  32.076  1.00  0.00     0.148 A 
ATOM     80  C   UNL A   1      35.306  31.835  31.429  1.00  0.00     0.002 A 
ATOM     81  C   UNL A   1      34.578  34.136  31.663  1.00  0.00     0.091 A 
ATOM     82  F   UNL A   1      36.148  35.793  32.357  1.00  0.00    -0.205 F 
ATOM     83  C   UNL A   1      34.308  32.800  31.325  1.00  0.00     0.022 A 
BRANCH  81  84
ATOM     84  S   UNL A   1      33.199  35.284  31.576  1.00  0.00     0.127 S 
ATOM     85  O   UNL A   1      32.730  35.078  30.206  1.00  0.00    -0.237 OA
ATOM     86  O   UNL A   1      32.303  34.766  32.610  1.00  0.00    -0.237 OA
ATOM     87  O   UNL A   1      33.751  36.602  31.853  1.00  0.00    -0.744 OA
ENDBRANCH  81  84
ENDBRANCH  63  77
BRANCH  64  88
ATOM     88  C   UNL A   1      45.998  36.480  35.059  1.00  0.00     0.023 A 
ATOM     89  C   UNL A   1      46.309  37.855  35.028  1.00  0.00     0.012 A 
ATOM     90  C   UNL A   1      46.968  35.572  35.528  1.00  0.00     0.148 A 
ATOM     91  C   UNL A   1      47.567  38.311  35.426  1.00  0.00     0.002 A 
ATOM     92  C   UNL A   1      48.196  36.038  35.980  1.00  0.00     0.091 A 
ATOM     93  F   UNL A   1      46.661  34.266  35.535  1.00  0.00    -0.205 F 
ATOM     94  C   UNL A   1      48.506  37.405  35.914  1.00  0.00     0.022 A 
BRANCH  92  95
ATOM     95  S   UNL A   1      49.409  34.961  36.752  1.00  0.00     0.127 S 
ATOM     96  O   UNL A   1      50.084  34.389  35.589  1.00  0.00    -0.237 OA
ATOM     97  O   UNL A   1      50.208  35.912  37.524  1.00  0.00    -0.237 OA
ATOM     98  O   UNL A   1      48.643  34.022  37.562  1.00  0.00    -0.744 OA
ENDBRANCH  92  95
ENDBRANCH  64  88
BRANCH  76  99
ATOM     99  C   UNL A   1      40.133  34.872  38.493  1.00  0.00     0.023 A 
ATOM    100  C   UNL A   1      39.549  35.999  39.103  1.00  0.00     0.012 A 
ATOM    101  C   UNL A   1      40.333  33.701  39.250  1.00  0.00     0.148 A 
ATOM    102  C   UNL A   1      39.210  35.976  40.456  1.00  0.00     0.002 A 
ATOM    103  C   UNL A   1      39.940  33.666  40.581  1.00  0.00     0.091 A 
ATOM    104  F   UNL A   1      40.904  32.644  38.655  1.00  0.00    -0.205 F 
ATOM    105  C   UNL A   1      39.394  34.807  41.190  1.00  0.00     0.022 A 
BRANCH 103 106
ATOM    106  S   UNL A   1      40.042  32.173  41.575  1.00  0.00     0.127 S 
ATOM    107  O   UNL A   1      39.895  32.707  42.928  1.00  0.00    -0.237 OA
ATOM    108  O   UNL A   1      38.895  31.403  41.094  1.00  0.00    -0.237 OA
ATOM    109  O   UNL A   1      41.338  31.578  41.276  1.00  0.00    -0.744 OA
ENDBRANCH 103 106
ENDBRANCH  76  99
ENDBRANCH  50  51
ENDBRANCH  42  45
ENDBRANCH  40  41
ENDBRANCH   1  40
TORSDOF 15
ENDMDL
MODEL 2
REMARK VINA RESULT:     -10.0      5.289     12.578
REMARK SMILES COC(=O)[C@H]1CC[C@]2(C)[C@H](CC[C@]3(C)[C@H]2CC=C2[C@H]4CC(C)(C)CC[C@]4(C(=O)NCCCNC(=O)c4ccc(-c5c6nc(c(-c7cccc(S(=O)(=O)[O-])c7F)c7ccc([nH]7)c(-c7cccc(S(=O)(=O)[O-])c7F)c7nc(c(-c8cccc(S(=O)(=O)[O-])c8F)c8ccc5[nH]8)C=C7)C=C6)cc4)CC[C@@]23C)C1(C)C
REMARK SMILES IDX 31 1 30 2 29 3 27 4 28 5 26 7 5 8 6 9 103 10 7 11 10 12
REMARK SMILES IDX 104 13 105 14 8 15 11 16 15 17 9 18 12 19 16 20 13 21 17 22
REMARK SMILES IDX 101 23 14 24 18 25 100 26 102 27 19 28 99 29 20 30 21 31
REMARK SMILES IDX 25 32 24 33 22 34 23 35 3 36 4 37 2 38 1 39 32 40 33 41
REMARK SMILES IDX 34 42 35 44 36 45 37 46 98 47 38 48 97 49 39 50 40 51 41 52
REMARK SMILES IDX 91 53 42 54 96 55 90 56 92 57 43 58 95 59 89 60 88 61 44 63
REMARK SMILES IDX 76 64 56 65 75 66 57 67 60 68 74 69 93 70 58 71 59 72 73 74
REMARK SMILES IDX 94 75 61 76 45 77 46 78 54 79 47 80 49 81 55 82 48 83 50 84
REMARK SMILES IDX 51 85 52 86 53 87 77 88 78 89 86 90 79 91 81 92 87 93 80 94
REMARK SMILES IDX 82 95 83 96 84 97 85 98 62 99 63 100 71 101 64 102 66 103
REMARK SMILES IDX 72 104 65 105 67 106 68 107 69 108 70 109
REMARK H PARENT 29 6 33 43 92 62 60 73
REMARK Flexibility Score: inf
ROOT
ATOM      1  C   UNL A   1      40.144  34.993  40.295  1.00  0.00     0.042 C 
ENDROOT
BRANCH   1   2
ATOM      2  C   UNL A   1      41.611  35.700  40.141  1.00  0.00     0.117 C 
BRANCH   2   3
ATOM      3  N   UNL A   1      43.070  35.153  40.129  1.00  0.00    -0.356 N 
ATOM      4  C   UNL A   1      43.932  34.359  39.263  1.00  0.00     0.226 C 
ATOM      5  O   UNL A   1      45.143  34.606  39.401  1.00  0.00    -0.274 OA
ATOM      6  H   UNL A   1      43.549  35.422  40.945  1.00  0.00     0.163 HD
BRANCH   4   7
ATOM      7  C   UNL A   1      43.535  33.132  38.129  1.00  0.00     0.056 C 
ATOM      8  C   UNL A   1      45.710  35.509  30.959  1.00  0.00     0.105 C 
ATOM      9  C   UNL A   1      45.120  36.889  31.412  1.00  0.00     0.016 C 
ATOM     10  C   UNL A   1      45.781  34.446  32.122  1.00  0.00    -0.019 C 
ATOM     11  C   UNL A   1      43.851  36.830  32.275  1.00  0.00     0.008 C 
ATOM     12  C   UNL A   1      44.308  34.470  32.797  1.00  0.00     0.002 C 
ATOM     13  C   UNL A   1      46.121  33.003  31.662  1.00  0.00     0.012 C 
ATOM     14  C   UNL A   1      47.083  34.799  32.934  1.00  0.00     0.012 C 
ATOM     15  C   UNL A   1      43.928  35.821  33.451  1.00  0.00    -0.026 C 
ATOM     16  C   UNL A   1      43.895  33.254  33.615  1.00  0.00     0.005 C 
ATOM     17  C   UNL A   1      42.494  35.861  34.186  1.00  0.00     0.006 C 
ATOM     18  C   UNL A   1      45.061  36.355  34.326  1.00  0.00     0.012 C 
ATOM     19  C   UNL A   1      42.400  33.208  34.000  1.00  0.00     0.008 C 
ATOM     20  C   UNL A   1      42.449  36.867  35.374  1.00  0.00     0.032 C 
ATOM     21  C   UNL A   1      41.697  34.476  34.565  1.00  0.00    -0.020 C 
ATOM     22  C   UNL A   1      42.846  36.193  36.661  1.00  0.00    -0.027 C 
ATOM     23  C   UNL A   1      41.412  34.415  36.181  1.00  0.00    -0.006 C 
ATOM     24  C   UNL A   1      40.336  34.595  33.804  1.00  0.00     0.012 C 
ATOM     25  C   UNL A   1      42.789  34.857  36.672  1.00  0.00    -0.064 C 
ATOM     26  C   UNL A   1      41.038  33.178  37.030  1.00  0.00     0.013 C 
ATOM     27  C   UNL A   1      40.134  35.324  36.522  1.00  0.00     0.017 C 
ATOM     28  C   UNL A   1      43.931  33.752  36.836  1.00  0.00     0.031 C 
ATOM     29  C   UNL A   1      42.011  32.694  38.127  1.00  0.00     0.018 C 
ATOM     30  C   UNL A   1      45.573  33.780  36.977  1.00  0.00     0.015 C 
ATOM     31  C   UNL A   1      46.325  32.404  36.969  1.00  0.00    -0.035 C 
ATOM     32  C   UNL A   1      44.245  31.680  38.222  1.00  0.00     0.018 C 
ATOM     33  C   UNL A   1      45.319  31.298  37.181  1.00  0.00     0.007 C 
ATOM     34  C   UNL A   1      47.397  32.248  38.080  1.00  0.00     0.011 C 
ATOM     35  C   UNL A   1      47.087  32.236  35.641  1.00  0.00     0.011 C 
BRANCH   8  36
ATOM     36  C   UNL A   1      44.941  35.042  29.738  1.00  0.00     0.309 C 
ATOM     37  O   UNL A   1      43.744  34.749  29.693  1.00  0.00    -0.252 OA
BRANCH  36  38
ATOM     38  O   UNL A   1      45.767  35.016  28.662  1.00  0.00    -0.469 OA
ATOM     39  C   UNL A   1      45.182  35.525  27.470  1.00  0.00     0.282 C 
ENDBRANCH  36  38
ENDBRANCH   8  36
ENDBRANCH   4   7
ENDBRANCH   2   3
ENDBRANCH   1   2
BRANCH   1  40
ATOM     40  C   UNL A   1      38.684  35.244  39.759  1.00  0.00     0.118 C 
BRANCH  40  41
ATOM     41  N   UNL A   1      37.802  34.074  40.158  1.00  0.00    -0.352 N 
ATOM     42  C   UNL A   1      37.123  33.020  39.567  1.00  0.00     0.251 C 
ATOM     43  H   UNL A   1      37.672  34.061  41.134  1.00  0.00     0.163 HD
ATOM     44  O   UNL A   1      36.282  32.454  40.277  1.00  0.00    -0.269 OA
BRANCH  42  45
ATOM     45  C   UNL A   1      37.349  32.456  38.200  1.00  0.00     0.039 A 
ATOM     46  C   UNL A   1      37.612  31.071  38.060  1.00  0.00     0.014 A 
ATOM     47  C   UNL A   1      37.477  33.253  37.070  1.00  0.00     0.014 A 
ATOM     48  C   UNL A   1      38.036  30.521  36.834  1.00  0.00     0.010 A 
ATOM     49  C   UNL A   1      37.832  32.690  35.828  1.00  0.00     0.010 A 
ATOM     50  C   UNL A   1      38.172  31.333  35.701  1.00  0.00    -0.014 A 
BRANCH  50  51
ATOM     51  C   UNL A   1      38.749  30.792  34.427  1.00  0.00     0.031 A 
ATOM     52  C   UNL A   1      40.137  30.182  34.411  1.00  0.00     0.074 A 
ATOM     53  C   UNL A   1      38.046  30.845  33.275  1.00  0.00     0.049 A 
ATOM     54  N   UNL A   1      40.789  29.617  33.425  1.00  0.00    -0.248 NA
ATOM     55  C   UNL A   1      40.906  30.235  35.666  1.00  0.00     0.031 C 
ATOM     56  C   UNL A   1      36.730  31.468  33.123  1.00  0.00     0.029 A 
ATOM     57  N   UNL A   1      38.335  30.380  32.013  1.00  0.00    -0.354 N 
ATOM     58  C   UNL A   1      42.045  29.285  33.929  1.00  0.00     0.074 A 
ATOM     59  C   UNL A   1      42.082  29.750  35.295  1.00  0.00     0.031 C 
ATOM     60  C   UNL A   1      36.315  31.322  31.854  1.00  0.00     0.029 A 
ATOM     61  C   UNL A   1      37.343  30.621  31.089  1.00  0.00     0.049 A 
ATOM     62  H   UNL A   1      39.176  29.916  31.791  1.00  0.00     0.167 HD
ATOM     63  C   UNL A   1      43.066  28.625  33.327  1.00  0.00     0.034 A 
ATOM     64  C   UNL A   1      37.263  30.311  29.779  1.00  0.00     0.034 A 
ATOM     65  C   UNL A   1      43.014  28.129  31.978  1.00  0.00     0.049 A 
ATOM     66  C   UNL A   1      38.388  29.538  29.142  1.00  0.00     0.074 A 
ATOM     67  C   UNL A   1      43.956  27.379  31.298  1.00  0.00     0.029 A 
ATOM     68  N   UNL A   1      41.965  28.344  31.099  1.00  0.00    -0.354 N 
ATOM     69  N   UNL A   1      39.501  29.106  29.684  1.00  0.00    -0.248 NA
ATOM     70  C   UNL A   1      38.229  29.172  27.728  1.00  0.00     0.031 C 
ATOM     71  C   UNL A   1      43.494  27.177  29.993  1.00  0.00     0.029 A 
ATOM     72  C   UNL A   1      42.241  27.756  29.878  1.00  0.00     0.049 A 
ATOM     73  H   UNL A   1      41.142  28.842  31.313  1.00  0.00     0.167 HD
ATOM     74  C   UNL A   1      40.158  28.391  28.690  1.00  0.00     0.074 A 
ATOM     75  C   UNL A   1      39.305  28.426  27.520  1.00  0.00     0.031 C 
ATOM     76  C   UNL A   1      41.362  27.770  28.736  1.00  0.00     0.034 A 
BRANCH  63  77
ATOM     77  C   UNL A   1      44.318  28.369  34.135  1.00  0.00     0.023 A 
ATOM     78  C   UNL A   1      45.424  29.236  34.015  1.00  0.00     0.012 A 
ATOM     79  C   UNL A   1      44.383  27.299  35.050  1.00  0.00     0.148 A 
ATOM     80  C   UNL A   1      46.587  29.019  34.753  1.00  0.00     0.002 A 
ATOM     81  C   UNL A   1      45.527  27.117  35.821  1.00  0.00     0.091 A 
ATOM     82  F   UNL A   1      43.331  26.473  35.146  1.00  0.00    -0.205 F 
ATOM     83  C   UNL A   1      46.635  27.966  35.663  1.00  0.00     0.022 A 
BRANCH  81  84
ATOM     84  S   UNL A   1      45.661  25.843  37.080  1.00  0.00     0.127 S 
ATOM     85  O   UNL A   1      44.539  26.175  37.957  1.00  0.00    -0.237 OA
ATOM     86  O   UNL A   1      45.481  24.619  36.298  1.00  0.00    -0.237 OA
ATOM     87  O   UNL A   1      46.982  25.997  37.674  1.00  0.00    -0.744 OA
ENDBRANCH  81  84
ENDBRANCH  63  77
BRANCH  64  88
ATOM     88  C   UNL A   1      36.047  30.680  28.994  1.00  0.00     0.023 A 
ATOM     89  C   UNL A   1      35.289  29.677  28.357  1.00  0.00     0.012 A 
ATOM     90  C   UNL A   1      35.624  32.021  28.897  1.00  0.00     0.148 A 
ATOM     91  C   UNL A   1      34.152  30.005  27.615  1.00  0.00     0.002 A 
ATOM     92  C   UNL A   1      34.458  32.334  28.209  1.00  0.00     0.091 A 
ATOM     93  F   UNL A   1      36.366  32.963  29.496  1.00  0.00    -0.205 F 
ATOM     94  C   UNL A   1      33.730  31.330  27.551  1.00  0.00     0.022 A 
BRANCH  92  95
ATOM     95  S   UNL A   1      33.766  33.991  28.193  1.00  0.00     0.127 S 
ATOM     96  O   UNL A   1      32.435  33.754  27.640  1.00  0.00    -0.237 OA
ATOM     97  O   UNL A   1      33.792  34.342  29.612  1.00  0.00    -0.237 OA
ATOM     98  O   UNL A   1      34.663  34.784  27.362  1.00  0.00    -0.744 OA
ENDBRANCH  92  95
ENDBRANCH  64  88
BRANCH  76  99
ATOM     99  C   UNL A   1      41.816  27.040  27.498  1.00  0.00     0.023 A 
ATOM    100  C   UNL A   1      42.391  27.750  26.426  1.00  0.00     0.012 A 
ATOM    101  C   UNL A   1      41.724  25.636  27.427  1.00  0.00     0.148 A 
ATOM    102  C   UNL A   1      42.826  27.079  25.284  1.00  0.00     0.002 A 
ATOM    103  C   UNL A   1      42.212  24.969  26.311  1.00  0.00     0.091 A 
ATOM    104  F   UNL A   1      41.160  24.979  28.451  1.00  0.00    -0.205 F 
ATOM    105  C   UNL A   1      42.747  25.689  25.231  1.00  0.00     0.022 A 
BRANCH 103 106
ATOM    106  S   UNL A   1      42.247  23.177  26.201  1.00  0.00     0.127 S 
ATOM    107  O   UNL A   1      43.078  22.826  27.352  1.00  0.00    -0.237 OA
ATOM    108  O   UNL A   1      40.832  22.831  26.341  1.00  0.00    -0.237 OA
ATOM    109  O   UNL A   1      42.820  22.864  24.899  1.00  0.00    -0.744 OA
ENDBRANCH 103 106
ENDBRANCH  76  99
ENDBRANCH  50  51
ENDBRANCH  42  45
ENDBRANCH  40  41
ENDBRANCH   1  40
TORSDOF 15
ENDMDL
MODEL 3
REMARK VINA RESULT:      -9.9      4.542      8.621
REMARK SMILES COC(=O)[C@H]1CC[C@]2(C)[C@H](CC[C@]3(C)[C@H]2CC=C2[C@H]4CC(C)(C)CC[C@]4(C(=O)NCCCNC(=O)c4ccc(-c5c6nc(c(-c7cccc(S(=O)(=O)[O-])c7F)c7ccc([nH]7)c(-c7cccc(S(=O)(=O)[O-])c7F)c7nc(c(-c8cccc(S(=O)(=O)[O-])c8F)c8ccc5[nH]8)C=C7)C=C6)cc4)CC[C@@]23C)C1(C)C
REMARK SMILES IDX 31 1 30 2 29 3 27 4 28 5 26 7 5 8 6 9 103 10 7 11 10 12
REMARK SMILES IDX 104 13 105 14 8 15 11 16 15 17 9 18 12 19 16 20 13 21 17 22
REMARK SMILES IDX 101 23 14 24 18 25 100 26 102 27 19 28 99 29 20 30 21 31
REMARK SMILES IDX 25 32 24 33 22 34 23 35 3 36 4 37 2 38 1 39 32 40 33 41
REMARK SMILES IDX 34 42 35 44 36 45 37 46 98 47 38 48 97 49 39 50 40 51 41 52
REMARK SMILES IDX 91 53 42 54 96 55 90 56 92 57 43 58 95 59 89 60 88 61 44 63
REMARK SMILES IDX 76 64 56 65 75 66 57 67 60 68 74 69 93 70 58 71 59 72 73 74
REMARK SMILES IDX 94 75 61 76 45 77 46 78 54 79 47 80 49 81 55 82 48 83 50 84
REMARK SMILES IDX 51 85 52 86 53 87 77 88 78 89 86 90 79 91 81 92 87 93 80 94
REMARK SMILES IDX 82 95 83 96 84 97 85 98 62 99 63 100 71 101 64 102 66 103
REMARK SMILES IDX 72 104 65 105 67 106 68 107 69 108 70 109
REMARK H PARENT 29 6 33 43 92 62 60 73
REMARK Flexibility Score: inf
ROOT
ATOM      1  C   UNL A   1      42.590  42.620  32.474  1.00  0.00     0.042 C 
ENDROOT
BRANCH   1   2
ATOM      2  C   UNL A   1      43.786  42.655  31.359  1.00  0.00     0.117 C 
BRANCH   2   3
ATOM      3  N   UNL A   1      45.156  41.923  31.232  1.00  0.00    -0.356 N 
ATOM      4  C   UNL A   1      46.100  41.546  30.189  1.00  0.00     0.226 C 
ATOM      5  O   UNL A   1      47.273  41.445  30.590  1.00  0.00    -0.274 OA
ATOM      6  H   UNL A   1      45.477  41.630  32.115  1.00  0.00     0.163 HD
BRANCH   4   7
ATOM      7  C   UNL A   1      45.835  41.192  28.530  1.00  0.00     0.056 C 
ATOM      8  C   UNL A   1      44.850  33.436  27.719  1.00  0.00     0.105 C 
ATOM      9  C   UNL A   1      46.037  33.340  28.738  1.00  0.00     0.016 C 
ATOM     10  C   UNL A   1      44.315  34.906  27.517  1.00  0.00    -0.019 C 
ATOM     11  C   UNL A   1      47.149  34.387  28.579  1.00  0.00     0.008 C 
ATOM     12  C   UNL A   1      45.640  35.796  27.241  1.00  0.00     0.002 C 
ATOM     13  C   UNL A   1      43.318  35.078  26.339  1.00  0.00     0.012 C 
ATOM     14  C   UNL A   1      43.360  35.177  28.739  1.00  0.00     0.012 C 
ATOM     15  C   UNL A   1      46.635  35.843  28.428  1.00  0.00    -0.026 C 
ATOM     16  C   UNL A   1      45.449  37.137  26.547  1.00  0.00     0.005 C 
ATOM     17  C   UNL A   1      47.936  36.770  28.210  1.00  0.00     0.006 C 
ATOM     18  C   UNL A   1      45.916  36.124  29.746  1.00  0.00     0.012 C 
ATOM     19  C   UNL A   1      46.753  37.811  26.066  1.00  0.00     0.008 C 
ATOM     20  C   UNL A   1      48.487  37.363  29.541  1.00  0.00     0.032 C 
ATOM     21  C   UNL A   1      47.990  37.887  27.008  1.00  0.00    -0.020 C 
ATOM     22  C   UNL A   1      47.854  38.698  29.834  1.00  0.00    -0.027 C 
ATOM     23  C   UNL A   1      48.256  39.379  27.638  1.00  0.00    -0.006 C 
ATOM     24  C   UNL A   1      49.222  37.463  26.144  1.00  0.00     0.012 C 
ATOM     25  C   UNL A   1      47.269  39.316  28.801  1.00  0.00    -0.064 C 
ATOM     26  C   UNL A   1      48.022  40.749  26.959  1.00  0.00     0.013 C 
ATOM     27  C   UNL A   1      49.822  39.543  27.953  1.00  0.00     0.017 C 
ATOM     28  C   UNL A   1      45.745  39.708  28.530  1.00  0.00     0.031 C 
ATOM     29  C   UNL A   1      46.968  41.711  27.548  1.00  0.00     0.018 C 
ATOM     30  C   UNL A   1      44.318  39.468  29.319  1.00  0.00     0.015 C 
ATOM     31  C   UNL A   1      43.002  39.914  28.591  1.00  0.00    -0.035 C 
ATOM     32  C   UNL A   1      44.523  41.770  27.775  1.00  0.00     0.018 C 
ATOM     33  C   UNL A   1      43.368  40.806  27.429  1.00  0.00     0.007 C 
ATOM     34  C   UNL A   1      42.016  40.721  29.477  1.00  0.00     0.011 C 
ATOM     35  C   UNL A   1      42.215  38.673  28.133  1.00  0.00     0.011 C 
BRANCH   8  36
ATOM     36  C   UNL A   1      45.270  32.747  26.435  1.00  0.00     0.309 C 
ATOM     37  O   UNL A   1      46.333  32.907  25.831  1.00  0.00    -0.252 OA
BRANCH  36  38
ATOM     38  O   UNL A   1      44.300  31.883  26.043  1.00  0.00    -0.469 OA
ATOM     39  C   UNL A   1      43.865  30.998  27.068  1.00  0.00     0.282 C 
ENDBRANCH  36  38
ENDBRANCH   8  36
ENDBRANCH   4   7
ENDBRANCH   2   3
ENDBRANCH   1   2
BRANCH   1  40
ATOM     40  C   UNL A   1      42.232  41.772  33.753  1.00  0.00     0.118 C 
BRANCH  40  41
ATOM     41  N   UNL A   1      43.515  41.243  34.371  1.00  0.00    -0.352 N 
ATOM     42  C   UNL A   1      44.119  40.029  34.663  1.00  0.00     0.251 C 
ATOM     43  H   UNL A   1      44.094  41.989  34.649  1.00  0.00     0.163 HD
ATOM     44  O   UNL A   1      45.080  40.079  35.441  1.00  0.00    -0.269 OA
BRANCH  42  45
ATOM     45  C   UNL A   1      43.777  38.691  34.088  1.00  0.00     0.039 A 
ATOM     46  C   UNL A   1      43.484  37.618  34.966  1.00  0.00     0.014 A 
ATOM     47  C   UNL A   1      43.892  38.403  32.735  1.00  0.00     0.014 A 
ATOM     48  C   UNL A   1      43.360  36.295  34.498  1.00  0.00     0.010 A 
ATOM     49  C   UNL A   1      43.699  37.091  32.260  1.00  0.00     0.010 A 
ATOM     50  C   UNL A   1      43.487  36.010  33.133  1.00  0.00    -0.014 A 
BRANCH  50  51
ATOM     51  C   UNL A   1      43.493  34.596  32.635  1.00  0.00     0.031 A 
ATOM     52  C   UNL A   1      42.193  33.907  32.266  1.00  0.00     0.074 A 
ATOM     53  C   UNL A   1      44.652  33.912  32.513  1.00  0.00     0.049 A 
ATOM     54  N   UNL A   1      41.995  32.711  31.771  1.00  0.00    -0.248 NA
ATOM     55  C   UNL A   1      40.948  34.654  32.509  1.00  0.00     0.031 C 
ATOM     56  C   UNL A   1      45.969  34.420  32.897  1.00  0.00     0.029 A 
ATOM     57  N   UNL A   1      44.913  32.647  32.042  1.00  0.00    -0.354 N 
ATOM     58  C   UNL A   1      40.613  32.552  31.680  1.00  0.00     0.074 A 
ATOM     59  C   UNL A   1      40.020  33.756  32.211  1.00  0.00     0.031 C 
ATOM     60  C   UNL A   1      46.899  33.491  32.623  1.00  0.00     0.029 A 
ATOM     61  C   UNL A   1      46.248  32.308  32.068  1.00  0.00     0.049 A 
ATOM     62  H   UNL A   1      44.210  32.039  31.715  1.00  0.00     0.167 HD
ATOM     63  C   UNL A   1      39.898  31.517  31.172  1.00  0.00     0.034 A 
ATOM     64  C   UNL A   1      46.879  31.179  31.685  1.00  0.00     0.034 A 
ATOM     65  C   UNL A   1      40.492  30.334  30.609  1.00  0.00     0.049 A 
ATOM     66  C   UNL A   1      46.071  30.061  31.081  1.00  0.00     0.074 A 
ATOM     67  C   UNL A   1      39.866  29.263  29.995  1.00  0.00     0.029 A 
ATOM     68  N   UNL A   1      41.850  30.060  30.602  1.00  0.00    -0.354 N 
ATOM     69  N   UNL A   1      44.778  29.999  30.869  1.00  0.00    -0.248 NA
ATOM     70  C   UNL A   1      46.810  28.875  30.625  1.00  0.00     0.031 C 
ATOM     71  C   UNL A   1      40.844  28.323  29.655  1.00  0.00     0.029 A 
ATOM     72  C   UNL A   1      42.083  28.832  30.010  1.00  0.00     0.049 A 
ATOM     73  H   UNL A   1      42.547  30.653  30.964  1.00  0.00     0.167 HD
ATOM     74  C   UNL A   1      44.553  28.787  30.227  1.00  0.00     0.074 A 
ATOM     75  C   UNL A   1      45.848  28.158  30.061  1.00  0.00     0.031 C 
ATOM     76  C   UNL A   1      43.382  28.238  29.820  1.00  0.00     0.034 A 
BRANCH  63  77
ATOM     77  C   UNL A   1      38.391  31.631  31.169  1.00  0.00     0.023 A 
ATOM     78  C   UNL A   1      37.647  31.174  32.278  1.00  0.00     0.012 A 
ATOM     79  C   UNL A   1      37.712  32.236  30.092  1.00  0.00     0.148 A 
ATOM     80  C   UNL A   1      36.256  31.273  32.296  1.00  0.00     0.002 A 
ATOM     81  C   UNL A   1      36.329  32.377  30.139  1.00  0.00     0.091 A 
ATOM     82  F   UNL A   1      38.428  32.654  29.038  1.00  0.00    -0.205 F 
ATOM     83  C   UNL A   1      35.598  31.883  31.232  1.00  0.00     0.022 A 
BRANCH  81  84
ATOM     84  S   UNL A   1      35.392  33.221  28.858  1.00  0.00     0.127 S 
ATOM     85  O   UNL A   1      34.037  33.176  29.405  1.00  0.00    -0.237 OA
ATOM     86  O   UNL A   1      36.005  34.551  28.858  1.00  0.00    -0.237 OA
ATOM     87  O   UNL A   1      35.596  32.456  27.636  1.00  0.00    -0.744 OA
ENDBRANCH  81  84
ENDBRANCH  63  77
BRANCH  64  88
ATOM     88  C   UNL A   1      48.364  31.072  31.806  1.00  0.00     0.023 A 
ATOM     89  C   UNL A   1      48.946  30.709  33.037  1.00  0.00     0.012 A 
ATOM     90  C   UNL A   1      49.201  31.303  30.697  1.00  0.00     0.148 A 
ATOM     91  C   UNL A   1      50.332  30.608  33.169  1.00  0.00     0.002 A 
ATOM     92  C   UNL A   1      50.576  31.141  30.818  1.00  0.00     0.091 A 
ATOM     93  F   UNL A   1      48.632  31.663  29.538  1.00  0.00    -0.205 F 
ATOM     94  C   UNL A   1      51.146  30.811  32.058  1.00  0.00     0.022 A 
BRANCH  92  95
ATOM     95  S   UNL A   1      51.685  31.247  29.410  1.00  0.00     0.127 S 
ATOM     96  O   UNL A   1      51.679  32.681  29.131  1.00  0.00    -0.237 OA
ATOM     97  O   UNL A   1      52.934  30.732  29.971  1.00  0.00    -0.237 OA
ATOM     98  O   UNL A   1      51.096  30.401  28.380  1.00  0.00    -0.744 OA
ENDBRANCH  92  95
ENDBRANCH  64  88
BRANCH  76  99
ATOM     99  C   UNL A   1      43.445  26.907  29.117  1.00  0.00     0.023 A 
ATOM    100  C   UNL A   1      43.338  25.711  29.852  1.00  0.00     0.012 A 
ATOM    101  C   UNL A   1      43.552  26.849  27.713  1.00  0.00     0.148 A 
ATOM    102  C   UNL A   1      43.381  24.476  29.206  1.00  0.00     0.002 A 
ATOM    103  C   UNL A   1      43.536  25.618  27.071  1.00  0.00     0.091 A 
ATOM    104  F   UNL A   1      43.667  27.998  27.032  1.00  0.00    -0.205 F 
ATOM    105  C   UNL A   1      43.468  24.430  27.817  1.00  0.00     0.022 A 
BRANCH 103 106
ATOM    106  S   UNL A   1      43.538  25.466  25.282  1.00  0.00     0.127 S 
ATOM    107  O   UNL A   1      43.155  24.067  25.102  1.00  0.00    -0.237 OA
ATOM    108  O   UNL A   1      42.514  26.435  24.889  1.00  0.00    -0.237 OA
ATOM    109  O   UNL A   1      44.888  25.805  24.850  1.00  0.00    -0.744 OA
ENDBRANCH 103 106
ENDBRANCH  76  99
ENDBRANCH  50  51
ENDBRANCH  42  45
ENDBRANCH  40  41
ENDBRANCH   1  40
TORSDOF 15
ENDMDL
