MODEL 1
REMARK VINA RESULT:     -13.8      0.000      0.000
REMARK SMILES Cc1ccn2c([C@@H]3CCCC[C@@H]3C(=O)NCCCNC(=O)c3ccc(-c4c5nc(c(-c6cccc(S(=O)(=O)[O-])c6F)c6ccc([nH]6)c(-c6cccc(S(=O)(=O)[O-])c6F)c6nc(c(-c7cccc(S(=O)(=O)[O-])c7F)c7ccc4[nH]7)C=C6)C=C5)cc3)nnc2c1
REMARK SMILES IDX 18 1 17 2 16 3 15 4 13 5 14 6 12 8 7 9 8 10 9 11 11 12 10 13
REMARK SMILES IDX 6 14 1 15 2 16 3 17 88 18 4 19 87 20 5 21 86 22 85 23 19 24
REMARK SMILES IDX 20 25 21 27 22 28 23 29 84 30 24 31 83 32 25 33 26 34 27 35
REMARK SMILES IDX 77 36 28 37 82 38 76 39 78 40 29 41 81 42 75 43 74 44 30 46
REMARK SMILES IDX 62 47 42 48 61 49 43 50 46 51 60 52 79 53 44 54 45 55 59 57
REMARK SMILES IDX 80 58 47 59 31 60 32 61 40 62 33 63 35 64 41 65 34 66 36 67
REMARK SMILES IDX 37 68 38 69 39 70 63 71 64 72 72 73 65 74 67 75 73 76 66 77
REMARK SMILES IDX 68 78 69 79 70 80 71 81 48 82 49 83 57 84 50 85 52 86 58 87
REMARK SMILES IDX 51 88 53 89 54 90 55 91 56 92
REMARK H PARENT 15 7 19 26 78 45 46 56
REMARK Flexibility Score: inf
ROOT
ATOM      1  C   UNL A   1      35.605  20.438  24.968  1.00  0.00     0.118 C 
ENDROOT
BRANCH   1   2
ATOM      2  C   UNL A   1      34.383  21.258  24.586  1.00  0.00     0.042 C 
BRANCH   2   3
ATOM      3  C   UNL A   1      34.191  22.345  25.625  1.00  0.00     0.117 C 
BRANCH   3   4
ATOM      4  N   UNL A   1      34.196  23.713  25.161  1.00  0.00    -0.356 N 
ATOM      5  C   UNL A   1      33.126  24.539  25.383  1.00  0.00     0.223 C 
ATOM      6  O   UNL A   1      33.290  25.486  26.158  1.00  0.00    -0.275 OA
ATOM      7  H   UNL A   1      34.981  24.057  24.677  1.00  0.00     0.163 HD
BRANCH   5   8
ATOM      8  C   UNL A   1      31.835  24.447  24.553  1.00  0.00     0.089 C 
ATOM      9  C   UNL A   1      30.737  25.508  24.592  1.00  0.00     0.071 C 
ATOM     10  C   UNL A   1      30.078  25.631  25.985  1.00  0.00     0.012 C 
ATOM     11  C   UNL A   1      29.697  24.294  26.644  1.00  0.00     0.001 C 
ATOM     12  C   UNL A   1      31.181  23.102  24.976  1.00  0.00     0.014 C 
ATOM     13  C   UNL A   1      30.685  23.152  26.421  1.00  0.00     0.001 C 
BRANCH   9  14
ATOM     14  C   UNL A   1      30.898  26.833  23.852  1.00  0.00     0.141 A 
ATOM     15  C   UNL A   1      28.011  30.795  21.083  1.00  0.00     0.044 C 
ATOM     16  C   UNL A   1      28.762  29.810  21.936  1.00  0.00    -0.046 A 
ATOM     17  C   UNL A   1      27.976  28.898  22.762  1.00  0.00     0.022 A 
ATOM     18  C   UNL A   1      30.108  29.735  21.946  1.00  0.00     0.053 A 
ATOM     19  C   UNL A   1      28.598  27.962  23.504  1.00  0.00     0.095 A 
ATOM     20  C   UNL A   1      30.762  28.707  22.684  1.00  0.00     0.161 A 
ATOM     21  N   UNL A   1      29.988  27.806  23.416  1.00  0.00    -0.286 N 
ATOM     22  N   UNL A   1      32.029  28.394  22.787  1.00  0.00    -0.130 NA
ATOM     23  N   UNL A   1      32.112  27.238  23.505  1.00  0.00    -0.134 NA
ENDBRANCH   9  14
ENDBRANCH   5   8
ENDBRANCH   3   4
ENDBRANCH   2   3
ENDBRANCH   1   2
BRANCH   1  24
ATOM     24  N   UNL A   1      36.845  21.115  24.674  1.00  0.00    -0.352 N 
ATOM     25  C   UNL A   1      38.024  20.537  25.104  1.00  0.00     0.251 C 
ATOM     26  H   UNL A   1      36.851  21.967  24.181  1.00  0.00     0.163 HD
ATOM     27  O   UNL A   1      38.320  19.360  24.920  1.00  0.00    -0.269 OA
BRANCH  25  28
ATOM     28  C   UNL A   1      38.874  21.445  25.905  1.00  0.00     0.039 A 
ATOM     29  C   UNL A   1      38.426  22.758  26.106  1.00  0.00     0.014 A 
ATOM     30  C   UNL A   1      40.051  20.991  26.504  1.00  0.00     0.014 A 
ATOM     31  C   UNL A   1      39.220  23.649  26.788  1.00  0.00     0.010 A 
ATOM     32  C   UNL A   1      40.841  21.888  27.220  1.00  0.00     0.010 A 
ATOM     33  C   UNL A   1      40.440  23.220  27.317  1.00  0.00    -0.014 A 
BRANCH  33  34
ATOM     34  C   UNL A   1      41.173  24.228  28.063  1.00  0.00     0.031 A 
ATOM     35  C   UNL A   1      40.491  25.548  28.131  1.00  0.00     0.074 A 
ATOM     36  C   UNL A   1      42.385  24.033  28.611  1.00  0.00     0.049 A 
ATOM     37  N   UNL A   1      40.779  26.623  27.469  1.00  0.00    -0.248 NA
ATOM     38  C   UNL A   1      39.242  25.621  28.899  1.00  0.00     0.031 C 
ATOM     39  C   UNL A   1      43.088  22.777  28.861  1.00  0.00     0.029 A 
ATOM     40  N   UNL A   1      43.212  24.969  29.147  1.00  0.00    -0.354 N 
ATOM     41  C   UNL A   1      39.863  27.576  27.901  1.00  0.00     0.074 A 
ATOM     42  C   UNL A   1      38.850  26.869  28.644  1.00  0.00     0.031 C 
ATOM     43  C   UNL A   1      44.121  23.015  29.705  1.00  0.00     0.029 A 
ATOM     44  C   UNL A   1      44.231  24.445  29.929  1.00  0.00     0.049 A 
ATOM     45  H   UNL A   1      43.097  25.935  28.994  1.00  0.00     0.167 HD
ATOM     46  C   UNL A   1      40.110  28.912  27.820  1.00  0.00     0.034 A 
ATOM     47  C   UNL A   1      45.040  25.159  30.751  1.00  0.00     0.034 A 
ATOM     48  C   UNL A   1      41.179  29.229  26.918  1.00  0.00     0.049 A 
ATOM     49  C   UNL A   1      45.019  26.561  30.266  1.00  0.00     0.074 A 
ATOM     50  C   UNL A   1      41.405  29.043  25.569  1.00  0.00     0.029 A 
ATOM     51  N   UNL A   1      42.403  29.510  27.470  1.00  0.00    -0.354 N 
ATOM     52  N   UNL A   1      45.526  26.944  29.127  1.00  0.00    -0.248 NA
ATOM     53  C   UNL A   1      44.077  27.486  30.876  1.00  0.00     0.031 C 
ATOM     54  C   UNL A   1      42.796  28.742  25.470  1.00  0.00     0.029 A 
ATOM     55  C   UNL A   1      43.332  28.800  26.758  1.00  0.00     0.049 A 
ATOM     56  H   UNL A   1      42.581  30.108  28.232  1.00  0.00     0.167 HD
ATOM     57  C   UNL A   1      44.665  27.936  28.676  1.00  0.00     0.074 A 
ATOM     58  C   UNL A   1      43.856  28.295  29.836  1.00  0.00     0.031 C 
ATOM     59  C   UNL A   1      44.501  28.180  27.343  1.00  0.00     0.034 A 
BRANCH  46  60
ATOM     60  C   UNL A   1      39.593  29.898  28.829  1.00  0.00     0.023 A 
ATOM     61  C   UNL A   1      40.246  30.008  30.072  1.00  0.00     0.012 A 
ATOM     62  C   UNL A   1      38.343  30.543  28.691  1.00  0.00     0.148 A 
ATOM     63  C   UNL A   1      39.681  30.739  31.125  1.00  0.00     0.002 A 
ATOM     64  C   UNL A   1      37.832  31.340  29.705  1.00  0.00     0.091 A 
ATOM     65  F   UNL A   1      37.574  30.278  27.629  1.00  0.00    -0.205 F 
ATOM     66  C   UNL A   1      38.485  31.424  30.934  1.00  0.00     0.022 A 
BRANCH  64  67
ATOM     67  S   UNL A   1      36.328  32.287  29.457  1.00  0.00     0.127 S 
ATOM     68  O   UNL A   1      35.374  31.238  29.110  1.00  0.00    -0.237 OA
ATOM     69  O   UNL A   1      36.133  32.895  30.773  1.00  0.00    -0.237 OA
ATOM     70  O   UNL A   1      36.653  33.243  28.405  1.00  0.00    -0.744 OA
ENDBRANCH  64  67
ENDBRANCH  46  60
BRANCH  47  71
ATOM     71  C   UNL A   1      45.628  24.796  32.063  1.00  0.00     0.023 A 
ATOM     72  C   UNL A   1      46.784  25.472  32.507  1.00  0.00     0.012 A 
ATOM     73  C   UNL A   1      44.916  24.016  33.001  1.00  0.00     0.148 A 
ATOM     74  C   UNL A   1      47.186  25.419  33.848  1.00  0.00     0.002 A 
ATOM     75  C   UNL A   1      45.327  23.954  34.330  1.00  0.00     0.091 A 
ATOM     76  F   UNL A   1      43.782  23.415  32.619  1.00  0.00    -0.205 F 
ATOM     77  C   UNL A   1      46.452  24.668  34.761  1.00  0.00     0.022 A 
BRANCH  75  78
ATOM     78  S   UNL A   1      44.425  23.011  35.569  1.00  0.00     0.127 S 
ATOM     79  O   UNL A   1      45.212  23.264  36.777  1.00  0.00    -0.237 OA
ATOM     80  O   UNL A   1      43.115  23.657  35.548  1.00  0.00    -0.237 OA
ATOM     81  O   UNL A   1      44.457  21.627  35.114  1.00  0.00    -0.744 OA
ENDBRANCH  75  78
ENDBRANCH  47  71
BRANCH  59  82
ATOM     82  C   UNL A   1      45.439  27.507  26.375  1.00  0.00     0.023 A 
ATOM     83  C   UNL A   1      46.697  28.061  26.058  1.00  0.00     0.012 A 
ATOM     84  C   UNL A   1      45.143  26.199  25.958  1.00  0.00     0.148 A 
ATOM     85  C   UNL A   1      47.641  27.324  25.337  1.00  0.00     0.002 A 
ATOM     86  C   UNL A   1      46.098  25.455  25.274  1.00  0.00     0.091 A 
ATOM     87  F   UNL A   1      43.947  25.687  26.286  1.00  0.00    -0.205 F 
ATOM     88  C   UNL A   1      47.346  26.016  24.958  1.00  0.00     0.022 A 
BRANCH  86  89
ATOM     89  S   UNL A   1      45.838  23.728  24.860  1.00  0.00     0.127 S 
ATOM     90  O   UNL A   1      46.844  23.506  23.823  1.00  0.00    -0.237 OA
ATOM     91  O   UNL A   1      46.115  23.060  26.133  1.00  0.00    -0.237 OA
ATOM     92  O   UNL A   1      44.454  23.619  24.414  1.00  0.00    -0.744 OA
ENDBRANCH  86  89
ENDBRANCH  59  82
ENDBRANCH  33  34
ENDBRANCH  25  28
ENDBRANCH   1  24
TORSDOF 14
ENDMDL
MODEL 2
REMARK VINA RESULT:     -13.7      3.391      7.631
REMARK SMILES Cc1ccn2c([C@@H]3CCCC[C@@H]3C(=O)NCCCNC(=O)c3ccc(-c4c5nc(c(-c6cccc(S(=O)(=O)[O-])c6F)c6ccc([nH]6)c(-c6cccc(S(=O)(=O)[O-])c6F)c6nc(c(-c7cccc(S(=O)(=O)[O-])c7F)c7ccc4[nH]7)C=C6)C=C5)cc3)nnc2c1
REMARK SMILES IDX 18 1 17 2 16 3 15 4 13 5 14 6 12 8 7 9 8 10 9 11 11 12 10 13
REMARK SMILES IDX 6 14 1 15 2 16 3 17 88 18 4 19 87 20 5 21 86 22 85 23 19 24
REMARK SMILES IDX 20 25 21 27 22 28 23 29 84 30 24 31 83 32 25 33 26 34 27 35
REMARK SMILES IDX 77 36 28 37 82 38 76 39 78 40 29 41 81 42 75 43 74 44 30 46
REMARK SMILES IDX 62 47 42 48 61 49 43 50 46 51 60 52 79 53 44 54 45 55 59 57
REMARK SMILES IDX 80 58 47 59 31 60 32 61 40 62 33 63 35 64 41 65 34 66 36 67
REMARK SMILES IDX 37 68 38 69 39 70 63 71 64 72 72 73 65 74 67 75 73 76 66 77
REMARK SMILES IDX 68 78 69 79 70 80 71 81 48 82 49 83 57 84 50 85 52 86 58 87
REMARK SMILES IDX 51 88 53 89 54 90 55 91 56 92
REMARK H PARENT 15 7 19 26 78 45 46 56
REMARK Flexibility Score: inf
ROOT
ATOM      1  C   UNL A   1      33.088  30.798  26.851  1.00  0.00     0.118 C 
ENDROOT
BRANCH   1   2
ATOM      2  C   UNL A   1      31.887  29.877  26.995  1.00  0.00     0.042 C 
BRANCH   2   3
ATOM      3  C   UNL A   1      32.373  28.530  27.492  1.00  0.00     0.117 C 
BRANCH   3   4
ATOM      4  N   UNL A   1      33.310  27.814  26.658  1.00  0.00    -0.356 N 
ATOM      5  C   UNL A   1      33.053  27.598  25.331  1.00  0.00     0.223 C 
ATOM      6  O   UNL A   1      33.768  28.181  24.510  1.00  0.00    -0.275 OA
ATOM      7  H   UNL A   1      34.147  27.476  27.050  1.00  0.00     0.163 HD
BRANCH   5   8
ATOM      8  C   UNL A   1      32.071  26.514  24.853  1.00  0.00     0.089 C 
ATOM      9  C   UNL A   1      32.174  25.834  23.490  1.00  0.00     0.071 C 
ATOM     10  C   UNL A   1      31.979  26.821  22.315  1.00  0.00     0.012 C 
ATOM     11  C   UNL A   1      30.782  27.777  22.464  1.00  0.00     0.001 C 
ATOM     12  C   UNL A   1      30.670  27.185  24.921  1.00  0.00     0.014 C 
ATOM     13  C   UNL A   1      30.530  28.292  23.878  1.00  0.00     0.001 C 
BRANCH   9  14
ATOM     14  C   UNL A   1      33.211  24.745  23.231  1.00  0.00     0.141 A 
ATOM     15  C   UNL A   1      37.836  22.364  25.385  1.00  0.00     0.044 C 
ATOM     16  C   UNL A   1      36.529  22.906  24.877  1.00  0.00    -0.046 A 
ATOM     17  C   UNL A   1      35.736  23.721  25.794  1.00  0.00     0.022 A 
ATOM     18  C   UNL A   1      36.086  22.680  23.624  1.00  0.00     0.053 A 
ATOM     19  C   UNL A   1      34.583  24.274  25.371  1.00  0.00     0.095 A 
ATOM     20  C   UNL A   1      34.897  23.314  23.160  1.00  0.00     0.161 A 
ATOM     21  N   UNL A   1      34.188  24.141  24.033  1.00  0.00    -0.286 N 
ATOM     22  N   UNL A   1      34.319  23.306  21.986  1.00  0.00    -0.130 NA
ATOM     23  N   UNL A   1      33.281  24.189  22.030  1.00  0.00    -0.134 NA
ENDBRANCH   9  14
ENDBRANCH   5   8
ENDBRANCH   3   4
ENDBRANCH   2   3
ENDBRANCH   1   2
BRANCH   1  24
ATOM     24  N   UNL A   1      33.914  30.828  28.034  1.00  0.00    -0.352 N 
ATOM     25  C   UNL A   1      35.002  31.679  28.051  1.00  0.00     0.251 C 
ATOM     26  H   UNL A   1      33.708  30.256  28.809  1.00  0.00     0.163 HD
ATOM     27  O   UNL A   1      34.952  32.865  27.739  1.00  0.00    -0.269 OA
BRANCH  25  28
ATOM     28  C   UNL A   1      36.275  31.009  28.390  1.00  0.00     0.039 A 
ATOM     29  C   UNL A   1      36.388  29.636  28.126  1.00  0.00     0.014 A 
ATOM     30  C   UNL A   1      37.361  31.731  28.892  1.00  0.00     0.014 A 
ATOM     31  C   UNL A   1      37.532  28.966  28.488  1.00  0.00     0.010 A 
ATOM     32  C   UNL A   1      38.531  31.056  29.232  1.00  0.00     0.010 A 
ATOM     33  C   UNL A   1      38.589  29.672  29.069  1.00  0.00    -0.014 A 
BRANCH  33  34
ATOM     34  C   UNL A   1      39.768  28.876  29.364  1.00  0.00     0.031 A 
ATOM     35  C   UNL A   1      40.227  28.972  30.775  1.00  0.00     0.074 A 
ATOM     36  C   UNL A   1      40.437  28.149  28.453  1.00  0.00     0.049 A 
ATOM     37  N   UNL A   1      41.239  29.636  31.235  1.00  0.00    -0.248 NA
ATOM     38  C   UNL A   1      39.354  28.398  31.807  1.00  0.00     0.031 C 
ATOM     39  C   UNL A   1      40.017  27.740  27.115  1.00  0.00     0.029 A 
ATOM     40  N   UNL A   1      41.646  27.544  28.602  1.00  0.00    -0.354 N 
ATOM     41  C   UNL A   1      41.250  29.388  32.603  1.00  0.00     0.074 A 
ATOM     42  C   UNL A   1      39.988  28.767  32.921  1.00  0.00     0.031 C 
ATOM     43  C   UNL A   1      40.849  26.766  26.674  1.00  0.00     0.029 A 
ATOM     44  C   UNL A   1      41.930  26.597  27.629  1.00  0.00     0.049 A 
ATOM     45  H   UNL A   1      42.264  27.758  29.338  1.00  0.00     0.167 HD
ATOM     46  C   UNL A   1      42.379  29.496  33.354  1.00  0.00     0.034 A 
ATOM     47  C   UNL A   1      42.947  25.702  27.674  1.00  0.00     0.034 A 
ATOM     48  C   UNL A   1      43.413  30.247  32.703  1.00  0.00     0.049 A 
ATOM     49  C   UNL A   1      43.965  26.251  28.604  1.00  0.00     0.074 A 
ATOM     50  C   UNL A   1      43.532  31.538  32.229  1.00  0.00     0.029 A 
ATOM     51  N   UNL A   1      44.431  29.536  32.118  1.00  0.00    -0.354 N 
ATOM     52  N   UNL A   1      44.670  27.321  28.360  1.00  0.00    -0.248 NA
ATOM     53  C   UNL A   1      43.925  25.830  29.995  1.00  0.00     0.031 C 
ATOM     54  C   UNL A   1      44.294  31.419  31.030  1.00  0.00     0.029 A 
ATOM     55  C   UNL A   1      44.622  30.071  30.871  1.00  0.00     0.049 A 
ATOM     56  H   UNL A   1      44.929  28.786  32.516  1.00  0.00     0.167 HD
ATOM     57  C   UNL A   1      44.807  27.940  29.596  1.00  0.00     0.074 A 
ATOM     58  C   UNL A   1      44.418  26.928  30.573  1.00  0.00     0.031 C 
ATOM     59  C   UNL A   1      44.957  29.293  29.699  1.00  0.00     0.034 A 
BRANCH  46  60
ATOM     60  C   UNL A   1      42.652  28.621  34.545  1.00  0.00     0.023 A 
ATOM     61  C   UNL A   1      42.968  29.225  35.777  1.00  0.00     0.012 A 
ATOM     62  C   UNL A   1      42.847  27.226  34.435  1.00  0.00     0.148 A 
ATOM     63  C   UNL A   1      43.448  28.467  36.853  1.00  0.00     0.002 A 
ATOM     64  C   UNL A   1      43.234  26.467  35.530  1.00  0.00     0.091 A 
ATOM     65  F   UNL A   1      42.792  26.641  33.232  1.00  0.00    -0.205 F 
ATOM     66  C   UNL A   1      43.559  27.085  36.737  1.00  0.00     0.022 A 
BRANCH  64  67
ATOM     67  S   UNL A   1      43.317  24.678  35.424  1.00  0.00     0.127 S 
ATOM     68  O   UNL A   1      43.888  24.333  36.722  1.00  0.00    -0.237 OA
ATOM     69  O   UNL A   1      41.910  24.319  35.248  1.00  0.00    -0.237 OA
ATOM     70  O   UNL A   1      44.148  24.408  34.256  1.00  0.00    -0.744 OA
ENDBRANCH  64  67
ENDBRANCH  46  60
BRANCH  47  71
ATOM     71  C   UNL A   1      43.010  24.302  27.188  1.00  0.00     0.023 A 
ATOM     72  C   UNL A   1      41.885  23.466  27.358  1.00  0.00     0.012 A 
ATOM     73  C   UNL A   1      44.029  23.869  26.311  1.00  0.00     0.148 A 
ATOM     74  C   UNL A   1      41.755  22.270  26.642  1.00  0.00     0.002 A 
ATOM     75  C   UNL A   1      43.902  22.672  25.611  1.00  0.00     0.091 A 
ATOM     76  F   UNL A   1      45.076  24.673  26.086  1.00  0.00    -0.205 F 
ATOM     77  C   UNL A   1      42.759  21.878  25.761  1.00  0.00     0.022 A 
BRANCH  75  78
ATOM     78  S   UNL A   1      45.154  22.104  24.451  1.00  0.00     0.127 S 
ATOM     79  O   UNL A   1      46.302  21.873  25.329  1.00  0.00    -0.237 OA
ATOM     80  O   UNL A   1      44.543  20.891  23.914  1.00  0.00    -0.237 OA
ATOM     81  O   UNL A   1      45.339  23.194  23.502  1.00  0.00    -0.744 OA
ENDBRANCH  75  78
ENDBRANCH  47  71
BRANCH  59  82
ATOM     82  C   UNL A   1      45.198  30.080  28.437  1.00  0.00     0.023 A 
ATOM     83  C   UNL A   1      44.134  30.487  27.605  1.00  0.00     0.012 A 
ATOM     84  C   UNL A   1      46.482  30.602  28.211  1.00  0.00     0.148 A 
ATOM     85  C   UNL A   1      44.349  31.398  26.566  1.00  0.00     0.002 A 
ATOM     86  C   UNL A   1      46.685  31.536  27.201  1.00  0.00     0.091 A 
ATOM     87  F   UNL A   1      47.474  30.213  29.026  1.00  0.00    -0.205 F 
ATOM     88  C   UNL A   1      45.621  31.932  26.374  1.00  0.00     0.022 A 
BRANCH  86  89
ATOM     89  S   UNL A   1      48.263  32.359  26.972  1.00  0.00     0.127 S 
ATOM     90  O   UNL A   1      49.154  31.238  26.677  1.00  0.00    -0.237 OA
ATOM     91  O   UNL A   1      47.992  33.239  25.834  1.00  0.00    -0.237 OA
ATOM     92  O   UNL A   1      48.543  33.060  28.219  1.00  0.00    -0.744 OA
ENDBRANCH  86  89
ENDBRANCH  59  82
ENDBRANCH  33  34
ENDBRANCH  25  28
ENDBRANCH   1  24
TORSDOF 14
ENDMDL
MODEL 3
REMARK VINA RESULT:     -13.7      5.507     11.039
REMARK SMILES Cc1ccn2c([C@@H]3CCCC[C@@H]3C(=O)NCCCNC(=O)c3ccc(-c4c5nc(c(-c6cccc(S(=O)(=O)[O-])c6F)c6ccc([nH]6)c(-c6cccc(S(=O)(=O)[O-])c6F)c6nc(c(-c7cccc(S(=O)(=O)[O-])c7F)c7ccc4[nH]7)C=C6)C=C5)cc3)nnc2c1
REMARK SMILES IDX 18 1 17 2 16 3 15 4 13 5 14 6 12 8 7 9 8 10 9 11 11 12 10 13
REMARK SMILES IDX 6 14 1 15 2 16 3 17 88 18 4 19 87 20 5 21 86 22 85 23 19 24
REMARK SMILES IDX 20 25 21 27 22 28 23 29 84 30 24 31 83 32 25 33 26 34 27 35
REMARK SMILES IDX 77 36 28 37 82 38 76 39 78 40 29 41 81 42 75 43 74 44 30 46
REMARK SMILES IDX 62 47 42 48 61 49 43 50 46 51 60 52 79 53 44 54 45 55 59 57
REMARK SMILES IDX 80 58 47 59 31 60 32 61 40 62 33 63 35 64 41 65 34 66 36 67
REMARK SMILES IDX 37 68 38 69 39 70 63 71 64 72 72 73 65 74 67 75 73 76 66 77
REMARK SMILES IDX 68 78 69 79 70 80 71 81 48 82 49 83 57 84 50 85 52 86 58 87
REMARK SMILES IDX 51 88 53 89 54 90 55 91 56 92
REMARK H PARENT 15 7 19 26 78 45 46 56
REMARK Flexibility Score: inf
ROOT
ATOM      1  C   UNL A   1      42.958  19.849  25.735  1.00  0.00     0.118 C 
ENDROOT
BRANCH   1   2
ATOM      2  C   UNL A   1      44.202  18.987  25.590  1.00  0.00     0.042 C 
BRANCH   2   3
ATOM      3  C   UNL A   1      45.138  19.660  24.606  1.00  0.00     0.117 C 
BRANCH   3   4
ATOM      4  N   UNL A   1      46.178  20.501  25.150  1.00  0.00    -0.356 N 
ATOM      5  C   UNL A   1      45.949  21.824  25.422  1.00  0.00     0.223 C 
ATOM      6  O   UNL A   1      45.950  22.170  26.607  1.00  0.00    -0.275 OA
ATOM      7  H   UNL A   1      47.067  20.118  25.329  1.00  0.00     0.163 HD
BRANCH   5   8
ATOM      8  C   UNL A   1      45.909  22.892  24.315  1.00  0.00     0.089 C 
ATOM      9  C   UNL A   1      45.901  24.392  24.600  1.00  0.00     0.071 C 
ATOM     10  C   UNL A   1      44.639  24.845  25.370  1.00  0.00     0.012 C 
ATOM     11  C   UNL A   1      43.312  24.292  24.823  1.00  0.00     0.001 C 
ATOM     12  C   UNL A   1      44.622  22.578  23.502  1.00  0.00     0.014 C 
ATOM     13  C   UNL A   1      43.362  22.852  24.322  1.00  0.00     0.001 C 
BRANCH   9  14
ATOM     14  C   UNL A   1      47.180  25.122  25.001  1.00  0.00     0.141 A 
ATOM     15  C   UNL A   1      49.698  27.698  29.328  1.00  0.00     0.044 C 
ATOM     16  C   UNL A   1      49.086  26.895  28.214  1.00  0.00    -0.046 A 
ATOM     17  C   UNL A   1      47.947  26.044  28.544  1.00  0.00     0.022 A 
ATOM     18  C   UNL A   1      49.538  26.950  26.945  1.00  0.00     0.053 A 
ATOM     19  C   UNL A   1      47.329  25.345  27.572  1.00  0.00     0.095 A 
ATOM     20  C   UNL A   1      48.848  26.258  25.909  1.00  0.00     0.161 A 
ATOM     21  N   UNL A   1      47.722  25.501  26.236  1.00  0.00    -0.286 N 
ATOM     22  N   UNL A   1      49.049  26.219  24.616  1.00  0.00    -0.130 NA
ATOM     23  N   UNL A   1      48.021  25.521  24.056  1.00  0.00    -0.134 NA
ENDBRANCH   9  14
ENDBRANCH   5   8
ENDBRANCH   3   4
ENDBRANCH   2   3
ENDBRANCH   1   2
BRANCH   1  24
ATOM     24  N   UNL A   1      42.961  20.633  26.948  1.00  0.00    -0.352 N 
ATOM     25  C   UNL A   1      41.748  21.058  27.455  1.00  0.00     0.251 C 
ATOM     26  H   UNL A   1      43.805  20.861  27.400  1.00  0.00     0.163 HD
ATOM     27  O   UNL A   1      40.778  20.325  27.622  1.00  0.00    -0.269 OA
BRANCH  25  28
ATOM     28  C   UNL A   1      41.682  22.515  27.695  1.00  0.00     0.039 A 
ATOM     29  C   UNL A   1      42.699  23.104  28.460  1.00  0.00     0.014 A 
ATOM     30  C   UNL A   1      40.677  23.298  27.118  1.00  0.00     0.014 A 
ATOM     31  C   UNL A   1      42.635  24.444  28.759  1.00  0.00     0.010 A 
ATOM     32  C   UNL A   1      40.630  24.661  27.399  1.00  0.00     0.010 A 
ATOM     33  C   UNL A   1      41.584  25.213  28.253  1.00  0.00    -0.014 A 
BRANCH  33  34
ATOM     34  C   UNL A   1      41.643  26.626  28.587  1.00  0.00     0.031 A 
ATOM     35  C   UNL A   1      42.913  27.290  28.189  1.00  0.00     0.074 A 
ATOM     36  C   UNL A   1      40.676  27.290  29.242  1.00  0.00     0.049 A 
ATOM     37  N   UNL A   1      43.900  27.635  28.954  1.00  0.00    -0.248 NA
ATOM     38  C   UNL A   1      43.179  27.429  26.752  1.00  0.00     0.031 C 
ATOM     39  C   UNL A   1      39.293  26.891  29.489  1.00  0.00     0.029 A 
ATOM     40  N   UNL A   1      40.738  28.546  29.759  1.00  0.00    -0.354 N 
ATOM     41  C   UNL A   1      44.830  28.229  28.108  1.00  0.00     0.074 A 
ATOM     42  C   UNL A   1      44.415  27.928  26.760  1.00  0.00     0.031 C 
ATOM     43  C   UNL A   1      38.591  27.975  29.897  1.00  0.00     0.029 A 
ATOM     44  C   UNL A   1      39.503  29.091  30.077  1.00  0.00     0.049 A 
ATOM     45  H   UNL A   1      41.586  29.027  29.895  1.00  0.00     0.167 HD
ATOM     46  C   UNL A   1      45.753  29.124  28.554  1.00  0.00     0.034 A 
ATOM     47  C   UNL A   1      39.271  30.390  30.387  1.00  0.00     0.034 A 
ATOM     48  C   UNL A   1      45.926  29.084  29.978  1.00  0.00     0.049 A 
ATOM     49  C   UNL A   1      40.560  30.961  30.849  1.00  0.00     0.074 A 
ATOM     50  C   UNL A   1      46.325  28.126  30.887  1.00  0.00     0.029 A 
ATOM     51  N   UNL A   1      45.307  30.065  30.712  1.00  0.00    -0.354 N 
ATOM     52  N   UNL A   1      41.155  30.609  31.956  1.00  0.00    -0.248 NA
ATOM     53  C   UNL A   1      41.396  31.649  29.879  1.00  0.00     0.031 C 
ATOM     54  C   UNL A   1      45.505  28.343  32.033  1.00  0.00     0.029 A 
ATOM     55  C   UNL A   1      44.686  29.441  31.761  1.00  0.00     0.049 A 
ATOM     56  H   UNL A   1      45.309  31.031  30.522  1.00  0.00     0.167 HD
ATOM     57  C   UNL A   1      42.510  30.647  31.653  1.00  0.00     0.074 A 
ATOM     58  C   UNL A   1      42.599  31.389  30.399  1.00  0.00     0.031 C 
ATOM     59  C   UNL A   1      43.403  29.842  32.298  1.00  0.00     0.034 A 
BRANCH  46  60
ATOM     60  C   UNL A   1      46.248  30.269  27.718  1.00  0.00     0.023 A 
ATOM     61  C   UNL A   1      47.634  30.504  27.635  1.00  0.00     0.012 A 
ATOM     62  C   UNL A   1      45.387  31.267  27.209  1.00  0.00     0.148 A 
ATOM     63  C   UNL A   1      48.136  31.679  27.060  1.00  0.00     0.002 A 
ATOM     64  C   UNL A   1      45.889  32.385  26.559  1.00  0.00     0.091 A 
ATOM     65  F   UNL A   1      44.076  31.210  27.473  1.00  0.00    -0.205 F 
ATOM     66  C   UNL A   1      47.264  32.609  26.501  1.00  0.00     0.022 A 
BRANCH  64  67
ATOM     67  S   UNL A   1      44.787  33.562  25.771  1.00  0.00     0.127 S 
ATOM     68  O   UNL A   1      43.917  32.678  25.001  1.00  0.00    -0.237 OA
ATOM     69  O   UNL A   1      44.157  34.206  26.924  1.00  0.00    -0.237 OA
ATOM     70  O   UNL A   1      45.661  34.442  25.005  1.00  0.00    -0.744 OA
ENDBRANCH  64  67
ENDBRANCH  46  60
BRANCH  47  71
ATOM     71  C   UNL A   1      38.102  31.251  30.082  1.00  0.00     0.023 A 
ATOM     72  C   UNL A   1      37.443  31.098  28.843  1.00  0.00     0.012 A 
ATOM     73  C   UNL A   1      37.454  32.000  31.088  1.00  0.00     0.148 A 
ATOM     74  C   UNL A   1      36.163  31.626  28.632  1.00  0.00     0.002 A 
ATOM     75  C   UNL A   1      36.187  32.537  30.869  1.00  0.00     0.091 A 
ATOM     76  F   UNL A   1      38.031  32.107  32.291  1.00  0.00    -0.205 F 
ATOM     77  C   UNL A   1      35.531  32.337  29.648  1.00  0.00     0.022 A 
BRANCH  75  78
ATOM     78  S   UNL A   1      35.306  33.460  32.137  1.00  0.00     0.127 S 
ATOM     79  O   UNL A   1      36.162  34.634  32.309  1.00  0.00    -0.237 OA
ATOM     80  O   UNL A   1      34.026  33.727  31.485  1.00  0.00    -0.237 OA
ATOM     81  O   UNL A   1      35.253  32.584  33.301  1.00  0.00    -0.744 OA
ENDBRANCH  75  78
ENDBRANCH  47  71
BRANCH  59  82
ATOM     82  C   UNL A   1      42.928  29.072  33.503  1.00  0.00     0.023 A 
ATOM     83  C   UNL A   1      41.988  28.027  33.387  1.00  0.00     0.012 A 
ATOM     84  C   UNL A   1      43.601  29.256  34.721  1.00  0.00     0.148 A 
ATOM     85  C   UNL A   1      41.723  27.182  34.470  1.00  0.00     0.002 A 
ATOM     86  C   UNL A   1      43.364  28.391  35.783  1.00  0.00     0.091 A 
ATOM     87  F   UNL A   1      44.503  30.246  34.800  1.00  0.00    -0.205 F 
ATOM     88  C   UNL A   1      42.422  27.356  35.663  1.00  0.00     0.022 A 
BRANCH  86  89
ATOM     89  S   UNL A   1      44.311  28.476  37.305  1.00  0.00     0.127 S 
ATOM     90  O   UNL A   1      43.937  29.789  37.827  1.00  0.00    -0.237 OA
ATOM     91  O   UNL A   1      43.779  27.343  38.065  1.00  0.00    -0.237 OA
ATOM     92  O   UNL A   1      45.711  28.337  36.924  1.00  0.00    -0.744 OA
ENDBRANCH  86  89
ENDBRANCH  59  82
ENDBRANCH  33  34
ENDBRANCH  25  28
ENDBRANCH   1  24
TORSDOF 14
ENDMDL
