MODEL 1
REMARK VINA RESULT:     -10.5      0.000      0.000
REMARK SMILES CCN(C(=O)NC[C@]1(C)CCCO1)[C@@H](C)CC(=O)NCCCNC(=O)c1ccc(-c2c3nc(c(-c4cccc(S(=O)(=O)[O-])c4F)c4ccc([nH]4)c(-c4cccc(S(=O)(=O)[O-])c4F)c4nc(c(-c5cccc(S(=O)(=O)[O-])c5F)c5ccc2[nH]5)C=C4)C=C3)cc1
REMARK SMILES IDX 20 1 19 2 17 3 18 4 16 6 14 7 15 8 3 9 2 10 1 11 4 12 5 13
REMARK SMILES IDX 6 14 7 16 8 17 10 18 13 19 9 20 11 21 12 22 21 23 22 24
REMARK SMILES IDX 23 25 24 26 25 28 26 29 27 30 88 31 28 32 87 33 29 34 30 35
REMARK SMILES IDX 31 36 81 37 32 38 86 39 80 40 82 41 33 42 85 43 79 44 78 45
REMARK SMILES IDX 34 47 66 48 46 49 65 50 47 51 50 52 64 53 83 54 48 55 49 56
REMARK SMILES IDX 63 58 84 59 51 60 35 61 36 62 44 63 37 64 39 65 45 66 38 67
REMARK SMILES IDX 40 68 41 69 42 70 43 71 67 72 68 73 76 74 69 75 71 76 77 77
REMARK SMILES IDX 70 78 72 79 73 80 74 81 75 82 52 83 53 84 61 85 54 86 56 87
REMARK SMILES IDX 62 88 55 89 57 90 58 91 59 92 60 93
REMARK H PARENT 19 5 6 15 23 27 82 46 50 57
REMARK Flexibility Score: inf
ROOT
ATOM      1  C   UNL A   1      32.401  26.883  25.196  1.00  0.00     0.117 C 
ENDROOT
BRANCH   1   2
ATOM      2  N   UNL A   1      31.265  26.089  25.616  1.00  0.00    -0.356 N 
ATOM      3  C   UNL A   1      31.244  24.935  26.339  1.00  0.00     0.222 C 
ATOM      4  O   UNL A   1      30.160  24.369  26.498  1.00  0.00    -0.275 OA
ATOM      5  H   UNL A   1      30.385  26.433  25.340  1.00  0.00     0.163 HD
BRANCH   3   6
ATOM      6  C   UNL A   1      32.506  24.403  27.000  1.00  0.00     0.124 C 
BRANCH   6   7
ATOM      7  C   UNL A   1      32.891  22.976  26.566  1.00  0.00     0.093 C 
ATOM      8  C   UNL A   1      33.406  22.137  27.748  1.00  0.00     0.031 C 
BRANCH   7   9
ATOM      9  N   UNL A   1      33.824  22.858  25.396  1.00  0.00    -0.322 N 
BRANCH   9  10
ATOM     10  C   UNL A   1      35.279  22.888  25.638  1.00  0.00     0.118 C 
ATOM     11  C   UNL A   1      36.038  24.155  25.278  1.00  0.00     0.027 C 
ENDBRANCH   9  10
BRANCH   9  12
ATOM     12  C   UNL A   1      33.287  22.177  24.318  1.00  0.00     0.317 C 
ATOM     13  O   UNL A   1      32.717  22.761  23.390  1.00  0.00    -0.249 OA
ATOM     14  N   UNL A   1      33.361  20.849  24.151  1.00  0.00    -0.335 N 
ATOM     15  H   UNL A   1      32.714  20.552  23.471  1.00  0.00     0.165 HD
BRANCH  14  16
ATOM     16  C   UNL A   1      34.111  19.708  24.673  1.00  0.00     0.152 C 
BRANCH  16  17
ATOM     17  C   UNL A   1      33.341  18.358  24.666  1.00  0.00     0.083 C 
ATOM     18  C   UNL A   1      34.183  17.127  24.322  1.00  0.00     0.039 C 
ATOM     19  O   UNL A   1      32.323  18.431  23.637  1.00  0.00    -0.373 OA
ATOM     20  C   UNL A   1      32.638  18.178  26.016  1.00  0.00     0.044 C 
ATOM     21  C   UNL A   1      34.099  17.072  22.816  1.00  0.00     0.031 C 
ATOM     22  C   UNL A   1      32.692  17.560  22.556  1.00  0.00     0.161 C 
ENDBRANCH  16  17
ENDBRANCH  14  16
ENDBRANCH   9  12
ENDBRANCH   7   9
ENDBRANCH   6   7
ENDBRANCH   3   6
ENDBRANCH   1   2
BRANCH   1  23
ATOM     23  C   UNL A   1      32.586  28.093  26.093  1.00  0.00     0.042 C 
BRANCH  23  24
ATOM     24  C   UNL A   1      33.811  28.942  25.817  1.00  0.00     0.118 C 
BRANCH  24  25
ATOM     25  N   UNL A   1      33.723  30.258  26.442  1.00  0.00    -0.352 N 
ATOM     26  C   UNL A   1      34.462  30.861  27.433  1.00  0.00     0.251 C 
ATOM     27  H   UNL A   1      32.998  30.821  26.085  1.00  0.00     0.163 HD
ATOM     28  O   UNL A   1      34.045  31.925  27.891  1.00  0.00    -0.269 OA
BRANCH  26  29
ATOM     29  C   UNL A   1      35.715  30.275  27.982  1.00  0.00     0.039 A 
ATOM     30  C   UNL A   1      35.677  29.667  29.246  1.00  0.00     0.014 A 
ATOM     31  C   UNL A   1      36.940  30.358  27.321  1.00  0.00     0.014 A 
ATOM     32  C   UNL A   1      36.836  29.118  29.810  1.00  0.00     0.010 A 
ATOM     33  C   UNL A   1      38.062  29.701  27.822  1.00  0.00     0.010 A 
ATOM     34  C   UNL A   1      38.039  29.105  29.090  1.00  0.00    -0.014 A 
BRANCH  34  35
ATOM     35  C   UNL A   1      39.294  28.532  29.648  1.00  0.00     0.031 A 
ATOM     36  C   UNL A   1      39.923  29.142  30.878  1.00  0.00     0.074 A 
ATOM     37  C   UNL A   1      39.927  27.529  29.006  1.00  0.00     0.049 A 
ATOM     38  N   UNL A   1      41.056  28.847  31.463  1.00  0.00    -0.248 NA
ATOM     39  C   UNL A   1      39.201  30.258  31.512  1.00  0.00     0.031 C 
ATOM     40  C   UNL A   1      39.467  26.892  27.771  1.00  0.00     0.029 A 
ATOM     41  N   UNL A   1      41.107  26.886  29.289  1.00  0.00    -0.354 N 
ATOM     42  C   UNL A   1      41.206  29.772  32.492  1.00  0.00     0.074 A 
ATOM     43  C   UNL A   1      40.071  30.665  32.423  1.00  0.00     0.031 C 
ATOM     44  C   UNL A   1      40.344  25.942  27.411  1.00  0.00     0.029 A 
ATOM     45  C   UNL A   1      41.449  25.926  28.365  1.00  0.00     0.049 A 
ATOM     46  H   UNL A   1      41.656  27.092  30.079  1.00  0.00     0.167 HD
ATOM     47  C   UNL A   1      42.180  29.858  33.429  1.00  0.00     0.034 A 
ATOM     48  C   UNL A   1      42.531  25.125  28.290  1.00  0.00     0.034 A 
ATOM     49  C   UNL A   1      43.281  28.938  33.528  1.00  0.00     0.049 A 
ATOM     50  C   UNL A   1      43.582  25.211  29.363  1.00  0.00     0.074 A 
ATOM     51  C   UNL A   1      44.264  28.872  34.497  1.00  0.00     0.029 A 
ATOM     52  N   UNL A   1      43.549  27.929  32.616  1.00  0.00    -0.354 N 
ATOM     53  N   UNL A   1      43.627  25.993  30.413  1.00  0.00    -0.248 NA
ATOM     54  C   UNL A   1      44.713  24.277  29.260  1.00  0.00     0.031 C 
ATOM     55  C   UNL A   1      45.151  27.847  34.151  1.00  0.00     0.029 A 
ATOM     56  C   UNL A   1      44.693  27.244  32.990  1.00  0.00     0.049 A 
ATOM     57  H   UNL A   1      43.008  27.729  31.818  1.00  0.00     0.167 HD
ATOM     58  C   UNL A   1      44.764  25.617  31.120  1.00  0.00     0.074 A 
ATOM     59  C   UNL A   1      45.372  24.529  30.382  1.00  0.00     0.031 C 
ATOM     60  C   UNL A   1      45.262  26.130  32.273  1.00  0.00     0.034 A 
BRANCH  47  61
ATOM     61  C   UNL A   1      42.076  30.969  34.445  1.00  0.00     0.023 A 
ATOM     62  C   UNL A   1      41.434  30.738  35.679  1.00  0.00     0.012 A 
ATOM     63  C   UNL A   1      42.633  32.237  34.188  1.00  0.00     0.148 A 
ATOM     64  C   UNL A   1      41.296  31.763  36.615  1.00  0.00     0.002 A 
ATOM     65  C   UNL A   1      42.541  33.239  35.150  1.00  0.00     0.091 A 
ATOM     66  F   UNL A   1      43.225  32.451  33.004  1.00  0.00    -0.205 F 
ATOM     67  C   UNL A   1      41.857  33.009  36.354  1.00  0.00     0.022 A 
BRANCH  65  68
ATOM     68  S   UNL A   1      43.308  34.850  34.943  1.00  0.00     0.127 S 
ATOM     69  O   UNL A   1      42.638  35.343  33.741  1.00  0.00    -0.237 OA
ATOM     70  O   UNL A   1      42.922  35.534  36.179  1.00  0.00    -0.237 OA
ATOM     71  O   UNL A   1      44.735  34.600  34.810  1.00  0.00    -0.744 OA
ENDBRANCH  65  68
ENDBRANCH  47  61
BRANCH  48  72
ATOM     72  C   UNL A   1      42.629  24.114  27.199  1.00  0.00     0.023 A 
ATOM     73  C   UNL A   1      43.387  24.415  26.050  1.00  0.00     0.012 A 
ATOM     74  C   UNL A   1      42.018  22.850  27.308  1.00  0.00     0.148 A 
ATOM     75  C   UNL A   1      43.513  23.485  25.016  1.00  0.00     0.002 A 
ATOM     76  C   UNL A   1      42.194  21.908  26.299  1.00  0.00     0.091 A 
ATOM     77  F   UNL A   1      41.300  22.586  28.407  1.00  0.00    -0.205 F 
ATOM     78  C   UNL A   1      42.925  22.230  25.146  1.00  0.00     0.022 A 
BRANCH  76  79
ATOM     79  S   UNL A   1      41.591  20.222  26.436  1.00  0.00     0.127 S 
ATOM     80  O   UNL A   1      40.149  20.408  26.290  1.00  0.00    -0.237 OA
ATOM     81  O   UNL A   1      42.248  19.578  25.298  1.00  0.00    -0.237 OA
ATOM     82  O   UNL A   1      42.034  19.745  27.737  1.00  0.00    -0.744 OA
ENDBRANCH  76  79
ENDBRANCH  48  72
BRANCH  60  83
ATOM     83  C   UNL A   1      46.498  25.492  32.850  1.00  0.00     0.023 A 
ATOM     84  C   UNL A   1      47.773  26.008  32.543  1.00  0.00     0.012 A 
ATOM     85  C   UNL A   1      46.387  24.420  33.759  1.00  0.00     0.148 A 
ATOM     86  C   UNL A   1      48.918  25.446  33.107  1.00  0.00     0.002 A 
ATOM     87  C   UNL A   1      47.528  23.902  34.358  1.00  0.00     0.091 A 
ATOM     88  F   UNL A   1      45.167  23.931  34.023  1.00  0.00    -0.205 F 
ATOM     89  C   UNL A   1      48.796  24.403  34.023  1.00  0.00     0.022 A 
BRANCH  87  90
ATOM     90  S   UNL A   1      47.456  22.630  35.625  1.00  0.00     0.127 S 
ATOM     91  O   UNL A   1      46.514  23.213  36.579  1.00  0.00    -0.237 OA
ATOM     92  O   UNL A   1      46.937  21.482  34.880  1.00  0.00    -0.237 OA
ATOM     93  O   UNL A   1      48.819  22.468  36.112  1.00  0.00    -0.744 OA
ENDBRANCH  87  90
ENDBRANCH  60  83
ENDBRANCH  34  35
ENDBRANCH  26  29
ENDBRANCH  24  25
ENDBRANCH  23  24
ENDBRANCH   1  23
TORSDOF 19
ENDMDL
MODEL 2
REMARK VINA RESULT:     -10.4      2.552      3.331
REMARK SMILES CCN(C(=O)NC[C@]1(C)CCCO1)[C@@H](C)CC(=O)NCCCNC(=O)c1ccc(-c2c3nc(c(-c4cccc(S(=O)(=O)[O-])c4F)c4ccc([nH]4)c(-c4cccc(S(=O)(=O)[O-])c4F)c4nc(c(-c5cccc(S(=O)(=O)[O-])c5F)c5ccc2[nH]5)C=C4)C=C3)cc1
REMARK SMILES IDX 20 1 19 2 17 3 18 4 16 6 14 7 15 8 3 9 2 10 1 11 4 12 5 13
REMARK SMILES IDX 6 14 7 16 8 17 10 18 13 19 9 20 11 21 12 22 21 23 22 24
REMARK SMILES IDX 23 25 24 26 25 28 26 29 27 30 88 31 28 32 87 33 29 34 30 35
REMARK SMILES IDX 31 36 81 37 32 38 86 39 80 40 82 41 33 42 85 43 79 44 78 45
REMARK SMILES IDX 34 47 66 48 46 49 65 50 47 51 50 52 64 53 83 54 48 55 49 56
REMARK SMILES IDX 63 58 84 59 51 60 35 61 36 62 44 63 37 64 39 65 45 66 38 67
REMARK SMILES IDX 40 68 41 69 42 70 43 71 67 72 68 73 76 74 69 75 71 76 77 77
REMARK SMILES IDX 70 78 72 79 73 80 74 81 75 82 52 83 53 84 61 85 54 86 56 87
REMARK SMILES IDX 62 88 55 89 57 90 58 91 59 92 60 93
REMARK H PARENT 19 5 6 15 23 27 82 46 50 57
REMARK Flexibility Score: inf
ROOT
ATOM      1  C   UNL A   1      32.153  28.036  27.434  1.00  0.00     0.117 C 
ENDROOT
BRANCH   1   2
ATOM      2  N   UNL A   1      31.033  27.126  27.314  1.00  0.00    -0.356 N 
ATOM      3  C   UNL A   1      30.834  26.122  26.415  1.00  0.00     0.222 C 
ATOM      4  O   UNL A   1      29.752  25.531  26.434  1.00  0.00    -0.275 OA
ATOM      5  H   UNL A   1      30.316  27.250  27.977  1.00  0.00     0.163 HD
BRANCH   3   6
ATOM      6  C   UNL A   1      31.942  25.688  25.468  1.00  0.00     0.124 C 
BRANCH   6   7
ATOM      7  C   UNL A   1      31.911  26.389  24.097  1.00  0.00     0.093 C 
ATOM      8  C   UNL A   1      30.734  27.373  23.984  1.00  0.00     0.031 C 
BRANCH   7   9
ATOM      9  N   UNL A   1      31.967  25.502  22.888  1.00  0.00    -0.322 N 
BRANCH   9  10
ATOM     10  C   UNL A   1      32.947  25.804  21.826  1.00  0.00     0.118 C 
ATOM     11  C   UNL A   1      32.529  25.579  20.382  1.00  0.00     0.027 C 
ENDBRANCH   9  10
BRANCH   9  12
ATOM     12  C   UNL A   1      31.534  24.209  23.120  1.00  0.00     0.317 C 
ATOM     13  O   UNL A   1      30.335  23.908  23.126  1.00  0.00    -0.249 OA
ATOM     14  N   UNL A   1      32.350  23.164  23.320  1.00  0.00    -0.335 N 
ATOM     15  H   UNL A   1      31.851  22.409  23.709  1.00  0.00     0.165 HD
BRANCH  14  16
ATOM     16  C   UNL A   1      33.755  22.805  23.137  1.00  0.00     0.152 C 
BRANCH  16  17
ATOM     17  C   UNL A   1      34.598  22.766  24.442  1.00  0.00     0.083 C 
ATOM     18  C   UNL A   1      35.712  21.717  24.469  1.00  0.00     0.039 C 
ATOM     19  O   UNL A   1      33.712  22.417  25.534  1.00  0.00    -0.373 OA
ATOM     20  C   UNL A   1      35.160  24.165  24.715  1.00  0.00     0.044 C 
ATOM     21  C   UNL A   1      35.009  20.492  25.001  1.00  0.00     0.031 C 
ATOM     22  C   UNL A   1      34.025  21.089  25.981  1.00  0.00     0.161 C 
ENDBRANCH  16  17
ENDBRANCH  14  16
ENDBRANCH   9  12
ENDBRANCH   7   9
ENDBRANCH   6   7
ENDBRANCH   3   6
ENDBRANCH   1   2
BRANCH   1  23
ATOM     23  C   UNL A   1      31.778  29.431  26.968  1.00  0.00     0.042 C 
BRANCH  23  24
ATOM     24  C   UNL A   1      32.852  30.188  26.211  1.00  0.00     0.118 C 
BRANCH  24  25
ATOM     25  N   UNL A   1      32.897  31.599  26.581  1.00  0.00    -0.352 N 
ATOM     26  C   UNL A   1      33.702  32.301  27.449  1.00  0.00     0.251 C 
ATOM     27  H   UNL A   1      32.225  32.153  26.122  1.00  0.00     0.163 HD
ATOM     28  O   UNL A   1      33.394  33.467  27.699  1.00  0.00    -0.269 OA
BRANCH  26  29
ATOM     29  C   UNL A   1      34.900  31.710  28.104  1.00  0.00     0.039 A 
ATOM     30  C   UNL A   1      34.809  30.411  28.627  1.00  0.00     0.014 A 
ATOM     31  C   UNL A   1      36.092  32.413  28.274  1.00  0.00     0.014 A 
ATOM     32  C   UNL A   1      35.907  29.820  29.268  1.00  0.00     0.010 A 
ATOM     33  C   UNL A   1      37.220  31.782  28.794  1.00  0.00     0.010 A 
ATOM     34  C   UNL A   1      37.135  30.492  29.334  1.00  0.00    -0.014 A 
BRANCH  34  35
ATOM     35  C   UNL A   1      38.329  29.903  30.003  1.00  0.00     0.031 A 
ATOM     36  C   UNL A   1      38.714  30.352  31.393  1.00  0.00     0.074 A 
ATOM     37  C   UNL A   1      39.124  29.041  29.338  1.00  0.00     0.049 A 
ATOM     38  N   UNL A   1      39.761  30.027  32.107  1.00  0.00    -0.248 NA
ATOM     39  C   UNL A   1      37.823  31.322  32.052  1.00  0.00     0.031 C 
ATOM     40  C   UNL A   1      38.907  28.577  27.967  1.00  0.00     0.029 A 
ATOM     41  N   UNL A   1      40.289  28.423  29.717  1.00  0.00    -0.354 N 
ATOM     42  C   UNL A   1      39.683  30.793  33.267  1.00  0.00     0.074 A 
ATOM     43  C   UNL A   1      38.511  31.629  33.141  1.00  0.00     0.031 C 
ATOM     44  C   UNL A   1      39.896  27.736  27.625  1.00  0.00     0.029 A 
ATOM     45  C   UNL A   1      40.839  27.630  28.734  1.00  0.00     0.049 A 
ATOM     46  H   UNL A   1      40.694  28.534  30.607  1.00  0.00     0.167 HD
ATOM     47  C   UNL A   1      40.492  30.785  34.353  1.00  0.00     0.034 A 
ATOM     48  C   UNL A   1      41.975  26.905  28.725  1.00  0.00     0.034 A 
ATOM     49  C   UNL A   1      41.629  29.916  34.499  1.00  0.00     0.049 A 
ATOM     50  C   UNL A   1      42.839  26.880  29.956  1.00  0.00     0.074 A 
ATOM     51  C   UNL A   1      42.453  29.753  35.597  1.00  0.00     0.029 A 
ATOM     52  N   UNL A   1      42.108  29.071  33.511  1.00  0.00    -0.354 N 
ATOM     53  N   UNL A   1      42.665  27.495  31.100  1.00  0.00    -0.248 NA
ATOM     54  C   UNL A   1      44.037  26.029  29.908  1.00  0.00     0.031 C 
ATOM     55  C   UNL A   1      43.455  28.837  35.259  1.00  0.00     0.029 A 
ATOM     56  C   UNL A   1      43.226  28.394  33.966  1.00  0.00     0.049 A 
ATOM     57  H   UNL A   1      41.712  28.966  32.615  1.00  0.00     0.167 HD
ATOM     58  C   UNL A   1      43.704  27.074  31.922  1.00  0.00     0.074 A 
ATOM     59  C   UNL A   1      44.495  26.141  31.147  1.00  0.00     0.031 C 
ATOM     60  C   UNL A   1      43.979  27.431  33.202  1.00  0.00     0.034 A 
BRANCH  47  61
ATOM     61  C   UNL A   1      40.153  31.724  35.485  1.00  0.00     0.023 A 
ATOM     62  C   UNL A   1      40.884  32.919  35.653  1.00  0.00     0.012 A 
ATOM     63  C   UNL A   1      39.095  31.437  36.369  1.00  0.00     0.148 A 
ATOM     64  C   UNL A   1      40.608  33.781  36.714  1.00  0.00     0.002 A 
ATOM     65  C   UNL A   1      38.790  32.330  37.392  1.00  0.00     0.091 A 
ATOM     66  F   UNL A   1      38.419  30.290  36.211  1.00  0.00    -0.205 F 
ATOM     67  C   UNL A   1      39.556  33.491  37.577  1.00  0.00     0.022 A 
BRANCH  65  68
ATOM     68  S   UNL A   1      37.398  32.088  38.501  1.00  0.00     0.127 S 
ATOM     69  O   UNL A   1      37.973  32.484  39.786  1.00  0.00    -0.237 OA
ATOM     70  O   UNL A   1      36.410  33.025  37.963  1.00  0.00    -0.237 OA
ATOM     71  O   UNL A   1      37.029  30.686  38.384  1.00  0.00    -0.744 OA
ENDBRANCH  65  68
ENDBRANCH  47  61
BRANCH  48  72
ATOM     72  C   UNL A   1      42.314  26.076  27.533  1.00  0.00     0.023 A 
ATOM     73  C   UNL A   1      43.087  26.642  26.499  1.00  0.00     0.012 A 
ATOM     74  C   UNL A   1      41.917  24.728  27.435  1.00  0.00     0.148 A 
ATOM     75  C   UNL A   1      43.435  25.890  25.377  1.00  0.00     0.002 A 
ATOM     76  C   UNL A   1      42.315  23.969  26.340  1.00  0.00     0.091 A 
ATOM     77  F   UNL A   1      41.181  24.211  28.428  1.00  0.00    -0.205 F 
ATOM     78  C   UNL A   1      43.058  24.552  25.302  1.00  0.00     0.022 A 
BRANCH  76  79
ATOM     79  S   UNL A   1      41.994  22.206  26.219  1.00  0.00     0.127 S 
ATOM     80  O   UNL A   1      42.742  21.848  25.015  1.00  0.00    -0.237 OA
ATOM     81  O   UNL A   1      42.569  21.712  27.471  1.00  0.00    -0.237 OA
ATOM     82  O   UNL A   1      40.549  22.070  26.125  1.00  0.00    -0.744 OA
ENDBRANCH  76  79
ENDBRANCH  48  72
BRANCH  60  83
ATOM     83  C   UNL A   1      45.155  26.775  33.877  1.00  0.00     0.023 A 
ATOM     84  C   UNL A   1      46.390  27.448  33.964  1.00  0.00     0.012 A 
ATOM     85  C   UNL A   1      45.009  25.515  34.492  1.00  0.00     0.148 A 
ATOM     86  C   UNL A   1      47.470  26.862  34.624  1.00  0.00     0.002 A 
ATOM     87  C   UNL A   1      46.073  24.963  35.193  1.00  0.00     0.091 A 
ATOM     88  F   UNL A   1      43.832  24.883  34.381  1.00  0.00    -0.205 F 
ATOM     89  C   UNL A   1      47.309  25.627  35.249  1.00  0.00     0.022 A 
BRANCH  87  90
ATOM     90  S   UNL A   1      45.923  23.427  36.115  1.00  0.00     0.127 S 
ATOM     91  O   UNL A   1      46.988  22.620  35.523  1.00  0.00    -0.237 OA
ATOM     92  O   UNL A   1      46.180  23.865  37.488  1.00  0.00    -0.237 OA
ATOM     93  O   UNL A   1      44.569  22.946  35.878  1.00  0.00    -0.744 OA
ENDBRANCH  87  90
ENDBRANCH  60  83
ENDBRANCH  34  35
ENDBRANCH  26  29
ENDBRANCH  24  25
ENDBRANCH  23  24
ENDBRANCH   1  23
TORSDOF 19
ENDMDL
MODEL 3
REMARK VINA RESULT:     -10.3      1.599      2.101
REMARK SMILES CCN(C(=O)NC[C@]1(C)CCCO1)[C@@H](C)CC(=O)NCCCNC(=O)c1ccc(-c2c3nc(c(-c4cccc(S(=O)(=O)[O-])c4F)c4ccc([nH]4)c(-c4cccc(S(=O)(=O)[O-])c4F)c4nc(c(-c5cccc(S(=O)(=O)[O-])c5F)c5ccc2[nH]5)C=C4)C=C3)cc1
REMARK SMILES IDX 20 1 19 2 17 3 18 4 16 6 14 7 15 8 3 9 2 10 1 11 4 12 5 13
REMARK SMILES IDX 6 14 7 16 8 17 10 18 13 19 9 20 11 21 12 22 21 23 22 24
REMARK SMILES IDX 23 25 24 26 25 28 26 29 27 30 88 31 28 32 87 33 29 34 30 35
REMARK SMILES IDX 31 36 81 37 32 38 86 39 80 40 82 41 33 42 85 43 79 44 78 45
REMARK SMILES IDX 34 47 66 48 46 49 65 50 47 51 50 52 64 53 83 54 48 55 49 56
REMARK SMILES IDX 63 58 84 59 51 60 35 61 36 62 44 63 37 64 39 65 45 66 38 67
REMARK SMILES IDX 40 68 41 69 42 70 43 71 67 72 68 73 76 74 69 75 71 76 77 77
REMARK SMILES IDX 70 78 72 79 73 80 74 81 75 82 52 83 53 84 61 85 54 86 56 87
REMARK SMILES IDX 62 88 55 89 57 90 58 91 59 92 60 93
REMARK H PARENT 19 5 6 15 23 27 82 46 50 57
REMARK Flexibility Score: inf
ROOT
ATOM      1  C   UNL A   1      32.144  28.665  25.188  1.00  0.00     0.117 C 
ENDROOT
BRANCH   1   2
ATOM      2  N   UNL A   1      30.923  27.938  24.910  1.00  0.00    -0.356 N 
ATOM      3  C   UNL A   1      30.616  26.638  25.183  1.00  0.00     0.222 C 
ATOM      4  O   UNL A   1      29.544  26.195  24.765  1.00  0.00    -0.275 OA
ATOM      5  H   UNL A   1      30.216  28.456  24.462  1.00  0.00     0.163 HD
BRANCH   3   6
ATOM      6  C   UNL A   1      31.529  25.783  26.047  1.00  0.00     0.124 C 
BRANCH   6   7
ATOM      7  C   UNL A   1      32.580  24.984  25.254  1.00  0.00     0.093 C 
ATOM      8  C   UNL A   1      33.998  25.549  25.452  1.00  0.00     0.031 C 
BRANCH   7   9
ATOM      9  N   UNL A   1      32.302  24.772  23.794  1.00  0.00    -0.322 N 
BRANCH   9  10
ATOM     10  C   UNL A   1      33.240  25.330  22.801  1.00  0.00     0.118 C 
ATOM     11  C   UNL A   1      32.827  26.589  22.056  1.00  0.00     0.027 C 
ENDBRANCH   9  10
BRANCH   9  12
ATOM     12  C   UNL A   1      31.559  23.637  23.525  1.00  0.00     0.317 C 
ATOM     13  O   UNL A   1      30.402  23.695  23.094  1.00  0.00    -0.249 OA
ATOM     14  N   UNL A   1      32.018  22.384  23.662  1.00  0.00    -0.335 N 
ATOM     15  H   UNL A   1      31.270  21.744  23.664  1.00  0.00     0.165 HD
BRANCH  14  16
ATOM     16  C   UNL A   1      33.291  21.681  23.811  1.00  0.00     0.152 C 
BRANCH  16  17
ATOM     17  C   UNL A   1      33.365  20.707  25.020  1.00  0.00     0.083 C 
ATOM     18  C   UNL A   1      34.483  19.665  24.952  1.00  0.00     0.039 C 
ATOM     19  O   UNL A   1      32.131  19.949  25.058  1.00  0.00    -0.373 OA
ATOM     20  C   UNL A   1      33.460  21.524  26.313  1.00  0.00     0.044 C 
ATOM     21  C   UNL A   1      33.837  18.527  24.199  1.00  0.00     0.031 C 
ATOM     22  C   UNL A   1      32.409  18.589  24.690  1.00  0.00     0.161 C 
ENDBRANCH  16  17
ENDBRANCH  14  16
ENDBRANCH   9  12
ENDBRANCH   7   9
ENDBRANCH   6   7
ENDBRANCH   3   6
ENDBRANCH   1   2
BRANCH   1  23
ATOM     23  C   UNL A   1      32.190  29.128  26.633  1.00  0.00     0.042 C 
BRANCH  23  24
ATOM     24  C   UNL A   1      33.560  29.502  27.165  1.00  0.00     0.118 C 
BRANCH  24  25
ATOM     25  N   UNL A   1      33.611  30.883  27.633  1.00  0.00    -0.352 N 
ATOM     26  C   UNL A   1      34.518  31.560  28.415  1.00  0.00     0.251 C 
ATOM     27  H   UNL A   1      32.854  31.435  27.331  1.00  0.00     0.163 HD
ATOM     28  O   UNL A   1      34.212  32.688  28.801  1.00  0.00    -0.269 OA
BRANCH  26  29
ATOM     29  C   UNL A   1      35.828  30.983  28.824  1.00  0.00     0.039 A 
ATOM     30  C   UNL A   1      35.835  29.847  29.648  1.00  0.00     0.014 A 
ATOM     31  C   UNL A   1      37.048  31.558  28.474  1.00  0.00     0.014 A 
ATOM     32  C   UNL A   1      37.044  29.279  30.072  1.00  0.00     0.010 A 
ATOM     33  C   UNL A   1      38.248  30.922  28.788  1.00  0.00     0.010 A 
ATOM     34  C   UNL A   1      38.267  29.797  29.623  1.00  0.00    -0.014 A 
BRANCH  34  35
ATOM     35  C   UNL A   1      39.575  29.226  30.046  1.00  0.00     0.031 A 
ATOM     36  C   UNL A   1      40.345  29.860  31.181  1.00  0.00     0.074 A 
ATOM     37  C   UNL A   1      40.125  28.203  29.360  1.00  0.00     0.049 A 
ATOM     38  N   UNL A   1      41.536  29.568  31.638  1.00  0.00    -0.248 NA
ATOM     39  C   UNL A   1      39.707  30.995  31.867  1.00  0.00     0.031 C 
ATOM     40  C   UNL A   1      39.521  27.543  28.201  1.00  0.00     0.029 A 
ATOM     41  N   UNL A   1      41.325  27.558  29.520  1.00  0.00    -0.354 N 
ATOM     42  C   UNL A   1      41.809  30.516  32.621  1.00  0.00     0.074 A 
ATOM     43  C   UNL A   1      40.679  31.416  32.662  1.00  0.00     0.031 C 
ATOM     44  C   UNL A   1      40.346  26.578  27.765  1.00  0.00     0.029 A 
ATOM     45  C   UNL A   1      41.554  26.574  28.585  1.00  0.00     0.049 A 
ATOM     46  H   UNL A   1      41.964  27.778  30.236  1.00  0.00     0.167 HD
ATOM     47  C   UNL A   1      42.885  30.616  33.437  1.00  0.00     0.034 A 
ATOM     48  C   UNL A   1      42.615  25.764  28.405  1.00  0.00     0.034 A 
ATOM     49  C   UNL A   1      43.985  29.689  33.430  1.00  0.00     0.049 A 
ATOM     50  C   UNL A   1      43.784  25.865  29.348  1.00  0.00     0.074 A 
ATOM     51  C   UNL A   1      45.074  29.637  34.281  1.00  0.00     0.029 A 
ATOM     52  N   UNL A   1      44.141  28.657  32.517  1.00  0.00    -0.354 N 
ATOM     53  N   UNL A   1      43.954  26.671  30.367  1.00  0.00    -0.248 NA
ATOM     54  C   UNL A   1      44.890  24.920  29.137  1.00  0.00     0.031 C 
ATOM     55  C   UNL A   1      45.909  28.597  33.859  1.00  0.00     0.029 A 
ATOM     56  C   UNL A   1      45.316  27.972  32.774  1.00  0.00     0.049 A 
ATOM     57  H   UNL A   1      43.510  28.443  31.793  1.00  0.00     0.167 HD
ATOM     58  C   UNL A   1      45.163  26.303  30.947  1.00  0.00     0.074 A 
ATOM     59  C   UNL A   1      45.675  25.193  30.170  1.00  0.00     0.031 C 
ATOM     60  C   UNL A   1      45.793  26.838  32.023  1.00  0.00     0.034 A 
BRANCH  47  61
ATOM     61  C   UNL A   1      42.905  31.751  34.431  1.00  0.00     0.023 A 
ATOM     62  C   UNL A   1      43.526  32.972  34.094  1.00  0.00     0.012 A 
ATOM     63  C   UNL A   1      42.291  31.619  35.692  1.00  0.00     0.148 A 
ATOM     64  C   UNL A   1      43.586  34.020  35.012  1.00  0.00     0.002 A 
ATOM     65  C   UNL A   1      42.307  32.688  36.582  1.00  0.00     0.091 A 
ATOM     66  F   UNL A   1      41.720  30.448  36.008  1.00  0.00    -0.205 F 
ATOM     67  C   UNL A   1      42.969  33.880  36.252  1.00  0.00     0.022 A 
BRANCH  65  68
ATOM     68  S   UNL A   1      41.464  32.637  38.167  1.00  0.00     0.127 S 
ATOM     69  O   UNL A   1      42.235  31.618  38.878  1.00  0.00    -0.237 OA
ATOM     70  O   UNL A   1      41.656  34.001  38.662  1.00  0.00    -0.237 OA
ATOM     71  O   UNL A   1      40.082  32.288  37.876  1.00  0.00    -0.744 OA
ENDBRANCH  65  68
ENDBRANCH  47  61
BRANCH  48  72
ATOM     72  C   UNL A   1      42.582  24.727  27.334  1.00  0.00     0.023 A 
ATOM     73  C   UNL A   1      43.179  25.006  26.089  1.00  0.00     0.012 A 
ATOM     74  C   UNL A   1      42.006  23.460  27.552  1.00  0.00     0.148 A 
ATOM     75  C   UNL A   1      43.179  24.053  25.070  1.00  0.00     0.002 A 
ATOM     76  C   UNL A   1      42.060  22.496  26.551  1.00  0.00     0.091 A 
ATOM     77  F   UNL A   1      41.442  23.217  28.743  1.00  0.00    -0.205 F 
ATOM     78  C   UNL A   1      42.628  22.795  25.304  1.00  0.00     0.022 A 
BRANCH  76  79
ATOM     79  S   UNL A   1      41.500  20.808  26.805  1.00  0.00     0.127 S 
ATOM     80  O   UNL A   1      42.266  20.414  27.986  1.00  0.00    -0.237 OA
ATOM     81  O   UNL A   1      40.068  21.001  27.036  1.00  0.00    -0.237 OA
ATOM     82  O   UNL A   1      41.823  20.094  25.580  1.00  0.00    -0.744 OA
ENDBRANCH  76  79
ENDBRANCH  48  72
BRANCH  60  83
ATOM     83  C   UNL A   1      47.085  26.203  32.468  1.00  0.00     0.023 A 
ATOM     84  C   UNL A   1      48.318  26.694  31.995  1.00  0.00     0.012 A 
ATOM     85  C   UNL A   1      47.074  25.162  33.418  1.00  0.00     0.148 A 
ATOM     86  C   UNL A   1      49.518  26.136  32.436  1.00  0.00     0.002 A 
ATOM     87  C   UNL A   1      48.274  24.649  33.893  1.00  0.00     0.091 A 
ATOM     88  F   UNL A   1      45.890  24.696  33.841  1.00  0.00    -0.205 F 
ATOM     89  C   UNL A   1      49.497  25.124  33.393  1.00  0.00     0.022 A 
BRANCH  87  90
ATOM     90  S   UNL A   1      48.344  23.417  35.200  1.00  0.00     0.127 S 
ATOM     91  O   UNL A   1      47.617  24.085  36.278  1.00  0.00    -0.237 OA
ATOM     92  O   UNL A   1      47.636  22.287  34.596  1.00  0.00    -0.237 OA
ATOM     93  O   UNL A   1      49.758  23.178  35.453  1.00  0.00    -0.744 OA
ENDBRANCH  87  90
ENDBRANCH  60  83
ENDBRANCH  34  35
ENDBRANCH  26  29
ENDBRANCH  24  25
ENDBRANCH  23  24
ENDBRANCH   1  23
TORSDOF 19
ENDMDL
