MODEL 1
REMARK VINA RESULT:     -12.9      0.000      0.000
REMARK SMILES O=C(Cc1ccc(F)cc1F)Nc1sccc1C(=O)NCCCNC(=O)c1ccc(-c2c3nc(c(-c4cccc(S(=O)(=O)[O-])c4F)c4ccc([nH]4)c(-c4cccc(S(=O)(=O)[O-])c4F)c4nc(c(-c5cccc(S(=O)(=O)[O-])c5F)c5ccc2[nH]5)C=C4)C=C3)cc1
REMARK SMILES IDX 22 1 21 2 20 3 18 4 19 5 17 7 13 8 14 9 15 10 16 11 12 12
REMARK SMILES IDX 1 13 2 14 3 16 4 17 5 18 10 19 6 20 9 21 11 22 7 23 8 24
REMARK SMILES IDX 23 25 24 26 25 27 26 29 27 30 28 31 89 32 29 33 88 34 30 35
REMARK SMILES IDX 31 36 32 37 82 38 33 39 87 40 81 41 83 42 34 43 86 44 80 45
REMARK SMILES IDX 79 46 35 48 67 49 47 50 66 51 48 52 51 53 65 54 84 55 49 56
REMARK SMILES IDX 50 57 64 59 85 60 52 61 36 62 37 63 45 64 38 65 40 66 46 67
REMARK SMILES IDX 39 68 41 69 42 70 43 71 44 72 68 73 69 74 77 75 70 76 72 77
REMARK SMILES IDX 78 78 71 79 73 80 74 81 75 82 76 83 53 84 54 85 62 86 55 87
REMARK SMILES IDX 57 88 63 89 56 90 58 91 59 92 60 93 61 94
REMARK H PARENT 20 6 12 15 24 28 83 47 51 58
REMARK Flexibility Score: inf
ROOT
ATOM      1  C   UNL A   1      31.671  31.664  26.754  1.00  0.00     0.042 C 
ENDROOT
BRANCH   1   2
ATOM      2  C   UNL A   1      31.990  30.242  26.341  1.00  0.00     0.118 C 
BRANCH   2   3
ATOM      3  N   UNL A   1      32.845  30.085  25.188  1.00  0.00    -0.352 N 
ATOM      4  C   UNL A   1      33.040  28.967  24.410  1.00  0.00     0.254 C 
ATOM      5  O   UNL A   1      33.779  29.080  23.427  1.00  0.00    -0.269 OA
ATOM      6  H   UNL A   1      33.356  30.884  24.924  1.00  0.00     0.163 HD
BRANCH   4   7
ATOM      7  C   UNL A   1      32.557  27.653  24.842  1.00  0.00     0.074 A 
ATOM      8  C   UNL A   1      31.294  27.086  24.764  1.00  0.00     0.108 A 
ATOM      9  S   UNL A   1      31.162  25.637  25.663  1.00  0.00    -0.126 S 
ATOM     10  C   UNL A   1      32.835  25.603  25.981  1.00  0.00     0.068 A 
ATOM     11  C   UNL A   1      33.460  26.724  25.490  1.00  0.00     0.028 A 
BRANCH   8  12
ATOM     12  N   UNL A   1      30.088  27.418  24.184  1.00  0.00    -0.317 N 
ATOM     13  O   UNL A   1      30.781  27.498  21.988  1.00  0.00    -0.274 OA
ATOM     14  C   UNL A   1      29.935  27.730  22.851  1.00  0.00     0.229 C 
ATOM     15  H   UNL A   1      29.287  27.433  24.756  1.00  0.00     0.170 HD
BRANCH  14  16
ATOM     16  C   UNL A   1      28.696  28.551  22.509  1.00  0.00     0.139 C 
BRANCH  16  17
ATOM     17  C   UNL A   1      28.785  30.046  22.635  1.00  0.00    -0.003 A 
ATOM     18  C   UNL A   1      29.319  30.631  23.789  1.00  0.00     0.010 A 
ATOM     19  C   UNL A   1      28.246  30.877  21.644  1.00  0.00     0.129 A 
ATOM     20  C   UNL A   1      29.288  32.017  23.944  1.00  0.00     0.040 A 
ATOM     21  C   UNL A   1      28.215  32.258  21.788  1.00  0.00     0.078 A 
ATOM     22  F   UNL A   1      27.753  30.330  20.524  1.00  0.00    -0.207 F 
ATOM     23  C   UNL A   1      28.733  32.815  22.947  1.00  0.00     0.126 A 
ATOM     24  F   UNL A   1      28.699  34.143  23.114  1.00  0.00    -0.207 F 
ENDBRANCH  16  17
ENDBRANCH  14  16
ENDBRANCH   8  12
ENDBRANCH   4   7
ENDBRANCH   2   3
ENDBRANCH   1   2
BRANCH   1  25
ATOM     25  C   UNL A   1      32.865  32.454  27.276  1.00  0.00     0.118 C 
BRANCH  25  26
ATOM     26  N   UNL A   1      32.570  33.843  27.634  1.00  0.00    -0.352 N 
ATOM     27  C   UNL A   1      33.106  34.700  28.571  1.00  0.00     0.251 C 
ATOM     28  H   UNL A   1      31.846  34.243  27.101  1.00  0.00     0.163 HD
ATOM     29  O   UNL A   1      32.573  35.795  28.742  1.00  0.00    -0.269 OA
BRANCH  27  30
ATOM     30  C   UNL A   1      34.276  34.317  29.398  1.00  0.00     0.039 A 
ATOM     31  C   UNL A   1      34.071  33.718  30.647  1.00  0.00     0.014 A 
ATOM     32  C   UNL A   1      35.577  34.549  28.966  1.00  0.00     0.014 A 
ATOM     33  C   UNL A   1      35.164  33.251  31.391  1.00  0.00     0.010 A 
ATOM     34  C   UNL A   1      36.647  33.962  29.631  1.00  0.00     0.010 A 
ATOM     35  C   UNL A   1      36.460  33.308  30.856  1.00  0.00    -0.014 A 
BRANCH  35  36
ATOM     36  C   UNL A   1      37.642  32.705  31.532  1.00  0.00     0.031 A 
ATOM     37  C   UNL A   1      38.387  31.568  30.877  1.00  0.00     0.074 A 
ATOM     38  C   UNL A   1      37.956  33.070  32.793  1.00  0.00     0.049 A 
ATOM     39  N   UNL A   1      39.308  30.784  31.375  1.00  0.00    -0.248 NA
ATOM     40  C   UNL A   1      38.005  31.232  29.494  1.00  0.00     0.031 C 
ATOM     41  C   UNL A   1      37.261  34.088  33.583  1.00  0.00     0.029 A 
ATOM     42  N   UNL A   1      38.923  32.598  33.646  1.00  0.00    -0.354 N 
ATOM     43  C   UNL A   1      39.558  29.824  30.401  1.00  0.00     0.074 A 
ATOM     44  C   UNL A   1      38.664  30.099  29.298  1.00  0.00     0.031 C 
ATOM     45  C   UNL A   1      37.834  34.179  34.793  1.00  0.00     0.029 A 
ATOM     46  C   UNL A   1      38.912  33.199  34.884  1.00  0.00     0.049 A 
ATOM     47  H   UNL A   1      39.566  31.895  33.396  1.00  0.00     0.167 HD
ATOM     48  C   UNL A   1      40.474  28.826  30.400  1.00  0.00     0.034 A 
ATOM     49  C   UNL A   1      39.680  32.987  35.970  1.00  0.00     0.034 A 
ATOM     50  C   UNL A   1      41.432  28.619  31.451  1.00  0.00     0.049 A 
ATOM     51  C   UNL A   1      40.762  31.945  35.906  1.00  0.00     0.074 A 
ATOM     52  C   UNL A   1      42.476  27.714  31.499  1.00  0.00     0.029 A 
ATOM     53  N   UNL A   1      41.475  29.344  32.632  1.00  0.00    -0.354 N 
ATOM     54  N   UNL A   1      41.076  31.141  34.920  1.00  0.00    -0.248 NA
ATOM     55  C   UNL A   1      41.622  31.804  37.091  1.00  0.00     0.031 C 
ATOM     56  C   UNL A   1      43.154  27.894  32.710  1.00  0.00     0.029 A 
ATOM     57  C   UNL A   1      42.534  28.916  33.412  1.00  0.00     0.049 A 
ATOM     58  H   UNL A   1      40.844  30.059  32.879  1.00  0.00     0.167 HD
ATOM     59  C   UNL A   1      42.189  30.427  35.347  1.00  0.00     0.074 A 
ATOM     60  C   UNL A   1      42.506  30.905  36.678  1.00  0.00     0.031 C 
ATOM     61  C   UNL A   1      42.877  29.452  34.704  1.00  0.00     0.034 A 
BRANCH  48  62
ATOM     62  C   UNL A   1      40.535  27.938  29.183  1.00  0.00     0.023 A 
ATOM     63  C   UNL A   1      39.651  26.846  29.077  1.00  0.00     0.012 A 
ATOM     64  C   UNL A   1      41.441  28.195  28.135  1.00  0.00     0.148 A 
ATOM     65  C   UNL A   1      39.700  25.991  27.977  1.00  0.00     0.002 A 
ATOM     66  C   UNL A   1      41.452  27.365  27.018  1.00  0.00     0.091 A 
ATOM     67  F   UNL A   1      42.292  29.222  28.257  1.00  0.00    -0.205 F 
ATOM     68  C   UNL A   1      40.593  26.256  26.944  1.00  0.00     0.022 A 
BRANCH  66  69
ATOM     69  S   UNL A   1      42.513  27.675  25.601  1.00  0.00     0.127 S 
ATOM     70  O   UNL A   1      43.835  27.715  26.223  1.00  0.00    -0.237 OA
ATOM     71  O   UNL A   1      42.270  26.500  24.763  1.00  0.00    -0.237 OA
ATOM     72  O   UNL A   1      42.045  28.930  25.027  1.00  0.00    -0.744 OA
ENDBRANCH  66  69
ENDBRANCH  48  62
BRANCH  49  73
ATOM     73  C   UNL A   1      39.522  33.857  37.171  1.00  0.00     0.023 A 
ATOM     74  C   UNL A   1      39.950  35.198  37.096  1.00  0.00     0.012 A 
ATOM     75  C   UNL A   1      38.912  33.396  38.353  1.00  0.00     0.148 A 
ATOM     76  C   UNL A   1      39.798  36.056  38.185  1.00  0.00     0.002 A 
ATOM     77  C   UNL A   1      38.719  34.271  39.417  1.00  0.00     0.091 A 
ATOM     78  F   UNL A   1      38.519  32.115  38.407  1.00  0.00    -0.205 F 
ATOM     79  C   UNL A   1      39.174  35.596  39.341  1.00  0.00     0.022 A 
BRANCH  77  80
ATOM     80  S   UNL A   1      37.811  33.806  40.896  1.00  0.00     0.127 S 
ATOM     81  O   UNL A   1      38.752  32.907  41.557  1.00  0.00    -0.237 OA
ATOM     82  O   UNL A   1      37.626  35.100  41.557  1.00  0.00    -0.237 OA
ATOM     83  O   UNL A   1      36.576  33.196  40.423  1.00  0.00    -0.744 OA
ENDBRANCH  77  80
ENDBRANCH  49  73
BRANCH  61  84
ATOM     84  C   UNL A   1      44.068  28.857  35.406  1.00  0.00     0.023 A 
ATOM     85  C   UNL A   1      45.342  29.428  35.222  1.00  0.00     0.012 A 
ATOM     86  C   UNL A   1      43.909  27.790  36.312  1.00  0.00     0.148 A 
ATOM     87  C   UNL A   1      46.446  28.930  35.913  1.00  0.00     0.002 A 
ATOM     88  C   UNL A   1      45.006  27.328  37.029  1.00  0.00     0.091 A 
ATOM     89  F   UNL A   1      42.691  27.246  36.455  1.00  0.00    -0.205 F 
ATOM     90  C   UNL A   1      46.276  27.890  36.824  1.00  0.00     0.022 A 
BRANCH  88  91
ATOM     91  S   UNL A   1      44.856  26.056  38.290  1.00  0.00     0.127 S 
ATOM     92  O   UNL A   1      43.913  26.671  39.223  1.00  0.00    -0.237 OA
ATOM     93  O   UNL A   1      44.316  24.926  37.534  1.00  0.00    -0.237 OA
ATOM     94  O   UNL A   1      46.203  25.846  38.803  1.00  0.00    -0.744 OA
ENDBRANCH  88  91
ENDBRANCH  61  84
ENDBRANCH  35  36
ENDBRANCH  27  30
ENDBRANCH  25  26
ENDBRANCH   1  25
TORSDOF 16
ENDMDL
MODEL 2
REMARK VINA RESULT:     -12.6      2.653      3.816
REMARK SMILES O=C(Cc1ccc(F)cc1F)Nc1sccc1C(=O)NCCCNC(=O)c1ccc(-c2c3nc(c(-c4cccc(S(=O)(=O)[O-])c4F)c4ccc([nH]4)c(-c4cccc(S(=O)(=O)[O-])c4F)c4nc(c(-c5cccc(S(=O)(=O)[O-])c5F)c5ccc2[nH]5)C=C4)C=C3)cc1
REMARK SMILES IDX 22 1 21 2 20 3 18 4 19 5 17 7 13 8 14 9 15 10 16 11 12 12
REMARK SMILES IDX 1 13 2 14 3 16 4 17 5 18 10 19 6 20 9 21 11 22 7 23 8 24
REMARK SMILES IDX 23 25 24 26 25 27 26 29 27 30 28 31 89 32 29 33 88 34 30 35
REMARK SMILES IDX 31 36 32 37 82 38 33 39 87 40 81 41 83 42 34 43 86 44 80 45
REMARK SMILES IDX 79 46 35 48 67 49 47 50 66 51 48 52 51 53 65 54 84 55 49 56
REMARK SMILES IDX 50 57 64 59 85 60 52 61 36 62 37 63 45 64 38 65 40 66 46 67
REMARK SMILES IDX 39 68 41 69 42 70 43 71 44 72 68 73 69 74 77 75 70 76 72 77
REMARK SMILES IDX 78 78 71 79 73 80 74 81 75 82 76 83 53 84 54 85 62 86 55 87
REMARK SMILES IDX 57 88 63 89 56 90 58 91 59 92 60 93 61 94
REMARK H PARENT 20 6 12 15 24 28 83 47 51 58
REMARK Flexibility Score: inf
ROOT
ATOM      1  C   UNL A   1      31.595  27.651  26.708  1.00  0.00     0.042 C 
ENDROOT
BRANCH   1   2
ATOM      2  C   UNL A   1      32.057  26.211  26.641  1.00  0.00     0.118 C 
BRANCH   2   3
ATOM      3  N   UNL A   1      31.040  25.202  26.827  1.00  0.00    -0.352 N 
ATOM      4  C   UNL A   1      31.194  23.839  26.938  1.00  0.00     0.254 C 
ATOM      5  O   UNL A   1      30.181  23.168  27.155  1.00  0.00    -0.269 OA
ATOM      6  H   UNL A   1      30.115  25.534  26.880  1.00  0.00     0.163 HD
BRANCH   4   7
ATOM      7  C   UNL A   1      32.468  23.194  26.611  1.00  0.00     0.074 A 
ATOM      8  C   UNL A   1      33.123  23.054  25.397  1.00  0.00     0.108 A 
ATOM      9  S   UNL A   1      34.445  21.972  25.479  1.00  0.00    -0.126 S 
ATOM     10  C   UNL A   1      34.325  21.848  27.174  1.00  0.00     0.068 A 
ATOM     11  C   UNL A   1      33.240  22.544  27.650  1.00  0.00     0.028 A 
BRANCH   8  12
ATOM     12  N   UNL A   1      32.952  23.527  24.113  1.00  0.00    -0.317 N 
ATOM     13  O   UNL A   1      34.290  25.397  24.262  1.00  0.00    -0.274 OA
ATOM     14  C   UNL A   1      33.440  24.735  23.666  1.00  0.00     0.229 C 
ATOM     15  H   UNL A   1      32.451  22.968  23.476  1.00  0.00     0.170 HD
BRANCH  14  16
ATOM     16  C   UNL A   1      32.738  25.313  22.443  1.00  0.00     0.139 C 
BRANCH  16  17
ATOM     17  C   UNL A   1      31.730  26.408  22.660  1.00  0.00    -0.003 A 
ATOM     18  C   UNL A   1      32.053  27.738  22.368  1.00  0.00     0.010 A 
ATOM     19  C   UNL A   1      30.491  26.127  23.251  1.00  0.00     0.129 A 
ATOM     20  C   UNL A   1      31.154  28.757  22.684  1.00  0.00     0.040 A 
ATOM     21  C   UNL A   1      29.589  27.135  23.564  1.00  0.00     0.078 A 
ATOM     22  F   UNL A   1      30.161  24.855  23.514  1.00  0.00    -0.207 F 
ATOM     23  C   UNL A   1      29.935  28.447  23.282  1.00  0.00     0.126 A 
ATOM     24  F   UNL A   1      29.087  29.435  23.591  1.00  0.00    -0.207 F 
ENDBRANCH  16  17
ENDBRANCH  14  16
ENDBRANCH   8  12
ENDBRANCH   4   7
ENDBRANCH   2   3
ENDBRANCH   1   2
BRANCH   1  25
ATOM     25  C   UNL A   1      32.496  28.640  25.976  1.00  0.00     0.118 C 
BRANCH  25  26
ATOM     26  N   UNL A   1      32.201  30.049  26.244  1.00  0.00    -0.352 N 
ATOM     27  C   UNL A   1      32.888  31.034  26.921  1.00  0.00     0.251 C 
ATOM     28  H   UNL A   1      31.345  30.352  25.867  1.00  0.00     0.163 HD
ATOM     29  O   UNL A   1      32.338  32.120  27.100  1.00  0.00    -0.269 OA
BRANCH  27  30
ATOM     30  C   UNL A   1      34.245  30.802  27.470  1.00  0.00     0.039 A 
ATOM     31  C   UNL A   1      35.090  31.893  27.706  1.00  0.00     0.014 A 
ATOM     32  C   UNL A   1      34.705  29.519  27.748  1.00  0.00     0.014 A 
ATOM     33  C   UNL A   1      36.332  31.700  28.327  1.00  0.00     0.010 A 
ATOM     34  C   UNL A   1      35.868  29.342  28.489  1.00  0.00     0.010 A 
ATOM     35  C   UNL A   1      36.703  30.427  28.787  1.00  0.00    -0.014 A 
BRANCH  35  36
ATOM     36  C   UNL A   1      37.942  30.180  29.575  1.00  0.00     0.031 A 
ATOM     37  C   UNL A   1      39.010  29.261  29.034  1.00  0.00     0.074 A 
ATOM     38  C   UNL A   1      38.046  30.656  30.833  1.00  0.00     0.049 A 
ATOM     39  N   UNL A   1      40.060  28.766  29.636  1.00  0.00    -0.248 NA
ATOM     40  C   UNL A   1      38.844  28.792  27.647  1.00  0.00     0.031 C 
ATOM     41  C   UNL A   1      37.046  31.478  31.518  1.00  0.00     0.029 A 
ATOM     42  N   UNL A   1      39.030  30.485  31.776  1.00  0.00    -0.354 N 
ATOM     43  C   UNL A   1      40.631  27.876  28.733  1.00  0.00     0.074 A 
ATOM     44  C   UNL A   1      39.790  27.869  27.558  1.00  0.00     0.031 C 
ATOM     45  C   UNL A   1      37.475  31.756  32.759  1.00  0.00     0.029 A 
ATOM     46  C   UNL A   1      38.761  31.101  32.977  1.00  0.00     0.049 A 
ATOM     47  H   UNL A   1      39.853  29.969  31.609  1.00  0.00     0.167 HD
ATOM     48  C   UNL A   1      41.774  27.157  28.850  1.00  0.00     0.034 A 
ATOM     49  C   UNL A   1      39.466  31.134  34.124  1.00  0.00     0.034 A 
ATOM     50  C   UNL A   1      42.664  27.245  29.975  1.00  0.00     0.049 A 
ATOM     51  C   UNL A   1      40.785  30.415  34.191  1.00  0.00     0.074 A 
ATOM     52  C   UNL A   1      43.901  26.651  30.144  1.00  0.00     0.029 A 
ATOM     53  N   UNL A   1      42.419  27.993  31.116  1.00  0.00    -0.354 N 
ATOM     54  N   UNL A   1      41.377  29.692  33.273  1.00  0.00    -0.248 NA
ATOM     55  C   UNL A   1      41.552  30.545  35.440  1.00  0.00     0.031 C 
ATOM     56  C   UNL A   1      44.407  27.044  31.388  1.00  0.00     0.029 A 
ATOM     57  C   UNL A   1      43.485  27.886  31.990  1.00  0.00     0.049 A 
ATOM     58  H   UNL A   1      41.605  28.522  31.280  1.00  0.00     0.167 HD
ATOM     59  C   UNL A   1      42.600  29.313  33.814  1.00  0.00     0.074 A 
ATOM     60  C   UNL A   1      42.671  29.901  35.137  1.00  0.00     0.031 C 
ATOM     61  C   UNL A   1      43.569  28.535  33.273  1.00  0.00     0.034 A 
BRANCH  48  62
ATOM     62  C   UNL A   1      42.164  26.279  27.688  1.00  0.00     0.023 A 
ATOM     63  C   UNL A   1      42.882  26.835  26.610  1.00  0.00     0.012 A 
ATOM     64  C   UNL A   1      41.848  24.906  27.669  1.00  0.00     0.148 A 
ATOM     65  C   UNL A   1      43.234  26.056  25.509  1.00  0.00     0.002 A 
ATOM     66  C   UNL A   1      42.244  24.124  26.588  1.00  0.00     0.091 A 
ATOM     67  F   UNL A   1      41.145  24.393  28.688  1.00  0.00    -0.205 F 
ATOM     68  C   UNL A   1      42.924  24.699  25.503  1.00  0.00     0.022 A 
BRANCH  66  69
ATOM     69  S   UNL A   1      41.959  22.350  26.530  1.00  0.00     0.127 S 
ATOM     70  O   UNL A   1      42.583  21.909  27.775  1.00  0.00    -0.237 OA
ATOM     71  O   UNL A   1      40.498  22.268  26.518  1.00  0.00    -0.237 OA
ATOM     72  O   UNL A   1      42.597  21.890  25.304  1.00  0.00    -0.744 OA
ENDBRANCH  66  69
ENDBRANCH  48  62
BRANCH  49  73
ATOM     73  C   UNL A   1      38.988  31.970  35.263  1.00  0.00     0.023 A 
ATOM     74  C   UNL A   1      39.073  33.373  35.157  1.00  0.00     0.012 A 
ATOM     75  C   UNL A   1      38.409  31.402  36.414  1.00  0.00     0.148 A 
ATOM     76  C   UNL A   1      38.614  34.195  36.186  1.00  0.00     0.002 A 
ATOM     77  C   UNL A   1      37.908  32.229  37.414  1.00  0.00     0.091 A 
ATOM     78  F   UNL A   1      38.344  30.066  36.500  1.00  0.00    -0.205 F 
ATOM     79  C   UNL A   1      38.023  33.624  37.309  1.00  0.00     0.022 A 
BRANCH  77  80
ATOM     80  S   UNL A   1      37.014  31.592  38.837  1.00  0.00     0.127 S 
ATOM     81  O   UNL A   1      37.983  31.787  39.912  1.00  0.00    -0.237 OA
ATOM     82  O   UNL A   1      35.851  32.479  38.887  1.00  0.00    -0.237 OA
ATOM     83  O   UNL A   1      36.697  30.208  38.514  1.00  0.00    -0.744 OA
ENDBRANCH  77  80
ENDBRANCH  49  73
BRANCH  61  84
ATOM     84  C   UNL A   1      44.813  28.300  34.087  1.00  0.00     0.023 A 
ATOM     85  C   UNL A   1      45.891  29.200  33.989  1.00  0.00     0.012 A 
ATOM     86  C   UNL A   1      44.877  27.238  35.011  1.00  0.00     0.148 A 
ATOM     87  C   UNL A   1      47.026  29.034  34.781  1.00  0.00     0.002 A 
ATOM     88  C   UNL A   1      45.993  27.104  35.828  1.00  0.00     0.091 A 
ATOM     89  F   UNL A   1      43.850  26.379  35.072  1.00  0.00    -0.205 F 
ATOM     90  C   UNL A   1      47.072  27.996  35.709  1.00  0.00     0.022 A 
BRANCH  88  91
ATOM     91  S   UNL A   1      46.092  25.851  37.112  1.00  0.00     0.127 S 
ATOM     92  O   UNL A   1      46.227  24.627  36.324  1.00  0.00    -0.237 OA
ATOM     93  O   UNL A   1      47.299  26.243  37.842  1.00  0.00    -0.237 OA
ATOM     94  O   UNL A   1      44.861  25.974  37.881  1.00  0.00    -0.744 OA
ENDBRANCH  88  91
ENDBRANCH  61  84
ENDBRANCH  35  36
ENDBRANCH  27  30
ENDBRANCH  25  26
ENDBRANCH   1  25
TORSDOF 16
ENDMDL
MODEL 3
REMARK VINA RESULT:     -12.5      5.903     10.550
REMARK SMILES O=C(Cc1ccc(F)cc1F)Nc1sccc1C(=O)NCCCNC(=O)c1ccc(-c2c3nc(c(-c4cccc(S(=O)(=O)[O-])c4F)c4ccc([nH]4)c(-c4cccc(S(=O)(=O)[O-])c4F)c4nc(c(-c5cccc(S(=O)(=O)[O-])c5F)c5ccc2[nH]5)C=C4)C=C3)cc1
REMARK SMILES IDX 22 1 21 2 20 3 18 4 19 5 17 7 13 8 14 9 15 10 16 11 12 12
REMARK SMILES IDX 1 13 2 14 3 16 4 17 5 18 10 19 6 20 9 21 11 22 7 23 8 24
REMARK SMILES IDX 23 25 24 26 25 27 26 29 27 30 28 31 89 32 29 33 88 34 30 35
REMARK SMILES IDX 31 36 32 37 82 38 33 39 87 40 81 41 83 42 34 43 86 44 80 45
REMARK SMILES IDX 79 46 35 48 67 49 47 50 66 51 48 52 51 53 65 54 84 55 49 56
REMARK SMILES IDX 50 57 64 59 85 60 52 61 36 62 37 63 45 64 38 65 40 66 46 67
REMARK SMILES IDX 39 68 41 69 42 70 43 71 44 72 68 73 69 74 77 75 70 76 72 77
REMARK SMILES IDX 78 78 71 79 73 80 74 81 75 82 76 83 53 84 54 85 62 86 55 87
REMARK SMILES IDX 57 88 63 89 56 90 58 91 59 92 60 93 61 94
REMARK H PARENT 20 6 12 15 24 28 83 47 51 58
REMARK Flexibility Score: inf
ROOT
ATOM      1  C   UNL A   1      36.160  22.650  23.849  1.00  0.00     0.042 C 
ENDROOT
BRANCH   1   2
ATOM      2  C   UNL A   1      34.841  23.350  23.601  1.00  0.00     0.118 C 
BRANCH   2   3
ATOM      3  N   UNL A   1      34.728  24.701  24.100  1.00  0.00    -0.352 N 
ATOM      4  C   UNL A   1      33.921  25.180  25.107  1.00  0.00     0.254 C 
ATOM      5  O   UNL A   1      34.036  26.371  25.410  1.00  0.00    -0.269 OA
ATOM      6  H   UNL A   1      35.304  25.367  23.660  1.00  0.00     0.163 HD
BRANCH   4   7
ATOM      7  C   UNL A   1      32.836  24.364  25.657  1.00  0.00     0.074 A 
ATOM      8  C   UNL A   1      31.474  24.381  25.395  1.00  0.00     0.108 A 
ATOM      9  S   UNL A   1      30.576  23.431  26.498  1.00  0.00    -0.126 S 
ATOM     10  C   UNL A   1      31.990  22.788  27.199  1.00  0.00     0.068 A 
ATOM     11  C   UNL A   1      33.118  23.362  26.663  1.00  0.00     0.028 A 
BRANCH   8  12
ATOM     12  N   UNL A   1      30.641  25.013  24.496  1.00  0.00    -0.317 N 
ATOM     13  O   UNL A   1      30.669  27.118  25.432  1.00  0.00    -0.274 OA
ATOM     14  C   UNL A   1      30.188  26.305  24.643  1.00  0.00     0.229 C 
ATOM     15  H   UNL A   1      30.352  24.510  23.700  1.00  0.00     0.170 HD
BRANCH  14  16
ATOM     16  C   UNL A   1      28.915  26.644  23.875  1.00  0.00     0.139 C 
BRANCH  16  17
ATOM     17  C   UNL A   1      28.865  27.953  23.136  1.00  0.00    -0.003 A 
ATOM     18  C   UNL A   1      30.015  28.469  22.529  1.00  0.00     0.010 A 
ATOM     19  C   UNL A   1      27.693  28.721  23.127  1.00  0.00     0.129 A 
ATOM     20  C   UNL A   1      29.985  29.738  21.950  1.00  0.00     0.040 A 
ATOM     21  C   UNL A   1      27.653  29.982  22.549  1.00  0.00     0.078 A 
ATOM     22  F   UNL A   1      26.578  28.226  23.685  1.00  0.00    -0.207 F 
ATOM     23  C   UNL A   1      28.808  30.482  21.968  1.00  0.00     0.126 A 
ATOM     24  F   UNL A   1      28.796  31.703  21.419  1.00  0.00    -0.207 F 
ENDBRANCH  16  17
ENDBRANCH  14  16
ENDBRANCH   8  12
ENDBRANCH   4   7
ENDBRANCH   2   3
ENDBRANCH   1   2
BRANCH   1  25
ATOM     25  C   UNL A   1      36.337  22.114  25.265  1.00  0.00     0.118 C 
BRANCH  25  26
ATOM     26  N   UNL A   1      37.358  21.073  25.402  1.00  0.00    -0.352 N 
ATOM     27  C   UNL A   1      38.659  21.097  25.857  1.00  0.00     0.251 C 
ATOM     28  H   UNL A   1      37.057  20.183  25.111  1.00  0.00     0.163 HD
ATOM     29  O   UNL A   1      39.341  20.080  25.745  1.00  0.00    -0.269 OA
BRANCH  27  30
ATOM     30  C   UNL A   1      39.260  22.322  26.437  1.00  0.00     0.039 A 
ATOM     31  C   UNL A   1      40.365  22.211  27.291  1.00  0.00     0.014 A 
ATOM     32  C   UNL A   1      38.746  23.584  26.158  1.00  0.00     0.014 A 
ATOM     33  C   UNL A   1      41.012  23.364  27.757  1.00  0.00     0.010 A 
ATOM     34  C   UNL A   1      39.468  24.721  26.502  1.00  0.00     0.010 A 
ATOM     35  C   UNL A   1      40.609  24.632  27.310  1.00  0.00    -0.014 A 
BRANCH  35  36
ATOM     36  C   UNL A   1      41.340  25.882  27.656  1.00  0.00     0.031 A 
ATOM     37  C   UNL A   1      40.654  26.957  28.465  1.00  0.00     0.074 A 
ATOM     38  C   UNL A   1      42.556  26.121  27.124  1.00  0.00     0.049 A 
ATOM     39  N   UNL A   1      41.038  28.184  28.706  1.00  0.00    -0.248 NA
ATOM     40  C   UNL A   1      39.335  26.624  29.030  1.00  0.00     0.031 C 
ATOM     41  C   UNL A   1      43.296  25.211  26.248  1.00  0.00     0.029 A 
ATOM     42  N   UNL A   1      43.372  27.222  27.216  1.00  0.00    -0.354 N 
ATOM     43  C   UNL A   1      39.982  28.787  29.380  1.00  0.00     0.074 A 
ATOM     44  C   UNL A   1      38.926  27.803  29.476  1.00  0.00     0.031 C 
ATOM     45  C   UNL A   1      44.460  25.779  25.899  1.00  0.00     0.029 A 
ATOM     46  C   UNL A   1      44.537  27.110  26.492  1.00  0.00     0.049 A 
ATOM     47  H   UNL A   1      43.146  28.018  27.750  1.00  0.00     0.167 HD
ATOM     48  C   UNL A   1      39.906  30.031  29.911  1.00  0.00     0.034 A 
ATOM     49  C   UNL A   1      45.553  27.979  26.323  1.00  0.00     0.034 A 
ATOM     50  C   UNL A   1      40.994  30.970  29.907  1.00  0.00     0.049 A 
ATOM     51  C   UNL A   1      45.493  29.315  27.012  1.00  0.00     0.074 A 
ATOM     52  C   UNL A   1      41.064  32.210  30.514  1.00  0.00     0.029 A 
ATOM     53  N   UNL A   1      42.213  30.761  29.280  1.00  0.00    -0.354 N 
ATOM     54  N   UNL A   1      44.542  29.812  27.765  1.00  0.00    -0.248 NA
ATOM     55  C   UNL A   1      46.659  30.197  26.857  1.00  0.00     0.031 C 
ATOM     56  C   UNL A   1      42.330  32.751  30.257  1.00  0.00     0.029 A 
ATOM     57  C   UNL A   1      43.047  31.843  29.494  1.00  0.00     0.049 A 
ATOM     58  H   UNL A   1      42.449  29.960  28.758  1.00  0.00     0.167 HD
ATOM     59  C   UNL A   1      45.010  31.044  28.206  1.00  0.00     0.074 A 
ATOM     60  C   UNL A   1      46.336  31.212  27.647  1.00  0.00     0.031 C 
ATOM     61  C   UNL A   1      44.390  31.962  28.988  1.00  0.00     0.034 A 
BRANCH  48  62
ATOM     62  C   UNL A   1      38.627  30.411  30.614  1.00  0.00     0.023 A 
ATOM     63  C   UNL A   1      38.431  30.018  31.954  1.00  0.00     0.012 A 
ATOM     64  C   UNL A   1      37.635  31.173  29.968  1.00  0.00     0.148 A 
ATOM     65  C   UNL A   1      37.249  30.330  32.623  1.00  0.00     0.002 A 
ATOM     66  C   UNL A   1      36.478  31.521  30.658  1.00  0.00     0.091 A 
ATOM     67  F   UNL A   1      37.822  31.521  28.687  1.00  0.00    -0.205 F 
ATOM     68  C   UNL A   1      36.277  31.090  31.979  1.00  0.00     0.022 A 
BRANCH  66  69
ATOM     69  S   UNL A   1      35.206  32.566  29.935  1.00  0.00     0.127 S 
ATOM     70  O   UNL A   1      35.977  33.743  29.541  1.00  0.00    -0.237 OA
ATOM     71  O   UNL A   1      34.727  31.750  28.818  1.00  0.00    -0.237 OA
ATOM     72  O   UNL A   1      34.224  32.775  30.990  1.00  0.00    -0.744 OA
ENDBRANCH  66  69
ENDBRANCH  48  62
BRANCH  49  73
ATOM     73  C   UNL A   1      46.763  27.564  25.556  1.00  0.00     0.023 A 
ATOM     74  C   UNL A   1      46.799  27.802  24.168  1.00  0.00     0.012 A 
ATOM     75  C   UNL A   1      47.885  26.991  26.184  1.00  0.00     0.148 A 
ATOM     76  C   UNL A   1      47.920  27.455  23.414  1.00  0.00     0.002 A 
ATOM     77  C   UNL A   1      49.019  26.694  25.435  1.00  0.00     0.091 A 
ATOM     78  F   UNL A   1      47.828  26.765  27.504  1.00  0.00    -0.205 F 
ATOM     79  C   UNL A   1      49.033  26.911  24.048  1.00  0.00     0.022 A 
BRANCH  77  80
ATOM     80  S   UNL A   1      50.545  26.111  26.182  1.00  0.00     0.127 S 
ATOM     81  O   UNL A   1      51.412  25.962  25.017  1.00  0.00    -0.237 OA
ATOM     82  O   UNL A   1      50.891  27.222  27.071  1.00  0.00    -0.237 OA
ATOM     83  O   UNL A   1      50.197  24.877  26.874  1.00  0.00    -0.744 OA
ENDBRANCH  77  80
ENDBRANCH  49  73
BRANCH  61  84
ATOM     84  C   UNL A   1      45.148  33.218  29.326  1.00  0.00     0.023 A 
ATOM     85  C   UNL A   1      45.976  33.247  30.464  1.00  0.00     0.012 A 
ATOM     86  C   UNL A   1      45.105  34.335  28.470  1.00  0.00     0.148 A 
ATOM     87  C   UNL A   1      46.735  34.380  30.758  1.00  0.00     0.002 A 
ATOM     88  C   UNL A   1      45.896  35.444  28.746  1.00  0.00     0.091 A 
ATOM     89  F   UNL A   1      44.292  34.296  27.404  1.00  0.00    -0.205 F 
ATOM     90  C   UNL A   1      46.704  35.471  29.893  1.00  0.00     0.022 A 
BRANCH  88  91
ATOM     91  S   UNL A   1      45.986  36.853  27.634  1.00  0.00     0.127 S 
ATOM     92  O   UNL A   1      44.591  37.288  27.589  1.00  0.00    -0.237 OA
ATOM     93  O   UNL A   1      46.884  37.761  28.350  1.00  0.00    -0.237 OA
ATOM     94  O   UNL A   1      46.527  36.338  26.384  1.00  0.00    -0.744 OA
ENDBRANCH  88  91
ENDBRANCH  61  84
ENDBRANCH  35  36
ENDBRANCH  27  30
ENDBRANCH  25  26
ENDBRANCH   1  25
TORSDOF 16
ENDMDL
