MODEL 1
REMARK VINA RESULT:     -12.1      0.000      0.000
REMARK SMILES Nc1c(-c2ccccc2)c[nH]c1C(=O)NCCCNC(=O)c1ccc(-c2c3nc(c(-c4cccc(S(=O)(=O)[O-])c4F)c4ccc([nH]4)c(-c4cccc(S(=O)(=O)[O-])c4F)c4nc(c(-c5cccc(S(=O)(=O)[O-])c5F)c5ccc2[nH]5)C=C4)C=C3)cc1
REMARK SMILES IDX 18 1 17 2 16 3 15 4 13 5 14 6 12 8 2 9 3 10 10 11 11 12 1 14
REMARK SMILES IDX 4 17 5 18 9 19 6 20 8 21 7 22 19 23 20 24 21 26 22 27 23 28
REMARK SMILES IDX 84 29 24 30 83 31 25 32 26 33 27 34 77 35 28 36 82 37 76 38
REMARK SMILES IDX 78 39 29 40 81 41 75 42 74 43 30 45 62 46 42 47 61 48 43 49
REMARK SMILES IDX 46 50 60 51 79 52 44 53 45 54 59 56 80 57 47 58 31 59 32 60
REMARK SMILES IDX 40 61 33 62 35 63 41 64 34 65 36 66 37 67 38 68 39 69 63 70
REMARK SMILES IDX 64 71 72 72 65 73 67 74 73 75 66 76 68 77 69 78 70 79 71 80
REMARK SMILES IDX 48 81 49 82 57 83 50 84 52 85 58 86 51 87 53 88 54 89 55 90
REMARK SMILES IDX 56 91
REMARK H PARENT 15 7 11 13 1 15 1 16 19 25 78 44 46 55
REMARK Flexibility Score: inf
ROOT
ATOM      1  C   UNL A   1      38.977  20.952  25.780  1.00  0.00     0.118 C 
ENDROOT
BRANCH   1   2
ATOM      2  C   UNL A   1      37.824  21.068  24.807  1.00  0.00     0.042 C 
BRANCH   2   3
ATOM      3  C   UNL A   1      36.458  21.120  25.475  1.00  0.00     0.118 C 
BRANCH   3   4
ATOM      4  N   UNL A   1      35.513  20.065  25.148  1.00  0.00    -0.351 N 
ATOM      5  C   UNL A   1      34.131  20.123  25.158  1.00  0.00     0.269 C 
ATOM      6  O   UNL A   1      33.500  19.123  24.820  1.00  0.00    -0.268 OA
ATOM      7  H   UNL A   1      35.906  19.200  24.888  1.00  0.00     0.163 HD
BRANCH   5   8
ATOM      8  C   UNL A   1      33.460  21.304  25.657  1.00  0.00     0.128 A 
ATOM      9  C   UNL A   1      33.030  22.479  25.075  1.00  0.00     0.070 A 
ATOM     10  C   UNL A   1      32.815  23.436  26.110  1.00  0.00     0.023 A 
ATOM     11  C   UNL A   1      32.855  22.731  27.298  1.00  0.00     0.094 A 
ATOM     12  N   UNL A   1      33.154  21.424  26.999  1.00  0.00    -0.355 N 
ATOM     13  H   UNL A   1      33.151  20.682  27.647  1.00  0.00     0.166 HD
BRANCH   9  14
ATOM     14  N   UNL A   1      32.965  22.723  23.754  1.00  0.00    -0.396 N 
ATOM     15  H   UNL A   1      33.688  22.418  23.161  1.00  0.00     0.156 HD
ATOM     16  H   UNL A   1      32.192  23.205  23.381  1.00  0.00     0.156 HD
ENDBRANCH   9  14
BRANCH  10  17
ATOM     17  C   UNL A   1      32.709  24.884  26.003  1.00  0.00    -0.015 A 
ATOM     18  C   UNL A   1      33.846  25.658  25.740  1.00  0.00     0.009 A 
ATOM     19  C   UNL A   1      31.514  25.531  26.348  1.00  0.00     0.009 A 
ATOM     20  C   UNL A   1      33.817  27.043  25.905  1.00  0.00     0.001 A 
ATOM     21  C   UNL A   1      31.478  26.920  26.488  1.00  0.00     0.001 A 
ATOM     22  C   UNL A   1      32.636  27.672  26.290  1.00  0.00     0.000 A 
ENDBRANCH  10  17
ENDBRANCH   5   8
ENDBRANCH   3   4
ENDBRANCH   2   3
ENDBRANCH   1   2
BRANCH   1  23
ATOM     23  N   UNL A   1      39.722  19.688  25.711  1.00  0.00    -0.352 N 
ATOM     24  C   UNL A   1      41.077  19.512  25.972  1.00  0.00     0.251 C 
ATOM     25  H   UNL A   1      39.212  18.886  25.454  1.00  0.00     0.163 HD
ATOM     26  O   UNL A   1      41.660  18.478  25.698  1.00  0.00    -0.269 OA
BRANCH  24  27
ATOM     27  C   UNL A   1      41.788  20.654  26.581  1.00  0.00     0.039 A 
ATOM     28  C   UNL A   1      42.325  21.671  25.790  1.00  0.00     0.014 A 
ATOM     29  C   UNL A   1      41.680  20.791  27.959  1.00  0.00     0.014 A 
ATOM     30  C   UNL A   1      42.628  22.895  26.389  1.00  0.00     0.010 A 
ATOM     31  C   UNL A   1      41.801  22.048  28.501  1.00  0.00     0.010 A 
ATOM     32  C   UNL A   1      42.313  23.102  27.741  1.00  0.00    -0.014 A 
BRANCH  32  33
ATOM     33  C   UNL A   1      42.378  24.442  28.336  1.00  0.00     0.031 A 
ATOM     34  C   UNL A   1      41.188  25.324  28.121  1.00  0.00     0.074 A 
ATOM     35  C   UNL A   1      43.315  24.787  29.249  1.00  0.00     0.049 A 
ATOM     36  N   UNL A   1      41.148  26.480  27.539  1.00  0.00    -0.248 NA
ATOM     37  C   UNL A   1      39.865  24.821  28.525  1.00  0.00     0.031 C 
ATOM     38  C   UNL A   1      44.367  23.933  29.820  1.00  0.00     0.029 A 
ATOM     39  N   UNL A   1      43.413  25.921  30.001  1.00  0.00    -0.354 N 
ATOM     40  C   UNL A   1      39.843  26.952  27.706  1.00  0.00     0.074 A 
ATOM     41  C   UNL A   1      39.068  25.822  28.144  1.00  0.00     0.031 C 
ATOM     42  C   UNL A   1      44.769  24.443  31.002  1.00  0.00     0.029 A 
ATOM     43  C   UNL A   1      44.173  25.753  31.155  1.00  0.00     0.049 A 
ATOM     44  H   UNL A   1      42.988  26.773  29.752  1.00  0.00     0.167 HD
ATOM     45  C   UNL A   1      39.562  28.287  27.709  1.00  0.00     0.034 A 
ATOM     46  C   UNL A   1      44.295  26.614  32.190  1.00  0.00     0.034 A 
ATOM     47  C   UNL A   1      40.662  29.052  27.178  1.00  0.00     0.049 A 
ATOM     48  C   UNL A   1      43.920  27.951  31.692  1.00  0.00     0.074 A 
ATOM     49  C   UNL A   1      41.356  29.106  25.988  1.00  0.00     0.029 A 
ATOM     50  N   UNL A   1      41.428  29.727  28.096  1.00  0.00    -0.354 N 
ATOM     51  N   UNL A   1      44.602  28.605  30.793  1.00  0.00    -0.248 NA
ATOM     52  C   UNL A   1      42.571  28.434  31.929  1.00  0.00     0.031 C 
ATOM     53  C   UNL A   1      42.698  29.420  26.356  1.00  0.00     0.029 A 
ATOM     54  C   UNL A   1      42.740  29.583  27.742  1.00  0.00     0.049 A 
ATOM     55  H   UNL A   1      41.091  30.228  28.873  1.00  0.00     0.167 HD
ATOM     56  C   UNL A   1      43.638  29.262  30.043  1.00  0.00     0.074 A 
ATOM     57  C   UNL A   1      42.445  29.255  30.883  1.00  0.00     0.031 C 
ATOM     58  C   UNL A   1      43.817  29.475  28.704  1.00  0.00     0.034 A 
BRANCH  45  59
ATOM     59  C   UNL A   1      38.488  28.975  28.546  1.00  0.00     0.023 A 
ATOM     60  C   UNL A   1      37.667  29.923  27.882  1.00  0.00     0.012 A 
ATOM     61  C   UNL A   1      38.439  28.986  29.959  1.00  0.00     0.148 A 
ATOM     62  C   UNL A   1      36.935  30.891  28.579  1.00  0.00     0.002 A 
ATOM     63  C   UNL A   1      37.649  29.904  30.648  1.00  0.00     0.091 A 
ATOM     64  F   UNL A   1      39.247  28.196  30.669  1.00  0.00    -0.205 F 
ATOM     65  C   UNL A   1      36.928  30.884  29.965  1.00  0.00     0.022 A 
BRANCH  63  66
ATOM     66  S   UNL A   1      37.565  29.902  32.445  1.00  0.00     0.127 S 
ATOM     67  O   UNL A   1      37.208  28.515  32.717  1.00  0.00    -0.237 OA
ATOM     68  O   UNL A   1      38.931  30.277  32.811  1.00  0.00    -0.237 OA
ATOM     69  O   UNL A   1      36.564  30.907  32.784  1.00  0.00    -0.744 OA
ENDBRANCH  63  66
ENDBRANCH  45  59
BRANCH  46  70
ATOM     70  C   UNL A   1      44.571  26.338  33.614  1.00  0.00     0.023 A 
ATOM     71  C   UNL A   1      45.892  26.390  34.092  1.00  0.00     0.012 A 
ATOM     72  C   UNL A   1      43.518  26.274  34.554  1.00  0.00     0.148 A 
ATOM     73  C   UNL A   1      46.159  26.409  35.466  1.00  0.00     0.002 A 
ATOM     74  C   UNL A   1      43.788  26.288  35.919  1.00  0.00     0.091 A 
ATOM     75  F   UNL A   1      42.255  26.287  34.108  1.00  0.00    -0.205 F 
ATOM     76  C   UNL A   1      45.109  26.366  36.378  1.00  0.00     0.022 A 
BRANCH  74  77
ATOM     77  S   UNL A   1      42.484  26.252  37.158  1.00  0.00     0.127 S 
ATOM     78  O   UNL A   1      43.250  26.297  38.406  1.00  0.00    -0.237 OA
ATOM     79  O   UNL A   1      41.743  27.473  36.852  1.00  0.00    -0.237 OA
ATOM     80  O   UNL A   1      41.768  25.003  36.940  1.00  0.00    -0.744 OA
ENDBRANCH  74  77
ENDBRANCH  46  70
BRANCH  58  81
ATOM     81  C   UNL A   1      45.201  29.297  28.131  1.00  0.00     0.023 A 
ATOM     82  C   UNL A   1      46.188  30.300  28.224  1.00  0.00     0.012 A 
ATOM     83  C   UNL A   1      45.566  28.029  27.648  1.00  0.00     0.148 A 
ATOM     84  C   UNL A   1      47.503  30.050  27.822  1.00  0.00     0.002 A 
ATOM     85  C   UNL A   1      46.885  27.770  27.296  1.00  0.00     0.091 A 
ATOM     86  F   UNL A   1      44.618  27.082  27.570  1.00  0.00    -0.205 F 
ATOM     87  C   UNL A   1      47.856  28.781  27.372  1.00  0.00     0.022 A 
BRANCH  85  88
ATOM     88  S   UNL A   1      47.424  26.120  26.841  1.00  0.00     0.127 S 
ATOM     89  O   UNL A   1      46.672  25.880  25.611  1.00  0.00    -0.237 OA
ATOM     90  O   UNL A   1      48.865  26.296  26.653  1.00  0.00    -0.237 OA
ATOM     91  O   UNL A   1      47.076  25.264  27.969  1.00  0.00    -0.744 OA
ENDBRANCH  85  88
ENDBRANCH  58  81
ENDBRANCH  32  33
ENDBRANCH  24  27
ENDBRANCH   1  23
TORSDOF 15
ENDMDL
MODEL 2
REMARK VINA RESULT:     -11.9      1.815      3.281
REMARK SMILES Nc1c(-c2ccccc2)c[nH]c1C(=O)NCCCNC(=O)c1ccc(-c2c3nc(c(-c4cccc(S(=O)(=O)[O-])c4F)c4ccc([nH]4)c(-c4cccc(S(=O)(=O)[O-])c4F)c4nc(c(-c5cccc(S(=O)(=O)[O-])c5F)c5ccc2[nH]5)C=C4)C=C3)cc1
REMARK SMILES IDX 18 1 17 2 16 3 15 4 13 5 14 6 12 8 2 9 3 10 10 11 11 12 1 14
REMARK SMILES IDX 4 17 5 18 9 19 6 20 8 21 7 22 19 23 20 24 21 26 22 27 23 28
REMARK SMILES IDX 84 29 24 30 83 31 25 32 26 33 27 34 77 35 28 36 82 37 76 38
REMARK SMILES IDX 78 39 29 40 81 41 75 42 74 43 30 45 62 46 42 47 61 48 43 49
REMARK SMILES IDX 46 50 60 51 79 52 44 53 45 54 59 56 80 57 47 58 31 59 32 60
REMARK SMILES IDX 40 61 33 62 35 63 41 64 34 65 36 66 37 67 38 68 39 69 63 70
REMARK SMILES IDX 64 71 72 72 65 73 67 74 73 75 66 76 68 77 69 78 70 79 71 80
REMARK SMILES IDX 48 81 49 82 57 83 50 84 52 85 58 86 51 87 53 88 54 89 55 90
REMARK SMILES IDX 56 91
REMARK H PARENT 15 7 11 13 1 15 1 16 19 25 78 44 46 55
REMARK Flexibility Score: inf
ROOT
ATOM      1  C   UNL A   1      38.303  21.864  25.525  1.00  0.00     0.118 C 
ENDROOT
BRANCH   1   2
ATOM      2  C   UNL A   1      36.835  22.082  25.815  1.00  0.00     0.042 C 
BRANCH   2   3
ATOM      3  C   UNL A   1      36.116  22.911  24.762  1.00  0.00     0.118 C 
BRANCH   3   4
ATOM      4  N   UNL A   1      35.054  23.795  25.216  1.00  0.00    -0.351 N 
ATOM      5  C   UNL A   1      33.727  23.484  25.455  1.00  0.00     0.269 C 
ATOM      6  O   UNL A   1      32.982  24.372  25.865  1.00  0.00    -0.268 OA
ATOM      7  H   UNL A   1      35.311  24.733  25.372  1.00  0.00     0.163 HD
BRANCH   5   8
ATOM      8  C   UNL A   1      33.221  22.169  25.124  1.00  0.00     0.128 A 
ATOM      9  C   UNL A   1      33.260  20.942  25.754  1.00  0.00     0.070 A 
ATOM     10  C   UNL A   1      32.968  19.936  24.787  1.00  0.00     0.023 A 
ATOM     11  C   UNL A   1      32.493  20.601  23.673  1.00  0.00     0.094 A 
ATOM     12  N   UNL A   1      32.566  21.949  23.927  1.00  0.00    -0.355 N 
ATOM     13  H   UNL A   1      32.203  22.654  23.343  1.00  0.00     0.166 HD
BRANCH   9  14
ATOM     14  N   UNL A   1      33.647  20.723  27.023  1.00  0.00    -0.396 N 
ATOM     15  H   UNL A   1      34.064  21.447  27.543  1.00  0.00     0.156 HD
ATOM     16  H   UNL A   1      33.513  19.838  27.433  1.00  0.00     0.156 HD
ENDBRANCH   9  14
BRANCH  10  17
ATOM     17  C   UNL A   1      33.227  18.505  24.856  1.00  0.00    -0.015 A 
ATOM     18  C   UNL A   1      34.016  17.881  23.881  1.00  0.00     0.009 A 
ATOM     19  C   UNL A   1      32.539  17.708  25.782  1.00  0.00     0.009 A 
ATOM     20  C   UNL A   1      34.049  16.491  23.775  1.00  0.00     0.001 A 
ATOM     21  C   UNL A   1      32.592  16.315  25.691  1.00  0.00     0.001 A 
ATOM     22  C   UNL A   1      33.327  15.708  24.673  1.00  0.00     0.000 A 
ENDBRANCH  10  17
ENDBRANCH   5   8
ENDBRANCH   3   4
ENDBRANCH   2   3
ENDBRANCH   1   2
BRANCH   1  23
ATOM     23  N   UNL A   1      38.729  20.458  25.501  1.00  0.00    -0.352 N 
ATOM     24  C   UNL A   1      39.987  19.970  25.837  1.00  0.00     0.251 C 
ATOM     25  H   UNL A   1      38.057  19.797  25.219  1.00  0.00     0.163 HD
ATOM     26  O   UNL A   1      40.321  18.823  25.598  1.00  0.00    -0.269 OA
BRANCH  24  27
ATOM     27  C   UNL A   1      40.917  20.921  26.481  1.00  0.00     0.039 A 
ATOM     28  C   UNL A   1      41.663  21.823  25.720  1.00  0.00     0.014 A 
ATOM     29  C   UNL A   1      40.827  21.040  27.861  1.00  0.00     0.014 A 
ATOM     30  C   UNL A   1      42.209  22.940  26.355  1.00  0.00     0.010 A 
ATOM     31  C   UNL A   1      41.204  22.227  28.439  1.00  0.00     0.010 A 
ATOM     32  C   UNL A   1      41.933  23.171  27.711  1.00  0.00    -0.014 A 
BRANCH  32  33
ATOM     33  C   UNL A   1      42.272  24.451  28.345  1.00  0.00     0.031 A 
ATOM     34  C   UNL A   1      41.318  25.581  28.114  1.00  0.00     0.074 A 
ATOM     35  C   UNL A   1      43.226  24.559  29.299  1.00  0.00     0.049 A 
ATOM     36  N   UNL A   1      41.561  26.727  27.562  1.00  0.00    -0.248 NA
ATOM     37  C   UNL A   1      39.902  25.380  28.458  1.00  0.00     0.031 C 
ATOM     38  C   UNL A   1      44.037  23.480  29.882  1.00  0.00     0.029 A 
ATOM     39  N   UNL A   1      43.544  25.628  30.084  1.00  0.00    -0.354 N 
ATOM     40  C   UNL A   1      40.389  27.477  27.698  1.00  0.00     0.074 A 
ATOM     41  C   UNL A   1      39.364  26.541  28.078  1.00  0.00     0.031 C 
ATOM     42  C   UNL A   1      44.495  23.865  31.090  1.00  0.00     0.029 A 
ATOM     43  C   UNL A   1      44.202  25.272  31.259  1.00  0.00     0.049 A 
ATOM     44  H   UNL A   1      43.331  26.558  29.844  1.00  0.00     0.167 HD
ATOM     45  C   UNL A   1      40.413  28.840  27.727  1.00  0.00     0.034 A 
ATOM     46  C   UNL A   1      44.472  26.063  32.320  1.00  0.00     0.034 A 
ATOM     47  C   UNL A   1      41.677  29.350  27.256  1.00  0.00     0.049 A 
ATOM     48  C   UNL A   1      44.425  27.460  31.846  1.00  0.00     0.074 A 
ATOM     49  C   UNL A   1      42.411  29.269  26.092  1.00  0.00     0.029 A 
ATOM     50  N   UNL A   1      42.537  29.817  28.217  1.00  0.00    -0.354 N 
ATOM     51  N   UNL A   1      45.271  27.961  30.990  1.00  0.00    -0.248 NA
ATOM     52  C   UNL A   1      43.210  28.228  32.050  1.00  0.00     0.031 C 
ATOM     53  C   UNL A   1      43.774  29.267  26.514  1.00  0.00     0.029 A 
ATOM     54  C   UNL A   1      43.796  29.390  27.905  1.00  0.00     0.049 A 
ATOM     55  H   UNL A   1      42.290  30.366  28.996  1.00  0.00     0.167 HD
ATOM     56  C   UNL A   1      44.509  28.832  30.226  1.00  0.00     0.074 A 
ATOM     57  C   UNL A   1      43.312  29.076  31.024  1.00  0.00     0.031 C 
ATOM     58  C   UNL A   1      44.783  29.025  28.900  1.00  0.00     0.034 A 
BRANCH  45  59
ATOM     59  C   UNL A   1      39.488  29.736  28.546  1.00  0.00     0.023 A 
ATOM     60  C   UNL A   1      39.815  29.913  29.916  1.00  0.00     0.012 A 
ATOM     61  C   UNL A   1      38.193  30.146  28.154  1.00  0.00     0.148 A 
ATOM     62  C   UNL A   1      38.877  30.361  30.853  1.00  0.00     0.002 A 
ATOM     63  C   UNL A   1      37.288  30.663  29.078  1.00  0.00     0.091 A 
ATOM     64  F   UNL A   1      37.765  29.931  26.909  1.00  0.00    -0.205 F 
ATOM     65  C   UNL A   1      37.609  30.734  30.435  1.00  0.00     0.022 A 
BRANCH  63  66
ATOM     66  S   UNL A   1      35.649  31.210  28.578  1.00  0.00     0.127 S 
ATOM     67  O   UNL A   1      35.054  29.960  28.119  1.00  0.00    -0.237 OA
ATOM     68  O   UNL A   1      35.109  31.732  29.833  1.00  0.00    -0.237 OA
ATOM     69  O   UNL A   1      35.878  32.230  27.561  1.00  0.00    -0.744 OA
ENDBRANCH  63  66
ENDBRANCH  45  59
BRANCH  46  70
ATOM     70  C   UNL A   1      44.624  25.706  33.745  1.00  0.00     0.023 A 
ATOM     71  C   UNL A   1      45.893  25.377  34.252  1.00  0.00     0.012 A 
ATOM     72  C   UNL A   1      43.572  25.932  34.661  1.00  0.00     0.148 A 
ATOM     73  C   UNL A   1      46.120  25.305  35.630  1.00  0.00     0.002 A 
ATOM     74  C   UNL A   1      43.800  25.854  36.032  1.00  0.00     0.091 A 
ATOM     75  F   UNL A   1      42.375  26.307  34.188  1.00  0.00    -0.205 F 
ATOM     76  C   UNL A   1      45.078  25.552  36.520  1.00  0.00     0.022 A 
BRANCH  74  77
ATOM     77  S   UNL A   1      42.510  26.176  37.242  1.00  0.00     0.127 S 
ATOM     78  O   UNL A   1      41.632  25.018  37.066  1.00  0.00    -0.237 OA
ATOM     79  O   UNL A   1      43.264  26.187  38.492  1.00  0.00    -0.237 OA
ATOM     80  O   UNL A   1      41.911  27.446  36.851  1.00  0.00    -0.744 OA
ENDBRANCH  74  77
ENDBRANCH  46  70
BRANCH  58  81
ATOM     81  C   UNL A   1      46.114  28.552  28.369  1.00  0.00     0.023 A 
ATOM     82  C   UNL A   1      47.299  29.296  28.541  1.00  0.00     0.012 A 
ATOM     83  C   UNL A   1      46.200  27.251  27.846  1.00  0.00     0.148 A 
ATOM     84  C   UNL A   1      48.539  28.764  28.176  1.00  0.00     0.002 A 
ATOM     85  C   UNL A   1      47.439  26.706  27.530  1.00  0.00     0.091 A 
ATOM     86  F   UNL A   1      45.065  26.551  27.692  1.00  0.00    -0.205 F 
ATOM     87  C   UNL A   1      48.611  27.463  27.685  1.00  0.00     0.022 A 
BRANCH  85  88
ATOM     88  S   UNL A   1      47.606  24.993  27.024  1.00  0.00     0.127 S 
ATOM     89  O   UNL A   1      49.030  24.746  27.241  1.00  0.00    -0.237 OA
ATOM     90  O   UNL A   1      46.715  24.298  27.954  1.00  0.00    -0.237 OA
ATOM     91  O   UNL A   1      47.162  24.946  25.635  1.00  0.00    -0.744 OA
ENDBRANCH  85  88
ENDBRANCH  58  81
ENDBRANCH  32  33
ENDBRANCH  24  27
ENDBRANCH   1  23
TORSDOF 15
ENDMDL
MODEL 3
REMARK VINA RESULT:     -11.8      4.536      9.509
REMARK SMILES Nc1c(-c2ccccc2)c[nH]c1C(=O)NCCCNC(=O)c1ccc(-c2c3nc(c(-c4cccc(S(=O)(=O)[O-])c4F)c4ccc([nH]4)c(-c4cccc(S(=O)(=O)[O-])c4F)c4nc(c(-c5cccc(S(=O)(=O)[O-])c5F)c5ccc2[nH]5)C=C4)C=C3)cc1
REMARK SMILES IDX 18 1 17 2 16 3 15 4 13 5 14 6 12 8 2 9 3 10 10 11 11 12 1 14
REMARK SMILES IDX 4 17 5 18 9 19 6 20 8 21 7 22 19 23 20 24 21 26 22 27 23 28
REMARK SMILES IDX 84 29 24 30 83 31 25 32 26 33 27 34 77 35 28 36 82 37 76 38
REMARK SMILES IDX 78 39 29 40 81 41 75 42 74 43 30 45 62 46 42 47 61 48 43 49
REMARK SMILES IDX 46 50 60 51 79 52 44 53 45 54 59 56 80 57 47 58 31 59 32 60
REMARK SMILES IDX 40 61 33 62 35 63 41 64 34 65 36 66 37 67 38 68 39 69 63 70
REMARK SMILES IDX 64 71 72 72 65 73 67 74 73 75 66 76 68 77 69 78 70 79 71 80
REMARK SMILES IDX 48 81 49 82 57 83 50 84 52 85 58 86 51 87 53 88 54 89 55 90
REMARK SMILES IDX 56 91
REMARK H PARENT 15 7 11 13 1 15 1 16 19 25 78 44 46 55
REMARK Flexibility Score: inf
ROOT
ATOM      1  C   UNL A   1      35.132  33.688  28.829  1.00  0.00     0.118 C 
ENDROOT
BRANCH   1   2
ATOM      2  C   UNL A   1      34.538  35.079  28.817  1.00  0.00     0.042 C 
BRANCH   2   3
ATOM      3  C   UNL A   1      33.109  35.142  29.337  1.00  0.00     0.118 C 
BRANCH   3   4
ATOM      4  N   UNL A   1      32.757  36.263  30.192  1.00  0.00    -0.351 N 
ATOM      5  C   UNL A   1      33.001  36.417  31.545  1.00  0.00     0.269 C 
ATOM      6  O   UNL A   1      32.646  37.460  32.090  1.00  0.00    -0.268 OA
ATOM      7  H   UNL A   1      32.283  37.007  29.753  1.00  0.00     0.163 HD
BRANCH   5   8
ATOM      8  C   UNL A   1      33.566  35.323  32.306  1.00  0.00     0.128 A 
ATOM      9  C   UNL A   1      34.854  34.908  32.575  1.00  0.00     0.070 A 
ATOM     10  C   UNL A   1      34.802  33.556  33.023  1.00  0.00     0.023 A 
ATOM     11  C   UNL A   1      33.470  33.286  33.274  1.00  0.00     0.094 A 
ATOM     12  N   UNL A   1      32.744  34.398  32.923  1.00  0.00    -0.355 N 
ATOM     13  H   UNL A   1      31.781  34.518  33.087  1.00  0.00     0.166 HD
BRANCH   9  14
ATOM     14  N   UNL A   1      35.974  35.609  32.321  1.00  0.00    -0.396 N 
ATOM     15  H   UNL A   1      36.213  35.834  31.393  1.00  0.00     0.156 HD
ATOM     16  H   UNL A   1      36.553  35.897  33.063  1.00  0.00     0.156 HD
ENDBRANCH   9  14
BRANCH  10  17
ATOM     17  C   UNL A   1      35.877  32.576  33.088  1.00  0.00    -0.015 A 
ATOM     18  C   UNL A   1      35.895  31.486  32.209  1.00  0.00     0.009 A 
ATOM     19  C   UNL A   1      36.795  32.607  34.148  1.00  0.00     0.009 A 
ATOM     20  C   UNL A   1      36.750  30.406  32.432  1.00  0.00     0.001 A 
ATOM     21  C   UNL A   1      37.669  31.537  34.356  1.00  0.00     0.001 A 
ATOM     22  C   UNL A   1      37.629  30.428  33.512  1.00  0.00     0.000 A 
ENDBRANCH  10  17
ENDBRANCH   5   8
ENDBRANCH   3   4
ENDBRANCH   2   3
ENDBRANCH   1   2
BRANCH   1  23
ATOM     23  N   UNL A   1      34.420  32.702  28.004  1.00  0.00    -0.352 N 
ATOM     24  C   UNL A   1      34.841  31.408  27.717  1.00  0.00     0.251 C 
ATOM     25  H   UNL A   1      33.561  32.986  27.618  1.00  0.00     0.163 HD
ATOM     26  O   UNL A   1      34.297  30.726  26.866  1.00  0.00    -0.269 OA
BRANCH  24  27
ATOM     27  C   UNL A   1      36.000  30.903  28.479  1.00  0.00     0.039 A 
ATOM     28  C   UNL A   1      36.184  29.534  28.685  1.00  0.00     0.014 A 
ATOM     29  C   UNL A   1      37.007  31.818  28.759  1.00  0.00     0.014 A 
ATOM     30  C   UNL A   1      37.453  29.077  29.047  1.00  0.00     0.010 A 
ATOM     31  C   UNL A   1      38.286  31.348  28.929  1.00  0.00     0.010 A 
ATOM     32  C   UNL A   1      38.522  29.984  29.117  1.00  0.00    -0.014 A 
BRANCH  32  33
ATOM     33  C   UNL A   1      39.907  29.511  29.242  1.00  0.00     0.031 A 
ATOM     34  C   UNL A   1      40.435  29.361  30.635  1.00  0.00     0.074 A 
ATOM     35  C   UNL A   1      40.590  28.982  28.201  1.00  0.00     0.049 A 
ATOM     36  N   UNL A   1      41.455  29.953  31.167  1.00  0.00    -0.248 NA
ATOM     37  C   UNL A   1      39.686  28.514  31.577  1.00  0.00     0.031 C 
ATOM     38  C   UNL A   1      40.103  28.753  26.833  1.00  0.00     0.029 A 
ATOM     39  N   UNL A   1      41.806  28.363  28.192  1.00  0.00    -0.354 N 
ATOM     40  C   UNL A   1      41.615  29.383  32.434  1.00  0.00     0.074 A 
ATOM     41  C   UNL A   1      40.401  28.656  32.695  1.00  0.00     0.031 C 
ATOM     42  C   UNL A   1      40.853  27.801  26.243  1.00  0.00     0.029 A 
ATOM     43  C   UNL A   1      41.988  27.523  27.098  1.00  0.00     0.049 A 
ATOM     44  H   UNL A   1      42.487  28.499  28.889  1.00  0.00     0.167 HD
ATOM     45  C   UNL A   1      42.828  29.353  33.056  1.00  0.00     0.034 A 
ATOM     46  C   UNL A   1      42.985  26.632  26.903  1.00  0.00     0.034 A 
ATOM     47  C   UNL A   1      43.758  30.259  32.427  1.00  0.00     0.049 A 
ATOM     48  C   UNL A   1      44.110  27.042  27.765  1.00  0.00     0.074 A 
ATOM     49  C   UNL A   1      43.815  31.613  32.177  1.00  0.00     0.029 A 
ATOM     50  N   UNL A   1      44.718  29.684  31.631  1.00  0.00    -0.354 N 
ATOM     51  N   UNL A   1      44.780  28.149  27.600  1.00  0.00    -0.248 NA
ATOM     52  C   UNL A   1      44.279  26.393  29.053  1.00  0.00     0.031 C 
ATOM     53  C   UNL A   1      44.493  31.731  30.927  1.00  0.00     0.029 A 
ATOM     54  C   UNL A   1      44.849  30.448  30.506  1.00  0.00     0.049 A 
ATOM     55  H   UNL A   1      45.223  28.864  31.836  1.00  0.00     0.167 HD
ATOM     56  C   UNL A   1      45.075  28.566  28.890  1.00  0.00     0.074 A 
ATOM     57  C   UNL A   1      44.893  27.376  29.716  1.00  0.00     0.031 C 
ATOM     58  C   UNL A   1      45.140  29.896  29.199  1.00  0.00     0.034 A 
BRANCH  45  59
ATOM     59  C   UNL A   1      43.344  28.241  33.964  1.00  0.00     0.023 A 
ATOM     60  C   UNL A   1      44.308  27.358  33.412  1.00  0.00     0.012 A 
ATOM     61  C   UNL A   1      42.737  27.829  35.172  1.00  0.00     0.148 A 
ATOM     62  C   UNL A   1      44.566  26.098  33.964  1.00  0.00     0.002 A 
ATOM     63  C   UNL A   1      43.053  26.605  35.759  1.00  0.00     0.091 A 
ATOM     64  F   UNL A   1      41.753  28.548  35.713  1.00  0.00    -0.205 F 
ATOM     65  C   UNL A   1      43.935  25.718  35.139  1.00  0.00     0.022 A 
BRANCH  63  66
ATOM     66  S   UNL A   1      42.302  26.089  37.310  1.00  0.00     0.127 S 
ATOM     67  O   UNL A   1      42.179  24.650  37.108  1.00  0.00    -0.237 OA
ATOM     68  O   UNL A   1      43.314  26.497  38.285  1.00  0.00    -0.237 OA
ATOM     69  O   UNL A   1      41.055  26.839  37.401  1.00  0.00    -0.744 OA
ENDBRANCH  63  66
ENDBRANCH  45  59
BRANCH  46  70
ATOM     70  C   UNL A   1      42.983  25.370  26.136  1.00  0.00     0.023 A 
ATOM     71  C   UNL A   1      43.976  25.139  25.168  1.00  0.00     0.012 A 
ATOM     72  C   UNL A   1      42.161  24.289  26.528  1.00  0.00     0.148 A 
ATOM     73  C   UNL A   1      44.169  23.863  24.627  1.00  0.00     0.002 A 
ATOM     74  C   UNL A   1      42.352  23.023  25.984  1.00  0.00     0.091 A 
ATOM     75  F   UNL A   1      41.254  24.487  27.494  1.00  0.00    -0.205 F 
ATOM     76  C   UNL A   1      43.364  22.804  25.040  1.00  0.00     0.022 A 
BRANCH  74  77
ATOM     77  S   UNL A   1      41.365  21.604  26.479  1.00  0.00     0.127 S 
ATOM     78  O   UNL A   1      40.026  21.995  26.036  1.00  0.00    -0.237 OA
ATOM     79  O   UNL A   1      41.975  20.527  25.704  1.00  0.00    -0.237 OA
ATOM     80  O   UNL A   1      41.512  21.507  27.926  1.00  0.00    -0.744 OA
ENDBRANCH  74  77
ENDBRANCH  46  70
BRANCH  58  81
ATOM     81  C   UNL A   1      45.226  30.889  28.067  1.00  0.00     0.023 A 
ATOM     82  C   UNL A   1      44.081  31.384  27.412  1.00  0.00     0.012 A 
ATOM     83  C   UNL A   1      46.474  31.467  27.779  1.00  0.00     0.148 A 
ATOM     84  C   UNL A   1      44.181  32.416  26.474  1.00  0.00     0.002 A 
ATOM     85  C   UNL A   1      46.564  32.526  26.883  1.00  0.00     0.091 A 
ATOM     86  F   UNL A   1      47.557  30.990  28.414  1.00  0.00    -0.205 F 
ATOM     87  C   UNL A   1      45.420  32.997  26.220  1.00  0.00     0.022 A 
BRANCH  85  88
ATOM     88  S   UNL A   1      48.108  33.401  26.620  1.00  0.00     0.127 S 
ATOM     89  O   UNL A   1      47.778  34.275  25.496  1.00  0.00    -0.237 OA
ATOM     90  O   UNL A   1      48.305  34.091  27.896  1.00  0.00    -0.237 OA
ATOM     91  O   UNL A   1      49.105  32.372  26.346  1.00  0.00    -0.744 OA
ENDBRANCH  85  88
ENDBRANCH  58  81
ENDBRANCH  32  33
ENDBRANCH  24  27
ENDBRANCH   1  23
TORSDOF 15
ENDMDL
