MODEL 1
REMARK VINA RESULT:     -12.9      0.000      0.000
REMARK SMILES COc1cc([C@@H]2CC(NCCCNC(=O)c3ccc(-c4c5nc(c(-c6cccc(S(=O)(=O)[O-])c6F)c6ccc([nH]6)c(-c6cccc(S(=O)(=O)[O-])c6F)c6nc(c(-c7cccc(S(=O)(=O)[O-])c7F)c7ccc4[nH]7)C=C6)C=C5)cc3)=[NH+]c3c(C(=O)[O-])cn(-c4ccc(Cl)cc4)c32)cc(OC)c1O
REMARK SMILES IDX 12 1 11 2 10 3 9 4 6 5 7 6 94 7 8 8 80 9 86 10 79 11 81 12
REMARK SMILES IDX 85 13 5 16 3 17 4 18 99 19 96 20 95 21 2 22 1 23 100 24
REMARK SMILES IDX 97 26 98 27 87 28 88 29 93 30 89 31 92 32 90 33 91 34 82 35
REMARK SMILES IDX 83 36 84 37 13 38 14 39 15 41 16 42 17 43 78 44 18 45 77 46
REMARK SMILES IDX 19 47 20 48 21 49 71 50 22 51 76 52 70 53 72 54 23 55 75 56
REMARK SMILES IDX 69 57 68 58 24 60 56 61 36 62 55 63 37 64 40 65 54 66 73 67
REMARK SMILES IDX 38 68 39 69 53 71 74 72 41 73 25 74 26 75 34 76 27 77 29 78
REMARK SMILES IDX 35 79 28 80 30 81 31 82 32 83 33 84 57 85 58 86 66 87 59 88
REMARK SMILES IDX 61 89 67 90 60 91 62 92 63 93 64 94 65 95 42 96 43 97 51 98
REMARK SMILES IDX 44 99 46 100 52 101 45 102 47 103 48 104 49 105 50 106
REMARK H PARENT 9 14 79 15 100 25 13 40 72 59 40 70
REMARK Flexibility Score: inf
ROOT
ATOM      1  C   UNL A   1      33.965  29.433  26.425  1.00  0.00     0.120 C 
ENDROOT
BRANCH   1   2
ATOM      2  C   UNL A   1      32.688  28.627  26.260  1.00  0.00     0.067 C 
BRANCH   2   3
ATOM      3  C   UNL A   1      32.428  28.234  24.806  1.00  0.00     0.235 C 
BRANCH   3   4
ATOM      4  N   UNL A   1      33.384  27.253  24.310  1.00  0.00    -0.278 N 
ATOM      5  C   UNL A   1      34.069  23.465  23.955  1.00  0.00     0.083 C 
ATOM      6  C   UNL A   1      34.125  24.978  23.645  1.00  0.00     0.142 C 
ATOM      7  C   UNL A   1      32.895  23.157  24.833  1.00  0.00     0.078 A 
ATOM      8  C   UNL A   1      33.238  25.891  24.503  1.00  0.00     0.248 C 
ATOM      9  C   UNL A   1      32.105  24.118  25.411  1.00  0.00     0.155 A 
ATOM     10  N   UNL A   1      32.276  21.937  25.067  1.00  0.00    -0.315 N 
ATOM     11  N   UNL A   1      32.321  25.481  25.328  1.00  0.00    -0.243 N 
ATOM     12  C   UNL A   1      30.978  23.535  26.020  1.00  0.00     0.062 A 
ATOM     13  C   UNL A   1      31.097  22.181  25.751  1.00  0.00     0.106 A 
ATOM     14  H   UNL A   1      34.172  27.575  23.813  1.00  0.00     0.304 HD
ATOM     15  H   UNL A   1      31.802  26.115  25.873  1.00  0.00     0.312 HD
BRANCH   5  16
ATOM     16  C   UNL A   1      35.403  22.975  24.484  1.00  0.00    -0.031 A 
ATOM     17  C   UNL A   1      37.484  23.465  25.690  1.00  0.00     0.164 A 
ATOM     18  C   UNL A   1      36.199  23.831  25.264  1.00  0.00     0.055 A 
ATOM     19  C   UNL A   1      37.960  22.188  25.363  1.00  0.00     0.200 A 
ATOM     20  C   UNL A   1      37.168  21.297  24.616  1.00  0.00     0.164 A 
ATOM     21  C   UNL A   1      35.898  21.704  24.182  1.00  0.00     0.055 A 
BRANCH  17  22
ATOM     22  O   UNL A   1      38.134  24.505  26.296  1.00  0.00    -0.493 OA
ATOM     23  C   UNL A   1      38.589  24.420  27.639  1.00  0.00     0.278 C 
ENDBRANCH  17  22
BRANCH  19  24
ATOM     24  O   UNL A   1      39.211  21.806  25.747  1.00  0.00    -0.502 OA
ATOM     25  H   UNL A   1      39.318  21.122  26.380  1.00  0.00     0.293 HD
ENDBRANCH  19  24
BRANCH  20  26
ATOM     26  O   UNL A   1      37.488  20.039  24.172  1.00  0.00    -0.493 OA
ATOM     27  C   UNL A   1      37.128  18.925  24.980  1.00  0.00     0.278 C 
ENDBRANCH  20  26
ENDBRANCH   5  16
BRANCH  10  28
ATOM     28  C   UNL A   1      32.668  20.638  24.663  1.00  0.00     0.046 A 
ATOM     29  C   UNL A   1      33.279  19.767  25.565  1.00  0.00     0.028 A 
ATOM     30  C   UNL A   1      32.356  20.197  23.370  1.00  0.00     0.028 A 
ATOM     31  C   UNL A   1      33.657  18.484  25.157  1.00  0.00     0.022 A 
ATOM     32  C   UNL A   1      32.729  18.913  22.964  1.00  0.00     0.022 A 
ATOM     33  C   UNL A   1      33.388  18.066  23.856  1.00  0.00     0.041 A 
ATOM     34  Cl  UNL A   1      33.848  16.487  23.348  1.00  0.00    -0.084 Cl
ENDBRANCH  10  28
BRANCH  12  35
ATOM     35  C   UNL A   1      29.873  24.131  26.749  1.00  0.00     0.077 C 
ATOM     36  O   UNL A   1      29.182  23.555  27.569  1.00  0.00    -0.545 OA
ATOM     37  O   UNL A   1      29.611  25.428  26.458  1.00  0.00    -0.545 OA
ENDBRANCH  12  35
ENDBRANCH   3   4
ENDBRANCH   2   3
ENDBRANCH   1   2
BRANCH   1  38
ATOM     38  N   UNL A   1      33.753  30.729  27.087  1.00  0.00    -0.352 N 
ATOM     39  C   UNL A   1      34.543  31.351  28.038  1.00  0.00     0.251 C 
ATOM     40  H   UNL A   1      32.943  31.219  26.818  1.00  0.00     0.163 HD
ATOM     41  O   UNL A   1      34.095  32.264  28.723  1.00  0.00    -0.269 OA
BRANCH  39  42
ATOM     42  C   UNL A   1      35.933  30.896  28.214  1.00  0.00     0.039 A 
ATOM     43  C   UNL A   1      36.971  31.786  28.508  1.00  0.00     0.014 A 
ATOM     44  C   UNL A   1      36.178  29.531  28.130  1.00  0.00     0.014 A 
ATOM     45  C   UNL A   1      38.229  31.269  28.802  1.00  0.00     0.010 A 
ATOM     46  C   UNL A   1      37.341  29.019  28.630  1.00  0.00     0.010 A 
ATOM     47  C   UNL A   1      38.398  29.876  28.887  1.00  0.00    -0.014 A 
BRANCH  47  48
ATOM     48  C   UNL A   1      39.656  29.288  29.325  1.00  0.00     0.031 A 
ATOM     49  C   UNL A   1      39.937  29.450  30.773  1.00  0.00     0.074 A 
ATOM     50  C   UNL A   1      40.414  28.493  28.540  1.00  0.00     0.049 A 
ATOM     51  N   UNL A   1      40.790  30.257  31.311  1.00  0.00    -0.248 NA
ATOM     52  C   UNL A   1      39.067  28.768  31.740  1.00  0.00     0.031 C 
ATOM     53  C   UNL A   1      40.114  27.970  27.199  1.00  0.00     0.029 A 
ATOM     54  N   UNL A   1      41.582  27.867  28.843  1.00  0.00    -0.354 N 
ATOM     55  C   UNL A   1      40.748  29.985  32.676  1.00  0.00     0.074 A 
ATOM     56  C   UNL A   1      39.531  29.248  32.896  1.00  0.00     0.031 C 
ATOM     57  C   UNL A   1      40.928  26.927  26.925  1.00  0.00     0.029 A 
ATOM     58  C   UNL A   1      41.925  26.840  27.972  1.00  0.00     0.049 A 
ATOM     59  H   UNL A   1      42.137  28.121  29.615  1.00  0.00     0.167 HD
ATOM     60  C   UNL A   1      41.855  30.148  33.453  1.00  0.00     0.034 A 
ATOM     61  C   UNL A   1      42.950  25.969  28.120  1.00  0.00     0.034 A 
ATOM     62  C   UNL A   1      42.868  30.912  32.762  1.00  0.00     0.049 A 
ATOM     63  C   UNL A   1      43.923  26.612  29.035  1.00  0.00     0.074 A 
ATOM     64  C   UNL A   1      42.923  32.159  32.171  1.00  0.00     0.029 A 
ATOM     65  N   UNL A   1      43.926  30.205  32.242  1.00  0.00    -0.354 N 
ATOM     66  N   UNL A   1      44.589  27.691  28.734  1.00  0.00    -0.248 NA
ATOM     67  C   UNL A   1      43.837  26.301  30.451  1.00  0.00     0.031 C 
ATOM     68  C   UNL A   1      43.696  31.969  30.987  1.00  0.00     0.029 A 
ATOM     69  C   UNL A   1      44.133  30.643  30.962  1.00  0.00     0.049 A 
ATOM     70  H   UNL A   1      44.443  29.508  32.708  1.00  0.00     0.167 HD
ATOM     71  C   UNL A   1      44.594  28.429  29.910  1.00  0.00     0.074 A 
ATOM     72  C   UNL A   1      44.226  27.475  30.955  1.00  0.00     0.031 C 
ATOM     73  C   UNL A   1      44.608  29.796  29.887  1.00  0.00     0.034 A 
BRANCH  60  74
ATOM     74  C   UNL A   1      42.204  29.308  34.662  1.00  0.00     0.023 A 
ATOM     75  C   UNL A   1      42.736  29.988  35.784  1.00  0.00     0.012 A 
ATOM     76  C   UNL A   1      42.306  27.898  34.666  1.00  0.00     0.148 A 
ATOM     77  C   UNL A   1      43.393  29.307  36.814  1.00  0.00     0.002 A 
ATOM     78  C   UNL A   1      42.888  27.220  35.732  1.00  0.00     0.091 A 
ATOM     79  F   UNL A   1      41.971  27.197  33.582  1.00  0.00    -0.205 F 
ATOM     80  C   UNL A   1      43.464  27.920  36.792  1.00  0.00     0.022 A 
BRANCH  78  81
ATOM     81  S   UNL A   1      42.962  25.424  35.774  1.00  0.00     0.127 S 
ATOM     82  O   UNL A   1      43.577  25.189  37.077  1.00  0.00    -0.237 OA
ATOM     83  O   UNL A   1      41.547  25.066  35.679  1.00  0.00    -0.237 OA
ATOM     84  O   UNL A   1      43.753  25.039  34.613  1.00  0.00    -0.744 OA
ENDBRANCH  78  81
ENDBRANCH  60  74
BRANCH  61  85
ATOM     85  C   UNL A   1      43.069  24.548  27.721  1.00  0.00     0.023 A 
ATOM     86  C   UNL A   1      42.020  23.664  28.044  1.00  0.00     0.012 A 
ATOM     87  C   UNL A   1      44.035  24.130  26.775  1.00  0.00     0.148 A 
ATOM     88  C   UNL A   1      41.899  22.426  27.406  1.00  0.00     0.002 A 
ATOM     89  C   UNL A   1      43.908  22.898  26.141  1.00  0.00     0.091 A 
ATOM     90  F   UNL A   1      45.019  24.973  26.432  1.00  0.00    -0.205 F 
ATOM     91  C   UNL A   1      42.832  22.051  26.446  1.00  0.00     0.022 A 
BRANCH  89  92
ATOM     92  S   UNL A   1      45.021  22.329  24.858  1.00  0.00     0.127 S 
ATOM     93  O   UNL A   1      44.904  23.382  23.852  1.00  0.00    -0.237 OA
ATOM     94  O   UNL A   1      46.306  22.282  25.545  1.00  0.00    -0.237 OA
ATOM     95  O   UNL A   1      44.544  21.032  24.393  1.00  0.00    -0.744 OA
ENDBRANCH  89  92
ENDBRANCH  61  85
BRANCH  73  96
ATOM     96  C   UNL A   1      44.900  30.486  28.575  1.00  0.00     0.023 A 
ATOM     97  C   UNL A   1      43.886  30.840  27.659  1.00  0.00     0.012 A 
ATOM     98  C   UNL A   1      46.209  30.937  28.341  1.00  0.00     0.148 A 
ATOM     99  C   UNL A   1      44.179  31.607  26.526  1.00  0.00     0.002 A 
ATOM    100  C   UNL A   1      46.488  31.738  27.242  1.00  0.00     0.091 A 
ATOM    101  F   UNL A   1      47.163  30.594  29.221  1.00  0.00    -0.205 F 
ATOM    102  C   UNL A   1      45.478  32.068  26.324  1.00  0.00     0.022 A 
BRANCH 100 103
ATOM    103  S   UNL A   1      48.111  32.464  27.000  1.00  0.00     0.127 S 
ATOM    104  O   UNL A   1      48.339  33.132  28.280  1.00  0.00    -0.237 OA
ATOM    105  O   UNL A   1      48.950  31.289  26.765  1.00  0.00    -0.237 OA
ATOM    106  O   UNL A   1      47.986  33.344  25.844  1.00  0.00    -0.744 OA
ENDBRANCH 100 103
ENDBRANCH  73  96
ENDBRANCH  47  48
ENDBRANCH  39  42
ENDBRANCH   1  38
TORSDOF 18
ENDMDL
MODEL 2
REMARK VINA RESULT:     -11.9      5.284      9.094
REMARK SMILES COc1cc([C@@H]2CC(NCCCNC(=O)c3ccc(-c4c5nc(c(-c6cccc(S(=O)(=O)[O-])c6F)c6ccc([nH]6)c(-c6cccc(S(=O)(=O)[O-])c6F)c6nc(c(-c7cccc(S(=O)(=O)[O-])c7F)c7ccc4[nH]7)C=C6)C=C5)cc3)=[NH+]c3c(C(=O)[O-])cn(-c4ccc(Cl)cc4)c32)cc(OC)c1O
REMARK SMILES IDX 12 1 11 2 10 3 9 4 6 5 7 6 94 7 8 8 80 9 86 10 79 11 81 12
REMARK SMILES IDX 85 13 5 16 3 17 4 18 99 19 96 20 95 21 2 22 1 23 100 24
REMARK SMILES IDX 97 26 98 27 87 28 88 29 93 30 89 31 92 32 90 33 91 34 82 35
REMARK SMILES IDX 83 36 84 37 13 38 14 39 15 41 16 42 17 43 78 44 18 45 77 46
REMARK SMILES IDX 19 47 20 48 21 49 71 50 22 51 76 52 70 53 72 54 23 55 75 56
REMARK SMILES IDX 69 57 68 58 24 60 56 61 36 62 55 63 37 64 40 65 54 66 73 67
REMARK SMILES IDX 38 68 39 69 53 71 74 72 41 73 25 74 26 75 34 76 27 77 29 78
REMARK SMILES IDX 35 79 28 80 30 81 31 82 32 83 33 84 57 85 58 86 66 87 59 88
REMARK SMILES IDX 61 89 67 90 60 91 62 92 63 93 64 94 65 95 42 96 43 97 51 98
REMARK SMILES IDX 44 99 46 100 52 101 45 102 47 103 48 104 49 105 50 106
REMARK H PARENT 9 14 79 15 100 25 13 40 72 59 40 70
REMARK Flexibility Score: inf
ROOT
ATOM      1  C   UNL A   1      34.486  31.822  28.851  1.00  0.00     0.120 C 
ENDROOT
BRANCH   1   2
ATOM      2  C   UNL A   1      34.592  32.919  27.807  1.00  0.00     0.067 C 
BRANCH   2   3
ATOM      3  C   UNL A   1      35.434  34.102  28.283  1.00  0.00     0.235 C 
BRANCH   3   4
ATOM      4  N   UNL A   1      36.850  33.773  28.396  1.00  0.00    -0.278 N 
ATOM      5  C   UNL A   1      39.773  33.389  30.896  1.00  0.00     0.083 C 
ATOM      6  C   UNL A   1      38.922  33.173  29.624  1.00  0.00     0.142 C 
ATOM      7  C   UNL A   1      38.935  33.982  31.987  1.00  0.00     0.078 A 
ATOM      8  C   UNL A   1      37.553  33.865  29.583  1.00  0.00     0.248 C 
ATOM      9  C   UNL A   1      37.650  34.425  31.804  1.00  0.00     0.155 A 
ATOM     10  N   UNL A   1      39.180  34.021  33.352  1.00  0.00    -0.315 N 
ATOM     11  N   UNL A   1      36.984  34.456  30.593  1.00  0.00    -0.243 N 
ATOM     12  C   UNL A   1      37.056  34.752  33.037  1.00  0.00     0.062 A 
ATOM     13  C   UNL A   1      38.023  34.449  33.981  1.00  0.00     0.106 A 
ATOM     14  H   UNL A   1      37.328  33.472  27.589  1.00  0.00     0.304 HD
ATOM     15  H   UNL A   1      36.116  34.908  30.497  1.00  0.00     0.312 HD
BRANCH   5  16
ATOM     16  C   UNL A   1      41.034  34.166  30.572  1.00  0.00    -0.031 A 
ATOM     17  C   UNL A   1      42.228  35.684  29.055  1.00  0.00     0.164 A 
ATOM     18  C   UNL A   1      41.058  35.024  29.459  1.00  0.00     0.055 A 
ATOM     19  C   UNL A   1      43.391  35.512  29.819  1.00  0.00     0.200 A 
ATOM     20  C   UNL A   1      43.385  34.690  30.960  1.00  0.00     0.164 A 
ATOM     21  C   UNL A   1      42.206  34.023  31.320  1.00  0.00     0.055 A 
BRANCH  17  22
ATOM     22  O   UNL A   1      42.058  36.335  27.864  1.00  0.00    -0.493 OA
ATOM     23  C   UNL A   1      42.630  35.847  26.659  1.00  0.00     0.278 C 
ENDBRANCH  17  22
BRANCH  19  24
ATOM     24  O   UNL A   1      44.549  36.126  29.445  1.00  0.00    -0.502 OA
ATOM     25  H   UNL A   1      44.815  36.921  29.866  1.00  0.00     0.293 HD
ENDBRANCH  19  24
BRANCH  20  26
ATOM     26  O   UNL A   1      44.431  34.377  31.789  1.00  0.00    -0.493 OA
ATOM     27  C   UNL A   1      44.914  35.378  32.677  1.00  0.00     0.278 C 
ENDBRANCH  20  26
ENDBRANCH   5  16
BRANCH  10  28
ATOM     28  C   UNL A   1      40.343  33.646  34.068  1.00  0.00     0.046 A 
ATOM     29  C   UNL A   1      41.255  34.612  34.496  1.00  0.00     0.028 A 
ATOM     30  C   UNL A   1      40.529  32.304  34.424  1.00  0.00     0.028 A 
ATOM     31  C   UNL A   1      42.397  34.231  35.207  1.00  0.00     0.022 A 
ATOM     32  C   UNL A   1      41.668  31.926  35.140  1.00  0.00     0.022 A 
ATOM     33  C   UNL A   1      42.603  32.890  35.519  1.00  0.00     0.041 A 
ATOM     34  Cl  UNL A   1      44.006  32.416  36.396  1.00  0.00    -0.084 Cl
ENDBRANCH  10  28
BRANCH  12  35
ATOM     35  C   UNL A   1      35.732  35.257  33.354  1.00  0.00     0.077 C 
ATOM     36  O   UNL A   1      35.111  36.064  32.688  1.00  0.00    -0.545 OA
ATOM     37  O   UNL A   1      35.180  34.778  34.495  1.00  0.00    -0.545 OA
ENDBRANCH  12  35
ENDBRANCH   3   4
ENDBRANCH   2   3
ENDBRANCH   1   2
BRANCH   1  38
ATOM     38  N   UNL A   1      34.437  32.333  30.230  1.00  0.00    -0.352 N 
ATOM     39  C   UNL A   1      35.075  31.842  31.356  1.00  0.00     0.251 C 
ATOM     40  H   UNL A   1      33.876  33.129  30.370  1.00  0.00     0.163 HD
ATOM     41  O   UNL A   1      34.703  32.169  32.477  1.00  0.00    -0.269 OA
BRANCH  39  42
ATOM     42  C   UNL A   1      36.209  30.918  31.183  1.00  0.00     0.039 A 
ATOM     43  C   UNL A   1      36.373  30.159  30.020  1.00  0.00     0.014 A 
ATOM     44  C   UNL A   1      37.152  30.861  32.201  1.00  0.00     0.014 A 
ATOM     45  C   UNL A   1      37.542  29.417  29.868  1.00  0.00     0.010 A 
ATOM     46  C   UNL A   1      38.382  30.317  31.957  1.00  0.00     0.010 A 
ATOM     47  C   UNL A   1      38.556  29.525  30.835  1.00  0.00    -0.014 A 
BRANCH  47  48
ATOM     48  C   UNL A   1      39.849  28.881  30.655  1.00  0.00     0.031 A 
ATOM     49  C   UNL A   1      40.552  28.554  31.920  1.00  0.00     0.074 A 
ATOM     50  C   UNL A   1      40.295  28.436  29.460  1.00  0.00     0.049 A 
ATOM     51  N   UNL A   1      41.572  29.168  32.421  1.00  0.00    -0.248 NA
ATOM     52  C   UNL A   1      39.965  27.544  32.811  1.00  0.00     0.031 C 
ATOM     53  C   UNL A   1      39.584  28.387  28.174  1.00  0.00     0.029 A 
ATOM     54  N   UNL A   1      41.460  27.798  29.174  1.00  0.00    -0.354 N 
ATOM     55  C   UNL A   1      41.917  28.447  33.560  1.00  0.00     0.074 A 
ATOM     56  C   UNL A   1      40.777  27.623  33.868  1.00  0.00     0.031 C 
ATOM     57  C   UNL A   1      40.218  27.537  27.336  1.00  0.00     0.029 A 
ATOM     58  C   UNL A   1      41.470  27.145  27.946  1.00  0.00     0.049 A 
ATOM     59  H   UNL A   1      42.232  27.800  29.784  1.00  0.00     0.167 HD
ATOM     60  C   UNL A   1      43.211  28.386  33.982  1.00  0.00     0.034 A 
ATOM     61  C   UNL A   1      42.440  26.324  27.481  1.00  0.00     0.034 A 
ATOM     62  C   UNL A   1      44.020  29.385  33.322  1.00  0.00     0.049 A 
ATOM     63  C   UNL A   1      43.675  26.661  28.228  1.00  0.00     0.074 A 
ATOM     64  C   UNL A   1      43.974  30.760  33.200  1.00  0.00     0.029 A 
ATOM     65  N   UNL A   1      44.835  28.946  32.306  1.00  0.00    -0.354 N 
ATOM     66  N   UNL A   1      44.287  27.807  28.126  1.00  0.00    -0.248 NA
ATOM     67  C   UNL A   1      43.991  25.884  29.413  1.00  0.00     0.031 C 
ATOM     68  C   UNL A   1      44.352  31.019  31.849  1.00  0.00     0.029 A 
ATOM     69  C   UNL A   1      44.683  29.802  31.249  1.00  0.00     0.049 A 
ATOM     70  H   UNL A   1      45.423  28.157  32.334  1.00  0.00     0.167 HD
ATOM     71  C   UNL A   1      44.681  28.102  29.425  1.00  0.00     0.074 A 
ATOM     72  C   UNL A   1      44.580  26.833  30.145  1.00  0.00     0.031 C 
ATOM     73  C   UNL A   1      44.770  29.394  29.862  1.00  0.00     0.034 A 
BRANCH  60  74
ATOM     74  C   UNL A   1      43.849  27.202  34.675  1.00  0.00     0.023 A 
ATOM     75  C   UNL A   1      43.864  25.976  33.969  1.00  0.00     0.012 A 
ATOM     76  C   UNL A   1      44.172  27.147  36.050  1.00  0.00     0.148 A 
ATOM     77  C   UNL A   1      44.118  24.759  34.610  1.00  0.00     0.002 A 
ATOM     78  C   UNL A   1      44.503  25.945  36.666  1.00  0.00     0.091 A 
ATOM     79  F   UNL A   1      44.030  28.229  36.818  1.00  0.00    -0.205 F 
ATOM     80  C   UNL A   1      44.444  24.743  35.960  1.00  0.00     0.022 A 
BRANCH  78  81
ATOM     81  S   UNL A   1      44.979  25.878  38.399  1.00  0.00     0.127 S 
ATOM     82  O   UNL A   1      43.791  26.426  39.047  1.00  0.00    -0.237 OA
ATOM     83  O   UNL A   1      45.188  24.443  38.594  1.00  0.00    -0.237 OA
ATOM     84  O   UNL A   1      46.193  26.677  38.503  1.00  0.00    -0.744 OA
ENDBRANCH  78  81
ENDBRANCH  60  74
BRANCH  61  85
ATOM     85  C   UNL A   1      42.351  25.131  26.610  1.00  0.00     0.023 A 
ATOM     86  C   UNL A   1      43.364  24.913  25.654  1.00  0.00     0.012 A 
ATOM     87  C   UNL A   1      41.471  24.065  26.912  1.00  0.00     0.148 A 
ATOM     88  C   UNL A   1      43.535  23.660  25.058  1.00  0.00     0.002 A 
ATOM     89  C   UNL A   1      41.649  22.818  26.319  1.00  0.00     0.091 A 
ATOM     90  F   UNL A   1      40.525  24.245  27.844  1.00  0.00    -0.205 F 
ATOM     91  C   UNL A   1      42.689  22.611  25.402  1.00  0.00     0.022 A 
BRANCH  89  92
ATOM     92  S   UNL A   1      40.651  21.385  26.717  1.00  0.00     0.127 S 
ATOM     93  O   UNL A   1      41.339  20.314  25.998  1.00  0.00    -0.237 OA
ATOM     94  O   UNL A   1      40.759  21.311  28.170  1.00  0.00    -0.237 OA
ATOM     95  O   UNL A   1      39.299  21.629  26.230  1.00  0.00    -0.744 OA
ENDBRANCH  89  92
ENDBRANCH  61  85
BRANCH  73  96
ATOM     96  C   UNL A   1      44.703  30.501  28.836  1.00  0.00     0.023 A 
ATOM     97  C   UNL A   1      43.512  31.202  28.547  1.00  0.00     0.012 A 
ATOM     98  C   UNL A   1      45.908  30.957  28.276  1.00  0.00     0.148 A 
ATOM     99  C   UNL A   1      43.523  32.316  27.701  1.00  0.00     0.002 A 
ATOM    100  C   UNL A   1      45.923  32.091  27.475  1.00  0.00     0.091 A 
ATOM    101  F   UNL A   1      47.033  30.282  28.560  1.00  0.00    -0.205 F 
ATOM    102  C   UNL A   1      44.731  32.769  27.175  1.00  0.00     0.022 A 
BRANCH 100 103
ATOM    103  S   UNL A   1      47.462  32.793  26.876  1.00  0.00     0.127 S 
ATOM    104  O   UNL A   1      48.105  31.635  26.258  1.00  0.00    -0.237 OA
ATOM    105  O   UNL A   1      46.998  33.812  25.933  1.00  0.00    -0.237 OA
ATOM    106  O   UNL A   1      48.136  33.335  28.050  1.00  0.00    -0.744 OA
ENDBRANCH 100 103
ENDBRANCH  73  96
ENDBRANCH  47  48
ENDBRANCH  39  42
ENDBRANCH   1  38
TORSDOF 18
ENDMDL
MODEL 3
REMARK VINA RESULT:     -11.8      5.422     10.325
REMARK SMILES COc1cc([C@@H]2CC(NCCCNC(=O)c3ccc(-c4c5nc(c(-c6cccc(S(=O)(=O)[O-])c6F)c6ccc([nH]6)c(-c6cccc(S(=O)(=O)[O-])c6F)c6nc(c(-c7cccc(S(=O)(=O)[O-])c7F)c7ccc4[nH]7)C=C6)C=C5)cc3)=[NH+]c3c(C(=O)[O-])cn(-c4ccc(Cl)cc4)c32)cc(OC)c1O
REMARK SMILES IDX 12 1 11 2 10 3 9 4 6 5 7 6 94 7 8 8 80 9 86 10 79 11 81 12
REMARK SMILES IDX 85 13 5 16 3 17 4 18 99 19 96 20 95 21 2 22 1 23 100 24
REMARK SMILES IDX 97 26 98 27 87 28 88 29 93 30 89 31 92 32 90 33 91 34 82 35
REMARK SMILES IDX 83 36 84 37 13 38 14 39 15 41 16 42 17 43 78 44 18 45 77 46
REMARK SMILES IDX 19 47 20 48 21 49 71 50 22 51 76 52 70 53 72 54 23 55 75 56
REMARK SMILES IDX 69 57 68 58 24 60 56 61 36 62 55 63 37 64 40 65 54 66 73 67
REMARK SMILES IDX 38 68 39 69 53 71 74 72 41 73 25 74 26 75 34 76 27 77 29 78
REMARK SMILES IDX 35 79 28 80 30 81 31 82 32 83 33 84 57 85 58 86 66 87 59 88
REMARK SMILES IDX 61 89 67 90 60 91 62 92 63 93 64 94 65 95 42 96 43 97 51 98
REMARK SMILES IDX 44 99 46 100 52 101 45 102 47 103 48 104 49 105 50 106
REMARK H PARENT 9 14 79 15 100 25 13 40 72 59 40 70
REMARK Flexibility Score: inf
ROOT
ATOM      1  C   UNL A   1      46.108  32.722  27.996  1.00  0.00     0.120 C 
ENDROOT
BRANCH   1   2
ATOM      2  C   UNL A   1      45.296  32.229  26.812  1.00  0.00     0.067 C 
BRANCH   2   3
ATOM      3  C   UNL A   1      44.142  31.320  27.230  1.00  0.00     0.235 C 
BRANCH   3   4
ATOM      4  N   UNL A   1      43.971  30.182  26.335  1.00  0.00    -0.278 N 
ATOM      5  C   UNL A   1      43.020  26.438  26.195  1.00  0.00     0.083 C 
ATOM      6  C   UNL A   1      43.204  27.900  25.728  1.00  0.00     0.142 C 
ATOM      7  C   UNL A   1      43.043  26.363  27.691  1.00  0.00     0.078 A 
ATOM      8  C   UNL A   1      43.686  28.906  26.784  1.00  0.00     0.248 C 
ATOM      9  C   UNL A   1      43.361  27.423  28.501  1.00  0.00     0.155 A 
ATOM     10  N   UNL A   1      42.585  25.349  28.521  1.00  0.00    -0.315 N 
ATOM     11  N   UNL A   1      43.771  28.666  28.059  1.00  0.00    -0.243 N 
ATOM     12  C   UNL A   1      43.115  27.108  29.851  1.00  0.00     0.062 A 
ATOM     13  C   UNL A   1      42.595  25.825  29.821  1.00  0.00     0.106 A 
ATOM     14  H   UNL A   1      44.062  30.330  25.365  1.00  0.00     0.304 HD
ATOM     15  H   UNL A   1      44.116  29.344  28.684  1.00  0.00     0.312 HD
BRANCH   5  16
ATOM     16  C   UNL A   1      44.009  25.524  25.499  1.00  0.00    -0.031 A 
ATOM     17  C   UNL A   1      44.480  23.350  24.459  1.00  0.00     0.164 A 
ATOM     18  C   UNL A   1      43.585  24.275  25.016  1.00  0.00     0.055 A 
ATOM     19  C   UNL A   1      45.829  23.712  24.342  1.00  0.00     0.200 A 
ATOM     20  C   UNL A   1      46.274  24.973  24.781  1.00  0.00     0.164 A 
ATOM     21  C   UNL A   1      45.358  25.862  25.359  1.00  0.00     0.055 A 
BRANCH  17  22
ATOM     22  O   UNL A   1      43.877  22.149  24.205  1.00  0.00    -0.493 OA
ATOM     23  C   UNL A   1      44.180  20.987  24.966  1.00  0.00     0.278 C 
ENDBRANCH  17  22
BRANCH  19  24
ATOM     24  O   UNL A   1      46.729  22.832  23.820  1.00  0.00    -0.502 OA
ATOM     25  H   UNL A   1      46.986  22.077  24.313  1.00  0.00     0.293 HD
ENDBRANCH  19  24
BRANCH  20  26
ATOM     26  O   UNL A   1      47.552  25.470  24.784  1.00  0.00    -0.493 OA
ATOM     27  C   UNL A   1      47.819  26.645  25.541  1.00  0.00     0.278 C 
ENDBRANCH  20  26
ENDBRANCH   5  16
BRANCH  10  28
ATOM     28  C   UNL A   1      42.110  24.058  28.186  1.00  0.00     0.046 A 
ATOM     29  C   UNL A   1      40.862  23.893  27.584  1.00  0.00     0.028 A 
ATOM     30  C   UNL A   1      42.943  22.948  28.381  1.00  0.00     0.028 A 
ATOM     31  C   UNL A   1      40.406  22.614  27.252  1.00  0.00     0.022 A 
ATOM     32  C   UNL A   1      42.488  21.670  28.043  1.00  0.00     0.022 A 
ATOM     33  C   UNL A   1      41.217  21.508  27.491  1.00  0.00     0.041 A 
ATOM     34  Cl  UNL A   1      40.662  19.930  27.083  1.00  0.00    -0.084 Cl
ENDBRANCH  10  28
BRANCH  12  35
ATOM     35  C   UNL A   1      43.295  27.892  31.060  1.00  0.00     0.077 C 
ATOM     36  O   UNL A   1      43.836  28.979  31.117  1.00  0.00    -0.545 OA
ATOM     37  O   UNL A   1      42.818  27.330  32.198  1.00  0.00    -0.545 OA
ENDBRANCH  12  35
ENDBRANCH   3   4
ENDBRANCH   2   3
ENDBRANCH   1   2
BRANCH   1  38
ATOM     38  N   UNL A   1      46.479  34.142  27.899  1.00  0.00    -0.352 N 
ATOM     39  C   UNL A   1      45.789  35.248  28.365  1.00  0.00     0.251 C 
ATOM     40  H   UNL A   1      47.329  34.331  27.441  1.00  0.00     0.163 HD
ATOM     41  O   UNL A   1      46.052  36.370  27.946  1.00  0.00    -0.269 OA
BRANCH  39  42
ATOM     42  C   UNL A   1      44.733  35.053  29.373  1.00  0.00     0.039 A 
ATOM     43  C   UNL A   1      43.462  35.617  29.230  1.00  0.00     0.014 A 
ATOM     44  C   UNL A   1      45.025  34.238  30.459  1.00  0.00     0.014 A 
ATOM     45  C   UNL A   1      42.473  35.273  30.148  1.00  0.00     0.010 A 
ATOM     46  C   UNL A   1      44.008  33.732  31.220  1.00  0.00     0.010 A 
ATOM     47  C   UNL A   1      42.751  34.305  31.127  1.00  0.00    -0.014 A 
BRANCH  47  48
ATOM     48  C   UNL A   1      41.714  33.809  32.022  1.00  0.00     0.031 A 
ATOM     49  C   UNL A   1      42.126  33.711  33.443  1.00  0.00     0.074 A 
ATOM     50  C   UNL A   1      40.430  33.636  31.642  1.00  0.00     0.049 A 
ATOM     51  N   UNL A   1      42.402  32.633  34.098  1.00  0.00    -0.248 NA
ATOM     52  C   UNL A   1      42.426  34.949  34.176  1.00  0.00     0.031 C 
ATOM     53  C   UNL A   1      39.791  33.997  30.367  1.00  0.00     0.029 A 
ATOM     54  N   UNL A   1      39.375  33.212  32.387  1.00  0.00    -0.354 N 
ATOM     55  C   UNL A   1      42.651  33.045  35.404  1.00  0.00     0.074 A 
ATOM     56  C   UNL A   1      42.877  34.465  35.336  1.00  0.00     0.031 C 
ATOM     57  C   UNL A   1      38.449  34.020  30.521  1.00  0.00     0.029 A 
ATOM     58  C   UNL A   1      38.131  33.487  31.829  1.00  0.00     0.049 A 
ATOM     59  H   UNL A   1      39.483  32.748  33.247  1.00  0.00     0.167 HD
ATOM     60  C   UNL A   1      42.372  32.228  36.457  1.00  0.00     0.034 A 
ATOM     61  C   UNL A   1      36.928  33.304  32.419  1.00  0.00     0.034 A 
ATOM     62  C   UNL A   1      42.136  30.872  36.017  1.00  0.00     0.049 A 
ATOM     63  C   UNL A   1      37.129  32.298  33.489  1.00  0.00     0.074 A 
ATOM     64  C   UNL A   1      42.854  29.937  35.297  1.00  0.00     0.029 A 
ATOM     65  N   UNL A   1      40.827  30.458  35.968  1.00  0.00    -0.354 N 
ATOM     66  N   UNL A   1      37.455  31.058  33.258  1.00  0.00    -0.248 NA
ATOM     67  C   UNL A   1      37.391  32.776  34.835  1.00  0.00     0.031 C 
ATOM     68  C   UNL A   1      41.889  29.303  34.458  1.00  0.00     0.029 A 
ATOM     69  C   UNL A   1      40.632  29.828  34.768  1.00  0.00     0.049 A 
ATOM     70  H   UNL A   1      40.149  30.591  36.670  1.00  0.00     0.167 HD
ATOM     71  C   UNL A   1      38.375  30.754  34.253  1.00  0.00     0.074 A 
ATOM     72  C   UNL A   1      38.202  31.802  35.258  1.00  0.00     0.031 C 
ATOM     73  C   UNL A   1      39.383  29.857  34.035  1.00  0.00     0.034 A 
BRANCH  60  74
ATOM     74  C   UNL A   1      41.918  32.690  37.825  1.00  0.00     0.023 A 
ATOM     75  C   UNL A   1      42.634  32.195  38.941  1.00  0.00     0.012 A 
ATOM     76  C   UNL A   1      40.691  33.338  38.095  1.00  0.00     0.148 A 
ATOM     77  C   UNL A   1      42.124  32.278  40.240  1.00  0.00     0.002 A 
ATOM     78  C   UNL A   1      40.227  33.490  39.397  1.00  0.00     0.091 A 
ATOM     79  F   UNL A   1      39.884  33.694  37.094  1.00  0.00    -0.205 F 
ATOM     80  C   UNL A   1      40.921  32.932  40.471  1.00  0.00     0.022 A 
BRANCH  78  81
ATOM     81  S   UNL A   1      38.699  34.370  39.752  1.00  0.00     0.127 S 
ATOM     82  O   UNL A   1      38.936  35.644  39.081  1.00  0.00    -0.237 OA
ATOM     83  O   UNL A   1      37.704  33.507  39.116  1.00  0.00    -0.237 OA
ATOM     84  O   UNL A   1      38.604  34.418  41.205  1.00  0.00    -0.744 OA
ENDBRANCH  78  81
ENDBRANCH  60  74
BRANCH  61  85
ATOM     85  C   UNL A   1      35.669  34.073  32.292  1.00  0.00     0.023 A 
ATOM     86  C   UNL A   1      35.302  34.950  33.333  1.00  0.00     0.012 A 
ATOM     87  C   UNL A   1      35.001  34.187  31.050  1.00  0.00     0.148 A 
ATOM     88  C   UNL A   1      34.343  35.946  33.132  1.00  0.00     0.002 A 
ATOM     89  C   UNL A   1      34.049  35.183  30.854  1.00  0.00     0.091 A 
ATOM     90  F   UNL A   1      35.362  33.383  30.040  1.00  0.00    -0.205 F 
ATOM     91  C   UNL A   1      33.729  36.072  31.890  1.00  0.00     0.022 A 
BRANCH  89  92
ATOM     92  S   UNL A   1      33.228  35.469  29.288  1.00  0.00     0.127 S 
ATOM     93  O   UNL A   1      32.579  34.184  29.035  1.00  0.00    -0.237 OA
ATOM     94  O   UNL A   1      32.316  36.563  29.598  1.00  0.00    -0.237 OA
ATOM     95  O   UNL A   1      34.249  35.802  28.301  1.00  0.00    -0.744 OA
ENDBRANCH  89  92
ENDBRANCH  61  85
BRANCH  73  96
ATOM     96  C   UNL A   1      39.318  28.997  32.795  1.00  0.00     0.023 A 
ATOM     97  C   UNL A   1      38.619  27.772  32.754  1.00  0.00     0.012 A 
ATOM     98  C   UNL A   1      39.833  29.522  31.598  1.00  0.00     0.148 A 
ATOM     99  C   UNL A   1      38.458  27.078  31.549  1.00  0.00     0.002 A 
ATOM    100  C   UNL A   1      39.631  28.855  30.397  1.00  0.00     0.091 A 
ATOM    101  F   UNL A   1      40.495  30.688  31.652  1.00  0.00    -0.205 F 
ATOM    102  C   UNL A   1      38.953  27.627  30.368  1.00  0.00     0.022 A 
BRANCH 100 103
ATOM    103  S   UNL A   1      40.133  29.574  28.832  1.00  0.00     0.127 S 
ATOM    104  O   UNL A   1      40.122  28.413  27.945  1.00  0.00    -0.237 OA
ATOM    105  O   UNL A   1      39.071  30.549  28.578  1.00  0.00    -0.237 OA
ATOM    106  O   UNL A   1      41.442  30.172  29.069  1.00  0.00    -0.744 OA
ENDBRANCH 100 103
ENDBRANCH  73  96
ENDBRANCH  47  48
ENDBRANCH  39  42
ENDBRANCH   1  38
TORSDOF 18
ENDMDL
