MODEL 1
REMARK VINA RESULT:     -12.2      0.000      0.000
REMARK SMILES COc1cccc(/C=C(/C#N)c2ccc(Br)cc2)c1O[C@@H](C)C(=O)NCCCNC(=O)c1ccc(-c2c3nc(c(-c4cccc(S(=O)(=O)[O-])c4F)c4ccc([nH]4)c(-c4cccc(S(=O)(=O)[O-])c4F)c4nc(c(-c5cccc(S(=O)(=O)[O-])c5F)c5ccc2[nH]5)C=C4)C=C3)cc1
REMARK SMILES IDX 26 1 25 2 23 3 24 4 21 6 22 7 20 8 19 9 3 10 4 11 5 12 7 13
REMARK SMILES IDX 6 14 2 15 1 16 8 17 9 18 10 19 11 20 12 21 13 22 18 23 14 24
REMARK SMILES IDX 17 25 15 26 16 27 27 28 28 29 29 30 30 31 31 33 32 34 33 35
REMARK SMILES IDX 94 36 34 37 93 38 35 39 36 40 37 41 87 42 38 43 92 44 86 45
REMARK SMILES IDX 88 46 39 47 91 48 85 49 84 50 40 52 72 53 52 54 71 55 53 56
REMARK SMILES IDX 56 57 70 58 89 59 54 60 55 61 69 63 90 64 57 65 41 66 42 67
REMARK SMILES IDX 50 68 43 69 45 70 51 71 44 72 46 73 47 74 48 75 49 76 73 77
REMARK SMILES IDX 74 78 82 79 75 80 77 81 83 82 76 83 78 84 79 85 80 86 81 87
REMARK SMILES IDX 58 88 59 89 67 90 60 91 62 92 68 93 61 94 63 95 64 96 65 97
REMARK SMILES IDX 66 98
REMARK H PARENT 25 5 29 32 88 51 56 62
REMARK Flexibility Score: inf
ROOT
ATOM      1  C   UNL A   1      31.607  30.253  25.866  1.00  0.00     0.118 C 
ENDROOT
BRANCH   1   2
ATOM      2  N   UNL A   1      31.009  30.375  24.555  1.00  0.00    -0.353 N 
ATOM      3  C   UNL A   1      30.104  29.612  23.893  1.00  0.00     0.260 C 
ATOM      4  O   UNL A   1      29.297  30.279  23.221  1.00  0.00    -0.271 OA
ATOM      5  H   UNL A   1      31.318  31.159  24.046  1.00  0.00     0.163 HD
BRANCH   3   6
ATOM      6  C   UNL A   1      30.041  28.028  23.780  1.00  0.00     0.259 C 
ATOM      7  C   UNL A   1      28.618  27.573  23.391  1.00  0.00     0.064 C 
BRANCH   6   8
ATOM      8  O   UNL A   1      30.719  26.918  24.324  1.00  0.00    -0.476 OA
BRANCH   8   9
ATOM      9  C   UNL A   1      31.598  26.193  23.582  1.00  0.00     0.169 A 
ATOM     10  C   UNL A   1      32.647  26.764  22.840  1.00  0.00     0.161 A 
ATOM     11  C   UNL A   1      33.470  25.947  22.064  1.00  0.00     0.050 A 
ATOM     12  C   UNL A   1      33.218  24.579  21.991  1.00  0.00     0.005 A 
ATOM     13  C   UNL A   1      31.478  24.786  23.679  1.00  0.00     0.022 A 
ATOM     14  C   UNL A   1      32.212  24.010  22.775  1.00  0.00     0.012 A 
BRANCH  10  15
ATOM     15  O   UNL A   1      32.942  28.088  23.018  1.00  0.00    -0.493 OA
ATOM     16  C   UNL A   1      34.134  28.395  23.736  1.00  0.00     0.278 C 
ENDBRANCH  10  15
BRANCH  13  17
ATOM     17  C   UNL A   1      30.665  24.185  24.782  1.00  0.00     0.032 C 
ATOM     18  C   UNL A   1      31.038  23.333  25.772  1.00  0.00     0.060 C 
BRANCH  18  19
ATOM     19  C   UNL A   1      30.115  23.064  26.836  1.00  0.00     0.100 C 
ATOM     20  N   UNL A   1      29.428  22.854  27.748  1.00  0.00    -0.192 NA
ENDBRANCH  18  19
BRANCH  18  21
ATOM     21  C   UNL A   1      32.359  22.677  25.816  1.00  0.00    -0.008 A 
ATOM     22  C   UNL A   1      32.516  21.409  25.240  1.00  0.00     0.010 A 
ATOM     23  C   UNL A   1      33.492  23.361  26.284  1.00  0.00     0.010 A 
ATOM     24  C   UNL A   1      33.795  20.886  25.031  1.00  0.00     0.016 A 
ATOM     25  C   UNL A   1      34.769  22.838  26.065  1.00  0.00     0.016 A 
ATOM     26  C   UNL A   1      34.916  21.611  25.422  1.00  0.00     0.018 A 
ATOM     27  Br  UNL A   1      36.656  20.974  25.051  1.00  0.00    -0.051 Br
ENDBRANCH  18  21
ENDBRANCH  13  17
ENDBRANCH   8   9
ENDBRANCH   6   8
ENDBRANCH   3   6
ENDBRANCH   1   2
BRANCH   1  28
ATOM     28  C   UNL A   1      31.423  31.465  26.758  1.00  0.00     0.042 C 
BRANCH  28  29
ATOM     29  C   UNL A   1      32.716  32.183  27.115  1.00  0.00     0.118 C 
BRANCH  29  30
ATOM     30  N   UNL A   1      32.516  33.598  27.446  1.00  0.00    -0.352 N 
ATOM     31  C   UNL A   1      33.094  34.405  28.403  1.00  0.00     0.251 C 
ATOM     32  H   UNL A   1      31.849  34.054  26.884  1.00  0.00     0.163 HD
ATOM     33  O   UNL A   1      32.628  35.526  28.594  1.00  0.00    -0.269 OA
BRANCH  31  34
ATOM     34  C   UNL A   1      34.247  33.941  29.212  1.00  0.00     0.039 A 
ATOM     35  C   UNL A   1      34.059  32.958  30.191  1.00  0.00     0.014 A 
ATOM     36  C   UNL A   1      35.517  34.483  29.027  1.00  0.00     0.014 A 
ATOM     37  C   UNL A   1      35.156  32.465  30.910  1.00  0.00     0.010 A 
ATOM     38  C   UNL A   1      36.619  33.898  29.636  1.00  0.00     0.010 A 
ATOM     39  C   UNL A   1      36.454  32.896  30.603  1.00  0.00    -0.014 A 
BRANCH  39  40
ATOM     40  C   UNL A   1      37.665  32.355  31.277  1.00  0.00     0.031 A 
ATOM     41  C   UNL A   1      38.442  31.235  30.629  1.00  0.00     0.074 A 
ATOM     42  C   UNL A   1      37.992  32.770  32.518  1.00  0.00     0.049 A 
ATOM     43  N   UNL A   1      39.425  30.525  31.116  1.00  0.00    -0.248 NA
ATOM     44  C   UNL A   1      38.032  30.828  29.271  1.00  0.00     0.031 C 
ATOM     45  C   UNL A   1      37.282  33.795  33.287  1.00  0.00     0.029 A 
ATOM     46  N   UNL A   1      38.986  32.352  33.371  1.00  0.00    -0.354 N 
ATOM     47  C   UNL A   1      39.703  29.554  30.160  1.00  0.00     0.074 A 
ATOM     48  C   UNL A   1      38.766  29.745  29.076  1.00  0.00     0.031 C 
ATOM     49  C   UNL A   1      37.865  33.926  34.488  1.00  0.00     0.029 A 
ATOM     50  C   UNL A   1      38.954  32.968  34.601  1.00  0.00     0.049 A 
ATOM     51  H   UNL A   1      39.658  31.676  33.123  1.00  0.00     0.167 HD
ATOM     52  C   UNL A   1      40.664  28.603  30.172  1.00  0.00     0.034 A 
ATOM     53  C   UNL A   1      39.698  32.774  35.707  1.00  0.00     0.034 A 
ATOM     54  C   UNL A   1      41.633  28.458  31.223  1.00  0.00     0.049 A 
ATOM     55  C   UNL A   1      40.789  31.741  35.673  1.00  0.00     0.074 A 
ATOM     56  C   UNL A   1      42.723  27.609  31.272  1.00  0.00     0.029 A 
ATOM     57  N   UNL A   1      41.619  29.165  32.413  1.00  0.00    -0.354 N 
ATOM     58  N   UNL A   1      41.134  30.940  34.695  1.00  0.00    -0.248 NA
ATOM     59  C   UNL A   1      41.617  31.608  36.881  1.00  0.00     0.031 C 
ATOM     60  C   UNL A   1      43.339  27.766  32.516  1.00  0.00     0.029 A 
ATOM     61  C   UNL A   1      42.667  28.755  33.216  1.00  0.00     0.049 A 
ATOM     62  H   UNL A   1      40.960  29.857  32.653  1.00  0.00     0.167 HD
ATOM     63  C   UNL A   1      42.241  30.239  35.153  1.00  0.00     0.074 A 
ATOM     64  C   UNL A   1      42.520  30.720  36.490  1.00  0.00     0.031 C 
ATOM     65  C   UNL A   1      42.959  29.277  34.525  1.00  0.00     0.034 A 
BRANCH  52  66
ATOM     66  C   UNL A   1      40.743  27.654  29.005  1.00  0.00     0.023 A 
ATOM     67  C   UNL A   1      39.833  26.582  28.899  1.00  0.00     0.012 A 
ATOM     68  C   UNL A   1      41.672  27.877  27.969  1.00  0.00     0.148 A 
ATOM     69  C   UNL A   1      39.868  25.728  27.797  1.00  0.00     0.002 A 
ATOM     70  C   UNL A   1      41.665  27.056  26.850  1.00  0.00     0.091 A 
ATOM     71  F   UNL A   1      42.541  28.889  28.099  1.00  0.00    -0.205 F 
ATOM     72  C   UNL A   1      40.772  25.973  26.767  1.00  0.00     0.022 A 
BRANCH  70  73
ATOM     73  S   UNL A   1      42.729  27.340  25.432  1.00  0.00     0.127 S 
ATOM     74  O   UNL A   1      44.021  27.574  26.077  1.00  0.00    -0.237 OA
ATOM     75  O   UNL A   1      42.627  26.069  24.715  1.00  0.00    -0.237 OA
ATOM     76  O   UNL A   1      42.170  28.485  24.729  1.00  0.00    -0.744 OA
ENDBRANCH  70  73
ENDBRANCH  52  66
BRANCH  53  77
ATOM     77  C   UNL A   1      39.468  33.587  36.936  1.00  0.00     0.023 A 
ATOM     78  C   UNL A   1      40.043  34.868  37.040  1.00  0.00     0.012 A 
ATOM     79  C   UNL A   1      38.709  33.086  38.011  1.00  0.00     0.148 A 
ATOM     80  C   UNL A   1      39.903  35.618  38.209  1.00  0.00     0.002 A 
ATOM     81  C   UNL A   1      38.546  33.852  39.161  1.00  0.00     0.091 A 
ATOM     82  F   UNL A   1      38.145  31.878  37.878  1.00  0.00    -0.205 F 
ATOM     83  C   UNL A   1      39.156  35.111  39.269  1.00  0.00     0.022 A 
BRANCH  81  84
ATOM     84  S   UNL A   1      37.570  33.298  40.564  1.00  0.00     0.127 S 
ATOM     85  O   UNL A   1      38.344  32.156  41.043  1.00  0.00    -0.237 OA
ATOM     86  O   UNL A   1      37.609  34.474  41.431  1.00  0.00    -0.237 OA
ATOM     87  O   UNL A   1      36.259  32.969  40.019  1.00  0.00    -0.744 OA
ENDBRANCH  81  84
ENDBRANCH  53  77
BRANCH  65  88
ATOM     88  C   UNL A   1      44.155  28.716  35.243  1.00  0.00     0.023 A 
ATOM     89  C   UNL A   1      45.435  29.262  35.025  1.00  0.00     0.012 A 
ATOM     90  C   UNL A   1      43.987  27.699  36.202  1.00  0.00     0.148 A 
ATOM     91  C   UNL A   1      46.537  28.777  35.730  1.00  0.00     0.002 A 
ATOM     92  C   UNL A   1      45.077  27.263  36.941  1.00  0.00     0.091 A 
ATOM     93  F   UNL A   1      42.761  27.185  36.380  1.00  0.00    -0.205 F 
ATOM     94  C   UNL A   1      46.355  27.790  36.696  1.00  0.00     0.022 A 
BRANCH  92  95
ATOM     95  S   UNL A   1      44.920  26.075  38.277  1.00  0.00     0.127 S 
ATOM     96  O   UNL A   1      46.252  26.128  38.881  1.00  0.00    -0.237 OA
ATOM     97  O   UNL A   1      43.858  26.665  39.090  1.00  0.00    -0.237 OA
ATOM     98  O   UNL A   1      44.574  24.805  37.654  1.00  0.00    -0.744 OA
ENDBRANCH  92  95
ENDBRANCH  65  88
ENDBRANCH  39  40
ENDBRANCH  31  34
ENDBRANCH  29  30
ENDBRANCH  28  29
ENDBRANCH   1  28
TORSDOF 19
ENDMDL
MODEL 2
REMARK VINA RESULT:     -12.1      6.295     11.199
REMARK SMILES COc1cccc(/C=C(/C#N)c2ccc(Br)cc2)c1O[C@@H](C)C(=O)NCCCNC(=O)c1ccc(-c2c3nc(c(-c4cccc(S(=O)(=O)[O-])c4F)c4ccc([nH]4)c(-c4cccc(S(=O)(=O)[O-])c4F)c4nc(c(-c5cccc(S(=O)(=O)[O-])c5F)c5ccc2[nH]5)C=C4)C=C3)cc1
REMARK SMILES IDX 26 1 25 2 23 3 24 4 21 6 22 7 20 8 19 9 3 10 4 11 5 12 7 13
REMARK SMILES IDX 6 14 2 15 1 16 8 17 9 18 10 19 11 20 12 21 13 22 18 23 14 24
REMARK SMILES IDX 17 25 15 26 16 27 27 28 28 29 29 30 30 31 31 33 32 34 33 35
REMARK SMILES IDX 94 36 34 37 93 38 35 39 36 40 37 41 87 42 38 43 92 44 86 45
REMARK SMILES IDX 88 46 39 47 91 48 85 49 84 50 40 52 72 53 52 54 71 55 53 56
REMARK SMILES IDX 56 57 70 58 89 59 54 60 55 61 69 63 90 64 57 65 41 66 42 67
REMARK SMILES IDX 50 68 43 69 45 70 51 71 44 72 46 73 47 74 48 75 49 76 73 77
REMARK SMILES IDX 74 78 82 79 75 80 77 81 83 82 76 83 78 84 79 85 80 86 81 87
REMARK SMILES IDX 58 88 59 89 67 90 60 91 62 92 68 93 61 94 63 95 64 96 65 97
REMARK SMILES IDX 66 98
REMARK H PARENT 25 5 29 32 88 51 56 62
REMARK Flexibility Score: inf
ROOT
ATOM      1  C   UNL A   1      35.926  20.153  24.969  1.00  0.00     0.118 C 
ENDROOT
BRANCH   1   2
ATOM      2  N   UNL A   1      34.735  19.344  25.108  1.00  0.00    -0.353 N 
ATOM      3  C   UNL A   1      33.582  19.294  24.396  1.00  0.00     0.260 C 
ATOM      4  O   UNL A   1      33.136  18.139  24.265  1.00  0.00    -0.271 OA
ATOM      5  H   UNL A   1      34.767  18.712  25.862  1.00  0.00     0.163 HD
BRANCH   3   6
ATOM      6  C   UNL A   1      32.705  20.499  23.847  1.00  0.00     0.259 C 
ATOM      7  C   UNL A   1      32.158  20.171  22.442  1.00  0.00     0.064 C 
BRANCH   6   8
ATOM      8  O   UNL A   1      32.625  21.895  24.029  1.00  0.00    -0.476 OA
BRANCH   8   9
ATOM      9  C   UNL A   1      33.675  22.605  24.521  1.00  0.00     0.169 A 
ATOM     10  C   UNL A   1      34.733  23.083  23.728  1.00  0.00     0.161 A 
ATOM     11  C   UNL A   1      35.798  23.757  24.327  1.00  0.00     0.050 A 
ATOM     12  C   UNL A   1      35.830  23.911  25.711  1.00  0.00     0.005 A 
ATOM     13  C   UNL A   1      33.602  22.949  25.893  1.00  0.00     0.022 A 
ATOM     14  C   UNL A   1      34.749  23.486  26.488  1.00  0.00     0.012 A 
BRANCH  10  15
ATOM     15  O   UNL A   1      34.623  23.020  22.365  1.00  0.00    -0.493 OA
ATOM     16  C   UNL A   1      33.563  23.760  21.768  1.00  0.00     0.278 C 
ENDBRANCH  10  15
BRANCH  13  17
ATOM     17  C   UNL A   1      32.301  22.822  26.621  1.00  0.00     0.032 C 
ATOM     18  C   UNL A   1      31.159  23.548  26.493  1.00  0.00     0.060 C 
BRANCH  18  19
ATOM     19  C   UNL A   1      29.974  23.094  27.162  1.00  0.00     0.100 C 
ATOM     20  N   UNL A   1      29.051  22.741  27.772  1.00  0.00    -0.192 NA
ENDBRANCH  18  19
BRANCH  18  21
ATOM     21  C   UNL A   1      31.072  24.779  25.684  1.00  0.00    -0.008 A 
ATOM     22  C   UNL A   1      30.602  24.702  24.365  1.00  0.00     0.010 A 
ATOM     23  C   UNL A   1      31.300  26.041  26.257  1.00  0.00     0.010 A 
ATOM     24  C   UNL A   1      30.259  25.866  23.673  1.00  0.00     0.016 A 
ATOM     25  C   UNL A   1      30.947  27.201  25.564  1.00  0.00     0.016 A 
ATOM     26  C   UNL A   1      30.410  27.108  24.282  1.00  0.00     0.018 A 
ATOM     27  Br  UNL A   1      29.849  28.687  23.407  1.00  0.00    -0.051 Br
ENDBRANCH  18  21
ENDBRANCH  13  17
ENDBRANCH   8   9
ENDBRANCH   6   8
ENDBRANCH   3   6
ENDBRANCH   1   2
BRANCH   1  28
ATOM     28  C   UNL A   1      37.225  19.369  24.978  1.00  0.00     0.042 C 
BRANCH  28  29
ATOM     29  C   UNL A   1      38.431  20.161  25.461  1.00  0.00     0.118 C 
BRANCH  29  30
ATOM     30  N   UNL A   1      39.604  19.320  25.723  1.00  0.00    -0.352 N 
ATOM     31  C   UNL A   1      40.888  19.636  26.113  1.00  0.00     0.251 C 
ATOM     32  H   UNL A   1      39.447  18.357  25.596  1.00  0.00     0.163 HD
ATOM     33  O   UNL A   1      41.746  18.756  26.098  1.00  0.00    -0.269 OA
BRANCH  31  34
ATOM     34  C   UNL A   1      41.254  21.012  26.528  1.00  0.00     0.039 A 
ATOM     35  C   UNL A   1      41.605  21.266  27.859  1.00  0.00     0.014 A 
ATOM     36  C   UNL A   1      41.236  22.064  25.615  1.00  0.00     0.014 A 
ATOM     37  C   UNL A   1      42.020  22.549  28.242  1.00  0.00     0.010 A 
ATOM     38  C   UNL A   1      41.780  23.294  25.961  1.00  0.00     0.010 A 
ATOM     39  C   UNL A   1      42.158  23.563  27.284  1.00  0.00    -0.014 A 
BRANCH  39  40
ATOM     40  C   UNL A   1      42.667  24.922  27.614  1.00  0.00     0.031 A 
ATOM     41  C   UNL A   1      41.745  25.927  28.260  1.00  0.00     0.074 A 
ATOM     42  C   UNL A   1      43.902  25.296  27.222  1.00  0.00     0.049 A 
ATOM     43  N   UNL A   1      41.942  27.199  28.487  1.00  0.00    -0.248 NA
ATOM     44  C   UNL A   1      40.408  25.452  28.664  1.00  0.00     0.031 C 
ATOM     45  C   UNL A   1      44.868  24.444  26.525  1.00  0.00     0.029 A 
ATOM     46  N   UNL A   1      44.545  26.507  27.320  1.00  0.00    -0.354 N 
ATOM     47  C   UNL A   1      40.742  27.685  28.994  1.00  0.00     0.074 A 
ATOM     48  C   UNL A   1      39.811  26.580  29.014  1.00  0.00     0.031 C 
ATOM     49  C   UNL A   1      45.975  25.156  26.265  1.00  0.00     0.029 A 
ATOM     50  C   UNL A   1      45.787  26.523  26.726  1.00  0.00     0.049 A 
ATOM     51  H   UNL A   1      44.153  27.290  27.773  1.00  0.00     0.167 HD
ATOM     52  C   UNL A   1      40.446  28.933  29.424  1.00  0.00     0.034 A 
ATOM     53  C   UNL A   1      46.669  27.525  26.549  1.00  0.00     0.034 A 
ATOM     54  C   UNL A   1      41.395  30.011  29.461  1.00  0.00     0.049 A 
ATOM     55  C   UNL A   1      46.331  28.890  27.080  1.00  0.00     0.074 A 
ATOM     56  C   UNL A   1      41.233  31.277  29.994  1.00  0.00     0.029 A 
ATOM     57  N   UNL A   1      42.673  29.958  28.931  1.00  0.00    -0.354 N 
ATOM     58  N   UNL A   1      45.246  29.287  27.698  1.00  0.00    -0.248 NA
ATOM     59  C   UNL A   1      47.351  29.937  26.920  1.00  0.00     0.031 C 
ATOM     60  C   UNL A   1      42.396  32.006  29.740  1.00  0.00     0.029 A 
ATOM     61  C   UNL A   1      43.304  31.176  29.101  1.00  0.00     0.049 A 
ATOM     62  H   UNL A   1      43.074  29.169  28.498  1.00  0.00     0.167 HD
ATOM     63  C   UNL A   1      45.469  30.615  28.037  1.00  0.00     0.074 A 
ATOM     64  C   UNL A   1      46.798  30.951  27.570  1.00  0.00     0.031 C 
ATOM     65  C   UNL A   1      44.643  31.481  28.673  1.00  0.00     0.034 A 
BRANCH  52  66
ATOM     66  C   UNL A   1      39.050  29.205  29.917  1.00  0.00     0.023 A 
ATOM     67  C   UNL A   1      38.705  28.934  31.258  1.00  0.00     0.012 A 
ATOM     68  C   UNL A   1      38.101  29.806  29.068  1.00  0.00     0.148 A 
ATOM     69  C   UNL A   1      37.428  29.229  31.735  1.00  0.00     0.002 A 
ATOM     70  C   UNL A   1      36.850  30.147  29.565  1.00  0.00     0.091 A 
ATOM     71  F   UNL A   1      38.442  30.036  27.792  1.00  0.00    -0.205 F 
ATOM     72  C   UNL A   1      36.507  29.847  30.894  1.00  0.00     0.022 A 
BRANCH  70  73
ATOM     73  S   UNL A   1      35.624  31.023  28.588  1.00  0.00     0.127 S 
ATOM     74  O   UNL A   1      34.957  29.922  27.895  1.00  0.00    -0.237 OA
ATOM     75  O   UNL A   1      34.817  31.671  29.623  1.00  0.00    -0.237 OA
ATOM     76  O   UNL A   1      36.367  31.936  27.732  1.00  0.00    -0.744 OA
ENDBRANCH  70  73
ENDBRANCH  52  66
BRANCH  53  77
ATOM     77  C   UNL A   1      47.973  27.284  25.867  1.00  0.00     0.023 A 
ATOM     78  C   UNL A   1      49.108  26.952  26.632  1.00  0.00     0.012 A 
ATOM     79  C   UNL A   1      48.101  27.411  24.470  1.00  0.00     0.148 A 
ATOM     80  C   UNL A   1      50.355  26.794  26.024  1.00  0.00     0.002 A 
ATOM     81  C   UNL A   1      49.339  27.219  23.866  1.00  0.00     0.091 A 
ATOM     82  F   UNL A   1      47.002  27.696  23.758  1.00  0.00    -0.205 F 
ATOM     83  C   UNL A   1      50.471  26.927  24.643  1.00  0.00     0.022 A 
BRANCH  81  84
ATOM     84  S   UNL A   1      49.580  27.334  22.090  1.00  0.00     0.127 S 
ATOM     85  O   UNL A   1      49.189  28.715  21.817  1.00  0.00    -0.237 OA
ATOM     86  O   UNL A   1      51.011  27.065  21.969  1.00  0.00    -0.237 OA
ATOM     87  O   UNL A   1      48.706  26.321  21.514  1.00  0.00    -0.744 OA
ENDBRANCH  81  84
ENDBRANCH  53  77
BRANCH  65  88
ATOM     88  C   UNL A   1      45.166  32.861  28.960  1.00  0.00     0.023 A 
ATOM     89  C   UNL A   1      45.967  33.096  30.095  1.00  0.00     0.012 A 
ATOM     90  C   UNL A   1      44.926  33.908  28.049  1.00  0.00     0.148 A 
ATOM     91  C   UNL A   1      46.495  34.364  30.334  1.00  0.00     0.002 A 
ATOM     92  C   UNL A   1      45.504  35.152  28.263  1.00  0.00     0.091 A 
ATOM     93  F   UNL A   1      44.147  33.664  26.986  1.00  0.00    -0.205 F 
ATOM     94  C   UNL A   1      46.276  35.386  29.412  1.00  0.00     0.022 A 
BRANCH  92  95
ATOM     95  S   UNL A   1      45.364  36.493  27.079  1.00  0.00     0.127 S 
ATOM     96  O   UNL A   1      43.947  36.429  26.722  1.00  0.00    -0.237 OA
ATOM     97  O   UNL A   1      45.739  37.654  27.884  1.00  0.00    -0.237 OA
ATOM     98  O   UNL A   1      46.289  36.179  25.998  1.00  0.00    -0.744 OA
ENDBRANCH  92  95
ENDBRANCH  65  88
ENDBRANCH  39  40
ENDBRANCH  31  34
ENDBRANCH  29  30
ENDBRANCH  28  29
ENDBRANCH   1  28
TORSDOF 19
ENDMDL
MODEL 3
REMARK VINA RESULT:     -12.1      6.451     11.429
REMARK SMILES COc1cccc(/C=C(/C#N)c2ccc(Br)cc2)c1O[C@@H](C)C(=O)NCCCNC(=O)c1ccc(-c2c3nc(c(-c4cccc(S(=O)(=O)[O-])c4F)c4ccc([nH]4)c(-c4cccc(S(=O)(=O)[O-])c4F)c4nc(c(-c5cccc(S(=O)(=O)[O-])c5F)c5ccc2[nH]5)C=C4)C=C3)cc1
REMARK SMILES IDX 26 1 25 2 23 3 24 4 21 6 22 7 20 8 19 9 3 10 4 11 5 12 7 13
REMARK SMILES IDX 6 14 2 15 1 16 8 17 9 18 10 19 11 20 12 21 13 22 18 23 14 24
REMARK SMILES IDX 17 25 15 26 16 27 27 28 28 29 29 30 30 31 31 33 32 34 33 35
REMARK SMILES IDX 94 36 34 37 93 38 35 39 36 40 37 41 87 42 38 43 92 44 86 45
REMARK SMILES IDX 88 46 39 47 91 48 85 49 84 50 40 52 72 53 52 54 71 55 53 56
REMARK SMILES IDX 56 57 70 58 89 59 54 60 55 61 69 63 90 64 57 65 41 66 42 67
REMARK SMILES IDX 50 68 43 69 45 70 51 71 44 72 46 73 47 74 48 75 49 76 73 77
REMARK SMILES IDX 74 78 82 79 75 80 77 81 83 82 76 83 78 84 79 85 80 86 81 87
REMARK SMILES IDX 58 88 59 89 67 90 60 91 62 92 68 93 61 94 63 95 64 96 65 97
REMARK SMILES IDX 66 98
REMARK H PARENT 25 5 29 32 88 51 56 62
REMARK Flexibility Score: inf
ROOT
ATOM      1  C   UNL A   1      36.346  20.553  25.006  1.00  0.00     0.118 C 
ENDROOT
BRANCH   1   2
ATOM      2  N   UNL A   1      35.205  19.678  25.162  1.00  0.00    -0.353 N 
ATOM      3  C   UNL A   1      34.044  19.566  24.472  1.00  0.00     0.260 C 
ATOM      4  O   UNL A   1      33.662  18.388  24.341  1.00  0.00    -0.271 OA
ATOM      5  H   UNL A   1      35.287  19.044  25.912  1.00  0.00     0.163 HD
BRANCH   3   6
ATOM      6  C   UNL A   1      33.089  20.723  23.948  1.00  0.00     0.259 C 
ATOM      7  C   UNL A   1      32.169  20.195  22.827  1.00  0.00     0.064 C 
BRANCH   6   8
ATOM      8  O   UNL A   1      33.107  22.131  23.870  1.00  0.00    -0.476 OA
BRANCH   8   9
ATOM      9  C   UNL A   1      32.366  22.895  24.716  1.00  0.00     0.169 A 
ATOM     10  C   UNL A   1      32.436  22.798  26.117  1.00  0.00     0.161 A 
ATOM     11  C   UNL A   1      31.599  23.587  26.907  1.00  0.00     0.050 A 
ATOM     12  C   UNL A   1      30.667  24.428  26.304  1.00  0.00     0.005 A 
ATOM     13  C   UNL A   1      31.577  23.903  24.110  1.00  0.00     0.022 A 
ATOM     14  C   UNL A   1      30.642  24.563  24.914  1.00  0.00     0.012 A 
BRANCH  10  15
ATOM     15  O   UNL A   1      33.434  22.052  26.682  1.00  0.00    -0.493 OA
ATOM     16  C   UNL A   1      33.925  22.482  27.948  1.00  0.00     0.278 C 
ENDBRANCH  10  15
BRANCH  13  17
ATOM     17  C   UNL A   1      31.829  24.286  22.686  1.00  0.00     0.032 C 
ATOM     18  C   UNL A   1      32.232  25.474  22.164  1.00  0.00     0.060 C 
BRANCH  18  19
ATOM     19  C   UNL A   1      32.604  25.530  20.780  1.00  0.00     0.100 C 
ATOM     20  N   UNL A   1      32.951  25.637  19.677  1.00  0.00    -0.192 NA
ENDBRANCH  18  19
BRANCH  18  21
ATOM     21  C   UNL A   1      32.321  26.715  22.958  1.00  0.00    -0.008 A 
ATOM     22  C   UNL A   1      31.237  27.603  22.968  1.00  0.00     0.010 A 
ATOM     23  C   UNL A   1      33.404  26.946  23.821  1.00  0.00     0.010 A 
ATOM     24  C   UNL A   1      31.185  28.637  23.906  1.00  0.00     0.016 A 
ATOM     25  C   UNL A   1      33.344  27.976  24.763  1.00  0.00     0.016 A 
ATOM     26  C   UNL A   1      32.226  28.806  24.814  1.00  0.00     0.018 A 
ATOM     27  Br  UNL A   1      32.127  30.127  26.162  1.00  0.00    -0.051 Br
ENDBRANCH  18  21
ENDBRANCH  13  17
ENDBRANCH   8   9
ENDBRANCH   6   8
ENDBRANCH   3   6
ENDBRANCH   1   2
BRANCH   1  28
ATOM     28  C   UNL A   1      37.669  19.838  24.817  1.00  0.00     0.042 C 
BRANCH  28  29
ATOM     29  C   UNL A   1      38.778  20.315  25.744  1.00  0.00     0.118 C 
BRANCH  29  30
ATOM     30  N   UNL A   1      39.851  19.329  25.914  1.00  0.00    -0.352 N 
ATOM     31  C   UNL A   1      41.202  19.477  26.141  1.00  0.00     0.251 C 
ATOM     32  H   UNL A   1      39.551  18.393  25.856  1.00  0.00     0.163 HD
ATOM     33  O   UNL A   1      41.926  18.485  26.075  1.00  0.00    -0.269 OA
BRANCH  31  34
ATOM     34  C   UNL A   1      41.796  20.802  26.441  1.00  0.00     0.039 A 
ATOM     35  C   UNL A   1      42.001  21.722  25.406  1.00  0.00     0.014 A 
ATOM     36  C   UNL A   1      42.171  21.142  27.738  1.00  0.00     0.014 A 
ATOM     37  C   UNL A   1      42.496  23.002  25.692  1.00  0.00     0.010 A 
ATOM     38  C   UNL A   1      42.526  22.450  28.040  1.00  0.00     0.010 A 
ATOM     39  C   UNL A   1      42.716  23.393  27.021  1.00  0.00    -0.014 A 
BRANCH  39  40
ATOM     40  C   UNL A   1      43.167  24.761  27.395  1.00  0.00     0.031 A 
ATOM     41  C   UNL A   1      42.187  25.726  28.015  1.00  0.00     0.074 A 
ATOM     42  C   UNL A   1      44.405  25.180  27.063  1.00  0.00     0.049 A 
ATOM     43  N   UNL A   1      42.334  26.999  28.271  1.00  0.00    -0.248 NA
ATOM     44  C   UNL A   1      40.849  25.203  28.354  1.00  0.00     0.031 C 
ATOM     45  C   UNL A   1      45.427  24.370  26.395  1.00  0.00     0.029 A 
ATOM     46  N   UNL A   1      45.005  26.409  27.207  1.00  0.00    -0.354 N 
ATOM     47  C   UNL A   1      41.098  27.440  28.732  1.00  0.00     0.074 A 
ATOM     48  C   UNL A   1      40.202  26.307  28.695  1.00  0.00     0.031 C 
ATOM     49  C   UNL A   1      46.521  25.121  26.194  1.00  0.00     0.029 A 
ATOM     50  C   UNL A   1      46.270  26.473  26.668  1.00  0.00     0.049 A 
ATOM     51  H   UNL A   1      44.570  27.171  27.655  1.00  0.00     0.167 HD
ATOM     52  C   UNL A   1      40.745  28.670  29.169  1.00  0.00     0.034 A 
ATOM     53  C   UNL A   1      47.127  27.505  26.546  1.00  0.00     0.034 A 
ATOM     54  C   UNL A   1      41.657  29.777  29.264  1.00  0.00     0.049 A 
ATOM     55  C   UNL A   1      46.724  28.849  27.082  1.00  0.00     0.074 A 
ATOM     56  C   UNL A   1      41.432  31.027  29.809  1.00  0.00     0.029 A 
ATOM     57  N   UNL A   1      42.958  29.771  28.790  1.00  0.00    -0.354 N 
ATOM     58  N   UNL A   1      45.601  29.202  27.659  1.00  0.00    -0.248 NA
ATOM     59  C   UNL A   1      47.716  29.930  26.984  1.00  0.00     0.031 C 
ATOM     60  C   UNL A   1      42.582  31.797  29.618  1.00  0.00     0.029 A 
ATOM     61  C   UNL A   1      43.542  31.006  29.006  1.00  0.00     0.049 A 
ATOM     62  H   UNL A   1      43.401  29.004  28.362  1.00  0.00     0.167 HD
ATOM     63  C   UNL A   1      45.767  30.530  28.028  1.00  0.00     0.074 A 
ATOM     64  C   UNL A   1      47.104  30.915  27.625  1.00  0.00     0.031 C 
ATOM     65  C   UNL A   1      44.888  31.359  28.641  1.00  0.00     0.034 A 
BRANCH  52  66
ATOM     66  C   UNL A   1      39.321  28.890  29.606  1.00  0.00     0.023 A 
ATOM     67  C   UNL A   1      38.927  28.583  30.924  1.00  0.00     0.012 A 
ATOM     68  C   UNL A   1      38.392  29.480  28.727  1.00  0.00     0.148 A 
ATOM     69  C   UNL A   1      37.622  28.830  31.350  1.00  0.00     0.002 A 
ATOM     70  C   UNL A   1      37.110  29.773  29.174  1.00  0.00     0.091 A 
ATOM     71  F   UNL A   1      38.780  29.745  27.471  1.00  0.00    -0.205 F 
ATOM     72  C   UNL A   1      36.720  29.437  30.482  1.00  0.00     0.022 A 
BRANCH  70  73
ATOM     73  S   UNL A   1      35.902  30.633  28.162  1.00  0.00     0.127 S 
ATOM     74  O   UNL A   1      34.829  30.873  29.125  1.00  0.00    -0.237 OA
ATOM     75  O   UNL A   1      36.639  31.830  27.758  1.00  0.00    -0.237 OA
ATOM     76  O   UNL A   1      35.567  29.725  27.074  1.00  0.00    -0.744 OA
ENDBRANCH  70  73
ENDBRANCH  52  66
BRANCH  53  77
ATOM     77  C   UNL A   1      48.466  27.315  25.917  1.00  0.00     0.023 A 
ATOM     78  C   UNL A   1      49.575  26.996  26.724  1.00  0.00     0.012 A 
ATOM     79  C   UNL A   1      48.651  27.479  24.530  1.00  0.00     0.148 A 
ATOM     80  C   UNL A   1      50.851  26.887  26.169  1.00  0.00     0.002 A 
ATOM     81  C   UNL A   1      49.920  27.336  23.978  1.00  0.00     0.091 A 
ATOM     82  F   UNL A   1      47.577  27.751  23.776  1.00  0.00    -0.205 F 
ATOM     83  C   UNL A   1      51.024  27.056  24.798  1.00  0.00     0.022 A 
BRANCH  81  84
ATOM     84  S   UNL A   1      50.235  27.499  22.217  1.00  0.00     0.127 S 
ATOM     85  O   UNL A   1      51.658  27.176  22.130  1.00  0.00    -0.237 OA
ATOM     86  O   UNL A   1      49.341  26.484  21.664  1.00  0.00    -0.237 OA
ATOM     87  O   UNL A   1      49.894  28.876  21.888  1.00  0.00    -0.744 OA
ENDBRANCH  81  84
ENDBRANCH  53  77
BRANCH  65  88
ATOM     88  C   UNL A   1      45.354  32.749  28.973  1.00  0.00     0.023 A 
ATOM     89  C   UNL A   1      46.036  33.002  30.179  1.00  0.00     0.012 A 
ATOM     90  C   UNL A   1      45.185  33.790  28.038  1.00  0.00     0.148 A 
ATOM     91  C   UNL A   1      46.514  34.281  30.464  1.00  0.00     0.002 A 
ATOM     92  C   UNL A   1      45.715  35.045  28.302  1.00  0.00     0.091 A 
ATOM     93  F   UNL A   1      44.519  33.528  26.905  1.00  0.00    -0.205 F 
ATOM     94  C   UNL A   1      46.367  35.296  29.521  1.00  0.00     0.022 A 
BRANCH  92  95
ATOM     95  S   UNL A   1      45.668  36.380  27.105  1.00  0.00     0.127 S 
ATOM     96  O   UNL A   1      44.229  36.593  26.954  1.00  0.00    -0.237 OA
ATOM     97  O   UNL A   1      46.372  37.451  27.810  1.00  0.00    -0.237 OA
ATOM     98  O   UNL A   1      46.348  35.885  25.916  1.00  0.00    -0.744 OA
ENDBRANCH  92  95
ENDBRANCH  65  88
ENDBRANCH  39  40
ENDBRANCH  31  34
ENDBRANCH  29  30
ENDBRANCH  28  29
ENDBRANCH   1  28
TORSDOF 19
ENDMDL
