MODEL 1
REMARK VINA RESULT:     -13.3      0.000      0.000
REMARK SMILES Cc1cnc2nc(-c3cc(F)c(F)cc3C(=O)NCCCNC(=O)c3ccc(-c4c5nc(c(-c6cccc(S(=O)(=O)[O-])c6F)c6ccc([nH]6)c(-c6cccc(S(=O)(=O)[O-])c6F)c6nc(c(-c7cccc(S(=O)(=O)[O-])c7F)c7ccc4[nH]7)C=C6)C=C5)cc3)[nH]c2c1
REMARK SMILES IDX 21 1 20 2 19 3 18 4 16 5 17 6 15 8 8 9 9 10 10 11 14 12
REMARK SMILES IDX 11 13 12 14 13 15 7 16 1 17 2 18 3 19 90 20 4 21 89 22 5 23
REMARK SMILES IDX 88 24 6 25 22 27 23 28 24 30 25 31 26 32 87 33 27 34 86 35
REMARK SMILES IDX 28 36 29 37 30 38 80 39 31 40 85 41 79 42 81 43 32 44 84 45
REMARK SMILES IDX 78 46 77 47 33 49 65 50 45 51 64 52 46 53 49 54 63 55 82 56
REMARK SMILES IDX 47 57 48 58 62 60 83 61 50 62 34 63 35 64 43 65 36 66 38 67
REMARK SMILES IDX 44 68 37 69 39 70 40 71 41 72 42 73 66 74 67 75 75 76 68 77
REMARK SMILES IDX 70 78 76 79 69 80 71 81 72 82 73 83 74 84 51 85 52 86 60 87
REMARK SMILES IDX 53 88 55 89 61 90 54 91 56 92 57 93 58 94 59 95
REMARK H PARENT 18 7 88 26 22 29 81 48 49 59
REMARK Flexibility Score: inf
ROOT
ATOM      1  C   UNL A   1      39.083  21.356  25.849  1.00  0.00     0.118 C 
ENDROOT
BRANCH   1   2
ATOM      2  C   UNL A   1      37.650  21.422  25.346  1.00  0.00     0.042 C 
BRANCH   2   3
ATOM      3  C   UNL A   1      37.204  22.873  25.235  1.00  0.00     0.118 C 
BRANCH   3   4
ATOM      4  N   UNL A   1      36.363  23.326  26.311  1.00  0.00    -0.352 N 
ATOM      5  C   UNL A   1      35.069  22.923  26.532  1.00  0.00     0.252 C 
ATOM      6  O   UNL A   1      34.798  22.465  27.644  1.00  0.00    -0.269 OA
ATOM      7  H   UNL A   1      36.747  23.979  26.939  1.00  0.00     0.163 HD
BRANCH   5   8
ATOM      8  C   UNL A   1      33.925  23.307  25.644  1.00  0.00     0.053 A 
ATOM      9  C   UNL A   1      32.993  22.516  24.928  1.00  0.00     0.033 A 
ATOM     10  C   UNL A   1      31.935  23.163  24.248  1.00  0.00     0.055 A 
ATOM     11  C   UNL A   1      31.807  24.546  24.255  1.00  0.00     0.159 A 
ATOM     12  C   UNL A   1      33.771  24.718  25.615  1.00  0.00     0.057 A 
ATOM     13  F   UNL A   1      30.789  25.115  23.596  1.00  0.00    -0.204 F 
ATOM     14  C   UNL A   1      32.727  25.323  24.928  1.00  0.00     0.159 A 
ATOM     15  F   UNL A   1      32.613  26.657  24.933  1.00  0.00    -0.204 F 
BRANCH   9  16
ATOM     16  C   UNL A   1      33.001  21.063  24.781  1.00  0.00     0.141 A 
ATOM     17  C   UNL A   1      35.143  15.565  25.134  1.00  0.00     0.046 C 
ATOM     18  C   UNL A   1      34.256  16.758  24.924  1.00  0.00    -0.031 A 
ATOM     19  C   UNL A   1      32.921  16.736  25.343  1.00  0.00     0.117 A 
ATOM     20  C   UNL A   1      34.789  17.960  24.449  1.00  0.00     0.035 A 
ATOM     21  N   UNL A   1      32.070  17.792  25.355  1.00  0.00    -0.235 NA
ATOM     22  C   UNL A   1      33.929  19.055  24.501  1.00  0.00     0.085 A 
ATOM     23  C   UNL A   1      32.617  18.956  24.944  1.00  0.00     0.178 A 
ATOM     24  N   UNL A   1      34.107  20.395  24.283  1.00  0.00    -0.337 N 
ATOM     25  N   UNL A   1      32.041  20.201  25.062  1.00  0.00    -0.209 NA
ATOM     26  H   UNL A   1      34.886  20.811  23.850  1.00  0.00     0.168 HD
ENDBRANCH   9  16
ENDBRANCH   5   8
ENDBRANCH   3   4
ENDBRANCH   2   3
ENDBRANCH   1   2
BRANCH   1  27
ATOM     27  N   UNL A   1      39.690  20.021  25.760  1.00  0.00    -0.352 N 
ATOM     28  C   UNL A   1      41.019  19.672  25.966  1.00  0.00     0.251 C 
ATOM     29  H   UNL A   1      39.081  19.283  25.528  1.00  0.00     0.163 HD
ATOM     30  O   UNL A   1      41.474  18.586  25.664  1.00  0.00    -0.269 OA
BRANCH  28  31
ATOM     31  C   UNL A   1      41.869  20.714  26.561  1.00  0.00     0.039 A 
ATOM     32  C   UNL A   1      42.315  21.782  25.783  1.00  0.00     0.014 A 
ATOM     33  C   UNL A   1      41.888  20.755  27.948  1.00  0.00     0.014 A 
ATOM     34  C   UNL A   1      42.619  22.982  26.420  1.00  0.00     0.010 A 
ATOM     35  C   UNL A   1      42.009  21.988  28.542  1.00  0.00     0.010 A 
ATOM     36  C   UNL A   1      42.390  23.111  27.798  1.00  0.00    -0.014 A 
BRANCH  36  37
ATOM     37  C   UNL A   1      42.408  24.433  28.436  1.00  0.00     0.031 A 
ATOM     38  C   UNL A   1      41.217  25.322  28.233  1.00  0.00     0.074 A 
ATOM     39  C   UNL A   1      43.314  24.794  29.371  1.00  0.00     0.049 A 
ATOM     40  N   UNL A   1      41.183  26.476  27.648  1.00  0.00    -0.248 NA
ATOM     41  C   UNL A   1      39.901  24.860  28.700  1.00  0.00     0.031 C 
ATOM     42  C   UNL A   1      44.371  23.977  29.983  1.00  0.00     0.029 A 
ATOM     43  N   UNL A   1      43.369  25.946  30.094  1.00  0.00    -0.354 N 
ATOM     44  C   UNL A   1      39.892  26.977  27.834  1.00  0.00     0.074 A 
ATOM     45  C   UNL A   1      39.115  25.888  28.370  1.00  0.00     0.031 C 
ATOM     46  C   UNL A   1      44.742  24.530  31.155  1.00  0.00     0.029 A 
ATOM     47  C   UNL A   1      44.134  25.839  31.245  1.00  0.00     0.049 A 
ATOM     48  H   UNL A   1      42.910  26.774  29.825  1.00  0.00     0.167 HD
ATOM     49  C   UNL A   1      39.601  28.303  27.706  1.00  0.00     0.034 A 
ATOM     50  C   UNL A   1      44.269  26.764  32.216  1.00  0.00     0.034 A 
ATOM     51  C   UNL A   1      40.695  29.037  27.128  1.00  0.00     0.049 A 
ATOM     52  C   UNL A   1      43.956  28.075  31.614  1.00  0.00     0.074 A 
ATOM     53  C   UNL A   1      41.356  29.059  25.921  1.00  0.00     0.029 A 
ATOM     54  N   UNL A   1      41.479  29.730  28.015  1.00  0.00    -0.354 N 
ATOM     55  N   UNL A   1      44.664  28.623  30.665  1.00  0.00    -0.248 NA
ATOM     56  C   UNL A   1      42.653  28.676  31.850  1.00  0.00     0.031 C 
ATOM     57  C   UNL A   1      42.703  29.406  26.242  1.00  0.00     0.029 A 
ATOM     58  C   UNL A   1      42.783  29.593  27.625  1.00  0.00     0.049 A 
ATOM     59  H   UNL A   1      41.159  30.237  28.796  1.00  0.00     0.167 HD
ATOM     60  C   UNL A   1      43.741  29.329  29.909  1.00  0.00     0.074 A 
ATOM     61  C   UNL A   1      42.582  29.476  30.782  1.00  0.00     0.031 C 
ATOM     62  C   UNL A   1      43.889  29.463  28.557  1.00  0.00     0.034 A 
BRANCH  49  63
ATOM     63  C   UNL A   1      38.460  29.049  28.367  1.00  0.00     0.023 A 
ATOM     64  C   UNL A   1      37.584  29.785  27.531  1.00  0.00     0.012 A 
ATOM     65  C   UNL A   1      38.352  29.277  29.754  1.00  0.00     0.148 A 
ATOM     66  C   UNL A   1      36.670  30.714  28.046  1.00  0.00     0.002 A 
ATOM     67  C   UNL A   1      37.382  30.137  30.267  1.00  0.00     0.091 A 
ATOM     68  F   UNL A   1      39.270  28.771  30.584  1.00  0.00    -0.205 F 
ATOM     69  C   UNL A   1      36.558  30.879  29.419  1.00  0.00     0.022 A 
BRANCH  67  70
ATOM     70  S   UNL A   1      37.139  30.310  32.039  1.00  0.00     0.127 S 
ATOM     71  O   UNL A   1      38.365  30.991  32.442  1.00  0.00    -0.237 OA
ATOM     72  O   UNL A   1      35.926  31.127  32.105  1.00  0.00    -0.237 OA
ATOM     73  O   UNL A   1      36.961  28.946  32.525  1.00  0.00    -0.744 OA
ENDBRANCH  67  70
ENDBRANCH  49  63
BRANCH  50  74
ATOM     74  C   UNL A   1      44.511  26.571  33.657  1.00  0.00     0.023 A 
ATOM     75  C   UNL A   1      45.784  26.839  34.189  1.00  0.00     0.012 A 
ATOM     76  C   UNL A   1      43.430  26.380  34.548  1.00  0.00     0.148 A 
ATOM     77  C   UNL A   1      45.970  26.957  35.570  1.00  0.00     0.002 A 
ATOM     78  C   UNL A   1      43.620  26.501  35.919  1.00  0.00     0.091 A 
ATOM     79  F   UNL A   1      42.205  26.175  34.042  1.00  0.00    -0.205 F 
ATOM     80  C   UNL A   1      44.888  26.801  36.434  1.00  0.00     0.022 A 
BRANCH  78  81
ATOM     81  S   UNL A   1      42.265  26.346  37.092  1.00  0.00     0.127 S 
ATOM     82  O   UNL A   1      42.963  26.403  38.377  1.00  0.00    -0.237 OA
ATOM     83  O   UNL A   1      41.462  27.525  36.779  1.00  0.00    -0.237 OA
ATOM     84  O   UNL A   1      41.645  25.058  36.805  1.00  0.00    -0.744 OA
ENDBRANCH  78  81
ENDBRANCH  50  74
BRANCH  62  85
ATOM     85  C   UNL A   1      45.233  29.140  27.945  1.00  0.00     0.023 A 
ATOM     86  C   UNL A   1      46.312  30.047  27.992  1.00  0.00     0.012 A 
ATOM     87  C   UNL A   1      45.473  27.830  27.491  1.00  0.00     0.148 A 
ATOM     88  C   UNL A   1      47.591  29.668  27.580  1.00  0.00     0.002 A 
ATOM     89  C   UNL A   1      46.759  27.441  27.130  1.00  0.00     0.091 A 
ATOM     90  F   UNL A   1      44.443  26.972  27.455  1.00  0.00    -0.205 F 
ATOM     91  C   UNL A   1      47.819  28.360  27.164  1.00  0.00     0.022 A 
BRANCH  89  92
ATOM     92  S   UNL A   1      47.145  25.734  26.729  1.00  0.00     0.127 S 
ATOM     93  O   UNL A   1      46.793  25.041  27.966  1.00  0.00    -0.237 OA
ATOM     94  O   UNL A   1      46.251  25.463  25.601  1.00  0.00    -0.237 OA
ATOM     95  O   UNL A   1      48.560  25.719  26.378  1.00  0.00    -0.744 OA
ENDBRANCH  89  92
ENDBRANCH  62  85
ENDBRANCH  36  37
ENDBRANCH  28  31
ENDBRANCH   1  27
TORSDOF 14
ENDMDL
MODEL 2
REMARK VINA RESULT:     -13.1      1.579      3.401
REMARK SMILES Cc1cnc2nc(-c3cc(F)c(F)cc3C(=O)NCCCNC(=O)c3ccc(-c4c5nc(c(-c6cccc(S(=O)(=O)[O-])c6F)c6ccc([nH]6)c(-c6cccc(S(=O)(=O)[O-])c6F)c6nc(c(-c7cccc(S(=O)(=O)[O-])c7F)c7ccc4[nH]7)C=C6)C=C5)cc3)[nH]c2c1
REMARK SMILES IDX 21 1 20 2 19 3 18 4 16 5 17 6 15 8 8 9 9 10 10 11 14 12
REMARK SMILES IDX 11 13 12 14 13 15 7 16 1 17 2 18 3 19 90 20 4 21 89 22 5 23
REMARK SMILES IDX 88 24 6 25 22 27 23 28 24 30 25 31 26 32 87 33 27 34 86 35
REMARK SMILES IDX 28 36 29 37 30 38 80 39 31 40 85 41 79 42 81 43 32 44 84 45
REMARK SMILES IDX 78 46 77 47 33 49 65 50 45 51 64 52 46 53 49 54 63 55 82 56
REMARK SMILES IDX 47 57 48 58 62 60 83 61 50 62 34 63 35 64 43 65 36 66 38 67
REMARK SMILES IDX 44 68 37 69 39 70 40 71 41 72 42 73 66 74 67 75 75 76 68 77
REMARK SMILES IDX 70 78 76 79 69 80 71 81 72 82 73 83 74 84 51 85 52 86 60 87
REMARK SMILES IDX 53 88 55 89 61 90 54 91 56 92 57 93 58 94 59 95
REMARK H PARENT 18 7 88 26 22 29 81 48 49 59
REMARK Flexibility Score: inf
ROOT
ATOM      1  C   UNL A   1      39.107  21.385  25.863  1.00  0.00     0.118 C 
ENDROOT
BRANCH   1   2
ATOM      2  C   UNL A   1      37.655  21.435  25.415  1.00  0.00     0.042 C 
BRANCH   2   3
ATOM      3  C   UNL A   1      37.114  22.850  25.563  1.00  0.00     0.118 C 
BRANCH   3   4
ATOM      4  N   UNL A   1      35.925  22.956  26.365  1.00  0.00    -0.352 N 
ATOM      5  C   UNL A   1      34.932  22.010  26.442  1.00  0.00     0.252 C 
ATOM      6  O   UNL A   1      34.628  21.595  27.562  1.00  0.00    -0.269 OA
ATOM      7  H   UNL A   1      35.815  23.773  26.902  1.00  0.00     0.163 HD
BRANCH   5   8
ATOM      8  C   UNL A   1      33.993  21.711  25.314  1.00  0.00     0.053 A 
ATOM      9  C   UNL A   1      33.268  22.569  24.451  1.00  0.00     0.033 A 
ATOM     10  C   UNL A   1      32.531  21.997  23.387  1.00  0.00     0.055 A 
ATOM     11  C   UNL A   1      32.493  20.623  23.189  1.00  0.00     0.159 A 
ATOM     12  C   UNL A   1      33.918  20.311  25.089  1.00  0.00     0.057 A 
ATOM     13  F   UNL A   1      31.782  20.127  22.168  1.00  0.00    -0.204 F 
ATOM     14  C   UNL A   1      33.177  19.781  24.042  1.00  0.00     0.159 A 
ATOM     15  F   UNL A   1      33.139  18.455  23.859  1.00  0.00    -0.204 F 
BRANCH   9  16
ATOM     16  C   UNL A   1      33.163  24.023  24.540  1.00  0.00     0.141 A 
ATOM     17  C   UNL A   1      33.635  29.378  26.998  1.00  0.00     0.046 C 
ATOM     18  C   UNL A   1      33.407  28.243  26.041  1.00  0.00    -0.031 A 
ATOM     19  C   UNL A   1      33.854  28.329  24.717  1.00  0.00     0.117 A 
ATOM     20  C   UNL A   1      32.888  27.028  26.496  1.00  0.00     0.035 A 
ATOM     21  N   UNL A   1      33.851  27.322  23.808  1.00  0.00    -0.235 NA
ATOM     22  C   UNL A   1      32.924  25.983  25.576  1.00  0.00     0.085 A 
ATOM     23  C   UNL A   1      33.395  26.142  24.280  1.00  0.00     0.178 A 
ATOM     24  N   UNL A   1      32.664  24.642  25.673  1.00  0.00    -0.337 N 
ATOM     25  N   UNL A   1      33.488  24.929  23.636  1.00  0.00    -0.209 NA
ATOM     26  H   UNL A   1      32.203  24.196  26.419  1.00  0.00     0.168 HD
ENDBRANCH   9  16
ENDBRANCH   5   8
ENDBRANCH   3   4
ENDBRANCH   2   3
ENDBRANCH   1   2
BRANCH   1  27
ATOM     27  N   UNL A   1      39.721  20.053  25.766  1.00  0.00    -0.352 N 
ATOM     28  C   UNL A   1      41.055  19.713  25.946  1.00  0.00     0.251 C 
ATOM     29  H   UNL A   1      39.111  19.311  25.546  1.00  0.00     0.163 HD
ATOM     30  O   UNL A   1      41.511  18.628  25.639  1.00  0.00    -0.269 OA
BRANCH  28  31
ATOM     31  C   UNL A   1      41.910  20.760  26.524  1.00  0.00     0.039 A 
ATOM     32  C   UNL A   1      42.308  21.846  25.744  1.00  0.00     0.014 A 
ATOM     33  C   UNL A   1      41.981  20.783  27.910  1.00  0.00     0.014 A 
ATOM     34  C   UNL A   1      42.616  23.042  26.386  1.00  0.00     0.010 A 
ATOM     35  C   UNL A   1      42.105  22.010  28.516  1.00  0.00     0.010 A 
ATOM     36  C   UNL A   1      42.438  23.149  27.774  1.00  0.00    -0.014 A 
BRANCH  36  37
ATOM     37  C   UNL A   1      42.459  24.463  28.429  1.00  0.00     0.031 A 
ATOM     38  C   UNL A   1      41.273  25.359  28.231  1.00  0.00     0.074 A 
ATOM     39  C   UNL A   1      43.361  24.806  29.374  1.00  0.00     0.049 A 
ATOM     40  N   UNL A   1      41.248  26.522  27.662  1.00  0.00    -0.248 NA
ATOM     41  C   UNL A   1      39.952  24.897  28.686  1.00  0.00     0.031 C 
ATOM     42  C   UNL A   1      44.411  23.977  29.981  1.00  0.00     0.029 A 
ATOM     43  N   UNL A   1      43.417  25.948  30.113  1.00  0.00    -0.354 N 
ATOM     44  C   UNL A   1      39.958  27.026  27.847  1.00  0.00     0.074 A 
ATOM     45  C   UNL A   1      39.173  25.934  28.364  1.00  0.00     0.031 C 
ATOM     46  C   UNL A   1      44.778  24.512  31.163  1.00  0.00     0.029 A 
ATOM     47  C   UNL A   1      44.175  25.823  31.266  1.00  0.00     0.049 A 
ATOM     48  H   UNL A   1      42.964  26.783  29.853  1.00  0.00     0.167 HD
ATOM     49  C   UNL A   1      39.674  28.355  27.735  1.00  0.00     0.034 A 
ATOM     50  C   UNL A   1      44.309  26.735  32.250  1.00  0.00     0.034 A 
ATOM     51  C   UNL A   1      40.775  29.091  27.173  1.00  0.00     0.049 A 
ATOM     52  C   UNL A   1      44.006  28.055  31.664  1.00  0.00     0.074 A 
ATOM     53  C   UNL A   1      41.443  29.127  25.970  1.00  0.00     0.029 A 
ATOM     54  N   UNL A   1      41.556  29.769  28.074  1.00  0.00    -0.354 N 
ATOM     55  N   UNL A   1      44.721  28.612  30.726  1.00  0.00    -0.248 NA
ATOM     56  C   UNL A   1      42.705  28.659  31.901  1.00  0.00     0.031 C 
ATOM     57  C   UNL A   1      42.789  29.462  26.303  1.00  0.00     0.029 A 
ATOM     58  C   UNL A   1      42.863  29.631  27.689  1.00  0.00     0.049 A 
ATOM     59  H   UNL A   1      41.235  30.267  28.860  1.00  0.00     0.167 HD
ATOM     60  C   UNL A   1      43.806  29.332  29.975  1.00  0.00     0.074 A 
ATOM     61  C   UNL A   1      42.643  29.473  30.843  1.00  0.00     0.031 C 
ATOM     62  C   UNL A   1      43.962  29.483  28.625  1.00  0.00     0.034 A 
BRANCH  49  63
ATOM     63  C   UNL A   1      38.532  29.098  28.400  1.00  0.00     0.023 A 
ATOM     64  C   UNL A   1      37.678  29.868  27.572  1.00  0.00     0.012 A 
ATOM     65  C   UNL A   1      38.407  29.288  29.791  1.00  0.00     0.148 A 
ATOM     66  C   UNL A   1      36.769  30.794  28.099  1.00  0.00     0.002 A 
ATOM     67  C   UNL A   1      37.440  30.147  30.313  1.00  0.00     0.091 A 
ATOM     68  F   UNL A   1      39.306  28.748  30.620  1.00  0.00    -0.205 F 
ATOM     69  C   UNL A   1      36.639  30.923  29.473  1.00  0.00     0.022 A 
BRANCH  67  70
ATOM     70  S   UNL A   1      37.173  30.274  32.085  1.00  0.00     0.127 S 
ATOM     71  O   UNL A   1      36.963  28.878  32.455  1.00  0.00    -0.237 OA
ATOM     72  O   UNL A   1      38.435  30.855  32.546  1.00  0.00    -0.237 OA
ATOM     73  O   UNL A   1      36.026  31.165  32.225  1.00  0.00    -0.744 OA
ENDBRANCH  67  70
ENDBRANCH  49  63
BRANCH  50  74
ATOM     74  C   UNL A   1      44.543  26.521  33.690  1.00  0.00     0.023 A 
ATOM     75  C   UNL A   1      45.824  26.735  34.225  1.00  0.00     0.012 A 
ATOM     76  C   UNL A   1      43.454  26.365  34.579  1.00  0.00     0.148 A 
ATOM     77  C   UNL A   1      46.013  26.836  35.607  1.00  0.00     0.002 A 
ATOM     78  C   UNL A   1      43.647  26.468  35.951  1.00  0.00     0.091 A 
ATOM     79  F   UNL A   1      42.222  26.212  34.071  1.00  0.00    -0.205 F 
ATOM     80  C   UNL A   1      44.925  26.715  36.469  1.00  0.00     0.022 A 
BRANCH  78  81
ATOM     81  S   UNL A   1      42.286  26.357  37.121  1.00  0.00     0.127 S 
ATOM     82  O   UNL A   1      41.714  25.048  36.803  1.00  0.00    -0.237 OA
ATOM     83  O   UNL A   1      42.985  26.424  38.401  1.00  0.00    -0.237 OA
ATOM     84  O   UNL A   1      41.412  27.482  36.813  1.00  0.00    -0.744 OA
ENDBRANCH  78  81
ENDBRANCH  50  74
BRANCH  62  85
ATOM     85  C   UNL A   1      45.308  29.162  28.017  1.00  0.00     0.023 A 
ATOM     86  C   UNL A   1      46.389  30.066  28.076  1.00  0.00     0.012 A 
ATOM     87  C   UNL A   1      45.548  27.855  27.554  1.00  0.00     0.148 A 
ATOM     88  C   UNL A   1      47.669  29.688  27.666  1.00  0.00     0.002 A 
ATOM     89  C   UNL A   1      46.834  27.466  27.195  1.00  0.00     0.091 A 
ATOM     90  F   UNL A   1      44.516  27.000  27.506  1.00  0.00    -0.205 F 
ATOM     91  C   UNL A   1      47.896  28.382  27.241  1.00  0.00     0.022 A 
BRANCH  89  92
ATOM     92  S   UNL A   1      47.218  25.761  26.782  1.00  0.00     0.127 S 
ATOM     93  O   UNL A   1      46.356  25.524  25.626  1.00  0.00    -0.237 OA
ATOM     94  O   UNL A   1      48.648  25.822  26.476  1.00  0.00    -0.237 OA
ATOM     95  O   UNL A   1      46.902  24.984  27.975  1.00  0.00    -0.744 OA
ENDBRANCH  89  92
ENDBRANCH  62  85
ENDBRANCH  36  37
ENDBRANCH  28  31
ENDBRANCH   1  27
TORSDOF 14
ENDMDL
MODEL 3
REMARK VINA RESULT:     -12.8      4.183      8.713
REMARK SMILES Cc1cnc2nc(-c3cc(F)c(F)cc3C(=O)NCCCNC(=O)c3ccc(-c4c5nc(c(-c6cccc(S(=O)(=O)[O-])c6F)c6ccc([nH]6)c(-c6cccc(S(=O)(=O)[O-])c6F)c6nc(c(-c7cccc(S(=O)(=O)[O-])c7F)c7ccc4[nH]7)C=C6)C=C5)cc3)[nH]c2c1
REMARK SMILES IDX 21 1 20 2 19 3 18 4 16 5 17 6 15 8 8 9 9 10 10 11 14 12
REMARK SMILES IDX 11 13 12 14 13 15 7 16 1 17 2 18 3 19 90 20 4 21 89 22 5 23
REMARK SMILES IDX 88 24 6 25 22 27 23 28 24 30 25 31 26 32 87 33 27 34 86 35
REMARK SMILES IDX 28 36 29 37 30 38 80 39 31 40 85 41 79 42 81 43 32 44 84 45
REMARK SMILES IDX 78 46 77 47 33 49 65 50 45 51 64 52 46 53 49 54 63 55 82 56
REMARK SMILES IDX 47 57 48 58 62 60 83 61 50 62 34 63 35 64 43 65 36 66 38 67
REMARK SMILES IDX 44 68 37 69 39 70 40 71 41 72 42 73 66 74 67 75 75 76 68 77
REMARK SMILES IDX 70 78 76 79 69 80 71 81 72 82 73 83 74 84 51 85 52 86 60 87
REMARK SMILES IDX 53 88 55 89 61 90 54 91 56 92 57 93 58 94 59 95
REMARK H PARENT 18 7 88 26 22 29 81 48 49 59
REMARK Flexibility Score: inf
ROOT
ATOM      1  C   UNL A   1      34.218  32.595  28.061  1.00  0.00     0.118 C 
ENDROOT
BRANCH   1   2
ATOM      2  C   UNL A   1      32.932  31.973  27.541  1.00  0.00     0.042 C 
BRANCH   2   3
ATOM      3  C   UNL A   1      33.150  30.496  27.248  1.00  0.00     0.118 C 
BRANCH   3   4
ATOM      4  N   UNL A   1      31.945  29.717  27.162  1.00  0.00    -0.352 N 
ATOM      5  C   UNL A   1      31.888  28.346  27.095  1.00  0.00     0.252 C 
ATOM      6  O   UNL A   1      31.196  27.764  27.933  1.00  0.00    -0.269 OA
ATOM      7  H   UNL A   1      31.091  30.206  27.150  1.00  0.00     0.163 HD
BRANCH   5   8
ATOM      8  C   UNL A   1      32.330  27.563  25.897  1.00  0.00     0.053 A 
ATOM      9  C   UNL A   1      31.892  27.591  24.550  1.00  0.00     0.033 A 
ATOM     10  C   UNL A   1      32.578  26.804  23.596  1.00  0.00     0.055 A 
ATOM     11  C   UNL A   1      33.650  25.999  23.958  1.00  0.00     0.159 A 
ATOM     12  C   UNL A   1      33.419  26.716  26.231  1.00  0.00     0.057 A 
ATOM     13  F   UNL A   1      34.270  25.270  23.021  1.00  0.00    -0.204 F 
ATOM     14  C   UNL A   1      34.065  25.947  25.273  1.00  0.00     0.159 A 
ATOM     15  F   UNL A   1      35.094  25.168  25.629  1.00  0.00    -0.204 F 
BRANCH   9  16
ATOM     16  C   UNL A   1      30.763  28.343  24.007  1.00  0.00     0.141 A 
ATOM     17  C   UNL A   1      28.006  32.685  21.094  1.00  0.00     0.046 C 
ATOM     18  C   UNL A   1      28.320  31.429  21.856  1.00  0.00    -0.031 A 
ATOM     19  C   UNL A   1      27.716  30.215  21.506  1.00  0.00     0.117 A 
ATOM     20  C   UNL A   1      29.331  31.420  22.819  1.00  0.00     0.035 A 
ATOM     21  N   UNL A   1      28.031  28.995  22.006  1.00  0.00    -0.235 NA
ATOM     22  C   UNL A   1      29.685  30.162  23.302  1.00  0.00     0.085 A 
ATOM     23  C   UNL A   1      29.047  28.999  22.896  1.00  0.00     0.178 A 
ATOM     24  N   UNL A   1      30.697  29.721  24.111  1.00  0.00    -0.337 N 
ATOM     25  N   UNL A   1      29.694  27.885  23.382  1.00  0.00    -0.209 NA
ATOM     26  H   UNL A   1      31.278  30.286  24.669  1.00  0.00     0.168 HD
ENDBRANCH   9  16
ENDBRANCH   5   8
ENDBRANCH   3   4
ENDBRANCH   2   3
ENDBRANCH   1   2
BRANCH   1  27
ATOM     27  N   UNL A   1      34.330  32.608  29.527  1.00  0.00    -0.352 N 
ATOM     28  C   UNL A   1      35.306  32.011  30.314  1.00  0.00     0.251 C 
ATOM     29  H   UNL A   1      33.628  33.102  30.009  1.00  0.00     0.163 HD
ATOM     30  O   UNL A   1      35.205  31.892  31.520  1.00  0.00    -0.269 OA
BRANCH  28  31
ATOM     31  C   UNL A   1      36.484  31.502  29.596  1.00  0.00     0.039 A 
ATOM     32  C   UNL A   1      37.671  32.236  29.593  1.00  0.00     0.014 A 
ATOM     33  C   UNL A   1      36.449  30.157  29.258  1.00  0.00     0.014 A 
ATOM     34  C   UNL A   1      38.870  31.551  29.416  1.00  0.00     0.010 A 
ATOM     35  C   UNL A   1      37.639  29.471  29.272  1.00  0.00     0.010 A 
ATOM     36  C   UNL A   1      38.862  30.150  29.334  1.00  0.00    -0.014 A 
BRANCH  36  37
ATOM     37  C   UNL A   1      40.111  29.389  29.455  1.00  0.00     0.031 A 
ATOM     38  C   UNL A   1      40.619  29.097  30.835  1.00  0.00     0.074 A 
ATOM     39  C   UNL A   1      40.691  28.746  28.418  1.00  0.00     0.049 A 
ATOM     40  N   UNL A   1      41.731  29.492  31.368  1.00  0.00    -0.248 NA
ATOM     41  C   UNL A   1      39.778  28.304  31.745  1.00  0.00     0.031 C 
ATOM     42  C   UNL A   1      40.200  28.602  27.040  1.00  0.00     0.029 A 
ATOM     43  N   UNL A   1      41.786  27.937  28.431  1.00  0.00    -0.354 N 
ATOM     44  C   UNL A   1      41.827  28.851  32.606  1.00  0.00     0.074 A 
ATOM     45  C   UNL A   1      40.542  28.241  32.840  1.00  0.00     0.031 C 
ATOM     46  C   UNL A   1      40.800  27.544  26.459  1.00  0.00     0.029 A 
ATOM     47  C   UNL A   1      41.871  27.105  27.326  1.00  0.00     0.049 A 
ATOM     48  H   UNL A   1      42.452  27.942  29.156  1.00  0.00     0.167 HD
ATOM     49  C   UNL A   1      43.013  28.714  33.264  1.00  0.00     0.034 A 
ATOM     50  C   UNL A   1      42.765  26.116  27.124  1.00  0.00     0.034 A 
ATOM     51  C   UNL A   1      44.052  29.506  32.662  1.00  0.00     0.049 A 
ATOM     52  C   UNL A   1      43.946  26.420  27.956  1.00  0.00     0.074 A 
ATOM     53  C   UNL A   1      44.304  30.847  32.475  1.00  0.00     0.029 A 
ATOM     54  N   UNL A   1      44.916  28.828  31.840  1.00  0.00    -0.354 N 
ATOM     55  N   UNL A   1      44.706  27.466  27.780  1.00  0.00    -0.248 NA
ATOM     56  C   UNL A   1      44.132  25.716  29.214  1.00  0.00     0.031 C 
ATOM     57  C   UNL A   1      45.019  30.921  31.242  1.00  0.00     0.029 A 
ATOM     58  C   UNL A   1      45.178  29.620  30.755  1.00  0.00     0.049 A 
ATOM     59  H   UNL A   1      45.284  27.929  32.002  1.00  0.00     0.167 HD
ATOM     60  C   UNL A   1      45.134  27.801  29.054  1.00  0.00     0.074 A 
ATOM     61  C   UNL A   1      44.909  26.599  29.848  1.00  0.00     0.031 C 
ATOM     62  C   UNL A   1      45.347  29.104  29.409  1.00  0.00     0.034 A 
BRANCH  49  63
ATOM     63  C   UNL A   1      43.373  27.641  34.272  1.00  0.00     0.023 A 
ATOM     64  C   UNL A   1      43.681  28.056  35.591  1.00  0.00     0.012 A 
ATOM     65  C   UNL A   1      43.672  26.304  33.942  1.00  0.00     0.148 A 
ATOM     66  C   UNL A   1      44.277  27.194  36.521  1.00  0.00     0.002 A 
ATOM     67  C   UNL A   1      44.185  25.426  34.897  1.00  0.00     0.091 A 
ATOM     68  F   UNL A   1      43.593  25.899  32.670  1.00  0.00    -0.205 F 
ATOM     69  C   UNL A   1      44.515  25.871  36.178  1.00  0.00     0.022 A 
BRANCH  67  70
ATOM     70  S   UNL A   1      44.420  23.684  34.525  1.00  0.00     0.127 S 
ATOM     71  O   UNL A   1      45.508  23.732  33.553  1.00  0.00    -0.237 OA
ATOM     72  O   UNL A   1      44.782  23.136  35.833  1.00  0.00    -0.237 OA
ATOM     73  O   UNL A   1      43.125  23.230  34.031  1.00  0.00    -0.744 OA
ENDBRANCH  67  70
ENDBRANCH  49  63
BRANCH  50  74
ATOM     74  C   UNL A   1      42.607  24.859  26.371  1.00  0.00     0.023 A 
ATOM     75  C   UNL A   1      43.582  24.484  25.433  1.00  0.00     0.012 A 
ATOM     76  C   UNL A   1      41.639  23.905  26.762  1.00  0.00     0.148 A 
ATOM     77  C   UNL A   1      43.624  23.181  24.928  1.00  0.00     0.002 A 
ATOM     78  C   UNL A   1      41.687  22.610  26.259  1.00  0.00     0.091 A 
ATOM     79  F   UNL A   1      40.738  24.244  27.695  1.00  0.00    -0.205 F 
ATOM     80  C   UNL A   1      42.686  22.241  25.349  1.00  0.00     0.022 A 
BRANCH  78  81
ATOM     81  S   UNL A   1      40.530  21.336  26.782  1.00  0.00     0.127 S 
ATOM     82  O   UNL A   1      41.018  20.162  26.057  1.00  0.00    -0.237 OA
ATOM     83  O   UNL A   1      40.755  21.302  28.224  1.00  0.00    -0.237 OA
ATOM     84  O   UNL A   1      39.216  21.800  26.353  1.00  0.00    -0.744 OA
ENDBRANCH  78  81
ENDBRANCH  50  74
BRANCH  62  85
ATOM     85  C   UNL A   1      45.450  30.140  28.313  1.00  0.00     0.023 A 
ATOM     86  C   UNL A   1      44.308  30.706  27.711  1.00  0.00     0.012 A 
ATOM     87  C   UNL A   1      46.710  30.694  28.022  1.00  0.00     0.148 A 
ATOM     88  C   UNL A   1      44.416  31.782  26.828  1.00  0.00     0.002 A 
ATOM     89  C   UNL A   1      46.810  31.798  27.182  1.00  0.00     0.091 A 
ATOM     90  F   UNL A   1      47.792  30.153  28.602  1.00  0.00    -0.205 F 
ATOM     91  C   UNL A   1      45.667  32.340  26.575  1.00  0.00     0.022 A 
BRANCH  89  92
ATOM     92  S   UNL A   1      48.371  32.652  26.935  1.00  0.00     0.127 S 
ATOM     93  O   UNL A   1      48.668  33.142  28.279  1.00  0.00    -0.237 OA
ATOM     94  O   UNL A   1      49.250  31.578  26.468  1.00  0.00    -0.237 OA
ATOM     95  O   UNL A   1      48.108  33.678  25.933  1.00  0.00    -0.744 OA
ENDBRANCH  89  92
ENDBRANCH  62  85
ENDBRANCH  36  37
ENDBRANCH  28  31
ENDBRANCH   1  27
TORSDOF 14
ENDMDL
