MODEL 1
REMARK VINA RESULT:     -11.8      0.000      0.000
REMARK SMILES CC1C[NH+]([C@@H](C(=O)NCCCNC(=O)c2ccc(-c3c4nc(c(-c5cccc(S(=O)(=O)[O-])c5F)c5ccc([nH]5)c(-c5cccc(S(=O)(=O)[O-])c5F)c5nc(c(-c6cccc(S(=O)(=O)[O-])c6F)c6ccc3[nH]6)C=C5)C=C4)cc2)C2CCCCC2)C1
REMARK SMILES IDX 11 1 10 2 9 3 8 4 6 5 7 6 5 8 4 9 1 10 2 11 3 12 84 13 78 15
REMARK SMILES IDX 79 16 83 17 80 18 82 19 81 20 12 21 13 22 14 24 15 25 16 26
REMARK SMILES IDX 77 27 17 28 76 29 18 30 19 31 20 32 70 33 21 34 75 35 69 36
REMARK SMILES IDX 71 37 22 38 74 39 68 40 67 41 23 43 55 44 35 45 54 46 36 47
REMARK SMILES IDX 39 48 53 49 72 50 37 51 38 52 52 54 73 55 40 56 24 57 25 58
REMARK SMILES IDX 33 59 26 60 28 61 34 62 27 63 29 64 30 65 31 66 32 67 56 68
REMARK SMILES IDX 57 69 65 70 58 71 60 72 66 73 59 74 61 75 62 76 63 77 64 78
REMARK SMILES IDX 41 79 42 80 50 81 43 82 45 83 51 84 44 85 46 86 47 87 48 88
REMARK SMILES IDX 49 89
REMARK H PARENT 8 7 4 14 12 23 71 42 39 53
REMARK Flexibility Score: inf
ROOT
ATOM      1  C   UNL A   1      32.933  29.426  26.361  1.00  0.00     0.118 C 
ENDROOT
BRANCH   1   2
ATOM      2  C   UNL A   1      33.429  29.112  24.951  1.00  0.00     0.042 C 
BRANCH   2   3
ATOM      3  C   UNL A   1      33.741  27.639  24.656  1.00  0.00     0.118 C 
BRANCH   3   4
ATOM      4  N   UNL A   1      33.173  27.147  23.410  1.00  0.00    -0.351 N 
ATOM      5  C   UNL A   1      31.898  26.937  22.969  1.00  0.00     0.278 C 
ATOM      6  O   UNL A   1      31.811  26.554  21.797  1.00  0.00    -0.268 OA
ATOM      7  H   UNL A   1      33.855  26.914  22.739  1.00  0.00     0.163 HD
BRANCH   5   8
ATOM      8  C   UNL A   1      30.643  27.176  23.854  1.00  0.00     0.277 C 
BRANCH   8   9
ATOM      9  N   UNL A   1      29.880  25.969  24.281  1.00  0.00    -0.324 N 
ATOM     10  C   UNL A   1      30.839  23.464  26.446  1.00  0.00     0.020 C 
ATOM     11  C   UNL A   1      30.947  24.750  25.657  1.00  0.00     0.096 C 
ATOM     12  C   UNL A   1      30.600  24.683  24.159  1.00  0.00     0.271 C 
ATOM     13  C   UNL A   1      29.785  25.774  25.735  1.00  0.00     0.271 C 
ATOM     14  H   UNL A   1      29.042  26.142  23.725  1.00  0.00     0.348 HD
ENDBRANCH   8   9
BRANCH   8  15
ATOM     15  C   UNL A   1      29.646  28.181  23.149  1.00  0.00     0.057 C 
ATOM     16  C   UNL A   1      28.150  27.916  23.453  1.00  0.00     0.010 C 
ATOM     17  C   UNL A   1      30.004  29.644  23.504  1.00  0.00     0.010 C 
ATOM     18  C   UNL A   1      27.215  28.947  22.832  1.00  0.00     0.001 C 
ATOM     19  C   UNL A   1      29.026  30.666  22.923  1.00  0.00     0.001 C 
ATOM     20  C   UNL A   1      27.584  30.348  23.295  1.00  0.00     0.000 C 
ENDBRANCH   8  15
ENDBRANCH   5   8
ENDBRANCH   3   4
ENDBRANCH   2   3
ENDBRANCH   1   2
BRANCH   1  21
ATOM     21  N   UNL A   1      32.863  30.854  26.610  1.00  0.00    -0.352 N 
ATOM     22  C   UNL A   1      33.660  31.651  27.396  1.00  0.00     0.251 C 
ATOM     23  H   UNL A   1      32.133  31.323  26.145  1.00  0.00     0.163 HD
ATOM     24  O   UNL A   1      33.271  32.788  27.658  1.00  0.00    -0.269 OA
BRANCH  22  25
ATOM     25  C   UNL A   1      34.965  31.182  27.935  1.00  0.00     0.039 A 
ATOM     26  C   UNL A   1      35.042  29.884  28.454  1.00  0.00     0.014 A 
ATOM     27  C   UNL A   1      36.080  32.021  28.034  1.00  0.00     0.014 A 
ATOM     28  C   UNL A   1      36.223  29.430  29.054  1.00  0.00     0.010 A 
ATOM     29  C   UNL A   1      37.282  31.541  28.571  1.00  0.00     0.010 A 
ATOM     30  C   UNL A   1      37.358  30.252  29.119  1.00  0.00    -0.014 A 
BRANCH  30  31
ATOM     31  C   UNL A   1      38.600  29.785  29.798  1.00  0.00     0.031 A 
ATOM     32  C   UNL A   1      38.974  30.312  31.164  1.00  0.00     0.074 A 
ATOM     33  C   UNL A   1      39.424  28.914  29.180  1.00  0.00     0.049 A 
ATOM     34  N   UNL A   1      40.001  30.003  31.916  1.00  0.00    -0.248 NA
ATOM     35  C   UNL A   1      38.095  31.335  31.752  1.00  0.00     0.031 C 
ATOM     36  C   UNL A   1      39.237  28.391  27.825  1.00  0.00     0.029 A 
ATOM     37  N   UNL A   1      40.594  28.330  29.602  1.00  0.00    -0.354 N 
ATOM     38  C   UNL A   1      39.914  30.817  33.040  1.00  0.00     0.074 A 
ATOM     39  C   UNL A   1      38.750  31.657  32.859  1.00  0.00     0.031 C 
ATOM     40  C   UNL A   1      40.254  27.563  27.530  1.00  0.00     0.029 A 
ATOM     41  C   UNL A   1      41.170  27.503  28.665  1.00  0.00     0.049 A 
ATOM     42  H   UNL A   1      40.984  28.489  30.492  1.00  0.00     0.167 HD
ATOM     43  C   UNL A   1      40.708  30.846  34.138  1.00  0.00     0.034 A 
ATOM     44  C   UNL A   1      42.301  26.771  28.715  1.00  0.00     0.034 A 
ATOM     45  C   UNL A   1      41.826  29.969  34.353  1.00  0.00     0.049 A 
ATOM     46  C   UNL A   1      43.110  26.750  29.985  1.00  0.00     0.074 A 
ATOM     47  C   UNL A   1      42.625  29.851  35.478  1.00  0.00     0.029 A 
ATOM     48  N   UNL A   1      42.308  29.057  33.428  1.00  0.00    -0.354 N 
ATOM     49  N   UNL A   1      42.901  27.393  31.109  1.00  0.00    -0.248 NA
ATOM     50  C   UNL A   1      44.283  25.862  30.013  1.00  0.00     0.031 C 
ATOM     51  C   UNL A   1      43.596  28.876  35.227  1.00  0.00     0.029 A 
ATOM     52  C   UNL A   1      43.392  28.375  33.953  1.00  0.00     0.049 A 
ATOM     53  H   UNL A   1      41.933  28.916  32.527  1.00  0.00     0.167 HD
ATOM     54  C   UNL A   1      43.892  26.962  31.985  1.00  0.00     0.074 A 
ATOM     55  C   UNL A   1      44.684  25.982  31.271  1.00  0.00     0.031 C 
ATOM     56  C   UNL A   1      44.136  27.356  33.259  1.00  0.00     0.034 A 
BRANCH  43  57
ATOM     57  C   UNL A   1      40.357  31.820  35.235  1.00  0.00     0.023 A 
ATOM     58  C   UNL A   1      41.060  33.038  35.332  1.00  0.00     0.012 A 
ATOM     59  C   UNL A   1      39.287  31.568  36.117  1.00  0.00     0.148 A 
ATOM     60  C   UNL A   1      40.727  33.976  36.308  1.00  0.00     0.002 A 
ATOM     61  C   UNL A   1      38.933  32.527  37.060  1.00  0.00     0.091 A 
ATOM     62  F   UNL A   1      38.642  30.398  36.023  1.00  0.00    -0.205 F 
ATOM     63  C   UNL A   1      39.658  33.725  37.164  1.00  0.00     0.022 A 
BRANCH  61  64
ATOM     64  S   UNL A   1      37.523  32.336  38.157  1.00  0.00     0.127 S 
ATOM     65  O   UNL A   1      37.994  33.016  39.363  1.00  0.00    -0.237 OA
ATOM     66  O   UNL A   1      36.469  33.043  37.431  1.00  0.00    -0.237 OA
ATOM     67  O   UNL A   1      37.310  30.901  38.291  1.00  0.00    -0.744 OA
ENDBRANCH  61  64
ENDBRANCH  43  57
BRANCH  44  68
ATOM     68  C   UNL A   1      42.693  25.928  27.551  1.00  0.00     0.023 A 
ATOM     69  C   UNL A   1      43.572  26.449  26.581  1.00  0.00     0.012 A 
ATOM     70  C   UNL A   1      42.219  24.610  27.408  1.00  0.00     0.148 A 
ATOM     71  C   UNL A   1      43.942  25.687  25.472  1.00  0.00     0.002 A 
ATOM     72  C   UNL A   1      42.636  23.836  26.330  1.00  0.00     0.091 A 
ATOM     73  F   UNL A   1      41.370  24.134  28.330  1.00  0.00    -0.205 F 
ATOM     74  C   UNL A   1      43.483  24.379  25.352  1.00  0.00     0.022 A 
BRANCH  72  75
ATOM     75  S   UNL A   1      42.202  22.100  26.176  1.00  0.00     0.127 S 
ATOM     76  O   UNL A   1      43.018  21.686  25.040  1.00  0.00    -0.237 OA
ATOM     77  O   UNL A   1      42.625  21.561  27.469  1.00  0.00    -0.237 OA
ATOM     78  O   UNL A   1      40.759  22.080  25.968  1.00  0.00    -0.744 OA
ENDBRANCH  72  75
ENDBRANCH  44  68
BRANCH  56  79
ATOM     79  C   UNL A   1      45.286  26.708  33.984  1.00  0.00     0.023 A 
ATOM     80  C   UNL A   1      46.571  27.282  33.914  1.00  0.00     0.012 A 
ATOM     81  C   UNL A   1      45.086  25.564  34.781  1.00  0.00     0.148 A 
ATOM     82  C   UNL A   1      47.644  26.706  34.592  1.00  0.00     0.002 A 
ATOM     83  C   UNL A   1      46.151  25.022  35.493  1.00  0.00     0.091 A 
ATOM     84  F   UNL A   1      43.862  25.015  34.821  1.00  0.00    -0.205 F 
ATOM     85  C   UNL A   1      47.433  25.583  35.390  1.00  0.00     0.022 A 
BRANCH  83  86
ATOM     86  S   UNL A   1      45.935  23.634  36.614  1.00  0.00     0.127 S 
ATOM     87  O   UNL A   1      47.318  23.231  36.860  1.00  0.00    -0.237 OA
ATOM     88  O   UNL A   1      45.268  24.254  37.760  1.00  0.00    -0.237 OA
ATOM     89  O   UNL A   1      45.113  22.672  35.893  1.00  0.00    -0.744 OA
ENDBRANCH  83  86
ENDBRANCH  56  79
ENDBRANCH  30  31
ENDBRANCH  22  25
ENDBRANCH   1  21
TORSDOF 15
ENDMDL
MODEL 2
REMARK VINA RESULT:     -11.8      1.737      2.279
REMARK SMILES CC1C[NH+]([C@@H](C(=O)NCCCNC(=O)c2ccc(-c3c4nc(c(-c5cccc(S(=O)(=O)[O-])c5F)c5ccc([nH]5)c(-c5cccc(S(=O)(=O)[O-])c5F)c5nc(c(-c6cccc(S(=O)(=O)[O-])c6F)c6ccc3[nH]6)C=C5)C=C4)cc2)C2CCCCC2)C1
REMARK SMILES IDX 11 1 10 2 9 3 8 4 6 5 7 6 5 8 4 9 1 10 2 11 3 12 84 13 78 15
REMARK SMILES IDX 79 16 83 17 80 18 82 19 81 20 12 21 13 22 14 24 15 25 16 26
REMARK SMILES IDX 77 27 17 28 76 29 18 30 19 31 20 32 70 33 21 34 75 35 69 36
REMARK SMILES IDX 71 37 22 38 74 39 68 40 67 41 23 43 55 44 35 45 54 46 36 47
REMARK SMILES IDX 39 48 53 49 72 50 37 51 38 52 52 54 73 55 40 56 24 57 25 58
REMARK SMILES IDX 33 59 26 60 28 61 34 62 27 63 29 64 30 65 31 66 32 67 56 68
REMARK SMILES IDX 57 69 65 70 58 71 60 72 66 73 59 74 61 75 62 76 63 77 64 78
REMARK SMILES IDX 41 79 42 80 50 81 43 82 45 83 51 84 44 85 46 86 47 87 48 88
REMARK SMILES IDX 49 89
REMARK H PARENT 8 7 4 14 12 23 71 42 39 53
REMARK Flexibility Score: inf
ROOT
ATOM      1  C   UNL A   1      32.715  29.225  25.605  1.00  0.00     0.118 C 
ENDROOT
BRANCH   1   2
ATOM      2  C   UNL A   1      31.839  28.203  26.326  1.00  0.00     0.042 C 
BRANCH   2   3
ATOM      3  C   UNL A   1      32.397  26.776  26.417  1.00  0.00     0.118 C 
BRANCH   3   4
ATOM      4  N   UNL A   1      31.438  25.788  26.889  1.00  0.00    -0.351 N 
ATOM      5  C   UNL A   1      30.850  24.694  26.322  1.00  0.00     0.278 C 
ATOM      6  O   UNL A   1      30.112  24.053  27.078  1.00  0.00    -0.268 OA
ATOM      7  H   UNL A   1      31.150  25.943  27.817  1.00  0.00     0.163 HD
BRANCH   5   8
ATOM      8  C   UNL A   1      31.096  24.265  24.849  1.00  0.00     0.277 C 
BRANCH   8   9
ATOM      9  N   UNL A   1      32.511  24.036  24.441  1.00  0.00    -0.324 N 
ATOM     10  C   UNL A   1      34.366  21.136  24.624  1.00  0.00     0.020 C 
ATOM     11  C   UNL A   1      33.158  22.037  24.761  1.00  0.00     0.096 C 
ATOM     12  C   UNL A   1      33.371  23.393  25.457  1.00  0.00     0.271 C 
ATOM     13  C   UNL A   1      32.722  22.892  23.543  1.00  0.00     0.271 C 
ATOM     14  H   UNL A   1      32.711  24.986  24.127  1.00  0.00     0.348 HD
ENDBRANCH   8   9
BRANCH   8  15
ATOM     15  C   UNL A   1      30.444  25.304  23.850  1.00  0.00     0.057 C 
ATOM     16  C   UNL A   1      29.314  26.164  24.469  1.00  0.00     0.010 C 
ATOM     17  C   UNL A   1      31.527  26.223  23.234  1.00  0.00     0.010 C 
ATOM     18  C   UNL A   1      28.760  27.214  23.513  1.00  0.00     0.001 C 
ATOM     19  C   UNL A   1      30.954  27.308  22.322  1.00  0.00     0.001 C 
ATOM     20  C   UNL A   1      29.873  28.124  23.018  1.00  0.00     0.000 C 
ENDBRANCH   8  15
ENDBRANCH   5   8
ENDBRANCH   3   4
ENDBRANCH   2   3
ENDBRANCH   1   2
BRANCH   1  21
ATOM     21  N   UNL A   1      32.421  30.584  26.016  1.00  0.00    -0.352 N 
ATOM     22  C   UNL A   1      33.030  31.368  26.968  1.00  0.00     0.251 C 
ATOM     23  H   UNL A   1      31.671  31.010  25.543  1.00  0.00     0.163 HD
ATOM     24  O   UNL A   1      32.462  32.398  27.326  1.00  0.00    -0.269 OA
BRANCH  22  25
ATOM     25  C   UNL A   1      34.342  31.008  27.571  1.00  0.00     0.039 A 
ATOM     26  C   UNL A   1      34.534  29.692  28.006  1.00  0.00     0.014 A 
ATOM     27  C   UNL A   1      35.342  31.956  27.809  1.00  0.00     0.014 A 
ATOM     28  C   UNL A   1      35.718  29.328  28.662  1.00  0.00     0.010 A 
ATOM     29  C   UNL A   1      36.553  31.575  28.401  1.00  0.00     0.010 A 
ATOM     30  C   UNL A   1      36.742  30.265  28.866  1.00  0.00    -0.014 A 
BRANCH  30  31
ATOM     31  C   UNL A   1      37.982  29.890  29.604  1.00  0.00     0.031 A 
ATOM     32  C   UNL A   1      38.226  30.398  31.005  1.00  0.00     0.074 A 
ATOM     33  C   UNL A   1      38.918  29.121  29.009  1.00  0.00     0.049 A 
ATOM     34  N   UNL A   1      39.232  30.158  31.808  1.00  0.00    -0.248 NA
ATOM     35  C   UNL A   1      37.222  31.314  31.571  1.00  0.00     0.031 C 
ATOM     36  C   UNL A   1      38.859  28.634  27.631  1.00  0.00     0.029 A 
ATOM     37  N   UNL A   1      40.112  28.633  29.483  1.00  0.00    -0.354 N 
ATOM     38  C   UNL A   1      39.005  30.919  32.950  1.00  0.00     0.074 A 
ATOM     39  C   UNL A   1      37.779  31.654  32.726  1.00  0.00     0.031 C 
ATOM     40  C   UNL A   1      39.964  27.915  27.371  1.00  0.00     0.029 A 
ATOM     41  C   UNL A   1      40.815  27.898  28.557  1.00  0.00     0.049 A 
ATOM     42  H   UNL A   1      40.434  28.794  30.399  1.00  0.00     0.167 HD
ATOM     43  C   UNL A   1      39.729  30.981  34.094  1.00  0.00     0.034 A 
ATOM     44  C   UNL A   1      42.006  27.272  28.653  1.00  0.00     0.034 A 
ATOM     45  C   UNL A   1      40.911  30.203  34.349  1.00  0.00     0.049 A 
ATOM     46  C   UNL A   1      42.739  27.279  29.968  1.00  0.00     0.074 A 
ATOM     47  C   UNL A   1      41.652  30.119  35.515  1.00  0.00     0.029 A 
ATOM     48  N   UNL A   1      41.528  29.374  33.426  1.00  0.00    -0.354 N 
ATOM     49  N   UNL A   1      42.407  27.858  31.096  1.00  0.00    -0.248 NA
ATOM     50  C   UNL A   1      43.988  26.503  30.038  1.00  0.00     0.031 C 
ATOM     51  C   UNL A   1      42.723  29.246  35.293  1.00  0.00     0.029 A 
ATOM     52  C   UNL A   1      42.640  28.776  33.994  1.00  0.00     0.049 A 
ATOM     53  H   UNL A   1      41.220  29.232  32.501  1.00  0.00     0.167 HD
ATOM     54  C   UNL A   1      43.383  27.488  32.016  1.00  0.00     0.074 A 
ATOM     55  C   UNL A   1      44.303  26.612  31.321  1.00  0.00     0.031 C 
ATOM     56  C   UNL A   1      43.515  27.856  33.314  1.00  0.00     0.034 A 
BRANCH  43  57
ATOM     57  C   UNL A   1      39.225  31.877  35.198  1.00  0.00     0.023 A 
ATOM     58  C   UNL A   1      38.288  31.375  36.124  1.00  0.00     0.012 A 
ATOM     59  C   UNL A   1      39.732  33.180  35.366  1.00  0.00     0.148 A 
ATOM     60  C   UNL A   1      37.839  32.165  37.181  1.00  0.00     0.002 A 
ATOM     61  C   UNL A   1      39.312  33.948  36.447  1.00  0.00     0.091 A 
ATOM     62  F   UNL A   1      40.608  33.647  34.466  1.00  0.00    -0.205 F 
ATOM     63  C   UNL A   1      38.359  33.446  37.349  1.00  0.00     0.022 A 
BRANCH  61  64
ATOM     64  S   UNL A   1      39.979  35.579  36.798  1.00  0.00     0.127 S 
ATOM     65  O   UNL A   1      39.319  35.901  38.062  1.00  0.00    -0.237 OA
ATOM     66  O   UNL A   1      41.412  35.309  36.910  1.00  0.00    -0.237 OA
ATOM     67  O   UNL A   1      39.605  36.416  35.666  1.00  0.00    -0.744 OA
ENDBRANCH  61  64
ENDBRANCH  43  57
BRANCH  44  68
ATOM     68  C   UNL A   1      42.542  26.511  27.488  1.00  0.00     0.023 A 
ATOM     69  C   UNL A   1      43.404  27.154  26.577  1.00  0.00     0.012 A 
ATOM     70  C   UNL A   1      42.221  25.155  27.288  1.00  0.00     0.148 A 
ATOM     71  C   UNL A   1      43.906  26.470  25.469  1.00  0.00     0.002 A 
ATOM     72  C   UNL A   1      42.770  24.465  26.213  1.00  0.00     0.091 A 
ATOM     73  F   UNL A   1      41.386  24.564  28.154  1.00  0.00    -0.205 F 
ATOM     74  C   UNL A   1      43.598  25.125  25.292  1.00  0.00     0.022 A 
BRANCH  72  75
ATOM     75  S   UNL A   1      42.535  22.697  25.993  1.00  0.00     0.127 S 
ATOM     76  O   UNL A   1      43.142  22.474  24.685  1.00  0.00    -0.237 OA
ATOM     77  O   UNL A   1      43.282  22.145  27.123  1.00  0.00    -0.237 OA
ATOM     78  O   UNL A   1      41.094  22.487  26.074  1.00  0.00    -0.744 OA
ENDBRANCH  72  75
ENDBRANCH  44  68
BRANCH  56  79
ATOM     79  C   UNL A   1      44.678  27.290  34.087  1.00  0.00     0.023 A 
ATOM     80  C   UNL A   1      45.913  27.969  34.090  1.00  0.00     0.012 A 
ATOM     81  C   UNL A   1      44.534  26.120  34.857  1.00  0.00     0.148 A 
ATOM     82  C   UNL A   1      46.996  27.470  34.812  1.00  0.00     0.002 A 
ATOM     83  C   UNL A   1      45.604  25.653  35.613  1.00  0.00     0.091 A 
ATOM     84  F   UNL A   1      43.359  25.472  34.828  1.00  0.00    -0.205 F 
ATOM     85  C   UNL A   1      46.839  26.319  35.582  1.00  0.00     0.022 A 
BRANCH  83  86
ATOM     86  S   UNL A   1      45.449  24.232  36.702  1.00  0.00     0.127 S 
ATOM     87  O   UNL A   1      44.441  24.694  37.655  1.00  0.00    -0.237 OA
ATOM     88  O   UNL A   1      44.990  23.183  35.791  1.00  0.00    -0.237 OA
ATOM     89  O   UNL A   1      46.781  24.010  37.247  1.00  0.00    -0.744 OA
ENDBRANCH  83  86
ENDBRANCH  56  79
ENDBRANCH  30  31
ENDBRANCH  22  25
ENDBRANCH   1  21
TORSDOF 15
ENDMDL
MODEL 3
REMARK VINA RESULT:     -11.7      1.491      2.921
REMARK SMILES CC1C[NH+]([C@@H](C(=O)NCCCNC(=O)c2ccc(-c3c4nc(c(-c5cccc(S(=O)(=O)[O-])c5F)c5ccc([nH]5)c(-c5cccc(S(=O)(=O)[O-])c5F)c5nc(c(-c6cccc(S(=O)(=O)[O-])c6F)c6ccc3[nH]6)C=C5)C=C4)cc2)C2CCCCC2)C1
REMARK SMILES IDX 11 1 10 2 9 3 8 4 6 5 7 6 5 8 4 9 1 10 2 11 3 12 84 13 78 15
REMARK SMILES IDX 79 16 83 17 80 18 82 19 81 20 12 21 13 22 14 24 15 25 16 26
REMARK SMILES IDX 77 27 17 28 76 29 18 30 19 31 20 32 70 33 21 34 75 35 69 36
REMARK SMILES IDX 71 37 22 38 74 39 68 40 67 41 23 43 55 44 35 45 54 46 36 47
REMARK SMILES IDX 39 48 53 49 72 50 37 51 38 52 52 54 73 55 40 56 24 57 25 58
REMARK SMILES IDX 33 59 26 60 28 61 34 62 27 63 29 64 30 65 31 66 32 67 56 68
REMARK SMILES IDX 57 69 65 70 58 71 60 72 66 73 59 74 61 75 62 76 63 77 64 78
REMARK SMILES IDX 41 79 42 80 50 81 43 82 45 83 51 84 44 85 46 86 47 87 48 88
REMARK SMILES IDX 49 89
REMARK H PARENT 8 7 4 14 12 23 71 42 39 53
REMARK Flexibility Score: inf
ROOT
ATOM      1  C   UNL A   1      33.039  29.956  26.180  1.00  0.00     0.118 C 
ENDROOT
BRANCH   1   2
ATOM      2  C   UNL A   1      31.807  29.147  26.580  1.00  0.00     0.042 C 
BRANCH   2   3
ATOM      3  C   UNL A   1      32.075  27.826  27.316  1.00  0.00     0.118 C 
BRANCH   3   4
ATOM      4  N   UNL A   1      31.094  26.785  27.049  1.00  0.00    -0.351 N 
ATOM      5  C   UNL A   1      31.153  25.562  26.445  1.00  0.00     0.278 C 
ATOM      6  O   UNL A   1      30.094  24.925  26.461  1.00  0.00    -0.268 OA
ATOM      7  H   UNL A   1      30.193  27.011  27.375  1.00  0.00     0.163 HD
BRANCH   5   8
ATOM      8  C   UNL A   1      32.448  24.994  25.801  1.00  0.00     0.277 C 
BRANCH   8   9
ATOM      9  N   UNL A   1      32.605  25.178  24.330  1.00  0.00    -0.324 N 
ATOM     10  C   UNL A   1      33.810  27.914  22.614  1.00  0.00     0.020 C 
ATOM     11  C   UNL A   1      33.418  27.071  23.807  1.00  0.00     0.096 C 
ATOM     12  C   UNL A   1      32.024  26.420  23.776  1.00  0.00     0.271 C 
ATOM     13  C   UNL A   1      33.940  25.613  23.896  1.00  0.00     0.271 C 
ATOM     14  H   UNL A   1      32.238  24.269  24.046  1.00  0.00     0.348 HD
ENDBRANCH   8   9
BRANCH   8  15
ATOM     15  C   UNL A   1      32.612  23.458  26.138  1.00  0.00     0.057 C 
ATOM     16  C   UNL A   1      32.266  22.505  24.966  1.00  0.00     0.010 C 
ATOM     17  C   UNL A   1      34.041  23.162  26.653  1.00  0.00     0.010 C 
ATOM     18  C   UNL A   1      32.514  21.036  25.288  1.00  0.00     0.001 C 
ATOM     19  C   UNL A   1      34.295  21.678  26.918  1.00  0.00     0.001 C 
ATOM     20  C   UNL A   1      33.959  20.818  25.707  1.00  0.00     0.000 C 
ENDBRANCH   8  15
ENDBRANCH   5   8
ENDBRANCH   3   4
ENDBRANCH   2   3
ENDBRANCH   1   2
BRANCH   1  21
ATOM     21  N   UNL A   1      32.942  31.341  26.601  1.00  0.00    -0.352 N 
ATOM     22  C   UNL A   1      33.702  32.041  27.509  1.00  0.00     0.251 C 
ATOM     23  H   UNL A   1      32.224  31.859  26.171  1.00  0.00     0.163 HD
ATOM     24  O   UNL A   1      33.289  33.134  27.895  1.00  0.00    -0.269 OA
BRANCH  22  25
ATOM     25  C   UNL A   1      34.992  31.519  28.033  1.00  0.00     0.039 A 
ATOM     26  C   UNL A   1      35.020  30.223  28.561  1.00  0.00     0.014 A 
ATOM     27  C   UNL A   1      36.144  32.309  28.109  1.00  0.00     0.014 A 
ATOM     28  C   UNL A   1      36.188  29.722  29.148  1.00  0.00     0.010 A 
ATOM     29  C   UNL A   1      37.331  31.781  28.633  1.00  0.00     0.010 A 
ATOM     30  C   UNL A   1      37.359  30.494  29.191  1.00  0.00    -0.014 A 
BRANCH  30  31
ATOM     31  C   UNL A   1      38.589  29.978  29.855  1.00  0.00     0.031 A 
ATOM     32  C   UNL A   1      38.967  30.445  31.241  1.00  0.00     0.074 A 
ATOM     33  C   UNL A   1      39.399  29.115  29.207  1.00  0.00     0.049 A 
ATOM     34  N   UNL A   1      39.984  30.088  31.984  1.00  0.00    -0.248 NA
ATOM     35  C   UNL A   1      38.105  31.461  31.865  1.00  0.00     0.031 C 
ATOM     36  C   UNL A   1      39.208  28.648  27.833  1.00  0.00     0.029 A 
ATOM     37  N   UNL A   1      40.556  28.494  29.611  1.00  0.00    -0.354 N 
ATOM     38  C   UNL A   1      39.908  30.860  33.139  1.00  0.00     0.074 A 
ATOM     39  C   UNL A   1      38.761  31.728  32.986  1.00  0.00     0.031 C 
ATOM     40  C   UNL A   1      40.210  27.813  27.510  1.00  0.00     0.029 A 
ATOM     41  C   UNL A   1      41.120  27.692  28.645  1.00  0.00     0.049 A 
ATOM     42  H   UNL A   1      40.945  28.611  30.507  1.00  0.00     0.167 HD
ATOM     43  C   UNL A   1      40.698  30.832  34.240  1.00  0.00     0.034 A 
ATOM     44  C   UNL A   1      42.237  26.938  28.671  1.00  0.00     0.034 A 
ATOM     45  C   UNL A   1      41.799  29.926  34.426  1.00  0.00     0.049 A 
ATOM     46  C   UNL A   1      43.040  26.853  29.943  1.00  0.00     0.074 A 
ATOM     47  C   UNL A   1      42.591  29.751  35.548  1.00  0.00     0.029 A 
ATOM     48  N   UNL A   1      42.267  29.042  33.468  1.00  0.00    -0.354 N 
ATOM     49  N   UNL A   1      42.839  27.456  31.089  1.00  0.00    -0.248 NA
ATOM     50  C   UNL A   1      44.196  25.942  29.940  1.00  0.00     0.031 C 
ATOM     51  C   UNL A   1      43.544  28.767  35.264  1.00  0.00     0.029 A 
ATOM     52  C   UNL A   1      43.335  28.319  33.971  1.00  0.00     0.049 A 
ATOM     53  H   UNL A   1      41.893  28.942  32.561  1.00  0.00     0.167 HD
ATOM     54  C   UNL A   1      43.818  26.973  31.951  1.00  0.00     0.074 A 
ATOM     55  C   UNL A   1      44.594  26.006  31.203  1.00  0.00     0.031 C 
ATOM     56  C   UNL A   1      44.063  27.314  33.240  1.00  0.00     0.034 A 
BRANCH  43  57
ATOM     57  C   UNL A   1      40.360  31.770  35.373  1.00  0.00     0.023 A 
ATOM     58  C   UNL A   1      41.101  32.959  35.532  1.00  0.00     0.012 A 
ATOM     59  C   UNL A   1      39.269  31.517  36.227  1.00  0.00     0.148 A 
ATOM     60  C   UNL A   1      40.783  33.866  36.542  1.00  0.00     0.002 A 
ATOM     61  C   UNL A   1      38.931  32.446  37.204  1.00  0.00     0.091 A 
ATOM     62  F   UNL A   1      38.587  30.374  36.072  1.00  0.00    -0.205 F 
ATOM     63  C   UNL A   1      39.692  33.615  37.370  1.00  0.00     0.022 A 
BRANCH  61  64
ATOM     64  S   UNL A   1      37.497  32.256  38.271  1.00  0.00     0.127 S 
ATOM     65  O   UNL A   1      37.290  30.809  38.229  1.00  0.00    -0.237 OA
ATOM     66  O   UNL A   1      37.994  32.764  39.549  1.00  0.00    -0.237 OA
ATOM     67  O   UNL A   1      36.440  33.057  37.668  1.00  0.00    -0.744 OA
ENDBRANCH  61  64
ENDBRANCH  43  57
BRANCH  44  68
ATOM     68  C   UNL A   1      42.619  26.132  27.477  1.00  0.00     0.023 A 
ATOM     69  C   UNL A   1      43.428  26.710  26.479  1.00  0.00     0.012 A 
ATOM     70  C   UNL A   1      42.203  24.794  27.332  1.00  0.00     0.148 A 
ATOM     71  C   UNL A   1      43.785  25.984  25.343  1.00  0.00     0.002 A 
ATOM     72  C   UNL A   1      42.609  24.059  26.224  1.00  0.00     0.091 A 
ATOM     73  F   UNL A   1      41.418  24.264  28.282  1.00  0.00    -0.205 F 
ATOM     74  C   UNL A   1      43.385  24.657  25.220  1.00  0.00     0.022 A 
BRANCH  72  75
ATOM     75  S   UNL A   1      42.253  22.305  26.059  1.00  0.00     0.127 S 
ATOM     76  O   UNL A   1      42.987  21.962  24.846  1.00  0.00    -0.237 OA
ATOM     77  O   UNL A   1      42.814  21.760  27.296  1.00  0.00    -0.237 OA
ATOM     78  O   UNL A   1      40.800  22.213  25.976  1.00  0.00    -0.744 OA
ENDBRANCH  72  75
ENDBRANCH  44  68
BRANCH  56  79
ATOM     79  C   UNL A   1      45.198  26.616  33.944  1.00  0.00     0.023 A 
ATOM     80  C   UNL A   1      46.503  27.141  33.860  1.00  0.00     0.012 A 
ATOM     81  C   UNL A   1      44.965  25.476  34.737  1.00  0.00     0.148 A 
ATOM     82  C   UNL A   1      47.563  26.520  34.518  1.00  0.00     0.002 A 
ATOM     83  C   UNL A   1      46.018  24.888  35.429  1.00  0.00     0.091 A 
ATOM     84  F   UNL A   1      43.722  24.973  34.791  1.00  0.00    -0.205 F 
ATOM     85  C   UNL A   1      47.319  25.401  35.311  1.00  0.00     0.022 A 
BRANCH  83  86
ATOM     86  S   UNL A   1      45.766  23.501  36.544  1.00  0.00     0.127 S 
ATOM     87  O   UNL A   1      47.136  23.174  36.931  1.00  0.00    -0.237 OA
ATOM     88  O   UNL A   1      44.957  24.096  37.610  1.00  0.00    -0.237 OA
ATOM     89  O   UNL A   1      45.070  22.490  35.760  1.00  0.00    -0.744 OA
ENDBRANCH  83  86
ENDBRANCH  56  79
ENDBRANCH  30  31
ENDBRANCH  22  25
ENDBRANCH   1  21
TORSDOF 15
ENDMDL
