MODEL 1
REMARK VINA RESULT:     -12.2      0.000      0.000
REMARK SMILES O=C(NCCCNC(=O)c1cccnc1Nc1cccc(C(F)(F)F)c1)c1ccc(-c2c3nc(c(-c4cccc(S(=O)(=O)[O-])c4F)c4ccc([nH]4)c(-c4cccc(S(=O)(=O)[O-])c4F)c4nc(c(-c5cccc(S(=O)(=O)[O-])c5F)c5ccc2[nH]5)C=C4)C=C3)cc1
REMARK SMILES IDX 5 1 4 2 3 3 1 4 2 5 27 7 28 8 89 9 29 10 88 11 30 12 31 13
REMARK SMILES IDX 32 14 82 15 33 16 87 17 81 18 83 19 34 20 86 21 80 22 79 23
REMARK SMILES IDX 35 25 67 26 47 27 66 28 48 29 51 30 65 31 84 32 49 33 50 34
REMARK SMILES IDX 64 36 85 37 52 38 36 39 37 40 45 41 38 42 40 43 46 44 39 45
REMARK SMILES IDX 41 46 42 47 43 48 44 49 68 50 69 51 77 52 70 53 72 54 78 55
REMARK SMILES IDX 71 56 73 57 74 58 75 59 76 60 53 61 54 62 62 63 55 64 57 65
REMARK SMILES IDX 63 66 56 67 58 68 59 69 60 70 61 71 6 72 7 73 8 74 9 76
REMARK SMILES IDX 10 77 11 78 15 79 12 80 14 81 13 82 16 83 17 85 18 86 26 87
REMARK SMILES IDX 19 88 21 89 20 90 22 91 23 92 24 93 25 94
REMARK H PARENT 3 6 83 24 51 35 7 75 16 84
REMARK Flexibility Score: inf
ROOT
ATOM      1  C   UNL A   1      31.601  31.715  26.628  1.00  0.00     0.042 C 
ENDROOT
BRANCH   1   2
ATOM      2  C   UNL A   1      32.881  32.405  27.075  1.00  0.00     0.118 C 
BRANCH   2   3
ATOM      3  N   UNL A   1      32.642  33.744  27.596  1.00  0.00    -0.352 N 
ATOM      4  O   UNL A   1      32.719  35.443  29.064  1.00  0.00    -0.269 OA
ATOM      5  C   UNL A   1      33.218  34.393  28.661  1.00  0.00     0.251 C 
ATOM      6  H   UNL A   1      31.964  34.264  27.111  1.00  0.00     0.163 HD
BRANCH   5   7
ATOM      7  C   UNL A   1      34.409  33.825  29.329  1.00  0.00     0.039 A 
ATOM      8  C   UNL A   1      35.697  34.210  28.948  1.00  0.00     0.014 A 
ATOM      9  C   UNL A   1      34.235  32.913  30.373  1.00  0.00     0.014 A 
ATOM     10  C   UNL A   1      36.804  33.572  29.494  1.00  0.00     0.010 A 
ATOM     11  C   UNL A   1      35.352  32.346  30.992  1.00  0.00     0.010 A 
ATOM     12  C   UNL A   1      36.646  32.647  30.535  1.00  0.00    -0.014 A 
BRANCH  12  13
ATOM     13  C   UNL A   1      37.841  32.064  31.193  1.00  0.00     0.031 A 
ATOM     14  C   UNL A   1      38.603  30.935  30.560  1.00  0.00     0.074 A 
ATOM     15  C   UNL A   1      38.209  32.534  32.400  1.00  0.00     0.049 A 
ATOM     16  N   UNL A   1      39.629  30.273  31.027  1.00  0.00    -0.248 NA
ATOM     17  C   UNL A   1      38.149  30.484  29.235  1.00  0.00     0.031 C 
ATOM     18  C   UNL A   1      37.517  33.599  33.132  1.00  0.00     0.029 A 
ATOM     19  N   UNL A   1      39.229  32.163  33.238  1.00  0.00    -0.354 N 
ATOM     20  C   UNL A   1      39.915  29.294  30.083  1.00  0.00     0.074 A 
ATOM     21  C   UNL A   1      38.950  29.449  29.014  1.00  0.00     0.031 C 
ATOM     22  C   UNL A   1      38.123  33.788  34.311  1.00  0.00     0.029 A 
ATOM     23  C   UNL A   1      39.205  32.818  34.447  1.00  0.00     0.049 A 
ATOM     24  H   UNL A   1      39.910  31.494  32.998  1.00  0.00     0.167 HD
ATOM     25  C   UNL A   1      40.894  28.359  30.104  1.00  0.00     0.034 A 
ATOM     26  C   UNL A   1      39.937  32.634  35.562  1.00  0.00     0.034 A 
ATOM     27  C   UNL A   1      41.859  28.226  31.164  1.00  0.00     0.049 A 
ATOM     28  C   UNL A   1      41.018  31.595  35.560  1.00  0.00     0.074 A 
ATOM     29  C   UNL A   1      42.940  27.367  31.239  1.00  0.00     0.029 A 
ATOM     30  N   UNL A   1      41.844  28.952  32.345  1.00  0.00    -0.354 N 
ATOM     31  N   UNL A   1      41.363  30.772  34.601  1.00  0.00    -0.248 NA
ATOM     32  C   UNL A   1      41.831  31.477  36.777  1.00  0.00     0.031 C 
ATOM     33  C   UNL A   1      43.552  27.542  32.485  1.00  0.00     0.029 A 
ATOM     34  C   UNL A   1      42.881  28.544  33.167  1.00  0.00     0.049 A 
ATOM     35  H   UNL A   1      41.191  29.654  32.568  1.00  0.00     0.167 HD
ATOM     36  C   UNL A   1      42.452  30.058  35.086  1.00  0.00     0.074 A 
ATOM     37  C   UNL A   1      42.716  30.555  36.420  1.00  0.00     0.031 C 
ATOM     38  C   UNL A   1      43.161  29.075  34.478  1.00  0.00     0.034 A 
BRANCH  25  39
ATOM     39  C   UNL A   1      40.976  27.404  28.938  1.00  0.00     0.023 A 
ATOM     40  C   UNL A   1      40.136  26.273  28.891  1.00  0.00     0.012 A 
ATOM     41  C   UNL A   1      41.862  27.648  27.870  1.00  0.00     0.148 A 
ATOM     42  C   UNL A   1      40.209  25.376  27.825  1.00  0.00     0.002 A 
ATOM     43  C   UNL A   1      41.895  26.775  26.788  1.00  0.00     0.091 A 
ATOM     44  F   UNL A   1      42.669  28.717  27.937  1.00  0.00    -0.205 F 
ATOM     45  C   UNL A   1      41.081  25.632  26.771  1.00  0.00     0.022 A 
BRANCH  43  46
ATOM     46  S   UNL A   1      42.927  27.066  25.347  1.00  0.00     0.127 S 
ATOM     47  O   UNL A   1      44.242  27.252  25.958  1.00  0.00    -0.237 OA
ATOM     48  O   UNL A   1      42.774  25.816  24.599  1.00  0.00    -0.237 OA
ATOM     49  O   UNL A   1      42.370  28.237  24.685  1.00  0.00    -0.744 OA
ENDBRANCH  43  46
ENDBRANCH  25  39
BRANCH  26  50
ATOM     50  C   UNL A   1      39.655  33.474  36.756  1.00  0.00     0.023 A 
ATOM     51  C   UNL A   1      40.011  34.835  36.756  1.00  0.00     0.012 A 
ATOM     52  C   UNL A   1      38.949  32.944  37.857  1.00  0.00     0.148 A 
ATOM     53  C   UNL A   1      39.681  35.652  37.838  1.00  0.00     0.002 A 
ATOM     54  C   UNL A   1      38.572  33.777  38.902  1.00  0.00     0.091 A 
ATOM     55  F   UNL A   1      38.624  31.644  37.833  1.00  0.00    -0.205 F 
ATOM     56  C   UNL A   1      38.952  35.128  38.903  1.00  0.00     0.022 A 
BRANCH  54  57
ATOM     57  S   UNL A   1      37.507  33.225  40.238  1.00  0.00     0.127 S 
ATOM     58  O   UNL A   1      37.480  34.403  41.103  1.00  0.00    -0.237 OA
ATOM     59  O   UNL A   1      36.257  32.952  39.529  1.00  0.00    -0.237 OA
ATOM     60  O   UNL A   1      38.151  32.047  40.800  1.00  0.00    -0.744 OA
ENDBRANCH  54  57
ENDBRANCH  26  50
BRANCH  38  61
ATOM     61  C   UNL A   1      44.331  28.490  35.223  1.00  0.00     0.023 A 
ATOM     62  C   UNL A   1      45.624  29.018  35.037  1.00  0.00     0.012 A 
ATOM     63  C   UNL A   1      44.126  27.483  36.187  1.00  0.00     0.148 A 
ATOM     64  C   UNL A   1      46.697  28.540  35.789  1.00  0.00     0.002 A 
ATOM     65  C   UNL A   1      45.189  27.048  36.968  1.00  0.00     0.091 A 
ATOM     66  F   UNL A   1      42.890  26.981  36.331  1.00  0.00    -0.205 F 
ATOM     67  C   UNL A   1      46.476  27.567  36.763  1.00  0.00     0.022 A 
BRANCH  65  68
ATOM     68  S   UNL A   1      44.983  25.875  38.312  1.00  0.00     0.127 S 
ATOM     69  O   UNL A   1      44.023  26.570  39.170  1.00  0.00    -0.237 OA
ATOM     70  O   UNL A   1      44.445  24.704  37.619  1.00  0.00    -0.237 OA
ATOM     71  O   UNL A   1      46.305  25.685  38.891  1.00  0.00    -0.744 OA
ENDBRANCH  65  68
ENDBRANCH  38  61
ENDBRANCH  12  13
ENDBRANCH   5   7
ENDBRANCH   2   3
ENDBRANCH   1   2
BRANCH   1  72
ATOM     72  C   UNL A   1      31.775  30.238  26.300  1.00  0.00     0.118 C 
BRANCH  72  73
ATOM     73  N   UNL A   1      32.537  30.035  25.075  1.00  0.00    -0.352 N 
ATOM     74  C   UNL A   1      33.012  28.874  24.521  1.00  0.00     0.255 C 
ATOM     75  H   UNL A   1      32.739  30.854  24.567  1.00  0.00     0.163 HD
ATOM     76  O   UNL A   1      33.864  28.928  23.635  1.00  0.00    -0.269 OA
BRANCH  74  77
ATOM     77  C   UNL A   1      32.519  27.559  24.973  1.00  0.00     0.082 A 
ATOM     78  C   UNL A   1      33.083  26.945  26.099  1.00  0.00     0.019 A 
ATOM     79  C   UNL A   1      31.423  26.954  24.342  1.00  0.00     0.143 A 
ATOM     80  C   UNL A   1      32.629  25.699  26.503  1.00  0.00     0.021 A 
ATOM     81  N   UNL A   1      30.981  25.735  24.750  1.00  0.00    -0.238 NA
ATOM     82  C   UNL A   1      31.591  25.132  25.792  1.00  0.00     0.113 A 
BRANCH  79  83
ATOM     83  N   UNL A   1      30.803  27.545  23.221  1.00  0.00    -0.340 N 
ATOM     84  H   UNL A   1      31.219  27.379  22.344  1.00  0.00     0.168 HD
BRANCH  83  85
ATOM     85  C   UNL A   1      29.650  28.349  23.233  1.00  0.00     0.040 A 
ATOM     86  C   UNL A   1      28.386  27.755  23.227  1.00  0.00     0.026 A 
ATOM     87  C   UNL A   1      29.737  29.745  23.159  1.00  0.00     0.039 A 
ATOM     88  C   UNL A   1      27.231  28.540  23.227  1.00  0.00     0.003 A 
ATOM     89  C   UNL A   1      28.589  30.550  23.137  1.00  0.00     0.058 A 
ATOM     90  C   UNL A   1      27.332  29.931  23.187  1.00  0.00     0.013 A 
BRANCH  89  91
ATOM     91  C   UNL A   1      28.701  32.048  23.068  1.00  0.00     0.416 C 
ATOM     92  F   UNL A   1      27.505  32.671  23.277  1.00  0.00    -0.166 F 
ATOM     93  F   UNL A   1      29.547  32.557  24.008  1.00  0.00    -0.166 F 
ATOM     94  F   UNL A   1      29.152  32.519  21.870  1.00  0.00    -0.166 F 
ENDBRANCH  89  91
ENDBRANCH  83  85
ENDBRANCH  79  83
ENDBRANCH  74  77
ENDBRANCH  72  73
ENDBRANCH   1  72
TORSDOF 16
ENDMDL
MODEL 2
REMARK VINA RESULT:     -12.1      2.461      3.333
REMARK SMILES O=C(NCCCNC(=O)c1cccnc1Nc1cccc(C(F)(F)F)c1)c1ccc(-c2c3nc(c(-c4cccc(S(=O)(=O)[O-])c4F)c4ccc([nH]4)c(-c4cccc(S(=O)(=O)[O-])c4F)c4nc(c(-c5cccc(S(=O)(=O)[O-])c5F)c5ccc2[nH]5)C=C4)C=C3)cc1
REMARK SMILES IDX 5 1 4 2 3 3 1 4 2 5 27 7 28 8 89 9 29 10 88 11 30 12 31 13
REMARK SMILES IDX 32 14 82 15 33 16 87 17 81 18 83 19 34 20 86 21 80 22 79 23
REMARK SMILES IDX 35 25 67 26 47 27 66 28 48 29 51 30 65 31 84 32 49 33 50 34
REMARK SMILES IDX 64 36 85 37 52 38 36 39 37 40 45 41 38 42 40 43 46 44 39 45
REMARK SMILES IDX 41 46 42 47 43 48 44 49 68 50 69 51 77 52 70 53 72 54 78 55
REMARK SMILES IDX 71 56 73 57 74 58 75 59 76 60 53 61 54 62 62 63 55 64 57 65
REMARK SMILES IDX 63 66 56 67 58 68 59 69 60 70 61 71 6 72 7 73 8 74 9 76
REMARK SMILES IDX 10 77 11 78 15 79 12 80 14 81 13 82 16 83 17 85 18 86 26 87
REMARK SMILES IDX 19 88 21 89 20 90 22 91 23 92 24 93 25 94
REMARK H PARENT 3 6 83 24 51 35 7 75 16 84
REMARK Flexibility Score: inf
ROOT
ATOM      1  C   UNL A   1      32.070  27.925  26.295  1.00  0.00     0.042 C 
ENDROOT
BRANCH   1   2
ATOM      2  C   UNL A   1      32.933  28.978  25.616  1.00  0.00     0.118 C 
BRANCH   2   3
ATOM      3  N   UNL A   1      32.527  30.336  25.950  1.00  0.00    -0.352 N 
ATOM      4  O   UNL A   1      32.412  32.231  27.151  1.00  0.00    -0.269 OA
ATOM      5  C   UNL A   1      33.040  31.209  26.878  1.00  0.00     0.251 C 
ATOM      6  H   UNL A   1      31.767  30.682  25.430  1.00  0.00     0.163 HD
BRANCH   5   7
ATOM      7  C   UNL A   1      34.319  30.912  27.558  1.00  0.00     0.039 A 
ATOM      8  C   UNL A   1      34.579  29.639  28.072  1.00  0.00     0.014 A 
ATOM      9  C   UNL A   1      35.286  31.915  27.660  1.00  0.00     0.014 A 
ATOM     10  C   UNL A   1      35.728  29.412  28.821  1.00  0.00     0.010 A 
ATOM     11  C   UNL A   1      36.486  31.656  28.327  1.00  0.00     0.010 A 
ATOM     12  C   UNL A   1      36.703  30.411  28.941  1.00  0.00    -0.014 A 
BRANCH  12  13
ATOM     13  C   UNL A   1      37.979  30.118  29.640  1.00  0.00     0.031 A 
ATOM     14  C   UNL A   1      38.987  29.173  29.052  1.00  0.00     0.074 A 
ATOM     15  C   UNL A   1      38.202  30.683  30.842  1.00  0.00     0.049 A 
ATOM     16  N   UNL A   1      40.120  28.761  29.558  1.00  0.00    -0.248 NA
ATOM     17  C   UNL A   1      38.678  28.606  27.730  1.00  0.00     0.031 C 
ATOM     18  C   UNL A   1      37.275  31.583  31.531  1.00  0.00     0.029 A 
ATOM     19  N   UNL A   1      39.256  30.561  31.711  1.00  0.00    -0.354 N 
ATOM     20  C   UNL A   1      40.639  27.851  28.645  1.00  0.00     0.074 A 
ATOM     21  C   UNL A   1      39.692  27.768  27.552  1.00  0.00     0.031 C 
ATOM     22  C   UNL A   1      37.793  31.924  32.718  1.00  0.00     0.029 A 
ATOM     23  C   UNL A   1      39.057  31.219  32.902  1.00  0.00     0.049 A 
ATOM     24  H   UNL A   1      40.073  30.053  31.503  1.00  0.00     0.167 HD
ATOM     25  C   UNL A   1      41.798  27.154  28.711  1.00  0.00     0.034 A 
ATOM     26  C   UNL A   1      39.781  31.223  34.037  1.00  0.00     0.034 A 
ATOM     27  C   UNL A   1      42.740  27.258  29.795  1.00  0.00     0.049 A 
ATOM     28  C   UNL A   1      41.063  30.448  34.085  1.00  0.00     0.074 A 
ATOM     29  C   UNL A   1      43.981  26.659  29.915  1.00  0.00     0.029 A 
ATOM     30  N   UNL A   1      42.534  27.987  30.957  1.00  0.00    -0.354 N 
ATOM     31  N   UNL A   1      41.606  29.701  33.155  1.00  0.00    -0.248 NA
ATOM     32  C   UNL A   1      41.850  30.536  35.322  1.00  0.00     0.031 C 
ATOM     33  C   UNL A   1      44.506  26.990  31.170  1.00  0.00     0.029 A 
ATOM     34  C   UNL A   1      43.613  27.833  31.811  1.00  0.00     0.049 A 
ATOM     35  H   UNL A   1      41.738  28.533  31.147  1.00  0.00     0.167 HD
ATOM     36  C   UNL A   1      42.811  29.254  33.681  1.00  0.00     0.074 A 
ATOM     37  C   UNL A   1      42.925  29.824  35.008  1.00  0.00     0.031 C 
ATOM     38  C   UNL A   1      43.735  28.439  33.114  1.00  0.00     0.034 A 
BRANCH  25  39
ATOM     39  C   UNL A   1      42.119  26.218  27.573  1.00  0.00     0.023 A 
ATOM     40  C   UNL A   1      42.845  26.685  26.458  1.00  0.00     0.012 A 
ATOM     41  C   UNL A   1      41.732  24.864  27.624  1.00  0.00     0.148 A 
ATOM     42  C   UNL A   1      43.139  25.833  25.392  1.00  0.00     0.002 A 
ATOM     43  C   UNL A   1      42.071  24.010  26.581  1.00  0.00     0.091 A 
ATOM     44  F   UNL A   1      41.026  24.438  28.681  1.00  0.00    -0.205 F 
ATOM     45  C   UNL A   1      42.760  24.495  25.458  1.00  0.00     0.022 A 
BRANCH  43  46
ATOM     46  S   UNL A   1      41.697  22.253  26.613  1.00  0.00     0.127 S 
ATOM     47  O   UNL A   1      40.235  22.262  26.592  1.00  0.00    -0.237 OA
ATOM     48  O   UNL A   1      42.321  21.780  25.377  1.00  0.00    -0.237 OA
ATOM     49  O   UNL A   1      42.305  21.737  27.832  1.00  0.00    -0.744 OA
ENDBRANCH  43  46
ENDBRANCH  25  39
BRANCH  26  50
ATOM     50  C   UNL A   1      39.290  32.004  35.203  1.00  0.00     0.023 A 
ATOM     51  C   UNL A   1      38.466  31.388  36.162  1.00  0.00     0.012 A 
ATOM     52  C   UNL A   1      39.716  33.333  35.410  1.00  0.00     0.148 A 
ATOM     53  C   UNL A   1      38.064  32.085  37.302  1.00  0.00     0.002 A 
ATOM     54  C   UNL A   1      39.360  34.000  36.574  1.00  0.00     0.091 A 
ATOM     55  F   UNL A   1      40.498  33.899  34.479  1.00  0.00    -0.205 F 
ATOM     56  C   UNL A   1      38.520  33.384  37.514  1.00  0.00     0.022 A 
BRANCH  54  57
ATOM     57  S   UNL A   1      40.021  35.614  37.002  1.00  0.00     0.127 S 
ATOM     58  O   UNL A   1      39.593  36.422  35.863  1.00  0.00    -0.237 OA
ATOM     59  O   UNL A   1      39.324  35.898  38.257  1.00  0.00    -0.237 OA
ATOM     60  O   UNL A   1      41.459  35.431  37.138  1.00  0.00    -0.744 OA
ENDBRANCH  54  57
ENDBRANCH  26  50
BRANCH  38  61
ATOM     61  C   UNL A   1      44.984  28.140  33.899  1.00  0.00     0.023 A 
ATOM     62  C   UNL A   1      46.087  29.014  33.833  1.00  0.00     0.012 A 
ATOM     63  C   UNL A   1      45.021  27.044  34.784  1.00  0.00     0.148 A 
ATOM     64  C   UNL A   1      47.213  28.792  34.625  1.00  0.00     0.002 A 
ATOM     65  C   UNL A   1      46.124  26.858  35.607  1.00  0.00     0.091 A 
ATOM     66  F   UNL A   1      43.968  26.215  34.814  1.00  0.00    -0.205 F 
ATOM     67  C   UNL A   1      47.225  27.724  35.521  1.00  0.00     0.022 A 
BRANCH  65  68
ATOM     68  S   UNL A   1      46.187  25.574  36.860  1.00  0.00     0.127 S 
ATOM     69  O   UNL A   1      45.058  25.936  37.716  1.00  0.00    -0.237 OA
ATOM     70  O   UNL A   1      45.988  24.360  36.067  1.00  0.00    -0.237 OA
ATOM     71  O   UNL A   1      47.497  25.682  37.486  1.00  0.00    -0.744 OA
ENDBRANCH  65  68
ENDBRANCH  38  61
ENDBRANCH  12  13
ENDBRANCH   5   7
ENDBRANCH   2   3
ENDBRANCH   1   2
BRANCH   1  72
ATOM     72  C   UNL A   1      32.678  26.529  26.292  1.00  0.00     0.118 C 
BRANCH  72  73
ATOM     73  N   UNL A   1      31.834  25.562  26.982  1.00  0.00    -0.352 N 
ATOM     74  C   UNL A   1      31.219  24.435  26.500  1.00  0.00     0.255 C 
ATOM     75  H   UNL A   1      31.684  25.744  27.938  1.00  0.00     0.163 HD
ATOM     76  O   UNL A   1      30.329  23.900  27.160  1.00  0.00    -0.269 OA
BRANCH  74  77
ATOM     77  C   UNL A   1      31.607  23.854  25.201  1.00  0.00     0.082 A 
ATOM     78  C   UNL A   1      32.602  22.869  25.141  1.00  0.00     0.019 A 
ATOM     79  C   UNL A   1      30.925  24.209  24.029  1.00  0.00     0.143 A 
ATOM     80  C   UNL A   1      32.977  22.345  23.913  1.00  0.00     0.021 A 
ATOM     81  N   UNL A   1      31.297  23.684  22.832  1.00  0.00    -0.238 NA
ATOM     82  C   UNL A   1      32.308  22.791  22.793  1.00  0.00     0.113 A 
BRANCH  79  83
ATOM     83  N   UNL A   1      29.898  25.176  24.042  1.00  0.00    -0.340 N 
ATOM     84  H   UNL A   1      29.056  24.924  24.487  1.00  0.00     0.168 HD
BRANCH  83  85
ATOM     85  C   UNL A   1      29.957  26.463  23.481  1.00  0.00     0.040 A 
ATOM     86  C   UNL A   1      31.162  26.942  22.961  1.00  0.00     0.026 A 
ATOM     87  C   UNL A   1      28.850  27.320  23.512  1.00  0.00     0.039 A 
ATOM     88  C   UNL A   1      31.240  28.223  22.411  1.00  0.00     0.003 A 
ATOM     89  C   UNL A   1      28.914  28.617  22.983  1.00  0.00     0.058 A 
ATOM     90  C   UNL A   1      30.120  29.055  22.417  1.00  0.00     0.013 A 
BRANCH  89  91
ATOM     91  C   UNL A   1      27.712  29.521  23.015  1.00  0.00     0.416 C 
ATOM     92  F   UNL A   1      27.867  30.564  23.881  1.00  0.00    -0.166 F 
ATOM     93  F   UNL A   1      27.446  30.087  21.804  1.00  0.00    -0.166 F 
ATOM     94  F   UNL A   1      26.558  28.901  23.395  1.00  0.00    -0.166 F 
ENDBRANCH  89  91
ENDBRANCH  83  85
ENDBRANCH  79  83
ENDBRANCH  74  77
ENDBRANCH  72  73
ENDBRANCH   1  72
TORSDOF 16
ENDMDL
MODEL 3
REMARK VINA RESULT:     -11.9      6.850     12.026
REMARK SMILES O=C(NCCCNC(=O)c1cccnc1Nc1cccc(C(F)(F)F)c1)c1ccc(-c2c3nc(c(-c4cccc(S(=O)(=O)[O-])c4F)c4ccc([nH]4)c(-c4cccc(S(=O)(=O)[O-])c4F)c4nc(c(-c5cccc(S(=O)(=O)[O-])c5F)c5ccc2[nH]5)C=C4)C=C3)cc1
REMARK SMILES IDX 5 1 4 2 3 3 1 4 2 5 27 7 28 8 89 9 29 10 88 11 30 12 31 13
REMARK SMILES IDX 32 14 82 15 33 16 87 17 81 18 83 19 34 20 86 21 80 22 79 23
REMARK SMILES IDX 35 25 67 26 47 27 66 28 48 29 51 30 65 31 84 32 49 33 50 34
REMARK SMILES IDX 64 36 85 37 52 38 36 39 37 40 45 41 38 42 40 43 46 44 39 45
REMARK SMILES IDX 41 46 42 47 43 48 44 49 68 50 69 51 77 52 70 53 72 54 78 55
REMARK SMILES IDX 71 56 73 57 74 58 75 59 76 60 53 61 54 62 62 63 55 64 57 65
REMARK SMILES IDX 63 66 56 67 58 68 59 69 60 70 61 71 6 72 7 73 8 74 9 76
REMARK SMILES IDX 10 77 11 78 15 79 12 80 14 81 13 82 16 83 17 85 18 86 26 87
REMARK SMILES IDX 19 88 21 89 20 90 22 91 23 92 24 93 25 94
REMARK H PARENT 3 6 83 24 51 35 7 75 16 84
REMARK Flexibility Score: inf
ROOT
ATOM      1  C   UNL A   1      37.889  20.391  24.701  1.00  0.00     0.042 C 
ENDROOT
BRANCH   1   2
ATOM      2  C   UNL A   1      38.557  20.268  26.063  1.00  0.00     0.118 C 
BRANCH   2   3
ATOM      3  N   UNL A   1      39.725  19.398  26.036  1.00  0.00    -0.352 N 
ATOM      4  O   UNL A   1      41.894  18.842  25.852  1.00  0.00    -0.269 OA
ATOM      5  C   UNL A   1      41.061  19.710  26.109  1.00  0.00     0.251 C 
ATOM      6  H   UNL A   1      39.527  18.438  25.954  1.00  0.00     0.163 HD
BRANCH   5   7
ATOM      7  C   UNL A   1      41.491  21.079  26.468  1.00  0.00     0.039 A 
ATOM      8  C   UNL A   1      41.447  22.114  25.531  1.00  0.00     0.014 A 
ATOM      9  C   UNL A   1      41.922  21.338  27.772  1.00  0.00     0.014 A 
ATOM     10  C   UNL A   1      41.976  23.360  25.845  1.00  0.00     0.010 A 
ATOM     11  C   UNL A   1      42.361  22.619  28.116  1.00  0.00     0.010 A 
ATOM     12  C   UNL A   1      42.421  23.633  27.145  1.00  0.00    -0.014 A 
BRANCH  12  13
ATOM     13  C   UNL A   1      42.871  25.001  27.500  1.00  0.00     0.031 A 
ATOM     14  C   UNL A   1      41.933  25.986  28.139  1.00  0.00     0.074 A 
ATOM     15  C   UNL A   1      44.131  25.367  27.198  1.00  0.00     0.049 A 
ATOM     16  N   UNL A   1      42.146  27.236  28.456  1.00  0.00    -0.248 NA
ATOM     17  C   UNL A   1      40.577  25.510  28.451  1.00  0.00     0.031 C 
ATOM     18  C   UNL A   1      45.118  24.509  26.537  1.00  0.00     0.029 A 
ATOM     19  N   UNL A   1      44.790  26.558  27.373  1.00  0.00    -0.354 N 
ATOM     20  C   UNL A   1      40.942  27.714  28.958  1.00  0.00     0.074 A 
ATOM     21  C   UNL A   1      39.999  26.616  28.901  1.00  0.00     0.031 C 
ATOM     22  C   UNL A   1      46.250  25.201  26.353  1.00  0.00     0.029 A 
ATOM     23  C   UNL A   1      46.050  26.567  26.823  1.00  0.00     0.049 A 
ATOM     24  H   UNL A   1      44.398  27.328  27.844  1.00  0.00     0.167 HD
ATOM     25  C   UNL A   1      40.652  28.951  29.428  1.00  0.00     0.034 A 
ATOM     26  C   UNL A   1      46.934  27.570  26.669  1.00  0.00     0.034 A 
ATOM     27  C   UNL A   1      41.603  30.029  29.497  1.00  0.00     0.049 A 
ATOM     28  C   UNL A   1      46.593  28.930  27.200  1.00  0.00     0.074 A 
ATOM     29  C   UNL A   1      41.432  31.293  30.033  1.00  0.00     0.029 A 
ATOM     30  N   UNL A   1      42.893  29.983  28.989  1.00  0.00    -0.354 N 
ATOM     31  N   UNL A   1      45.497  29.326  27.799  1.00  0.00    -0.248 NA
ATOM     32  C   UNL A   1      47.617  29.975  27.065  1.00  0.00     0.031 C 
ATOM     33  C   UNL A   1      42.604  32.025  29.810  1.00  0.00     0.029 A 
ATOM     34  C   UNL A   1      43.522  31.202  29.177  1.00  0.00     0.049 A 
ATOM     35  H   UNL A   1      43.302  29.198  28.558  1.00  0.00     0.167 HD
ATOM     36  C   UNL A   1      45.708  30.656  28.139  1.00  0.00     0.074 A 
ATOM     37  C   UNL A   1      47.043  30.995  27.690  1.00  0.00     0.031 C 
ATOM     38  C   UNL A   1      44.867  31.517  28.763  1.00  0.00     0.034 A 
BRANCH  25  39
ATOM     39  C   UNL A   1      39.247  29.205  29.913  1.00  0.00     0.023 A 
ATOM     40  C   UNL A   1      38.855  28.778  31.198  1.00  0.00     0.012 A 
ATOM     41  C   UNL A   1      38.323  29.901  29.108  1.00  0.00     0.148 A 
ATOM     42  C   UNL A   1      37.555  28.996  31.656  1.00  0.00     0.002 A 
ATOM     43  C   UNL A   1      37.044  30.157  29.590  1.00  0.00     0.091 A 
ATOM     44  F   UNL A   1      38.702  30.285  27.881  1.00  0.00    -0.205 F 
ATOM     45  C   UNL A   1      36.653  29.693  30.856  1.00  0.00     0.022 A 
BRANCH  43  46
ATOM     46  S   UNL A   1      35.840  31.117  28.664  1.00  0.00     0.127 S 
ATOM     47  O   UNL A   1      34.862  31.443  29.701  1.00  0.00    -0.237 OA
ATOM     48  O   UNL A   1      36.639  32.253  28.201  1.00  0.00    -0.237 OA
ATOM     49  O   UNL A   1      35.363  30.242  27.602  1.00  0.00    -0.744 OA
ENDBRANCH  43  46
ENDBRANCH  25  39
BRANCH  26  50
ATOM     50  C   UNL A   1      48.225  27.294  25.983  1.00  0.00     0.023 A 
ATOM     51  C   UNL A   1      49.291  26.721  26.700  1.00  0.00     0.012 A 
ATOM     52  C   UNL A   1      48.364  27.516  24.597  1.00  0.00     0.148 A 
ATOM     53  C   UNL A   1      50.478  26.383  26.050  1.00  0.00     0.002 A 
ATOM     54  C   UNL A   1      49.527  27.124  23.947  1.00  0.00     0.091 A 
ATOM     55  F   UNL A   1      47.335  28.067  23.937  1.00  0.00    -0.205 F 
ATOM     56  C   UNL A   1      50.592  26.572  24.675  1.00  0.00     0.022 A 
BRANCH  54  57
ATOM     57  S   UNL A   1      49.703  27.190  22.162  1.00  0.00     0.127 S 
ATOM     58  O   UNL A   1      49.385  28.588  21.883  1.00  0.00    -0.237 OA
ATOM     59  O   UNL A   1      51.112  26.832  21.988  1.00  0.00    -0.237 OA
ATOM     60  O   UNL A   1      48.763  26.213  21.632  1.00  0.00    -0.744 OA
ENDBRANCH  54  57
ENDBRANCH  26  50
BRANCH  38  61
ATOM     61  C   UNL A   1      45.368  32.908  29.046  1.00  0.00     0.023 A 
ATOM     62  C   UNL A   1      46.167  33.154  30.180  1.00  0.00     0.012 A 
ATOM     63  C   UNL A   1      45.130  33.949  28.128  1.00  0.00     0.148 A 
ATOM     64  C   UNL A   1      46.708  34.420  30.402  1.00  0.00     0.002 A 
ATOM     65  C   UNL A   1      45.714  35.193  28.327  1.00  0.00     0.091 A 
ATOM     66  F   UNL A   1      44.349  33.696  27.067  1.00  0.00    -0.205 F 
ATOM     67  C   UNL A   1      46.494  35.434  29.469  1.00  0.00     0.022 A 
BRANCH  65  68
ATOM     68  S   UNL A   1      45.578  36.526  27.132  1.00  0.00     0.127 S 
ATOM     69  O   UNL A   1      46.201  37.637  27.852  1.00  0.00    -0.237 OA
ATOM     70  O   UNL A   1      46.360  36.012  26.008  1.00  0.00    -0.237 OA
ATOM     71  O   UNL A   1      44.156  36.685  26.861  1.00  0.00    -0.744 OA
ENDBRANCH  65  68
ENDBRANCH  38  61
ENDBRANCH  12  13
ENDBRANCH   5   7
ENDBRANCH   2   3
ENDBRANCH   1   2
BRANCH   1  72
ATOM     72  C   UNL A   1      36.608  21.214  24.711  1.00  0.00     0.118 C 
BRANCH  72  73
ATOM     73  N   UNL A   1      35.808  20.968  25.903  1.00  0.00    -0.352 N 
ATOM     74  C   UNL A   1      34.832  21.741  26.477  1.00  0.00     0.255 C 
ATOM     75  H   UNL A   1      35.994  20.119  26.365  1.00  0.00     0.163 HD
ATOM     76  O   UNL A   1      34.464  21.500  27.627  1.00  0.00    -0.269 OA
BRANCH  74  77
ATOM     77  C   UNL A   1      34.215  22.859  25.739  1.00  0.00     0.082 A 
ATOM     78  C   UNL A   1      34.923  24.055  25.554  1.00  0.00     0.019 A 
ATOM     79  C   UNL A   1      32.959  22.708  25.136  1.00  0.00     0.143 A 
ATOM     80  C   UNL A   1      34.327  25.109  24.879  1.00  0.00     0.021 A 
ATOM     81  N   UNL A   1      32.386  23.747  24.471  1.00  0.00    -0.238 NA
ATOM     82  C   UNL A   1      33.060  24.912  24.371  1.00  0.00     0.113 A 
BRANCH  79  83
ATOM     83  N   UNL A   1      32.218  21.515  25.271  1.00  0.00    -0.340 N 
ATOM     84  H   UNL A   1      31.530  21.497  25.975  1.00  0.00     0.168 HD
BRANCH  83  85
ATOM     85  C   UNL A   1      32.366  20.351  24.498  1.00  0.00     0.040 A 
ATOM     86  C   UNL A   1      32.170  20.402  23.116  1.00  0.00     0.026 A 
ATOM     87  C   UNL A   1      32.618  19.110  25.097  1.00  0.00     0.039 A 
ATOM     88  C   UNL A   1      32.302  19.250  22.337  1.00  0.00     0.003 A 
ATOM     89  C   UNL A   1      32.734  17.939  24.333  1.00  0.00     0.058 A 
ATOM     90  C   UNL A   1      32.587  18.025  22.941  1.00  0.00     0.013 A 
BRANCH  89  91
ATOM     91  C   UNL A   1      33.016  16.616  24.991  1.00  0.00     0.416 C 
ATOM     92  F   UNL A   1      33.651  15.744  24.156  1.00  0.00    -0.166 F 
ATOM     93  F   UNL A   1      33.822  16.733  26.083  1.00  0.00    -0.166 F 
ATOM     94  F   UNL A   1      31.900  15.959  25.423  1.00  0.00    -0.166 F 
ENDBRANCH  89  91
ENDBRANCH  83  85
ENDBRANCH  79  83
ENDBRANCH  74  77
ENDBRANCH  72  73
ENDBRANCH   1  72
TORSDOF 16
ENDMDL
