MODEL 1
REMARK VINA RESULT:      -8.1      0.000      0.000
REMARK SMILES NS(=O)(=O)c1ccc(C#Cc2cc(Cl)cc3c2O[C@H](C(F)(F)F)C(C(=O)NCCCNC(=O)c2ccc(-c4c5nc(c(-c6cccc(S(=O)(=O)[O-])c6F)c6ccc([nH]6)c(-c6cccc(S(=O)(=O)[O-])c6F)c6nc(c(-c7cccc(S(=O)(=O)[O-])c7F)c7ccc4[nH]7)C=C6)C=C5)cc2)=C3)cc1
REMARK SMILES IDX 28 1 27 2 25 3 26 4 24 6 11 7 12 8 17 9 13 10 16 11 18 12
REMARK SMILES IDX 14 13 15 14 97 15 19 16 10 17 9 18 8 19 5 20 6 21 99 22 7 23
REMARK SMILES IDX 98 24 2 25 3 26 4 27 1 28 20 31 21 32 22 33 23 34 29 35
REMARK SMILES IDX 30 36 31 37 32 38 33 40 34 41 35 42 96 43 36 44 95 45 37 46
REMARK SMILES IDX 38 47 39 48 89 49 40 50 94 51 88 52 90 53 41 54 93 55 87 56
REMARK SMILES IDX 86 57 42 59 74 60 54 61 73 62 55 63 58 64 72 65 91 66 56 67
REMARK SMILES IDX 57 68 71 70 92 71 59 72 43 73 44 74 52 75 45 76 47 77 53 78
REMARK SMILES IDX 46 79 48 80 49 81 50 82 51 83 75 84 76 85 84 86 77 87 79 88
REMARK SMILES IDX 85 89 78 90 80 91 81 92 82 93 83 94 60 95 61 96 69 97 62 98
REMARK SMILES IDX 64 99 70 100 63 101 65 102 66 103 67 104 68 105
REMARK H PARENT 27 5 1 29 1 30 31 39 90 58 58 69
REMARK Flexibility Score: inf
ROOT
ATOM      1  C   UNL A   1      48.994  25.829  38.359  1.00  0.00     0.118 C 
ENDROOT
BRANCH   1   2
ATOM      2  N   UNL A   1      49.289  24.440  38.035  1.00  0.00    -0.352 N 
ATOM      3  C   UNL A   1      48.756  23.471  37.253  1.00  0.00     0.251 C 
ATOM      4  O   UNL A   1      49.367  22.398  37.234  1.00  0.00    -0.270 OA
ATOM      5  H   UNL A   1      50.089  24.120  38.512  1.00  0.00     0.163 HD
BRANCH   3   6
ATOM      6  C   UNL A   1      47.516  23.629  36.442  1.00  0.00     0.067 C 
ATOM      7  C   UNL A   1      44.091  24.415  34.142  1.00  0.00     0.069 A 
ATOM      8  C   UNL A   1      42.887  24.721  34.774  1.00  0.00     0.041 A 
ATOM      9  C   UNL A   1      45.237  24.190  34.916  1.00  0.00     0.143 A 
ATOM     10  C   UNL A   1      42.847  24.821  36.167  1.00  0.00     0.043 A 
ATOM     11  C   UNL A   1      45.202  24.302  36.310  1.00  0.00     0.020 A 
ATOM     12  O   UNL A   1      46.394  23.909  34.246  1.00  0.00    -0.474 OA
ATOM     13  Cl  UNL A   1      41.361  25.206  36.947  1.00  0.00    -0.084 Cl
ATOM     14  C   UNL A   1      43.996  24.620  36.937  1.00  0.00     0.032 A 
ATOM     15  C   UNL A   1      46.437  24.130  37.072  1.00  0.00     0.025 C 
ATOM     16  C   UNL A   1      47.427  23.236  34.999  1.00  0.00     0.314 C 
BRANCH   7  17
ATOM     17  C   UNL A   1      44.162  24.323  32.714  1.00  0.00    -0.058 C 
ATOM     18  C   UNL A   1      44.135  24.222  31.515  1.00  0.00    -0.062 C 
BRANCH  18  19
ATOM     19  C   UNL A   1      44.051  24.132  30.089  1.00  0.00     0.025 A 
ATOM     20  C   UNL A   1      43.781  23.831  27.328  1.00  0.00     0.082 A 
ATOM     21  C   UNL A   1      44.901  23.299  27.976  1.00  0.00     0.023 A 
ATOM     22  C   UNL A   1      42.821  24.552  28.043  1.00  0.00     0.023 A 
ATOM     23  C   UNL A   1      45.031  23.447  29.361  1.00  0.00     0.018 A 
ATOM     24  C   UNL A   1      42.960  24.701  29.426  1.00  0.00     0.018 A 
BRANCH  20  25
ATOM     25  S   UNL A   1      43.585  23.518  25.599  1.00  0.00     0.238 S 
ATOM     26  O   UNL A   1      44.355  22.341  25.267  1.00  0.00    -0.207 OA
ATOM     27  O   UNL A   1      43.700  24.764  24.883  1.00  0.00    -0.207 OA
BRANCH  25  28
ATOM     28  N   UNL A   1      41.975  23.058  25.423  1.00  0.00    -0.225 NA
ATOM     29  H   UNL A   1      41.407  23.527  26.129  1.00  0.00     0.137 HD
ATOM     30  H   UNL A   1      41.894  22.048  25.537  1.00  0.00     0.137 HD
ENDBRANCH  25  28
ENDBRANCH  20  25
ENDBRANCH  18  19
ENDBRANCH   7  17
BRANCH  16  31
ATOM     31  C   UNL A   1      47.295  21.709  34.819  1.00  0.00     0.429 C 
ATOM     32  F   UNL A   1      46.867  21.129  35.967  1.00  0.00    -0.167 F 
ATOM     33  F   UNL A   1      46.398  21.372  33.861  1.00  0.00    -0.167 F 
ATOM     34  F   UNL A   1      48.463  21.123  34.475  1.00  0.00    -0.167 F 
ENDBRANCH  16  31
ENDBRANCH   3   6
ENDBRANCH   1   2
BRANCH   1  35
ATOM     35  C   UNL A   1      48.450  25.983  39.767  1.00  0.00     0.042 C 
BRANCH  35  36
ATOM     36  C   UNL A   1      48.825  27.330  40.360  1.00  0.00     0.118 C 
BRANCH  36  37
ATOM     37  N   UNL A   1      47.658  28.041  40.889  1.00  0.00    -0.352 N 
ATOM     38  C   UNL A   1      46.684  28.765  40.240  1.00  0.00     0.251 C 
ATOM     39  H   UNL A   1      47.553  27.994  41.867  1.00  0.00     0.163 HD
ATOM     40  O   UNL A   1      45.925  29.480  40.883  1.00  0.00    -0.269 OA
BRANCH  38  41
ATOM     41  C   UNL A   1      46.592  28.686  38.772  1.00  0.00     0.039 A 
ATOM     42  C   UNL A   1      45.666  27.821  38.192  1.00  0.00     0.014 A 
ATOM     43  C   UNL A   1      47.472  29.418  37.974  1.00  0.00     0.014 A 
ATOM     44  C   UNL A   1      45.799  27.486  36.857  1.00  0.00     0.010 A 
ATOM     45  C   UNL A   1      47.498  29.187  36.597  1.00  0.00     0.010 A 
ATOM     46  C   UNL A   1      46.712  28.167  36.039  1.00  0.00    -0.014 A 
BRANCH  46  47
ATOM     47  C   UNL A   1      46.816  27.783  34.609  1.00  0.00     0.031 A 
ATOM     48  C   UNL A   1      45.758  28.190  33.619  1.00  0.00     0.074 A 
ATOM     49  C   UNL A   1      47.909  27.110  34.197  1.00  0.00     0.049 A 
ATOM     50  N   UNL A   1      45.706  27.944  32.335  1.00  0.00    -0.248 NA
ATOM     51  C   UNL A   1      44.612  28.969  34.120  1.00  0.00     0.031 C 
ATOM     52  C   UNL A   1      49.002  26.663  35.065  1.00  0.00     0.029 A 
ATOM     53  N   UNL A   1      48.294  26.701  32.947  1.00  0.00    -0.354 N 
ATOM     54  C   UNL A   1      44.510  28.492  31.887  1.00  0.00     0.074 A 
ATOM     55  C   UNL A   1      43.859  29.083  33.034  1.00  0.00     0.031 C 
ATOM     56  C   UNL A   1      49.955  26.089  34.319  1.00  0.00     0.029 A 
ATOM     57  C   UNL A   1      49.505  26.051  32.934  1.00  0.00     0.049 A 
ATOM     58  H   UNL A   1      47.756  26.857  32.138  1.00  0.00     0.167 HD
ATOM     59  C   UNL A   1      44.010  28.511  30.631  1.00  0.00     0.034 A 
ATOM     60  C   UNL A   1      50.174  25.459  31.927  1.00  0.00     0.034 A 
ATOM     61  C   UNL A   1      44.682  27.964  29.486  1.00  0.00     0.049 A 
ATOM     62  C   UNL A   1      49.585  25.476  30.551  1.00  0.00     0.074 A 
ATOM     63  C   UNL A   1      44.270  27.980  28.165  1.00  0.00     0.029 A 
ATOM     64  N   UNL A   1      45.898  27.302  29.520  1.00  0.00    -0.354 N 
ATOM     65  N   UNL A   1      48.481  26.051  30.142  1.00  0.00    -0.248 NA
ATOM     66  C   UNL A   1      50.330  24.778  29.496  1.00  0.00     0.031 C 
ATOM     67  C   UNL A   1      45.224  27.301  27.404  1.00  0.00     0.029 A 
ATOM     68  C   UNL A   1      46.245  26.893  28.246  1.00  0.00     0.049 A 
ATOM     69  H   UNL A   1      46.435  27.146  30.331  1.00  0.00     0.167 HD
ATOM     70  C   UNL A   1      48.406  25.801  28.779  1.00  0.00     0.074 A 
ATOM     71  C   UNL A   1      49.583  25.033  28.429  1.00  0.00     0.031 C 
ATOM     72  C   UNL A   1      47.439  26.165  27.904  1.00  0.00     0.034 A 
BRANCH  59  73
ATOM     73  C   UNL A   1      42.680  29.175  30.399  1.00  0.00     0.023 A 
ATOM     74  C   UNL A   1      42.623  30.566  30.188  1.00  0.00     0.012 A 
ATOM     75  C   UNL A   1      41.509  28.402  30.263  1.00  0.00     0.148 A 
ATOM     76  C   UNL A   1      41.419  31.180  29.846  1.00  0.00     0.002 A 
ATOM     77  C   UNL A   1      40.320  29.016  29.894  1.00  0.00     0.091 A 
ATOM     78  F   UNL A   1      41.591  27.081  30.476  1.00  0.00    -0.205 F 
ATOM     79  C   UNL A   1      40.272  30.405  29.687  1.00  0.00     0.022 A 
BRANCH  77  80
ATOM     80  S   UNL A   1      38.797  28.104  29.617  1.00  0.00     0.127 S 
ATOM     81  O   UNL A   1      38.530  27.568  30.952  1.00  0.00    -0.237 OA
ATOM     82  O   UNL A   1      37.881  29.160  29.189  1.00  0.00    -0.237 OA
ATOM     83  O   UNL A   1      39.102  27.104  28.603  1.00  0.00    -0.744 OA
ENDBRANCH  77  80
ENDBRANCH  59  73
BRANCH  60  84
ATOM     84  C   UNL A   1      51.487  24.821  32.208  1.00  0.00     0.023 A 
ATOM     85  C   UNL A   1      52.668  25.560  32.020  1.00  0.00     0.012 A 
ATOM     86  C   UNL A   1      51.558  23.522  32.750  1.00  0.00     0.148 A 
ATOM     87  C   UNL A   1      53.904  25.013  32.364  1.00  0.00     0.002 A 
ATOM     88  C   UNL A   1      52.788  22.998  33.124  1.00  0.00     0.091 A 
ATOM     89  F   UNL A   1      50.414  22.847  32.928  1.00  0.00    -0.205 F 
ATOM     90  C   UNL A   1      53.963  23.739  32.925  1.00  0.00     0.022 A 
BRANCH  88  91
ATOM     91  S   UNL A   1      52.957  21.404  33.934  1.00  0.00     0.127 S 
ATOM     92  O   UNL A   1      54.404  21.316  34.114  1.00  0.00    -0.237 OA
ATOM     93  O   UNL A   1      52.194  21.612  35.163  1.00  0.00    -0.237 OA
ATOM     94  O   UNL A   1      52.381  20.429  33.018  1.00  0.00    -0.744 OA
ENDBRANCH  88  91
ENDBRANCH  60  84
BRANCH  72  95
ATOM     95  C   UNL A   1      47.601  25.770  26.464  1.00  0.00     0.023 A 
ATOM     96  C   UNL A   1      47.178  24.496  26.044  1.00  0.00     0.012 A 
ATOM     97  C   UNL A   1      48.035  26.714  25.513  1.00  0.00     0.148 A 
ATOM     98  C   UNL A   1      47.183  24.165  24.690  1.00  0.00     0.002 A 
ATOM     99  C   UNL A   1      48.007  26.389  24.164  1.00  0.00     0.091 A 
ATOM    100  F   UNL A   1      48.434  27.918  25.947  1.00  0.00    -0.205 F 
ATOM    101  C   UNL A   1      47.583  25.115  23.751  1.00  0.00     0.022 A 
BRANCH  99 102
ATOM    102  S   UNL A   1      48.445  27.561  22.876  1.00  0.00     0.127 S 
ATOM    103  O   UNL A   1      49.738  28.054  23.352  1.00  0.00    -0.237 OA
ATOM    104  O   UNL A   1      48.517  26.706  21.692  1.00  0.00    -0.237 OA
ATOM    105  O   UNL A   1      47.380  28.555  22.851  1.00  0.00    -0.744 OA
ENDBRANCH  99 102
ENDBRANCH  72  95
ENDBRANCH  46  47
ENDBRANCH  38  41
ENDBRANCH  36  37
ENDBRANCH  35  36
ENDBRANCH   1  35
TORSDOF 18
ENDMDL
MODEL 2
REMARK VINA RESULT:      -8.1      2.789      8.496
REMARK SMILES NS(=O)(=O)c1ccc(C#Cc2cc(Cl)cc3c2O[C@H](C(F)(F)F)C(C(=O)NCCCNC(=O)c2ccc(-c4c5nc(c(-c6cccc(S(=O)(=O)[O-])c6F)c6ccc([nH]6)c(-c6cccc(S(=O)(=O)[O-])c6F)c6nc(c(-c7cccc(S(=O)(=O)[O-])c7F)c7ccc4[nH]7)C=C6)C=C5)cc2)=C3)cc1
REMARK SMILES IDX 28 1 27 2 25 3 26 4 24 6 11 7 12 8 17 9 13 10 16 11 18 12
REMARK SMILES IDX 14 13 15 14 97 15 19 16 10 17 9 18 8 19 5 20 6 21 99 22 7 23
REMARK SMILES IDX 98 24 2 25 3 26 4 27 1 28 20 31 21 32 22 33 23 34 29 35
REMARK SMILES IDX 30 36 31 37 32 38 33 40 34 41 35 42 96 43 36 44 95 45 37 46
REMARK SMILES IDX 38 47 39 48 89 49 40 50 94 51 88 52 90 53 41 54 93 55 87 56
REMARK SMILES IDX 86 57 42 59 74 60 54 61 73 62 55 63 58 64 72 65 91 66 56 67
REMARK SMILES IDX 57 68 71 70 92 71 59 72 43 73 44 74 52 75 45 76 47 77 53 78
REMARK SMILES IDX 46 79 48 80 49 81 50 82 51 83 75 84 76 85 84 86 77 87 79 88
REMARK SMILES IDX 85 89 78 90 80 91 81 92 82 93 83 94 60 95 61 96 69 97 62 98
REMARK SMILES IDX 64 99 70 100 63 101 65 102 66 103 67 104 68 105
REMARK H PARENT 27 5 1 29 1 30 31 39 90 58 58 69
REMARK Flexibility Score: inf
ROOT
ATOM      1  C   UNL A   1      50.110  23.310  37.238  1.00  0.00     0.118 C 
ENDROOT
BRANCH   1   2
ATOM      2  N   UNL A   1      49.316  22.146  37.607  1.00  0.00    -0.352 N 
ATOM      3  C   UNL A   1      48.086  21.657  37.323  1.00  0.00     0.251 C 
ATOM      4  O   UNL A   1      47.807  20.570  37.838  1.00  0.00    -0.270 OA
ATOM      5  H   UNL A   1      49.804  21.558  38.228  1.00  0.00     0.163 HD
BRANCH   3   6
ATOM      6  C   UNL A   1      47.088  22.338  36.451  1.00  0.00     0.067 C 
ATOM      7  C   UNL A   1      44.518  24.501  33.930  1.00  0.00     0.069 A 
ATOM      8  C   UNL A   1      43.701  25.497  34.463  1.00  0.00     0.041 A 
ATOM      9  C   UNL A   1      45.398  23.810  34.772  1.00  0.00     0.143 A 
ATOM     10  C   UNL A   1      43.789  25.805  35.823  1.00  0.00     0.043 A 
ATOM     11  C   UNL A   1      45.497  24.125  36.132  1.00  0.00     0.020 A 
ATOM     12  O   UNL A   1      46.187  22.854  34.197  1.00  0.00    -0.474 OA
ATOM     13  Cl  UNL A   1      42.785  27.040  36.479  1.00  0.00    -0.084 Cl
ATOM     14  C   UNL A   1      44.686  25.131  36.657  1.00  0.00     0.032 A 
ATOM     15  C   UNL A   1      46.481  23.428  36.957  1.00  0.00     0.025 C 
ATOM     16  C   UNL A   1      46.730  21.850  35.080  1.00  0.00     0.314 C 
BRANCH   7  17
ATOM     17  C   UNL A   1      44.458  24.177  32.535  1.00  0.00    -0.058 C 
ATOM     18  C   UNL A   1      44.318  23.903  31.372  1.00  0.00    -0.062 C 
BRANCH  18  19
ATOM     19  C   UNL A   1      44.109  23.619  29.985  1.00  0.00     0.025 A 
ATOM     20  C   UNL A   1      43.712  22.901  27.318  1.00  0.00     0.082 A 
ATOM     21  C   UNL A   1      44.975  23.331  27.739  1.00  0.00     0.023 A 
ATOM     22  C   UNL A   1      42.636  22.875  28.210  1.00  0.00     0.023 A 
ATOM     23  C   UNL A   1      45.173  23.685  29.078  1.00  0.00     0.018 A 
ATOM     24  C   UNL A   1      42.839  23.234  29.545  1.00  0.00     0.018 A 
BRANCH  20  25
ATOM     25  S   UNL A   1      43.528  22.343  25.651  1.00  0.00     0.238 S 
ATOM     26  O   UNL A   1      44.043  20.995  25.571  1.00  0.00    -0.207 OA
ATOM     27  O   UNL A   1      43.937  23.398  24.757  1.00  0.00    -0.207 OA
BRANCH  25  28
ATOM     28  N   UNL A   1      41.866  22.196  25.424  1.00  0.00    -0.225 NA
ATOM     29  H   UNL A   1      41.664  21.321  24.941  1.00  0.00     0.137 HD
ATOM     30  H   UNL A   1      41.528  22.979  24.866  1.00  0.00     0.137 HD
ENDBRANCH  25  28
ENDBRANCH  20  25
ENDBRANCH  18  19
ENDBRANCH   7  17
BRANCH  16  31
ATOM     31  C   UNL A   1      45.788  20.628  35.126  1.00  0.00     0.429 C 
ATOM     32  F   UNL A   1      46.438  19.508  34.726  1.00  0.00    -0.167 F 
ATOM     33  F   UNL A   1      45.322  20.376  36.374  1.00  0.00    -0.167 F 
ATOM     34  F   UNL A   1      44.703  20.777  34.333  1.00  0.00    -0.167 F 
ENDBRANCH  16  31
ENDBRANCH   3   6
ENDBRANCH   1   2
BRANCH   1  35
ATOM     35  C   UNL A   1      51.586  22.978  37.119  1.00  0.00     0.042 C 
BRANCH  35  36
ATOM     36  C   UNL A   1      51.803  21.689  36.346  1.00  0.00     0.118 C 
BRANCH  36  37
ATOM     37  N   UNL A   1      52.834  21.832  35.315  1.00  0.00    -0.352 N 
ATOM     38  C   UNL A   1      52.790  22.455  34.089  1.00  0.00     0.251 C 
ATOM     39  H   UNL A   1      53.699  21.416  35.535  1.00  0.00     0.163 HD
ATOM     40  O   UNL A   1      53.684  22.260  33.274  1.00  0.00    -0.269 OA
BRANCH  38  41
ATOM     41  C   UNL A   1      51.646  23.326  33.769  1.00  0.00     0.039 A 
ATOM     42  C   UNL A   1      51.849  24.698  33.642  1.00  0.00     0.014 A 
ATOM     43  C   UNL A   1      50.363  22.789  33.666  1.00  0.00     0.014 A 
ATOM     44  C   UNL A   1      50.760  25.549  33.684  1.00  0.00     0.010 A 
ATOM     45  C   UNL A   1      49.269  23.650  33.552  1.00  0.00     0.010 A 
ATOM     46  C   UNL A   1      49.455  25.038  33.634  1.00  0.00    -0.014 A 
BRANCH  46  47
ATOM     47  C   UNL A   1      48.313  25.986  33.671  1.00  0.00     0.031 A 
ATOM     48  C   UNL A   1      47.934  26.693  34.945  1.00  0.00     0.074 A 
ATOM     49  C   UNL A   1      47.655  26.253  32.524  1.00  0.00     0.049 A 
ATOM     50  N   UNL A   1      46.971  27.558  35.142  1.00  0.00    -0.248 NA
ATOM     51  C   UNL A   1      48.723  26.400  36.154  1.00  0.00     0.031 C 
ATOM     52  C   UNL A   1      47.935  25.630  31.227  1.00  0.00     0.029 A 
ATOM     53  N   UNL A   1      46.632  27.124  32.258  1.00  0.00    -0.354 N 
ATOM     54  C   UNL A   1      47.010  27.873  36.494  1.00  0.00     0.074 A 
ATOM     55  C   UNL A   1      48.087  27.107  37.078  1.00  0.00     0.031 C 
ATOM     56  C   UNL A   1      47.142  26.175  30.294  1.00  0.00     0.029 A 
ATOM     57  C   UNL A   1      46.241  27.121  30.939  1.00  0.00     0.049 A 
ATOM     58  H   UNL A   1      46.218  27.697  32.942  1.00  0.00     0.167 HD
ATOM     59  C   UNL A   1      46.226  28.735  37.180  1.00  0.00     0.034 A 
ATOM     60  C   UNL A   1      45.249  27.780  30.316  1.00  0.00     0.034 A 
ATOM     61  C   UNL A   1      45.186  29.529  36.587  1.00  0.00     0.049 A 
ATOM     62  C   UNL A   1      44.382  28.710  31.106  1.00  0.00     0.074 A 
ATOM     63  C   UNL A   1      44.371  30.465  37.200  1.00  0.00     0.029 A 
ATOM     64  N   UNL A   1      44.815  29.483  35.253  1.00  0.00    -0.354 N 
ATOM     65  N   UNL A   1      44.475  29.036  32.372  1.00  0.00    -0.248 NA
ATOM     66  C   UNL A   1      43.284  29.371  30.390  1.00  0.00     0.031 C 
ATOM     67  C   UNL A   1      43.486  30.962  36.241  1.00  0.00     0.029 A 
ATOM     68  C   UNL A   1      43.773  30.363  35.027  1.00  0.00     0.049 A 
ATOM     69  H   UNL A   1      45.230  28.909  34.570  1.00  0.00     0.167 HD
ATOM     70  C   UNL A   1      43.460  29.954  32.602  1.00  0.00     0.074 A 
ATOM     71  C   UNL A   1      42.772  30.143  31.341  1.00  0.00     0.031 C 
ATOM     72  C   UNL A   1      43.124  30.572  33.759  1.00  0.00     0.034 A 
BRANCH  59  73
ATOM     73  C   UNL A   1      46.468  28.905  38.655  1.00  0.00     0.023 A 
ATOM     74  C   UNL A   1      47.455  29.807  39.098  1.00  0.00     0.012 A 
ATOM     75  C   UNL A   1      45.632  28.270  39.596  1.00  0.00     0.148 A 
ATOM     76  C   UNL A   1      47.609  30.074  40.458  1.00  0.00     0.002 A 
ATOM     77  C   UNL A   1      45.772  28.563  40.946  1.00  0.00     0.091 A 
ATOM     78  F   UNL A   1      44.706  27.412  39.146  1.00  0.00    -0.205 F 
ATOM     79  C   UNL A   1      46.760  29.463  41.379  1.00  0.00     0.022 A 
BRANCH  77  80
ATOM     80  S   UNL A   1      44.701  27.868  42.209  1.00  0.00     0.127 S 
ATOM     81  O   UNL A   1      45.617  27.765  43.345  1.00  0.00    -0.237 OA
ATOM     82  O   UNL A   1      43.674  28.900  42.344  1.00  0.00    -0.237 OA
ATOM     83  O   UNL A   1      44.229  26.593  41.684  1.00  0.00    -0.744 OA
ENDBRANCH  77  80
ENDBRANCH  59  73
BRANCH  60  84
ATOM     84  C   UNL A   1      45.053  27.580  28.856  1.00  0.00     0.023 A 
ATOM     85  C   UNL A   1      43.922  26.882  28.399  1.00  0.00     0.012 A 
ATOM     86  C   UNL A   1      45.935  28.162  27.922  1.00  0.00     0.148 A 
ATOM     87  C   UNL A   1      43.671  26.761  27.033  1.00  0.00     0.002 A 
ATOM     88  C   UNL A   1      45.660  28.069  26.565  1.00  0.00     0.091 A 
ATOM     89  F   UNL A   1      46.998  28.831  28.388  1.00  0.00    -0.205 F 
ATOM     90  C   UNL A   1      44.532  27.363  26.117  1.00  0.00     0.022 A 
BRANCH  88  91
ATOM     91  S   UNL A   1      46.660  28.883  25.315  1.00  0.00     0.127 S 
ATOM     92  O   UNL A   1      46.161  28.265  24.088  1.00  0.00    -0.237 OA
ATOM     93  O   UNL A   1      46.282  30.284  25.498  1.00  0.00    -0.237 OA
ATOM     94  O   UNL A   1      48.043  28.577  25.650  1.00  0.00    -0.744 OA
ENDBRANCH  88  91
ENDBRANCH  60  84
BRANCH  72  95
ATOM     95  C   UNL A   1      41.975  31.538  33.739  1.00  0.00     0.023 A 
ATOM     96  C   UNL A   1      42.169  32.835  33.229  1.00  0.00     0.012 A 
ATOM     97  C   UNL A   1      40.680  31.110  34.089  1.00  0.00     0.148 A 
ATOM     98  C   UNL A   1      41.085  33.695  33.065  1.00  0.00     0.002 A 
ATOM     99  C   UNL A   1      39.600  31.960  33.892  1.00  0.00     0.091 A 
ATOM    100  F   UNL A   1      40.529  29.868  34.573  1.00  0.00    -0.205 F 
ATOM    101  C   UNL A   1      39.801  33.253  33.382  1.00  0.00     0.022 A 
BRANCH  99 102
ATOM    102  S   UNL A   1      37.906  31.464  34.214  1.00  0.00     0.127 S 
ATOM    103  O   UNL A   1      37.169  32.681  33.872  1.00  0.00    -0.237 OA
ATOM    104  O   UNL A   1      37.725  30.357  33.277  1.00  0.00    -0.237 OA
ATOM    105  O   UNL A   1      37.852  31.089  35.622  1.00  0.00    -0.744 OA
ENDBRANCH  99 102
ENDBRANCH  72  95
ENDBRANCH  46  47
ENDBRANCH  38  41
ENDBRANCH  36  37
ENDBRANCH  35  36
ENDBRANCH   1  35
TORSDOF 18
ENDMDL
MODEL 3
REMARK VINA RESULT:      -8.0      5.530     10.816
REMARK SMILES NS(=O)(=O)c1ccc(C#Cc2cc(Cl)cc3c2O[C@H](C(F)(F)F)C(C(=O)NCCCNC(=O)c2ccc(-c4c5nc(c(-c6cccc(S(=O)(=O)[O-])c6F)c6ccc([nH]6)c(-c6cccc(S(=O)(=O)[O-])c6F)c6nc(c(-c7cccc(S(=O)(=O)[O-])c7F)c7ccc4[nH]7)C=C6)C=C5)cc2)=C3)cc1
REMARK SMILES IDX 28 1 27 2 25 3 26 4 24 6 11 7 12 8 17 9 13 10 16 11 18 12
REMARK SMILES IDX 14 13 15 14 97 15 19 16 10 17 9 18 8 19 5 20 6 21 99 22 7 23
REMARK SMILES IDX 98 24 2 25 3 26 4 27 1 28 20 31 21 32 22 33 23 34 29 35
REMARK SMILES IDX 30 36 31 37 32 38 33 40 34 41 35 42 96 43 36 44 95 45 37 46
REMARK SMILES IDX 38 47 39 48 89 49 40 50 94 51 88 52 90 53 41 54 93 55 87 56
REMARK SMILES IDX 86 57 42 59 74 60 54 61 73 62 55 63 58 64 72 65 91 66 56 67
REMARK SMILES IDX 57 68 71 70 92 71 59 72 43 73 44 74 52 75 45 76 47 77 53 78
REMARK SMILES IDX 46 79 48 80 49 81 50 82 51 83 75 84 76 85 84 86 77 87 79 88
REMARK SMILES IDX 85 89 78 90 80 91 81 92 82 93 83 94 60 95 61 96 69 97 62 98
REMARK SMILES IDX 64 99 70 100 63 101 65 102 66 103 67 104 68 105
REMARK H PARENT 27 5 1 29 1 30 31 39 90 58 58 69
REMARK Flexibility Score: inf
ROOT
ATOM      1  C   UNL A   1      46.459  23.382  25.894  1.00  0.00     0.118 C 
ENDROOT
BRANCH   1   2
ATOM      2  N   UNL A   1      45.854  22.087  25.615  1.00  0.00    -0.352 N 
ATOM      3  C   UNL A   1      44.614  21.544  25.653  1.00  0.00     0.251 C 
ATOM      4  O   UNL A   1      44.529  20.371  25.281  1.00  0.00    -0.270 OA
ATOM      5  H   UNL A   1      46.527  21.431  25.320  1.00  0.00     0.163 HD
BRANCH   3   6
ATOM      6  C   UNL A   1      43.391  22.267  26.103  1.00  0.00     0.067 C 
ATOM      7  C   UNL A   1      39.994  24.525  27.105  1.00  0.00     0.069 A 
ATOM      8  C   UNL A   1      40.112  25.605  27.978  1.00  0.00     0.041 A 
ATOM      9  C   UNL A   1      41.139  23.800  26.748  1.00  0.00     0.143 A 
ATOM     10  C   UNL A   1      41.373  25.961  28.465  1.00  0.00     0.043 A 
ATOM     11  C   UNL A   1      42.403  24.163  27.224  1.00  0.00     0.020 A 
ATOM     12  O   UNL A   1      40.970  22.761  25.877  1.00  0.00    -0.474 OA
ATOM     13  Cl  UNL A   1      41.519  27.300  29.538  1.00  0.00    -0.084 Cl
ATOM     14  C   UNL A   1      42.517  25.252  28.089  1.00  0.00     0.032 A 
ATOM     15  C   UNL A   1      43.577  23.423  26.768  1.00  0.00     0.025 C 
ATOM     16  C   UNL A   1      42.003  21.753  25.868  1.00  0.00     0.314 C 
BRANCH   7  17
ATOM     17  C   UNL A   1      38.716  24.149  26.578  1.00  0.00    -0.058 C 
ATOM     18  C   UNL A   1      37.636  23.772  26.202  1.00  0.00    -0.062 C 
BRANCH  18  19
ATOM     19  C   UNL A   1      36.335  23.324  25.811  1.00  0.00     0.025 A 
ATOM     20  C   UNL A   1      33.746  22.479  25.205  1.00  0.00     0.082 A 
ATOM     21  C   UNL A   1      34.744  21.530  25.449  1.00  0.00     0.023 A 
ATOM     22  C   UNL A   1      34.044  23.844  25.214  1.00  0.00     0.023 A 
ATOM     23  C   UNL A   1      36.040  21.956  25.758  1.00  0.00     0.018 A 
ATOM     24  C   UNL A   1      35.342  24.263  25.519  1.00  0.00     0.018 A 
BRANCH  20  25
ATOM     25  S   UNL A   1      32.093  21.909  24.941  1.00  0.00     0.238 S 
ATOM     26  O   UNL A   1      31.874  21.814  23.516  1.00  0.00    -0.207 OA
ATOM     27  O   UNL A   1      31.207  22.619  25.829  1.00  0.00    -0.207 OA
BRANCH  25  28
ATOM     28  N   UNL A   1      32.089  20.319  25.497  1.00  0.00    -0.225 NA
ATOM     29  H   UNL A   1      33.031  20.060  25.792  1.00  0.00     0.137 HD
ATOM     30  H   UNL A   1      31.783  19.698  24.750  1.00  0.00     0.137 HD
ENDBRANCH  25  28
ENDBRANCH  20  25
ENDBRANCH  18  19
ENDBRANCH   7  17
BRANCH  16  31
ATOM     31  C   UNL A   1      41.634  20.615  26.842  1.00  0.00     0.429 C 
ATOM     32  F   UNL A   1      41.886  19.407  26.283  1.00  0.00    -0.167 F 
ATOM     33  F   UNL A   1      42.347  20.661  27.994  1.00  0.00    -0.167 F 
ATOM     34  F   UNL A   1      40.329  20.637  27.198  1.00  0.00    -0.167 F 
ENDBRANCH  16  31
ENDBRANCH   3   6
ENDBRANCH   1   2
BRANCH   1  35
ATOM     35  C   UNL A   1      46.634  24.213  24.636  1.00  0.00     0.042 C 
BRANCH  35  36
ATOM     36  C   UNL A   1      47.901  25.048  24.697  1.00  0.00     0.118 C 
BRANCH  36  37
ATOM     37  N   UNL A   1      47.792  26.271  23.897  1.00  0.00    -0.352 N 
ATOM     38  C   UNL A   1      47.145  27.456  24.165  1.00  0.00     0.251 C 
ATOM     39  H   UNL A   1      48.255  26.241  23.030  1.00  0.00     0.163 HD
ATOM     40  O   UNL A   1      46.973  28.273  23.267  1.00  0.00    -0.269 OA
BRANCH  38  41
ATOM     41  C   UNL A   1      46.646  27.709  25.527  1.00  0.00     0.039 A 
ATOM     42  C   UNL A   1      45.294  27.521  25.804  1.00  0.00     0.014 A 
ATOM     43  C   UNL A   1      47.507  28.198  26.510  1.00  0.00     0.014 A 
ATOM     44  C   UNL A   1      44.757  28.070  26.954  1.00  0.00     0.010 A 
ATOM     45  C   UNL A   1      46.980  28.611  27.735  1.00  0.00     0.010 A 
ATOM     46  C   UNL A   1      45.592  28.618  27.938  1.00  0.00    -0.014 A 
BRANCH  46  47
ATOM     47  C   UNL A   1      44.976  29.187  29.163  1.00  0.00     0.031 A 
ATOM     48  C   UNL A   1      44.476  30.607  29.190  1.00  0.00     0.074 A 
ATOM     49  C   UNL A   1      44.815  28.390  30.238  1.00  0.00     0.049 A 
ATOM     50  N   UNL A   1      43.904  31.251  30.175  1.00  0.00    -0.248 NA
ATOM     51  C   UNL A   1      44.632  31.414  27.967  1.00  0.00     0.031 C 
ATOM     52  C   UNL A   1      45.259  26.995  30.328  1.00  0.00     0.029 A 
ATOM     53  N   UNL A   1      44.223  28.626  31.451  1.00  0.00    -0.354 N 
ATOM     54  C   UNL A   1      43.677  32.540  29.711  1.00  0.00     0.074 A 
ATOM     55  C   UNL A   1      44.175  32.597  28.355  1.00  0.00     0.031 C 
ATOM     56  C   UNL A   1      44.879  26.485  31.507  1.00  0.00     0.029 A 
ATOM     57  C   UNL A   1      44.242  27.536  32.289  1.00  0.00     0.049 A 
ATOM     58  H   UNL A   1      43.823  29.490  31.698  1.00  0.00     0.167 HD
ATOM     59  C   UNL A   1      43.095  33.577  30.354  1.00  0.00     0.034 A 
ATOM     60  C   UNL A   1      43.823  27.398  33.560  1.00  0.00     0.034 A 
ATOM     61  C   UNL A   1      42.560  33.504  31.685  1.00  0.00     0.049 A 
ATOM     62  C   UNL A   1      43.202  28.570  34.255  1.00  0.00     0.074 A 
ATOM     63  C   UNL A   1      41.908  34.494  32.399  1.00  0.00     0.029 A 
ATOM     64  N   UNL A   1      42.614  32.387  32.502  1.00  0.00    -0.354 N 
ATOM     65  N   UNL A   1      42.946  29.762  33.775  1.00  0.00    -0.248 NA
ATOM     66  C   UNL A   1      42.803  28.382  35.655  1.00  0.00     0.031 C 
ATOM     67  C   UNL A   1      41.596  33.984  33.662  1.00  0.00     0.029 A 
ATOM     68  C   UNL A   1      42.021  32.667  33.719  1.00  0.00     0.049 A 
ATOM     69  H   UNL A   1      43.015  31.523  32.254  1.00  0.00     0.167 HD
ATOM     70  C   UNL A   1      42.339  30.463  34.807  1.00  0.00     0.074 A 
ATOM     71  C   UNL A   1      42.253  29.558  35.935  1.00  0.00     0.031 C 
ATOM     72  C   UNL A   1      41.905  31.745  34.818  1.00  0.00     0.034 A 
BRANCH  59  73
ATOM     73  C   UNL A   1      42.962  34.888  29.628  1.00  0.00     0.023 A 
ATOM     74  C   UNL A   1      41.803  35.152  28.873  1.00  0.00     0.012 A 
ATOM     75  C   UNL A   1      43.927  35.902  29.801  1.00  0.00     0.148 A 
ATOM     76  C   UNL A   1      41.605  36.407  28.299  1.00  0.00     0.002 A 
ATOM     77  C   UNL A   1      43.709  37.157  29.250  1.00  0.00     0.091 A 
ATOM     78  F   UNL A   1      45.023  35.620  30.519  1.00  0.00    -0.205 F 
ATOM     79  C   UNL A   1      42.550  37.412  28.498  1.00  0.00     0.022 A 
BRANCH  77  80
ATOM     80  S   UNL A   1      44.838  38.534  29.485  1.00  0.00     0.127 S 
ATOM     81  O   UNL A   1      45.993  38.103  28.696  1.00  0.00    -0.237 OA
ATOM     82  O   UNL A   1      44.087  39.649  28.911  1.00  0.00    -0.237 OA
ATOM     83  O   UNL A   1      45.074  38.624  30.920  1.00  0.00    -0.744 OA
ENDBRANCH  77  80
ENDBRANCH  59  73
BRANCH  60  84
ATOM     84  C   UNL A   1      43.972  26.080  34.231  1.00  0.00     0.023 A 
ATOM     85  C   UNL A   1      42.881  25.194  34.264  1.00  0.00     0.012 A 
ATOM     86  C   UNL A   1      45.217  25.669  34.749  1.00  0.00     0.148 A 
ATOM     87  C   UNL A   1      43.025  23.918  34.807  1.00  0.00     0.002 A 
ATOM     88  C   UNL A   1      45.363  24.385  35.255  1.00  0.00     0.091 A 
ATOM     89  F   UNL A   1      46.241  26.532  34.693  1.00  0.00    -0.205 F 
ATOM     90  C   UNL A   1      44.266  23.510  35.291  1.00  0.00     0.022 A 
BRANCH  88  91
ATOM     91  S   UNL A   1      46.940  23.738  35.820  1.00  0.00     0.127 S 
ATOM     92  O   UNL A   1      47.416  24.823  36.675  1.00  0.00    -0.237 OA
ATOM     93  O   UNL A   1      46.529  22.528  36.529  1.00  0.00    -0.237 OA
ATOM     94  O   UNL A   1      47.727  23.501  34.617  1.00  0.00    -0.744 OA
ENDBRANCH  88  91
ENDBRANCH  60  84
BRANCH  72  95
ATOM     95  C   UNL A   1      41.270  32.268  36.075  1.00  0.00     0.023 A 
ATOM     96  C   UNL A   1      41.988  33.155  36.898  1.00  0.00     0.012 A 
ATOM     97  C   UNL A   1      39.917  31.992  36.355  1.00  0.00     0.148 A 
ATOM     98  C   UNL A   1      41.366  33.764  37.986  1.00  0.00     0.002 A 
ATOM     99  C   UNL A   1      39.295  32.628  37.421  1.00  0.00     0.091 A 
ATOM    100  F   UNL A   1      39.262  31.141  35.553  1.00  0.00    -0.205 F 
ATOM    101  C   UNL A   1      40.018  33.512  38.238  1.00  0.00     0.022 A 
BRANCH  99 102
ATOM    102  S   UNL A   1      37.551  32.415  37.791  1.00  0.00     0.127 S 
ATOM    103  O   UNL A   1      36.923  33.030  36.622  1.00  0.00    -0.237 OA
ATOM    104  O   UNL A   1      37.426  30.959  37.856  1.00  0.00    -0.237 OA
ATOM    105  O   UNL A   1      37.315  33.106  39.052  1.00  0.00    -0.744 OA
ENDBRANCH  99 102
ENDBRANCH  72  95
ENDBRANCH  46  47
ENDBRANCH  38  41
ENDBRANCH  36  37
ENDBRANCH  35  36
ENDBRANCH   1  35
TORSDOF 18
ENDMDL
