MODEL 1
REMARK VINA RESULT:     -11.0      0.000      0.000
REMARK SMILES O=C(NCCCNC(=O)[C@H]1[C@H]2CC[C@H](C2)[C@H]1[NH2+]C/C(Cl)=C/Cl)c1ccc(-c2c3nc(c(-c4cccc(S(=O)(=O)[O-])c4F)c4ccc([nH]4)c(-c4cccc(S(=O)(=O)[O-])c4F)c4nc(c(-c5cccc(S(=O)(=O)[O-])c5F)c5ccc2[nH]5)C=C4)C=C3)cc1
REMARK SMILES IDX 5 1 4 2 3 3 1 4 2 5 23 7 24 8 85 9 25 10 84 11 26 12 27 13
REMARK SMILES IDX 28 14 78 15 29 16 83 17 77 18 79 19 30 20 82 21 76 22 75 23
REMARK SMILES IDX 31 25 63 26 43 27 62 28 44 29 47 30 61 31 80 32 45 33 46 34
REMARK SMILES IDX 60 36 81 37 48 38 32 39 33 40 41 41 34 42 36 43 42 44 35 45
REMARK SMILES IDX 37 46 38 47 39 48 40 49 64 50 65 51 73 52 66 53 68 54 74 55
REMARK SMILES IDX 67 56 69 57 70 58 71 59 72 60 49 61 50 62 58 63 51 64 53 65
REMARK SMILES IDX 59 66 52 67 54 68 55 69 56 70 57 71 6 72 7 73 8 74 9 76
REMARK SMILES IDX 10 77 11 78 16 79 12 80 15 81 14 82 13 83 17 84 18 87 19 88
REMARK SMILES IDX 20 89 21 90 22 91
REMARK H PARENT 3 6 79 24 47 35 7 75 17 85 17 86
REMARK Flexibility Score: inf
ROOT
ATOM      1  C   UNL A   1      31.668  28.917  26.770  1.00  0.00     0.042 C 
ENDROOT
BRANCH   1   2
ATOM      2  C   UNL A   1      32.573  29.817  25.940  1.00  0.00     0.118 C 
BRANCH   2   3
ATOM      3  N   UNL A   1      32.397  31.225  26.257  1.00  0.00    -0.352 N 
ATOM      4  O   UNL A   1      32.625  33.149  27.387  1.00  0.00    -0.269 OA
ATOM      5  C   UNL A   1      33.084  32.035  27.132  1.00  0.00     0.251 C 
ATOM      6  H   UNL A   1      31.670  31.671  25.766  1.00  0.00     0.163 HD
BRANCH   5   7
ATOM      7  C   UNL A   1      34.331  31.577  27.792  1.00  0.00     0.039 A 
ATOM      8  C   UNL A   1      34.492  30.259  28.219  1.00  0.00     0.014 A 
ATOM      9  C   UNL A   1      35.386  32.482  27.957  1.00  0.00     0.014 A 
ATOM     10  C   UNL A   1      35.606  29.897  28.971  1.00  0.00     0.010 A 
ATOM     11  C   UNL A   1      36.560  32.082  28.609  1.00  0.00     0.010 A 
ATOM     12  C   UNL A   1      36.665  30.797  29.163  1.00  0.00    -0.014 A 
BRANCH  12  13
ATOM     13  C   UNL A   1      37.888  30.347  29.887  1.00  0.00     0.031 A 
ATOM     14  C   UNL A   1      38.168  30.781  31.303  1.00  0.00     0.074 A 
ATOM     15  C   UNL A   1      38.757  29.532  29.255  1.00  0.00     0.049 A 
ATOM     16  N   UNL A   1      39.171  30.452  32.080  1.00  0.00    -0.248 NA
ATOM     17  C   UNL A   1      37.217  31.715  31.924  1.00  0.00     0.031 C 
ATOM     18  C   UNL A   1      38.628  29.075  27.868  1.00  0.00     0.029 A 
ATOM     19  N   UNL A   1      39.915  28.937  29.691  1.00  0.00    -0.354 N 
ATOM     20  C   UNL A   1      38.999  31.172  33.257  1.00  0.00     0.074 A 
ATOM     21  C   UNL A   1      37.801  31.965  33.090  1.00  0.00     0.031 C 
ATOM     22  C   UNL A   1      39.638  28.242  27.581  1.00  0.00     0.029 A 
ATOM     23  C   UNL A   1      40.520  28.150  28.738  1.00  0.00     0.049 A 
ATOM     24  H   UNL A   1      40.277  29.062  30.597  1.00  0.00     0.167 HD
ATOM     25  C   UNL A   1      39.761  31.164  34.378  1.00  0.00     0.034 A 
ATOM     26  C   UNL A   1      41.664  27.439  28.781  1.00  0.00     0.034 A 
ATOM     27  C   UNL A   1      40.928  30.340  34.561  1.00  0.00     0.049 A 
ATOM     28  C   UNL A   1      42.469  27.427  30.049  1.00  0.00     0.074 A 
ATOM     29  C   UNL A   1      41.714  30.201  35.691  1.00  0.00     0.029 A 
ATOM     30  N   UNL A   1      41.485  29.525  33.587  1.00  0.00    -0.354 N 
ATOM     31  N   UNL A   1      42.213  28.009  31.194  1.00  0.00    -0.248 NA
ATOM     32  C   UNL A   1      43.706  26.635  30.037  1.00  0.00     0.031 C 
ATOM     33  C   UNL A   1      42.767  29.330  35.390  1.00  0.00     0.029 A 
ATOM     34  C   UNL A   1      42.615  28.894  34.085  1.00  0.00     0.049 A 
ATOM     35  H   UNL A   1      41.131  29.411  32.676  1.00  0.00     0.167 HD
ATOM     36  C   UNL A   1      43.237  27.623  32.052  1.00  0.00     0.074 A 
ATOM     37  C   UNL A   1      44.103  26.741  31.297  1.00  0.00     0.031 C 
ATOM     38  C   UNL A   1      43.445  27.979  33.343  1.00  0.00     0.034 A 
BRANCH  25  39
ATOM     39  C   UNL A   1      39.346  32.060  35.520  1.00  0.00     0.023 A 
ATOM     40  C   UNL A   1      38.520  31.556  36.546  1.00  0.00     0.012 A 
ATOM     41  C   UNL A   1      39.833  33.379  35.613  1.00  0.00     0.148 A 
ATOM     42  C   UNL A   1      38.155  32.361  37.624  1.00  0.00     0.002 A 
ATOM     43  C   UNL A   1      39.502  34.161  36.716  1.00  0.00     0.091 A 
ATOM     44  F   UNL A   1      40.603  33.849  34.623  1.00  0.00    -0.205 F 
ATOM     45  C   UNL A   1      38.653  33.658  37.715  1.00  0.00     0.022 A 
BRANCH  43  46
ATOM     46  S   UNL A   1      40.161  35.814  36.965  1.00  0.00     0.127 S 
ATOM     47  O   UNL A   1      39.676  36.507  35.773  1.00  0.00    -0.237 OA
ATOM     48  O   UNL A   1      39.512  36.219  38.212  1.00  0.00    -0.237 OA
ATOM     49  O   UNL A   1      41.607  35.660  37.055  1.00  0.00    -0.744 OA
ENDBRANCH  43  46
ENDBRANCH  25  39
BRANCH  26  50
ATOM     50  C   UNL A   1      42.085  26.637  27.598  1.00  0.00     0.023 A 
ATOM     51  C   UNL A   1      42.818  27.257  26.567  1.00  0.00     0.012 A 
ATOM     52  C   UNL A   1      41.792  25.263  27.502  1.00  0.00     0.148 A 
ATOM     53  C   UNL A   1      43.224  26.531  25.448  1.00  0.00     0.002 A 
ATOM     54  C   UNL A   1      42.251  24.533  26.414  1.00  0.00     0.091 A 
ATOM     55  F   UNL A   1      41.084  24.694  28.488  1.00  0.00    -0.205 F 
ATOM     56  C   UNL A   1      42.951  25.168  25.376  1.00  0.00     0.022 A 
BRANCH  54  57
ATOM     57  S   UNL A   1      42.065  22.749  26.303  1.00  0.00     0.127 S 
ATOM     58  O   UNL A   1      42.797  22.299  27.484  1.00  0.00    -0.237 OA
ATOM     59  O   UNL A   1      40.612  22.593  26.382  1.00  0.00    -0.237 OA
ATOM     60  O   UNL A   1      42.641  22.372  25.020  1.00  0.00    -0.744 OA
ENDBRANCH  54  57
ENDBRANCH  26  50
BRANCH  38  61
ATOM     61  C   UNL A   1      44.635  27.377  34.047  1.00  0.00     0.023 A 
ATOM     62  C   UNL A   1      45.887  28.020  33.994  1.00  0.00     0.012 A 
ATOM     63  C   UNL A   1      44.496  26.196  34.802  1.00  0.00     0.148 A 
ATOM     64  C   UNL A   1      46.992  27.475  34.646  1.00  0.00     0.002 A 
ATOM     65  C   UNL A   1      45.589  25.687  35.494  1.00  0.00     0.091 A 
ATOM     66  F   UNL A   1      43.303  25.585  34.825  1.00  0.00    -0.205 F 
ATOM     67  C   UNL A   1      46.842  26.317  35.405  1.00  0.00     0.022 A 
BRANCH  65  68
ATOM     68  S   UNL A   1      45.461  24.258  36.574  1.00  0.00     0.127 S 
ATOM     69  O   UNL A   1      46.841  24.105  37.032  1.00  0.00    -0.237 OA
ATOM     70  O   UNL A   1      44.527  24.726  37.600  1.00  0.00    -0.237 OA
ATOM     71  O   UNL A   1      44.952  23.174  35.745  1.00  0.00    -0.744 OA
ENDBRANCH  65  68
ENDBRANCH  38  61
ENDBRANCH  12  13
ENDBRANCH   5   7
ENDBRANCH   2   3
ENDBRANCH   1   2
BRANCH   1  72
ATOM     72  C   UNL A   1      32.219  27.519  27.002  1.00  0.00     0.117 C 
BRANCH  72  73
ATOM     73  N   UNL A   1      31.522  26.496  26.234  1.00  0.00    -0.356 N 
ATOM     74  C   UNL A   1      32.000  25.406  25.564  1.00  0.00     0.229 C 
ATOM     75  H   UNL A   1      30.545  26.609  26.191  1.00  0.00     0.163 HD
ATOM     76  O   UNL A   1      31.180  24.580  25.168  1.00  0.00    -0.275 OA
BRANCH  74  77
ATOM     77  C   UNL A   1      33.501  25.240  25.389  1.00  0.00     0.140 C 
ATOM     78  C   UNL A   1      34.130  24.011  26.084  1.00  0.00     0.008 C 
ATOM     79  C   UNL A   1      34.081  25.155  23.945  1.00  0.00     0.198 C 
ATOM     80  C   UNL A   1      33.648  22.677  25.482  1.00  0.00     0.005 C 
ATOM     81  C   UNL A   1      35.557  24.094  25.528  1.00  0.00     0.014 C 
ATOM     82  C   UNL A   1      35.092  23.974  24.072  1.00  0.00     0.048 C 
ATOM     83  C   UNL A   1      34.359  22.621  24.125  1.00  0.00     0.010 C 
BRANCH  79  84
ATOM     84  N   UNL A   1      33.138  24.942  22.847  1.00  0.00    -0.338 N 
ATOM     85  H   UNL A   1      32.194  24.885  23.232  1.00  0.00     0.346 HD
ATOM     86  H   UNL A   1      33.402  24.078  22.374  1.00  0.00     0.346 HD
BRANCH  84  87
ATOM     87  C   UNL A   1      33.178  26.026  21.854  1.00  0.00     0.311 C 
BRANCH  87  88
ATOM     88  C   UNL A   1      32.544  27.287  22.384  1.00  0.00     0.083 C 
ATOM     89  Cl  UNL A   1      33.646  28.580  22.736  1.00  0.00    -0.082 Cl
ATOM     90  C   UNL A   1      31.225  27.399  22.586  1.00  0.00     0.102 C 
ATOM     91  Cl  UNL A   1      30.412  28.773  23.206  1.00  0.00    -0.091 Cl
ENDBRANCH  87  88
ENDBRANCH  84  87
ENDBRANCH  79  84
ENDBRANCH  74  77
ENDBRANCH  72  73
ENDBRANCH   1  72
TORSDOF 16
ENDMDL
MODEL 2
REMARK VINA RESULT:     -11.0      1.950      2.550
REMARK SMILES O=C(NCCCNC(=O)[C@H]1[C@H]2CC[C@H](C2)[C@H]1[NH2+]C/C(Cl)=C/Cl)c1ccc(-c2c3nc(c(-c4cccc(S(=O)(=O)[O-])c4F)c4ccc([nH]4)c(-c4cccc(S(=O)(=O)[O-])c4F)c4nc(c(-c5cccc(S(=O)(=O)[O-])c5F)c5ccc2[nH]5)C=C4)C=C3)cc1
REMARK SMILES IDX 5 1 4 2 3 3 1 4 2 5 23 7 24 8 85 9 25 10 84 11 26 12 27 13
REMARK SMILES IDX 28 14 78 15 29 16 83 17 77 18 79 19 30 20 82 21 76 22 75 23
REMARK SMILES IDX 31 25 63 26 43 27 62 28 44 29 47 30 61 31 80 32 45 33 46 34
REMARK SMILES IDX 60 36 81 37 48 38 32 39 33 40 41 41 34 42 36 43 42 44 35 45
REMARK SMILES IDX 37 46 38 47 39 48 40 49 64 50 65 51 73 52 66 53 68 54 74 55
REMARK SMILES IDX 67 56 69 57 70 58 71 59 72 60 49 61 50 62 58 63 51 64 53 65
REMARK SMILES IDX 59 66 52 67 54 68 55 69 56 70 57 71 6 72 7 73 8 74 9 76
REMARK SMILES IDX 10 77 11 78 16 79 12 80 15 81 14 82 13 83 17 84 18 87 19 88
REMARK SMILES IDX 20 89 21 90 22 91
REMARK H PARENT 3 6 79 24 47 35 7 75 17 85 17 86
REMARK Flexibility Score: inf
ROOT
ATOM      1  C   UNL A   1      31.893  28.000  25.658  1.00  0.00     0.042 C 
ENDROOT
BRANCH   1   2
ATOM      2  C   UNL A   1      32.862  29.118  25.299  1.00  0.00     0.118 C 
BRANCH   2   3
ATOM      3  N   UNL A   1      32.430  30.411  25.804  1.00  0.00    -0.352 N 
ATOM      4  O   UNL A   1      32.263  32.143  27.219  1.00  0.00    -0.269 OA
ATOM      5  C   UNL A   1      32.920  31.172  26.839  1.00  0.00     0.251 C 
ATOM      6  H   UNL A   1      31.663  30.804  25.328  1.00  0.00     0.163 HD
BRANCH   5   7
ATOM      7  C   UNL A   1      34.190  30.824  27.521  1.00  0.00     0.039 A 
ATOM      8  C   UNL A   1      34.457  29.525  27.953  1.00  0.00     0.014 A 
ATOM      9  C   UNL A   1      35.160  31.816  27.703  1.00  0.00     0.014 A 
ATOM     10  C   UNL A   1      35.585  29.260  28.724  1.00  0.00     0.010 A 
ATOM     11  C   UNL A   1      36.353  31.519  28.374  1.00  0.00     0.010 A 
ATOM     12  C   UNL A   1      36.560  30.249  28.933  1.00  0.00    -0.014 A 
BRANCH  12  13
ATOM     13  C   UNL A   1      37.804  29.906  29.678  1.00  0.00     0.031 A 
ATOM     14  C   UNL A   1      38.054  30.423  31.071  1.00  0.00     0.074 A 
ATOM     15  C   UNL A   1      38.722  29.114  29.086  1.00  0.00     0.049 A 
ATOM     16  N   UNL A   1      39.072  30.190  31.864  1.00  0.00    -0.248 NA
ATOM     17  C   UNL A   1      37.048  31.328  31.647  1.00  0.00     0.031 C 
ATOM     18  C   UNL A   1      38.624  28.585  27.723  1.00  0.00     0.029 A 
ATOM     19  N   UNL A   1      39.911  28.609  29.550  1.00  0.00    -0.354 N 
ATOM     20  C   UNL A   1      38.855  30.955  33.005  1.00  0.00     0.074 A 
ATOM     21  C   UNL A   1      37.612  31.667  32.799  1.00  0.00     0.031 C 
ATOM     22  C   UNL A   1      39.682  27.800  27.476  1.00  0.00     0.029 A 
ATOM     23  C   UNL A   1      40.564  27.815  28.636  1.00  0.00     0.049 A 
ATOM     24  H   UNL A   1      40.262  28.798  30.449  1.00  0.00     0.167 HD
ATOM     25  C   UNL A   1      39.612  31.044  34.126  1.00  0.00     0.034 A 
ATOM     26  C   UNL A   1      41.747  27.175  28.713  1.00  0.00     0.034 A 
ATOM     27  C   UNL A   1      40.825  30.300  34.348  1.00  0.00     0.049 A 
ATOM     28  C   UNL A   1      42.548  27.271  29.981  1.00  0.00     0.074 A 
ATOM     29  C   UNL A   1      41.614  30.262  35.484  1.00  0.00     0.029 A 
ATOM     30  N   UNL A   1      41.432  29.474  33.414  1.00  0.00    -0.354 N 
ATOM     31  N   UNL A   1      42.255  27.890  31.097  1.00  0.00    -0.248 NA
ATOM     32  C   UNL A   1      43.829  26.553  30.008  1.00  0.00     0.031 C 
ATOM     33  C   UNL A   1      42.717  29.440  35.225  1.00  0.00     0.029 A 
ATOM     34  C   UNL A   1      42.595  28.935  33.942  1.00  0.00     0.049 A 
ATOM     35  H   UNL A   1      41.088  29.296  32.509  1.00  0.00     0.167 HD
ATOM     36  C   UNL A   1      43.296  27.607  31.973  1.00  0.00     0.074 A 
ATOM     37  C   UNL A   1      44.215  26.742  31.261  1.00  0.00     0.031 C 
ATOM     38  C   UNL A   1      43.479  28.035  33.246  1.00  0.00     0.034 A 
BRANCH  25  39
ATOM     39  C   UNL A   1      39.142  31.968  35.223  1.00  0.00     0.023 A 
ATOM     40  C   UNL A   1      38.204  31.513  36.173  1.00  0.00     0.012 A 
ATOM     41  C   UNL A   1      39.682  33.263  35.355  1.00  0.00     0.148 A 
ATOM     42  C   UNL A   1      37.784  32.343  37.212  1.00  0.00     0.002 A 
ATOM     43  C   UNL A   1      39.294  34.068  36.421  1.00  0.00     0.091 A 
ATOM     44  F   UNL A   1      40.560  33.688  34.436  1.00  0.00    -0.205 F 
ATOM     45  C   UNL A   1      38.335  33.615  37.343  1.00  0.00     0.022 A 
BRANCH  43  46
ATOM     46  S   UNL A   1      40.008  35.688  36.723  1.00  0.00     0.127 S 
ATOM     47  O   UNL A   1      41.428  35.366  36.849  1.00  0.00    -0.237 OA
ATOM     48  O   UNL A   1      39.655  36.413  35.502  1.00  0.00    -0.237 OA
ATOM     49  O   UNL A   1      39.370  36.190  37.932  1.00  0.00    -0.744 OA
ENDBRANCH  43  46
ENDBRANCH  25  39
BRANCH  26  50
ATOM     50  C   UNL A   1      42.218  26.343  27.570  1.00  0.00     0.023 A 
ATOM     51  C   UNL A   1      43.094  26.905  26.620  1.00  0.00     0.012 A 
ATOM     52  C   UNL A   1      41.832  24.996  27.436  1.00  0.00     0.148 A 
ATOM     53  C   UNL A   1      43.549  26.151  25.540  1.00  0.00     0.002 A 
ATOM     54  C   UNL A   1      42.337  24.233  26.391  1.00  0.00     0.091 A 
ATOM     55  F   UNL A   1      40.991  24.483  28.344  1.00  0.00    -0.205 F 
ATOM     56  C   UNL A   1      43.181  24.813  25.431  1.00  0.00     0.022 A 
BRANCH  54  57
ATOM     57  S   UNL A   1      42.026  22.469  26.249  1.00  0.00     0.127 S 
ATOM     58  O   UNL A   1      40.569  22.431  26.154  1.00  0.00    -0.237 OA
ATOM     59  O   UNL A   1      42.734  22.138  25.012  1.00  0.00    -0.237 OA
ATOM     60  O   UNL A   1      42.599  21.871  27.447  1.00  0.00    -0.744 OA
ENDBRANCH  54  57
ENDBRANCH  26  50
BRANCH  38  61
ATOM     61  C   UNL A   1      44.700  27.538  33.978  1.00  0.00     0.023 A 
ATOM     62  C   UNL A   1      45.892  28.288  33.954  1.00  0.00     0.012 A 
ATOM     63  C   UNL A   1      44.647  26.348  34.730  1.00  0.00     0.148 A 
ATOM     64  C   UNL A   1      47.025  27.841  34.633  1.00  0.00     0.002 A 
ATOM     65  C   UNL A   1      45.764  25.936  35.448  1.00  0.00     0.091 A 
ATOM     66  F   UNL A   1      43.511  25.636  34.724  1.00  0.00    -0.205 F 
ATOM     67  C   UNL A   1      46.958  26.672  35.388  1.00  0.00     0.022 A 
BRANCH  65  68
ATOM     68  S   UNL A   1      45.735  24.499  36.526  1.00  0.00     0.127 S 
ATOM     69  O   UNL A   1      47.014  24.624  37.223  1.00  0.00    -0.237 OA
ATOM     70  O   UNL A   1      44.559  24.757  37.358  1.00  0.00    -0.237 OA
ATOM     71  O   UNL A   1      45.609  23.343  35.648  1.00  0.00    -0.744 OA
ENDBRANCH  65  68
ENDBRANCH  38  61
ENDBRANCH  12  13
ENDBRANCH   5   7
ENDBRANCH   2   3
ENDBRANCH   1   2
BRANCH   1  72
ATOM     72  C   UNL A   1      32.184  26.675  24.968  1.00  0.00     0.117 C 
BRANCH  72  73
ATOM     73  N   UNL A   1      32.081  25.532  25.864  1.00  0.00    -0.356 N 
ATOM     74  C   UNL A   1      32.784  24.361  25.897  1.00  0.00     0.229 C 
ATOM     75  H   UNL A   1      31.391  25.616  26.561  1.00  0.00     0.163 HD
ATOM     76  O   UNL A   1      32.644  23.643  26.887  1.00  0.00    -0.275 OA
BRANCH  74  77
ATOM     77  C   UNL A   1      33.731  24.030  24.756  1.00  0.00     0.140 C 
ATOM     78  C   UNL A   1      35.225  24.344  25.004  1.00  0.00     0.008 C 
ATOM     79  C   UNL A   1      33.771  22.568  24.216  1.00  0.00     0.198 C 
ATOM     80  C   UNL A   1      35.839  23.468  26.114  1.00  0.00     0.005 C 
ATOM     81  C   UNL A   1      35.840  23.713  23.749  1.00  0.00     0.014 C 
ATOM     82  C   UNL A   1      35.304  22.316  24.079  1.00  0.00     0.048 C 
ATOM     83  C   UNL A   1      35.951  22.089  25.457  1.00  0.00     0.010 C 
BRANCH  79  84
ATOM     84  N   UNL A   1      33.122  21.532  25.018  1.00  0.00    -0.338 N 
ATOM     85  H   UNL A   1      32.568  21.981  25.748  1.00  0.00     0.346 HD
ATOM     86  H   UNL A   1      33.854  20.942  25.414  1.00  0.00     0.346 HD
BRANCH  84  87
ATOM     87  C   UNL A   1      32.239  20.671  24.217  1.00  0.00     0.311 C 
BRANCH  87  88
ATOM     88  C   UNL A   1      32.879  19.336  23.928  1.00  0.00     0.083 C 
ATOM     89  Cl  UNL A   1      32.152  18.428  22.642  1.00  0.00    -0.082 Cl
ATOM     90  C   UNL A   1      33.926  18.876  24.624  1.00  0.00     0.102 C 
ATOM     91  Cl  UNL A   1      34.707  17.369  24.393  1.00  0.00    -0.091 Cl
ENDBRANCH  87  88
ENDBRANCH  84  87
ENDBRANCH  79  84
ENDBRANCH  74  77
ENDBRANCH  72  73
ENDBRANCH   1  72
TORSDOF 16
ENDMDL
MODEL 3
REMARK VINA RESULT:     -10.9      2.707      3.570
REMARK SMILES O=C(NCCCNC(=O)[C@H]1[C@H]2CC[C@H](C2)[C@H]1[NH2+]C/C(Cl)=C/Cl)c1ccc(-c2c3nc(c(-c4cccc(S(=O)(=O)[O-])c4F)c4ccc([nH]4)c(-c4cccc(S(=O)(=O)[O-])c4F)c4nc(c(-c5cccc(S(=O)(=O)[O-])c5F)c5ccc2[nH]5)C=C4)C=C3)cc1
REMARK SMILES IDX 5 1 4 2 3 3 1 4 2 5 23 7 24 8 85 9 25 10 84 11 26 12 27 13
REMARK SMILES IDX 28 14 78 15 29 16 83 17 77 18 79 19 30 20 82 21 76 22 75 23
REMARK SMILES IDX 31 25 63 26 43 27 62 28 44 29 47 30 61 31 80 32 45 33 46 34
REMARK SMILES IDX 60 36 81 37 48 38 32 39 33 40 41 41 34 42 36 43 42 44 35 45
REMARK SMILES IDX 37 46 38 47 39 48 40 49 64 50 65 51 73 52 66 53 68 54 74 55
REMARK SMILES IDX 67 56 69 57 70 58 71 59 72 60 49 61 50 62 58 63 51 64 53 65
REMARK SMILES IDX 59 66 52 67 54 68 55 69 56 70 57 71 6 72 7 73 8 74 9 76
REMARK SMILES IDX 10 77 11 78 16 79 12 80 15 81 14 82 13 83 17 84 18 87 19 88
REMARK SMILES IDX 20 89 21 90 22 91
REMARK H PARENT 3 6 79 24 47 35 7 75 17 85 17 86
REMARK Flexibility Score: inf
ROOT
ATOM      1  C   UNL A   1      34.021  27.989  25.508  1.00  0.00     0.042 C 
ENDROOT
BRANCH   1   2
ATOM      2  C   UNL A   1      33.443  28.392  26.857  1.00  0.00     0.118 C 
BRANCH   2   3
ATOM      3  N   UNL A   1      33.436  29.833  27.050  1.00  0.00    -0.352 N 
ATOM      4  O   UNL A   1      34.024  31.822  27.904  1.00  0.00    -0.269 OA
ATOM      5  C   UNL A   1      34.340  30.652  27.685  1.00  0.00     0.251 C 
ATOM      6  H   UNL A   1      32.658  30.297  26.665  1.00  0.00     0.163 HD
BRANCH   5   7
ATOM      7  C   UNL A   1      35.659  30.144  28.136  1.00  0.00     0.039 A 
ATOM      8  C   UNL A   1      35.842  29.617  29.414  1.00  0.00     0.014 A 
ATOM      9  C   UNL A   1      36.737  30.160  27.244  1.00  0.00     0.014 A 
ATOM     10  C   UNL A   1      37.119  29.291  29.863  1.00  0.00     0.010 A 
ATOM     11  C   UNL A   1      38.000  29.717  27.659  1.00  0.00     0.010 A 
ATOM     12  C   UNL A   1      38.215  29.320  28.988  1.00  0.00    -0.014 A 
BRANCH  12  13
ATOM     13  C   UNL A   1      39.551  28.870  29.471  1.00  0.00     0.031 A 
ATOM     14  C   UNL A   1      40.236  29.543  30.632  1.00  0.00     0.074 A 
ATOM     15  C   UNL A   1      40.155  27.835  28.849  1.00  0.00     0.049 A 
ATOM     16  N   UNL A   1      41.384  29.249  31.192  1.00  0.00    -0.248 NA
ATOM     17  C   UNL A   1      39.559  30.701  31.236  1.00  0.00     0.031 C 
ATOM     18  C   UNL A   1      39.622  27.126  27.683  1.00  0.00     0.029 A 
ATOM     19  N   UNL A   1      41.340  27.194  29.111  1.00  0.00    -0.354 N 
ATOM     20  C   UNL A   1      41.591  30.211  32.175  1.00  0.00     0.074 A 
ATOM     21  C   UNL A   1      40.453  31.104  32.131  1.00  0.00     0.031 C 
ATOM     22  C   UNL A   1      40.452  26.126  27.356  1.00  0.00     0.029 A 
ATOM     23  C   UNL A   1      41.605  26.156  28.247  1.00  0.00     0.049 A 
ATOM     24  H   UNL A   1      41.942  27.452  29.845  1.00  0.00     0.167 HD
ATOM     25  C   UNL A   1      42.624  30.331  33.044  1.00  0.00     0.034 A 
ATOM     26  C   UNL A   1      42.662  25.324  28.169  1.00  0.00     0.034 A 
ATOM     27  C   UNL A   1      43.733  29.414  33.118  1.00  0.00     0.049 A 
ATOM     28  C   UNL A   1      43.777  25.465  29.166  1.00  0.00     0.074 A 
ATOM     29  C   UNL A   1      44.784  29.406  34.019  1.00  0.00     0.029 A 
ATOM     30  N   UNL A   1      43.944  28.352  32.252  1.00  0.00    -0.354 N 
ATOM     31  N   UNL A   1      43.884  26.296  30.172  1.00  0.00    -0.248 NA
ATOM     32  C   UNL A   1      44.903  24.531  29.032  1.00  0.00     0.031 C 
ATOM     33  C   UNL A   1      45.649  28.361  33.677  1.00  0.00     0.029 A 
ATOM     34  C   UNL A   1      45.117  27.692  32.587  1.00  0.00     0.049 A 
ATOM     35  H   UNL A   1      43.350  28.102  31.509  1.00  0.00     0.167 HD
ATOM     36  C   UNL A   1      45.070  25.962  30.816  1.00  0.00     0.074 A 
ATOM     37  C   UNL A   1      45.632  24.838  30.095  1.00  0.00     0.031 C 
ATOM     38  C   UNL A   1      45.646  26.543  31.897  1.00  0.00     0.034 A 
BRANCH  25  39
ATOM     39  C   UNL A   1      42.601  31.487  34.013  1.00  0.00     0.023 A 
ATOM     40  C   UNL A   1      43.271  32.686  33.694  1.00  0.00     0.012 A 
ATOM     41  C   UNL A   1      41.857  31.412  35.208  1.00  0.00     0.148 A 
ATOM     42  C   UNL A   1      43.233  33.775  34.564  1.00  0.00     0.002 A 
ATOM     43  C   UNL A   1      41.785  32.518  36.048  1.00  0.00     0.091 A 
ATOM     44  F   UNL A   1      41.239  30.260  35.505  1.00  0.00    -0.205 F 
ATOM     45  C   UNL A   1      42.483  33.696  35.734  1.00  0.00     0.022 A 
BRANCH  43  46
ATOM     46  S   UNL A   1      40.777  32.542  37.535  1.00  0.00     0.127 S 
ATOM     47  O   UNL A   1      41.645  31.858  38.491  1.00  0.00    -0.237 OA
ATOM     48  O   UNL A   1      40.617  33.976  37.776  1.00  0.00    -0.237 OA
ATOM     49  O   UNL A   1      39.544  31.844  37.195  1.00  0.00    -0.744 OA
ENDBRANCH  43  46
ENDBRANCH  25  39
BRANCH  26  50
ATOM     50  C   UNL A   1      42.687  24.249  27.138  1.00  0.00     0.023 A 
ATOM     51  C   UNL A   1      43.392  24.459  25.937  1.00  0.00     0.012 A 
ATOM     52  C   UNL A   1      42.046  23.014  27.351  1.00  0.00     0.148 A 
ATOM     53  C   UNL A   1      43.431  23.471  24.953  1.00  0.00     0.002 A 
ATOM     54  C   UNL A   1      42.140  22.012  26.393  1.00  0.00     0.091 A 
ATOM     55  F   UNL A   1      41.371  22.837  28.496  1.00  0.00    -0.205 F 
ATOM     56  C   UNL A   1      42.815  22.245  25.186  1.00  0.00     0.022 A 
BRANCH  54  57
ATOM     57  S   UNL A   1      41.494  20.358  26.665  1.00  0.00     0.127 S 
ATOM     58  O   UNL A   1      42.200  19.959  27.880  1.00  0.00    -0.237 OA
ATOM     59  O   UNL A   1      40.065  20.617  26.838  1.00  0.00    -0.237 OA
ATOM     60  O   UNL A   1      41.827  19.604  25.464  1.00  0.00    -0.744 OA
ENDBRANCH  54  57
ENDBRANCH  26  50
BRANCH  38  61
ATOM     61  C   UNL A   1      46.933  25.946  32.403  1.00  0.00     0.023 A 
ATOM     62  C   UNL A   1      48.169  26.407  31.910  1.00  0.00     0.012 A 
ATOM     63  C   UNL A   1      46.916  24.958  33.408  1.00  0.00     0.148 A 
ATOM     64  C   UNL A   1      49.366  25.866  32.377  1.00  0.00     0.002 A 
ATOM     65  C   UNL A   1      48.114  24.460  33.907  1.00  0.00     0.091 A 
ATOM     66  F   UNL A   1      45.731  24.514  33.851  1.00  0.00    -0.205 F 
ATOM     67  C   UNL A   1      49.340  24.902  33.382  1.00  0.00     0.022 A 
BRANCH  65  68
ATOM     68  S   UNL A   1      48.176  23.292  35.270  1.00  0.00     0.127 S 
ATOM     69  O   UNL A   1      49.545  23.466  35.751  1.00  0.00    -0.237 OA
ATOM     70  O   UNL A   1      47.143  23.808  36.169  1.00  0.00    -0.237 OA
ATOM     71  O   UNL A   1      47.874  21.989  34.693  1.00  0.00    -0.744 OA
ENDBRANCH  65  68
ENDBRANCH  38  61
ENDBRANCH  12  13
ENDBRANCH   5   7
ENDBRANCH   2   3
ENDBRANCH   1   2
BRANCH   1  72
ATOM     72  C   UNL A   1      33.340  26.788  24.870  1.00  0.00     0.117 C 
BRANCH  72  73
ATOM     73  N   UNL A   1      33.037  25.731  25.825  1.00  0.00    -0.356 N 
ATOM     74  C   UNL A   1      33.479  24.440  25.894  1.00  0.00     0.229 C 
ATOM     75  H   UNL A   1      32.410  25.989  26.539  1.00  0.00     0.163 HD
ATOM     76  O   UNL A   1      33.233  23.811  26.923  1.00  0.00    -0.275 OA
BRANCH  74  77
ATOM     77  C   UNL A   1      34.286  23.868  24.740  1.00  0.00     0.140 C 
ATOM     78  C   UNL A   1      35.818  24.056  24.828  1.00  0.00     0.008 C 
ATOM     79  C   UNL A   1      34.144  22.351  24.407  1.00  0.00     0.198 C 
ATOM     80  C   UNL A   1      36.447  23.275  25.999  1.00  0.00     0.005 C 
ATOM     81  C   UNL A   1      36.259  23.208  23.629  1.00  0.00     0.014 C 
ATOM     82  C   UNL A   1      35.629  21.928  24.190  1.00  0.00     0.048 C 
ATOM     83  C   UNL A   1      36.374  21.817  25.533  1.00  0.00     0.010 C 
BRANCH  79  84
ATOM     84  N   UNL A   1      33.477  21.501  25.393  1.00  0.00    -0.338 N 
ATOM     85  H   UNL A   1      33.302  22.049  26.235  1.00  0.00     0.346 HD
ATOM     86  H   UNL A   1      34.091  20.708  25.583  1.00  0.00     0.346 HD
BRANCH  84  87
ATOM     87  C   UNL A   1      32.198  20.967  24.901  1.00  0.00     0.311 C 
BRANCH  87  88
ATOM     88  C   UNL A   1      32.406  19.954  23.803  1.00  0.00     0.083 C 
ATOM     89  Cl  UNL A   1      31.978  20.489  22.209  1.00  0.00    -0.082 Cl
ATOM     90  C   UNL A   1      32.872  18.722  24.041  1.00  0.00     0.102 C 
ATOM     91  Cl  UNL A   1      33.119  17.494  22.872  1.00  0.00    -0.091 Cl
ENDBRANCH  87  88
ENDBRANCH  84  87
ENDBRANCH  79  84
ENDBRANCH  74  77
ENDBRANCH  72  73
ENDBRANCH   1  72
TORSDOF 16
ENDMDL
