MODEL 1
REMARK VINA RESULT:     -11.9      0.000      0.000
REMARK SMILES C[NH2+][C@]1(C(=O)NCCCNC(=O)c2ccc(-c3c4nc(c(-c5cccc(S(=O)(=O)[O-])c5F)c5ccc([nH]5)c(-c5cccc(S(=O)(=O)[O-])c5F)c5nc(c(-c6cccc(S(=O)(=O)[O-])c6F)c6ccc3[nH]6)C=C5)C=C4)cc2)CCC[C@H]1CCOC1C[C@@H](C)C[C@H](C)C1
REMARK SMILES IDX 7 1 6 2 4 3 5 4 3 6 76 7 79 8 77 9 78 10 2 11 1 12 80 15
REMARK SMILES IDX 81 16 82 17 83 18 84 19 90 20 85 21 88 22 86 23 87 24 89 25
REMARK SMILES IDX 8 26 9 27 10 28 11 29 12 31 13 32 14 33 75 34 15 35 74 36
REMARK SMILES IDX 16 37 17 38 18 39 68 40 19 41 73 42 67 43 69 44 20 45 72 46
REMARK SMILES IDX 66 47 65 48 21 50 53 51 33 52 52 53 34 54 37 55 51 56 70 57
REMARK SMILES IDX 35 58 36 59 50 61 71 62 38 63 22 64 23 65 31 66 24 67 26 68
REMARK SMILES IDX 32 69 25 70 27 71 28 72 29 73 30 74 54 75 55 76 63 77 56 78
REMARK SMILES IDX 58 79 64 80 57 81 59 82 60 83 61 84 62 85 39 86 40 87 48 88
REMARK SMILES IDX 41 89 43 90 49 91 42 92 44 93 45 94 46 95 47 96
REMARK H PARENT 6 5 2 13 2 14 10 30 69 49 37 60
REMARK Flexibility Score: inf
ROOT
ATOM      1  C   UNL A   1      33.017  28.499  24.906  1.00  0.00     0.118 C 
ENDROOT
BRANCH   1   2
ATOM      2  N   UNL A   1      32.437  27.746  25.984  1.00  0.00    -0.351 N 
ATOM      3  C   UNL A   1      31.949  26.496  26.042  1.00  0.00     0.281 C 
ATOM      4  O   UNL A   1      31.371  26.265  27.110  1.00  0.00    -0.268 OA
ATOM      5  H   UNL A   1      32.390  28.237  26.836  1.00  0.00     0.163 HD
BRANCH   3   6
ATOM      6  C   UNL A   1      32.026  25.501  24.845  1.00  0.00     0.178 C 
ATOM      7  C   UNL A   1      31.504  24.125  25.335  1.00  0.00     0.079 C 
ATOM      8  C   UNL A   1      31.211  25.776  23.474  1.00  0.00     0.063 C 
ATOM      9  C   UNL A   1      31.089  23.386  24.076  1.00  0.00     0.008 C 
ATOM     10  C   UNL A   1      30.406  24.461  23.252  1.00  0.00     0.011 C 
BRANCH   6  11
ATOM     11  N   UNL A   1      33.449  25.260  24.378  1.00  0.00    -0.336 N 
ATOM     12  C   UNL A   1      34.419  24.642  25.267  1.00  0.00     0.331 C 
ATOM     13  H   UNL A   1      33.389  24.666  23.552  1.00  0.00     0.346 HD
ATOM     14  H   UNL A   1      33.814  26.204  24.258  1.00  0.00     0.346 HD
ENDBRANCH   6  11
BRANCH   8  15
ATOM     15  C   UNL A   1      30.285  26.986  22.996  1.00  0.00     0.039 C 
BRANCH  15  16
ATOM     16  C   UNL A   1      30.679  28.382  22.374  1.00  0.00     0.161 C 
BRANCH  16  17
ATOM     17  O   UNL A   1      29.707  29.247  21.777  1.00  0.00    -0.378 OA
BRANCH  17  18
ATOM     18  C   UNL A   1      28.344  29.531  22.120  1.00  0.00     0.118 C 
ATOM     19  C   UNL A   1      27.872  30.113  23.458  1.00  0.00     0.035 C 
ATOM     20  C   UNL A   1      27.730  30.375  21.006  1.00  0.00     0.035 C 
ATOM     21  C   UNL A   1      28.312  31.548  23.703  1.00  0.00    -0.011 C 
ATOM     22  C   UNL A   1      28.408  31.728  21.053  1.00  0.00    -0.011 C 
ATOM     23  C   UNL A   1      29.646  31.467  24.426  1.00  0.00     0.008 C 
ATOM     24  C   UNL A   1      28.165  32.425  22.414  1.00  0.00     0.006 C 
ATOM     25  C   UNL A   1      28.114  32.562  19.811  1.00  0.00     0.008 C 
ENDBRANCH  17  18
ENDBRANCH  16  17
ENDBRANCH  15  16
ENDBRANCH   8  15
ENDBRANCH   3   6
ENDBRANCH   1   2
BRANCH   1  26
ATOM     26  C   UNL A   1      33.304  29.916  25.337  1.00  0.00     0.042 C 
BRANCH  26  27
ATOM     27  C   UNL A   1      32.729  30.181  26.717  1.00  0.00     0.118 C 
BRANCH  27  28
ATOM     28  N   UNL A   1      32.648  31.608  27.020  1.00  0.00    -0.352 N 
ATOM     29  C   UNL A   1      33.550  32.394  27.716  1.00  0.00     0.251 C 
ATOM     30  H   UNL A   1      31.846  32.072  26.685  1.00  0.00     0.163 HD
ATOM     31  O   UNL A   1      33.275  33.507  28.083  1.00  0.00    -0.269 OA
BRANCH  29  32
ATOM     32  C   UNL A   1      34.860  31.775  28.011  1.00  0.00     0.039 A 
ATOM     33  C   UNL A   1      36.004  32.567  28.047  1.00  0.00     0.014 A 
ATOM     34  C   UNL A   1      34.883  30.448  28.439  1.00  0.00     0.014 A 
ATOM     35  C   UNL A   1      37.167  32.040  28.608  1.00  0.00     0.010 A 
ATOM     36  C   UNL A   1      35.978  30.002  29.155  1.00  0.00     0.010 A 
ATOM     37  C   UNL A   1      37.148  30.773  29.218  1.00  0.00    -0.014 A 
BRANCH  37  38
ATOM     38  C   UNL A   1      38.340  30.199  29.890  1.00  0.00     0.031 A 
ATOM     39  C   UNL A   1      38.671  30.637  31.296  1.00  0.00     0.074 A 
ATOM     40  C   UNL A   1      39.172  29.375  29.220  1.00  0.00     0.049 A 
ATOM     41  N   UNL A   1      39.707  30.335  32.030  1.00  0.00    -0.248 NA
ATOM     42  C   UNL A   1      37.743  31.585  31.942  1.00  0.00     0.031 C 
ATOM     43  C   UNL A   1      39.023  28.961  27.822  1.00  0.00     0.029 A 
ATOM     44  N   UNL A   1      40.324  28.749  29.625  1.00  0.00    -0.354 N 
ATOM     45  C   UNL A   1      39.585  31.100  33.185  1.00  0.00     0.074 A 
ATOM     46  C   UNL A   1      38.416  31.931  33.025  1.00  0.00     0.031 C 
ATOM     47  C   UNL A   1      40.024  28.126  27.499  1.00  0.00     0.029 A 
ATOM     48  C   UNL A   1      40.907  27.972  28.651  1.00  0.00     0.049 A 
ATOM     49  H   UNL A   1      40.700  28.846  30.530  1.00  0.00     0.167 HD
ATOM     50  C   UNL A   1      40.341  31.077  34.306  1.00  0.00     0.034 A 
ATOM     51  C   UNL A   1      42.025  27.221  28.686  1.00  0.00     0.034 A 
ATOM     52  C   UNL A   1      41.447  30.185  34.494  1.00  0.00     0.049 A 
ATOM     53  C   UNL A   1      42.808  27.150  29.971  1.00  0.00     0.074 A 
ATOM     54  C   UNL A   1      42.212  29.990  35.627  1.00  0.00     0.029 A 
ATOM     55  N   UNL A   1      41.943  29.333  33.519  1.00  0.00    -0.354 N 
ATOM     56  N   UNL A   1      42.577  27.754  31.112  1.00  0.00    -0.248 NA
ATOM     57  C   UNL A   1      43.982  26.265  29.987  1.00  0.00     0.031 C 
ATOM     58  C   UNL A   1      43.191  29.038  35.329  1.00  0.00     0.029 A 
ATOM     59  C   UNL A   1      43.010  28.614  34.021  1.00  0.00     0.049 A 
ATOM     60  H   UNL A   1      41.587  29.252  32.605  1.00  0.00     0.167 HD
ATOM     61  C   UNL A   1      43.551  27.294  31.991  1.00  0.00     0.074 A 
ATOM     62  C   UNL A   1      44.361  26.345  31.255  1.00  0.00     0.031 C 
ATOM     63  C   UNL A   1      43.766  27.634  33.286  1.00  0.00     0.034 A 
BRANCH  50  64
ATOM     64  C   UNL A   1      39.951  32.001  35.430  1.00  0.00     0.023 A 
ATOM     65  C   UNL A   1      40.551  33.275  35.532  1.00  0.00     0.012 A 
ATOM     66  C   UNL A   1      38.975  31.622  36.369  1.00  0.00     0.148 A 
ATOM     67  C   UNL A   1      40.220  34.135  36.577  1.00  0.00     0.002 A 
ATOM     68  C   UNL A   1      38.610  32.507  37.375  1.00  0.00     0.091 A 
ATOM     69  F   UNL A   1      38.434  30.398  36.272  1.00  0.00    -0.205 F 
ATOM     70  C   UNL A   1      39.242  33.756  37.491  1.00  0.00     0.022 A 
BRANCH  68  71
ATOM     71  S   UNL A   1      37.299  32.150  38.550  1.00  0.00     0.127 S 
ATOM     72  O   UNL A   1      37.196  30.694  38.444  1.00  0.00    -0.237 OA
ATOM     73  O   UNL A   1      37.878  32.629  39.806  1.00  0.00    -0.237 OA
ATOM     74  O   UNL A   1      36.135  32.894  38.093  1.00  0.00    -0.744 OA
ENDBRANCH  68  71
ENDBRANCH  50  64
BRANCH  51  75
ATOM     75  C   UNL A   1      42.426  26.411  27.499  1.00  0.00     0.023 A 
ATOM     76  C   UNL A   1      43.196  27.008  26.482  1.00  0.00     0.012 A 
ATOM     77  C   UNL A   1      42.068  25.054  27.379  1.00  0.00     0.148 A 
ATOM     78  C   UNL A   1      43.570  26.282  25.350  1.00  0.00     0.002 A 
ATOM     79  C   UNL A   1      42.490  24.321  26.275  1.00  0.00     0.091 A 
ATOM     80  F   UNL A   1      41.329  24.505  28.353  1.00  0.00    -0.205 F 
ATOM     81  C   UNL A   1      43.224  24.938  25.250  1.00  0.00     0.022 A 
BRANCH  79  82
ATOM     82  S   UNL A   1      42.204  22.554  26.123  1.00  0.00     0.127 S 
ATOM     83  O   UNL A   1      40.746  22.488  26.088  1.00  0.00    -0.237 OA
ATOM     84  O   UNL A   1      42.867  22.250  24.854  1.00  0.00    -0.237 OA
ATOM     85  O   UNL A   1      42.837  21.951  27.289  1.00  0.00    -0.744 OA
ENDBRANCH  79  82
ENDBRANCH  51  75
BRANCH  63  86
ATOM     86  C   UNL A   1      44.886  26.943  34.014  1.00  0.00     0.023 A 
ATOM     87  C   UNL A   1      46.171  27.520  34.038  1.00  0.00     0.012 A 
ATOM     88  C   UNL A   1      44.639  25.767  34.749  1.00  0.00     0.148 A 
ATOM     89  C   UNL A   1      47.202  26.918  34.758  1.00  0.00     0.002 A 
ATOM     90  C   UNL A   1      45.656  25.204  35.508  1.00  0.00     0.091 A 
ATOM     91  F   UNL A   1      43.413  25.228  34.698  1.00  0.00    -0.205 F 
ATOM     92  C   UNL A   1      46.941  25.770  35.502  1.00  0.00     0.022 A 
BRANCH  90  93
ATOM     93  S   UNL A   1      45.384  23.789  36.579  1.00  0.00     0.127 S 
ATOM     94  O   UNL A   1      44.532  24.362  37.619  1.00  0.00    -0.237 OA
ATOM     95  O   UNL A   1      44.709  22.848  35.685  1.00  0.00    -0.237 OA
ATOM     96  O   UNL A   1      46.705  23.359  37.021  1.00  0.00    -0.744 OA
ENDBRANCH  90  93
ENDBRANCH  63  86
ENDBRANCH  37  38
ENDBRANCH  29  32
ENDBRANCH  27  28
ENDBRANCH  26  27
ENDBRANCH   1  26
TORSDOF 18
ENDMDL
MODEL 2
REMARK VINA RESULT:     -11.8      2.352      4.768
REMARK SMILES C[NH2+][C@]1(C(=O)NCCCNC(=O)c2ccc(-c3c4nc(c(-c5cccc(S(=O)(=O)[O-])c5F)c5ccc([nH]5)c(-c5cccc(S(=O)(=O)[O-])c5F)c5nc(c(-c6cccc(S(=O)(=O)[O-])c6F)c6ccc3[nH]6)C=C5)C=C4)cc2)CCC[C@H]1CCOC1C[C@@H](C)C[C@H](C)C1
REMARK SMILES IDX 7 1 6 2 4 3 5 4 3 6 76 7 79 8 77 9 78 10 2 11 1 12 80 15
REMARK SMILES IDX 81 16 82 17 83 18 84 19 90 20 85 21 88 22 86 23 87 24 89 25
REMARK SMILES IDX 8 26 9 27 10 28 11 29 12 31 13 32 14 33 75 34 15 35 74 36
REMARK SMILES IDX 16 37 17 38 18 39 68 40 19 41 73 42 67 43 69 44 20 45 72 46
REMARK SMILES IDX 66 47 65 48 21 50 53 51 33 52 52 53 34 54 37 55 51 56 70 57
REMARK SMILES IDX 35 58 36 59 50 61 71 62 38 63 22 64 23 65 31 66 24 67 26 68
REMARK SMILES IDX 32 69 25 70 27 71 28 72 29 73 30 74 54 75 55 76 63 77 56 78
REMARK SMILES IDX 58 79 64 80 57 81 59 82 60 83 61 84 62 85 39 86 40 87 48 88
REMARK SMILES IDX 41 89 43 90 49 91 42 92 44 93 45 94 46 95 47 96
REMARK H PARENT 6 5 2 13 2 14 10 30 69 49 37 60
REMARK Flexibility Score: inf
ROOT
ATOM      1  C   UNL A   1      33.103  29.049  24.781  1.00  0.00     0.118 C 
ENDROOT
BRANCH   1   2
ATOM      2  N   UNL A   1      33.481  28.385  23.564  1.00  0.00    -0.351 N 
ATOM      3  C   UNL A   1      33.016  27.274  22.968  1.00  0.00     0.281 C 
ATOM      4  O   UNL A   1      33.720  26.921  22.014  1.00  0.00    -0.268 OA
ATOM      5  H   UNL A   1      34.215  28.825  23.078  1.00  0.00     0.163 HD
BRANCH   3   6
ATOM      6  C   UNL A   1      31.784  26.482  23.498  1.00  0.00     0.178 C 
ATOM      7  C   UNL A   1      31.398  25.427  22.427  1.00  0.00     0.079 C 
ATOM      8  C   UNL A   1      31.860  25.642  24.880  1.00  0.00     0.063 C 
ATOM      9  C   UNL A   1      30.607  24.370  23.177  1.00  0.00     0.008 C 
ATOM     10  C   UNL A   1      31.376  24.218  24.476  1.00  0.00     0.011 C 
BRANCH   6  11
ATOM     11  N   UNL A   1      30.559  27.357  23.675  1.00  0.00    -0.336 N 
ATOM     12  C   UNL A   1      30.247  28.390  22.700  1.00  0.00     0.331 C 
ATOM     13  H   UNL A   1      29.754  26.732  23.706  1.00  0.00     0.346 HD
ATOM     14  H   UNL A   1      30.777  27.892  24.515  1.00  0.00     0.346 HD
ENDBRANCH   6  11
BRANCH   8  15
ATOM     15  C   UNL A   1      33.017  25.458  25.966  1.00  0.00     0.039 C 
BRANCH  15  16
ATOM     16  C   UNL A   1      34.004  24.249  26.202  1.00  0.00     0.161 C 
BRANCH  16  17
ATOM     17  O   UNL A   1      35.166  24.049  25.389  1.00  0.00    -0.378 OA
BRANCH  17  18
ATOM     18  C   UNL A   1      35.364  23.316  24.173  1.00  0.00     0.118 C 
ATOM     19  C   UNL A   1      36.688  22.681  23.729  1.00  0.00     0.035 C 
ATOM     20  C   UNL A   1      34.281  22.246  24.071  1.00  0.00     0.035 C 
ATOM     21  C   UNL A   1      37.141  21.516  24.595  1.00  0.00    -0.011 C 
ATOM     22  C   UNL A   1      34.560  21.230  25.159  1.00  0.00    -0.011 C 
ATOM     23  C   UNL A   1      38.013  22.111  25.689  1.00  0.00     0.008 C 
ATOM     24  C   UNL A   1      35.947  20.572  24.963  1.00  0.00     0.006 C 
ATOM     25  C   UNL A   1      33.389  20.277  25.369  1.00  0.00     0.008 C 
ENDBRANCH  17  18
ENDBRANCH  16  17
ENDBRANCH  15  16
ENDBRANCH   8  15
ENDBRANCH   3   6
ENDBRANCH   1   2
BRANCH   1  26
ATOM     26  C   UNL A   1      34.022  28.657  25.911  1.00  0.00     0.042 C 
BRANCH  26  27
ATOM     27  C   UNL A   1      33.432  29.071  27.247  1.00  0.00     0.118 C 
BRANCH  27  28
ATOM     28  N   UNL A   1      33.625  30.492  27.523  1.00  0.00    -0.352 N 
ATOM     29  C   UNL A   1      34.697  31.112  28.143  1.00  0.00     0.251 C 
ATOM     30  H   UNL A   1      32.898  31.088  27.231  1.00  0.00     0.163 HD
ATOM     31  O   UNL A   1      34.649  32.260  28.502  1.00  0.00    -0.269 OA
BRANCH  29  32
ATOM     32  C   UNL A   1      35.894  30.273  28.366  1.00  0.00     0.039 A 
ATOM     33  C   UNL A   1      36.977  30.372  27.497  1.00  0.00     0.014 A 
ATOM     34  C   UNL A   1      35.982  29.549  29.554  1.00  0.00     0.014 A 
ATOM     35  C   UNL A   1      38.195  29.808  27.877  1.00  0.00     0.010 A 
ATOM     36  C   UNL A   1      37.230  29.158  30.001  1.00  0.00     0.010 A 
ATOM     37  C   UNL A   1      38.346  29.246  29.157  1.00  0.00    -0.014 A 
BRANCH  37  38
ATOM     38  C   UNL A   1      39.640  28.697  29.634  1.00  0.00     0.031 A 
ATOM     39  C   UNL A   1      40.352  29.384  30.774  1.00  0.00     0.074 A 
ATOM     40  C   UNL A   1      40.221  27.662  28.995  1.00  0.00     0.049 A 
ATOM     41  N   UNL A   1      41.527  29.131  31.283  1.00  0.00    -0.248 NA
ATOM     42  C   UNL A   1      39.679  30.546  31.386  1.00  0.00     0.031 C 
ATOM     43  C   UNL A   1      39.687  26.978  27.812  1.00  0.00     0.029 A 
ATOM     44  N   UNL A   1      41.403  27.010  29.242  1.00  0.00    -0.354 N 
ATOM     45  C   UNL A   1      41.754  30.133  32.220  1.00  0.00     0.074 A 
ATOM     46  C   UNL A   1      40.632  31.038  32.159  1.00  0.00     0.031 C 
ATOM     47  C   UNL A   1      40.522  25.987  27.460  1.00  0.00     0.029 A 
ATOM     48  C   UNL A   1      41.666  25.983  28.365  1.00  0.00     0.049 A 
ATOM     49  H   UNL A   1      42.008  27.255  29.979  1.00  0.00     0.167 HD
ATOM     50  C   UNL A   1      42.776  30.264  33.096  1.00  0.00     0.034 A 
ATOM     51  C   UNL A   1      42.712  25.135  28.302  1.00  0.00     0.034 A 
ATOM     52  C   UNL A   1      43.843  29.313  33.213  1.00  0.00     0.049 A 
ATOM     53  C   UNL A   1      43.800  25.252  29.337  1.00  0.00     0.074 A 
ATOM     54  C   UNL A   1      44.867  29.279  34.139  1.00  0.00     0.029 A 
ATOM     55  N   UNL A   1      44.018  28.223  32.375  1.00  0.00    -0.354 N 
ATOM     56  N   UNL A   1      43.911  26.107  30.325  1.00  0.00    -0.248 NA
ATOM     57  C   UNL A   1      44.887  24.264  29.274  1.00  0.00     0.031 C 
ATOM     58  C   UNL A   1      45.680  28.181  33.844  1.00  0.00     0.029 A 
ATOM     59  C   UNL A   1      45.139  27.512  32.756  1.00  0.00     0.049 A 
ATOM     60  H   UNL A   1      43.431  27.990  31.620  1.00  0.00     0.167 HD
ATOM     61  C   UNL A   1      45.055  25.738  31.024  1.00  0.00     0.074 A 
ATOM     62  C   UNL A   1      45.590  24.569  30.356  1.00  0.00     0.031 C 
ATOM     63  C   UNL A   1      45.620  26.319  32.110  1.00  0.00     0.034 A 
BRANCH  50  64
ATOM     64  C   UNL A   1      42.747  31.444  34.032  1.00  0.00     0.023 A 
ATOM     65  C   UNL A   1      43.337  32.665  33.642  1.00  0.00     0.012 A 
ATOM     66  C   UNL A   1      42.113  31.355  35.285  1.00  0.00     0.148 A 
ATOM     67  C   UNL A   1      43.340  33.761  34.502  1.00  0.00     0.002 A 
ATOM     68  C   UNL A   1      42.070  32.468  36.114  1.00  0.00     0.091 A 
ATOM     69  F   UNL A   1      41.579  30.179  35.650  1.00  0.00    -0.205 F 
ATOM     70  C   UNL A   1      42.697  33.667  35.732  1.00  0.00     0.022 A 
BRANCH  68  71
ATOM     71  S   UNL A   1      41.193  32.476  37.680  1.00  0.00     0.127 S 
ATOM     72  O   UNL A   1      41.082  33.909  37.950  1.00  0.00    -0.237 OA
ATOM     73  O   UNL A   1      39.932  31.823  37.326  1.00  0.00    -0.237 OA
ATOM     74  O   UNL A   1      42.024  31.728  38.612  1.00  0.00    -0.744 OA
ENDBRANCH  68  71
ENDBRANCH  50  64
BRANCH  51  75
ATOM     75  C   UNL A   1      42.742  24.051  27.278  1.00  0.00     0.023 A 
ATOM     76  C   UNL A   1      43.373  24.286  26.041  1.00  0.00     0.012 A 
ATOM     77  C   UNL A   1      42.169  22.789  27.525  1.00  0.00     0.148 A 
ATOM     78  C   UNL A   1      43.401  23.298  25.054  1.00  0.00     0.002 A 
ATOM     79  C   UNL A   1      42.248  21.790  26.560  1.00  0.00     0.091 A 
ATOM     80  F   UNL A   1      41.567  22.586  28.705  1.00  0.00    -0.205 F 
ATOM     81  C   UNL A   1      42.846  22.049  25.316  1.00  0.00     0.022 A 
BRANCH  79  82
ATOM     82  S   UNL A   1      41.678  20.113  26.857  1.00  0.00     0.127 S 
ATOM     83  O   UNL A   1      41.721  19.540  25.515  1.00  0.00    -0.237 OA
ATOM     84  O   UNL A   1      42.697  19.607  27.778  1.00  0.00    -0.237 OA
ATOM     85  O   UNL A   1      40.352  20.247  27.446  1.00  0.00    -0.744 OA
ENDBRANCH  79  82
ENDBRANCH  51  75
BRANCH  63  86
ATOM     86  C   UNL A   1      46.854  25.677  32.684  1.00  0.00     0.023 A 
ATOM     87  C   UNL A   1      48.129  26.115  32.278  1.00  0.00     0.012 A 
ATOM     88  C   UNL A   1      46.744  24.702  33.695  1.00  0.00     0.148 A 
ATOM     89  C   UNL A   1      49.279  25.567  32.846  1.00  0.00     0.002 A 
ATOM     90  C   UNL A   1      47.891  24.201  34.295  1.00  0.00     0.091 A 
ATOM     91  F   UNL A   1      45.520  24.290  34.054  1.00  0.00    -0.205 F 
ATOM     92  C   UNL A   1      49.159  24.622  33.862  1.00  0.00     0.022 A 
BRANCH  90  93
ATOM     93  S   UNL A   1      47.831  23.062  35.682  1.00  0.00     0.127 S 
ATOM     94  O   UNL A   1      46.911  23.746  36.589  1.00  0.00    -0.237 OA
ATOM     95  O   UNL A   1      47.291  21.850  35.064  1.00  0.00    -0.237 OA
ATOM     96  O   UNL A   1      49.202  22.937  36.159  1.00  0.00    -0.744 OA
ENDBRANCH  90  93
ENDBRANCH  63  86
ENDBRANCH  37  38
ENDBRANCH  29  32
ENDBRANCH  27  28
ENDBRANCH  26  27
ENDBRANCH   1  26
TORSDOF 18
ENDMDL
MODEL 3
REMARK VINA RESULT:     -11.7      1.645      3.927
REMARK SMILES C[NH2+][C@]1(C(=O)NCCCNC(=O)c2ccc(-c3c4nc(c(-c5cccc(S(=O)(=O)[O-])c5F)c5ccc([nH]5)c(-c5cccc(S(=O)(=O)[O-])c5F)c5nc(c(-c6cccc(S(=O)(=O)[O-])c6F)c6ccc3[nH]6)C=C5)C=C4)cc2)CCC[C@H]1CCOC1C[C@@H](C)C[C@H](C)C1
REMARK SMILES IDX 7 1 6 2 4 3 5 4 3 6 76 7 79 8 77 9 78 10 2 11 1 12 80 15
REMARK SMILES IDX 81 16 82 17 83 18 84 19 90 20 85 21 88 22 86 23 87 24 89 25
REMARK SMILES IDX 8 26 9 27 10 28 11 29 12 31 13 32 14 33 75 34 15 35 74 36
REMARK SMILES IDX 16 37 17 38 18 39 68 40 19 41 73 42 67 43 69 44 20 45 72 46
REMARK SMILES IDX 66 47 65 48 21 50 53 51 33 52 52 53 34 54 37 55 51 56 70 57
REMARK SMILES IDX 35 58 36 59 50 61 71 62 38 63 22 64 23 65 31 66 24 67 26 68
REMARK SMILES IDX 32 69 25 70 27 71 28 72 29 73 30 74 54 75 55 76 63 77 56 78
REMARK SMILES IDX 58 79 64 80 57 81 59 82 60 83 61 84 62 85 39 86 40 87 48 88
REMARK SMILES IDX 41 89 43 90 49 91 42 92 44 93 45 94 46 95 47 96
REMARK H PARENT 6 5 2 13 2 14 10 30 69 49 37 60
REMARK Flexibility Score: inf
ROOT
ATOM      1  C   UNL A   1      33.506  28.761  25.310  1.00  0.00     0.118 C 
ENDROOT
BRANCH   1   2
ATOM      2  N   UNL A   1      32.941  27.730  26.137  1.00  0.00    -0.351 N 
ATOM      3  C   UNL A   1      32.270  26.607  25.834  1.00  0.00     0.281 C 
ATOM      4  O   UNL A   1      31.789  26.061  26.834  1.00  0.00    -0.268 OA
ATOM      5  H   UNL A   1      33.070  27.874  27.102  1.00  0.00     0.163 HD
BRANCH   3   6
ATOM      6  C   UNL A   1      32.051  26.121  24.370  1.00  0.00     0.178 C 
ATOM      7  C   UNL A   1      33.446  25.929  23.718  1.00  0.00     0.079 C 
ATOM      8  C   UNL A   1      31.267  24.741  24.055  1.00  0.00     0.063 C 
ATOM      9  C   UNL A   1      33.216  24.975  22.560  1.00  0.00     0.008 C 
ATOM     10  C   UNL A   1      32.250  23.956  23.136  1.00  0.00     0.011 C 
BRANCH   6  11
ATOM     11  N   UNL A   1      31.334  27.147  23.515  1.00  0.00    -0.336 N 
ATOM     12  C   UNL A   1      29.933  27.453  23.754  1.00  0.00     0.331 C 
ATOM     13  H   UNL A   1      31.847  28.023  23.618  1.00  0.00     0.346 HD
ATOM     14  H   UNL A   1      31.321  26.711  22.594  1.00  0.00     0.346 HD
ENDBRANCH   6  11
BRANCH   8  15
ATOM     15  C   UNL A   1      30.546  23.672  24.998  1.00  0.00     0.039 C 
BRANCH  15  16
ATOM     16  C   UNL A   1      31.135  22.401  25.726  1.00  0.00     0.161 C 
BRANCH  16  17
ATOM     17  O   UNL A   1      32.221  22.496  26.655  1.00  0.00    -0.378 OA
BRANCH  17  18
ATOM     18  C   UNL A   1      33.333  21.629  26.914  1.00  0.00     0.118 C 
ATOM     19  C   UNL A   1      33.649  20.342  26.144  1.00  0.00     0.035 C 
ATOM     20  C   UNL A   1      34.605  22.472  26.949  1.00  0.00     0.035 C 
ATOM     21  C   UNL A   1      34.064  20.567  24.698  1.00  0.00    -0.011 C 
ATOM     22  C   UNL A   1      34.847  22.963  25.538  1.00  0.00    -0.011 C 
ATOM     23  C   UNL A   1      32.787  20.520  23.875  1.00  0.00     0.008 C 
ATOM     24  C   UNL A   1      35.047  21.779  24.562  1.00  0.00     0.006 C 
ATOM     25  C   UNL A   1      35.904  24.061  25.484  1.00  0.00     0.008 C 
ENDBRANCH  17  18
ENDBRANCH  16  17
ENDBRANCH  15  16
ENDBRANCH   8  15
ENDBRANCH   3   6
ENDBRANCH   1   2
BRANCH   1  26
ATOM     26  C   UNL A   1      32.743  30.052  25.468  1.00  0.00     0.042 C 
BRANCH  26  27
ATOM     27  C   UNL A   1      32.642  30.437  26.933  1.00  0.00     0.118 C 
BRANCH  27  28
ATOM     28  N   UNL A   1      32.627  31.886  27.127  1.00  0.00    -0.352 N 
ATOM     29  C   UNL A   1      33.585  32.684  27.727  1.00  0.00     0.251 C 
ATOM     30  H   UNL A   1      31.831  32.355  26.787  1.00  0.00     0.163 HD
ATOM     31  O   UNL A   1      33.367  33.833  28.016  1.00  0.00    -0.269 OA
BRANCH  29  32
ATOM     32  C   UNL A   1      34.881  32.037  28.021  1.00  0.00     0.039 A 
ATOM     33  C   UNL A   1      36.042  32.805  28.061  1.00  0.00     0.014 A 
ATOM     34  C   UNL A   1      34.876  30.708  28.445  1.00  0.00     0.014 A 
ATOM     35  C   UNL A   1      37.193  32.251  28.621  1.00  0.00     0.010 A 
ATOM     36  C   UNL A   1      35.961  30.237  29.160  1.00  0.00     0.010 A 
ATOM     37  C   UNL A   1      37.146  30.983  29.226  1.00  0.00    -0.014 A 
BRANCH  37  38
ATOM     38  C   UNL A   1      38.325  30.381  29.898  1.00  0.00     0.031 A 
ATOM     39  C   UNL A   1      38.682  30.830  31.294  1.00  0.00     0.074 A 
ATOM     40  C   UNL A   1      39.125  29.521  29.235  1.00  0.00     0.049 A 
ATOM     41  N   UNL A   1      39.715  30.507  32.024  1.00  0.00    -0.248 NA
ATOM     42  C   UNL A   1      37.790  31.817  31.933  1.00  0.00     0.031 C 
ATOM     43  C   UNL A   1      38.950  29.089  27.844  1.00  0.00     0.029 A 
ATOM     44  N   UNL A   1      40.259  28.864  29.640  1.00  0.00    -0.354 N 
ATOM     45  C   UNL A   1      39.627  31.293  33.168  1.00  0.00     0.074 A 
ATOM     46  C   UNL A   1      38.484  32.159  33.004  1.00  0.00     0.031 C 
ATOM     47  C   UNL A   1      39.921  28.218  27.526  1.00  0.00     0.029 A 
ATOM     48  C   UNL A   1      40.809  28.054  28.673  1.00  0.00     0.049 A 
ATOM     49  H   UNL A   1      40.646  28.964  30.540  1.00  0.00     0.167 HD
ATOM     50  C   UNL A   1      40.391  31.264  34.282  1.00  0.00     0.034 A 
ATOM     51  C   UNL A   1      41.903  27.268  28.711  1.00  0.00     0.034 A 
ATOM     52  C   UNL A   1      41.470  30.339  34.476  1.00  0.00     0.049 A 
ATOM     53  C   UNL A   1      42.694  27.192  29.991  1.00  0.00     0.074 A 
ATOM     54  C   UNL A   1      42.239  30.138  35.605  1.00  0.00     0.029 A 
ATOM     55  N   UNL A   1      41.930  29.457  33.511  1.00  0.00    -0.354 N 
ATOM     56  N   UNL A   1      42.493  27.821  31.123  1.00  0.00    -0.248 NA
ATOM     57  C   UNL A   1      43.839  26.270  30.011  1.00  0.00     0.031 C 
ATOM     58  C   UNL A   1      43.184  29.150  35.315  1.00  0.00     0.029 A 
ATOM     59  C   UNL A   1      42.978  28.712  34.015  1.00  0.00     0.049 A 
ATOM     60  H   UNL A   1      41.564  29.373  32.600  1.00  0.00     0.167 HD
ATOM     61  C   UNL A   1      43.459  27.344  32.002  1.00  0.00     0.074 A 
ATOM     62  C   UNL A   1      44.232  26.358  31.274  1.00  0.00     0.031 C 
ATOM     63  C   UNL A   1      43.695  27.696  33.290  1.00  0.00     0.034 A 
BRANCH  50  64
ATOM     64  C   UNL A   1      40.042  32.217  35.395  1.00  0.00     0.023 A 
ATOM     65  C   UNL A   1      40.723  33.449  35.504  1.00  0.00     0.012 A 
ATOM     66  C   UNL A   1      39.023  31.909  36.315  1.00  0.00     0.148 A 
ATOM     67  C   UNL A   1      40.429  34.335  36.540  1.00  0.00     0.002 A 
ATOM     68  C   UNL A   1      38.698  32.821  37.311  1.00  0.00     0.091 A 
ATOM     69  F   UNL A   1      38.405  30.723  36.212  1.00  0.00    -0.205 F 
ATOM     70  C   UNL A   1      39.410  34.026  37.435  1.00  0.00     0.022 A 
BRANCH  68  71
ATOM     71  S   UNL A   1      37.343  32.558  38.460  1.00  0.00     0.127 S 
ATOM     72  O   UNL A   1      37.380  31.105  38.631  1.00  0.00    -0.237 OA
ATOM     73  O   UNL A   1      37.783  33.320  39.629  1.00  0.00    -0.237 OA
ATOM     74  O   UNL A   1      36.153  33.079  37.805  1.00  0.00    -0.744 OA
ENDBRANCH  68  71
ENDBRANCH  50  64
BRANCH  51  75
ATOM     75  C   UNL A   1      42.267  26.427  27.534  1.00  0.00     0.023 A 
ATOM     76  C   UNL A   1      43.012  26.994  26.482  1.00  0.00     0.012 A 
ATOM     77  C   UNL A   1      41.898  25.070  27.457  1.00  0.00     0.148 A 
ATOM     78  C   UNL A   1      43.352  26.239  25.359  1.00  0.00     0.002 A 
ATOM     79  C   UNL A   1      42.287  24.307  26.361  1.00  0.00     0.091 A 
ATOM     80  F   UNL A   1      41.183  24.548  28.464  1.00  0.00    -0.205 F 
ATOM     81  C   UNL A   1      42.996  24.894  25.301  1.00  0.00     0.022 A 
BRANCH  79  82
ATOM     82  S   UNL A   1      41.988  22.538  26.260  1.00  0.00     0.127 S 
ATOM     83  O   UNL A   1      42.641  22.195  25.000  1.00  0.00    -0.237 OA
ATOM     84  O   UNL A   1      42.666  22.050  27.461  1.00  0.00    -0.237 OA
ATOM     85  O   UNL A   1      40.539  22.383  26.284  1.00  0.00    -0.744 OA
ENDBRANCH  79  82
ENDBRANCH  51  75
BRANCH  63  86
ATOM     86  C   UNL A   1      44.800  26.982  34.019  1.00  0.00     0.023 A 
ATOM     87  C   UNL A   1      46.111  27.495  33.989  1.00  0.00     0.012 A 
ATOM     88  C   UNL A   1      44.515  25.850  34.809  1.00  0.00     0.148 A 
ATOM     89  C   UNL A   1      47.130  26.874  34.709  1.00  0.00     0.002 A 
ATOM     90  C   UNL A   1      45.523  25.269  35.566  1.00  0.00     0.091 A 
ATOM     91  F   UNL A   1      43.264  25.370  34.809  1.00  0.00    -0.205 F 
ATOM     92  C   UNL A   1      46.833  25.770  35.506  1.00  0.00     0.022 A 
BRANCH  90  93
ATOM     93  S   UNL A   1      45.211  23.913  36.701  1.00  0.00     0.127 S 
ATOM     94  O   UNL A   1      44.486  22.972  35.849  1.00  0.00    -0.237 OA
ATOM     95  O   UNL A   1      46.565  23.492  37.061  1.00  0.00    -0.237 OA
ATOM     96  O   UNL A   1      44.442  24.479  37.802  1.00  0.00    -0.744 OA
ENDBRANCH  90  93
ENDBRANCH  63  86
ENDBRANCH  37  38
ENDBRANCH  29  32
ENDBRANCH  27  28
ENDBRANCH  26  27
ENDBRANCH   1  26
TORSDOF 18
ENDMDL
