MODEL 1
REMARK VINA RESULT:     -10.6      0.000      0.000
REMARK SMILES CC(C)c1cc(=O)[nH]c(SCC(=O)NCCCNC(=O)c2ccc(-c3c4nc(c(-c5cccc(S(=O)(=O)[O-])c5F)c5ccc([nH]5)c(-c5cccc(S(=O)(=O)[O-])c5F)c5nc(c(-c6cccc(S(=O)(=O)[O-])c6F)c6ccc3[nH]6)C=C5)C=C4)cc2)n1
REMARK SMILES IDX 16 1 15 2 14 3 12 4 13 5 11 7 10 8 9 9 4 10 5 11 84 12 6 13
REMARK SMILES IDX 7 14 8 15 2 17 1 18 3 19 17 20 18 21 19 22 20 24 21 25 22 26
REMARK SMILES IDX 83 27 23 28 82 29 24 30 25 31 26 32 76 33 27 34 81 35 75 36
REMARK SMILES IDX 77 37 28 38 80 39 74 40 73 41 29 43 61 44 41 45 60 46 42 47
REMARK SMILES IDX 45 48 59 49 78 50 43 51 44 52 58 54 79 55 46 56 30 57 31 58
REMARK SMILES IDX 39 59 32 60 34 61 40 62 33 63 35 64 36 65 37 66 38 67 62 68
REMARK SMILES IDX 63 69 71 70 64 71 66 72 72 73 65 74 67 75 68 76 69 77 70 78
REMARK SMILES IDX 47 79 48 80 56 81 49 82 51 83 57 84 50 85 52 86 53 87 54 88
REMARK SMILES IDX 55 89
REMARK H PARENT 14 6 8 16 18 23 77 42 45 53
REMARK Flexibility Score: inf
ROOT
ATOM      1  C   UNL A   1      34.738  34.695  28.678  1.00  0.00     0.042 C 
ENDROOT
BRANCH   1   2
ATOM      2  C   UNL A   1      33.259  34.930  28.969  1.00  0.00     0.117 C 
BRANCH   2   3
ATOM      3  N   UNL A   1      33.013  36.233  29.559  1.00  0.00    -0.355 N 
ATOM      4  C   UNL A   1      32.969  36.612  30.869  1.00  0.00     0.230 C 
ATOM      5  O   UNL A   1      32.891  37.823  31.098  1.00  0.00    -0.274 OA
ATOM      6  H   UNL A   1      32.853  36.957  28.912  1.00  0.00     0.163 HD
BRANCH   4   7
ATOM      7  C   UNL A   1      33.167  35.611  31.993  1.00  0.00     0.178 C 
BRANCH   7   8
ATOM      8  S   UNL A   1      34.355  36.106  33.262  1.00  0.00    -0.078 SA
BRANCH   8   9
ATOM      9  C   UNL A   1      35.513  34.819  33.209  1.00  0.00     0.168 A 
ATOM     10  C   UNL A   1      37.541  33.833  33.500  1.00  0.00     0.051 A 
ATOM     11  C   UNL A   1      37.121  32.662  32.995  1.00  0.00     0.095 A 
ATOM     12  N   UNL A   1      36.733  34.945  33.601  1.00  0.00    -0.229 NA
ATOM     13  C   UNL A   1      35.736  32.562  32.520  1.00  0.00     0.251 A 
ATOM     14  O   UNL A   1      35.321  31.539  31.990  1.00  0.00    -0.269 OA
ATOM     15  N   UNL A   1      34.984  33.680  32.690  1.00  0.00    -0.301 N 
ATOM     16  H   UNL A   1      34.034  33.665  32.432  1.00  0.00     0.172 HD
BRANCH  10  17
ATOM     17  C   UNL A   1      38.976  33.991  33.978  1.00  0.00     0.032 C 
ATOM     18  C   UNL A   1      39.883  34.488  32.852  1.00  0.00     0.014 C 
ATOM     19  C   UNL A   1      39.064  34.913  35.197  1.00  0.00     0.014 C 
ENDBRANCH  10  17
ENDBRANCH   8   9
ENDBRANCH   7   8
ENDBRANCH   4   7
ENDBRANCH   2   3
ENDBRANCH   1   2
BRANCH   1  20
ATOM     20  C   UNL A   1      35.196  33.249  28.856  1.00  0.00     0.118 C 
BRANCH  20  21
ATOM     21  N   UNL A   1      34.373  32.298  28.119  1.00  0.00    -0.352 N 
ATOM     22  C   UNL A   1      34.648  31.020  27.699  1.00  0.00     0.251 C 
ATOM     23  H   UNL A   1      33.474  32.625  27.884  1.00  0.00     0.163 HD
ATOM     24  O   UNL A   1      33.864  30.457  26.937  1.00  0.00    -0.269 OA
BRANCH  22  25
ATOM     25  C   UNL A   1      35.884  30.325  28.129  1.00  0.00     0.039 A 
ATOM     26  C   UNL A   1      36.997  30.356  27.284  1.00  0.00     0.014 A 
ATOM     27  C   UNL A   1      35.949  29.632  29.340  1.00  0.00     0.014 A 
ATOM     28  C   UNL A   1      38.196  29.764  27.691  1.00  0.00     0.010 A 
ATOM     29  C   UNL A   1      37.166  29.107  29.777  1.00  0.00     0.010 A 
ATOM     30  C   UNL A   1      38.306  29.177  28.962  1.00  0.00    -0.014 A 
BRANCH  30  31
ATOM     31  C   UNL A   1      39.617  28.697  29.475  1.00  0.00     0.031 A 
ATOM     32  C   UNL A   1      40.335  29.431  30.575  1.00  0.00     0.074 A 
ATOM     33  C   UNL A   1      40.206  27.640  28.881  1.00  0.00     0.049 A 
ATOM     34  N   UNL A   1      41.504  29.177  31.107  1.00  0.00    -0.248 NA
ATOM     35  C   UNL A   1      39.664  30.611  31.141  1.00  0.00     0.031 C 
ATOM     36  C   UNL A   1      39.650  26.889  27.752  1.00  0.00     0.029 A 
ATOM     37  N   UNL A   1      41.413  27.031  29.119  1.00  0.00    -0.354 N 
ATOM     38  C   UNL A   1      41.724  30.180  32.044  1.00  0.00     0.074 A 
ATOM     39  C   UNL A   1      40.577  31.062  31.990  1.00  0.00     0.031 C 
ATOM     40  C   UNL A   1      40.509  25.919  27.400  1.00  0.00     0.029 A 
ATOM     41  C   UNL A   1      41.695  26.003  28.247  1.00  0.00     0.049 A 
ATOM     42  H   UNL A   1      42.020  27.302  29.845  1.00  0.00     0.167 HD
ATOM     43  C   UNL A   1      42.773  30.340  32.885  1.00  0.00     0.034 A 
ATOM     44  C   UNL A   1      42.789  25.226  28.127  1.00  0.00     0.034 A 
ATOM     45  C   UNL A   1      43.901  29.448  32.952  1.00  0.00     0.049 A 
ATOM     46  C   UNL A   1      43.933  25.419  29.084  1.00  0.00     0.074 A 
ATOM     47  C   UNL A   1      44.969  29.479  33.832  1.00  0.00     0.029 A 
ATOM     48  N   UNL A   1      44.122  28.380  32.097  1.00  0.00    -0.354 N 
ATOM     49  N   UNL A   1      44.047  26.272  30.072  1.00  0.00    -0.248 NA
ATOM     50  C   UNL A   1      45.086  24.520  28.929  1.00  0.00     0.031 C 
ATOM     51  C   UNL A   1      45.854  28.453  33.483  1.00  0.00     0.029 A 
ATOM     52  C   UNL A   1      45.318  27.757  32.413  1.00  0.00     0.049 A 
ATOM     53  H   UNL A   1      43.516  28.103  31.372  1.00  0.00     0.167 HD
ATOM     54  C   UNL A   1      45.267  25.993  30.676  1.00  0.00     0.074 A 
ATOM     55  C   UNL A   1      45.842  24.873  29.960  1.00  0.00     0.031 C 
ATOM     56  C   UNL A   1      45.864  26.617  31.722  1.00  0.00     0.034 A 
BRANCH  43  57
ATOM     57  C   UNL A   1      42.739  31.507  33.840  1.00  0.00     0.023 A 
ATOM     58  C   UNL A   1      43.265  32.752  33.439  1.00  0.00     0.012 A 
ATOM     59  C   UNL A   1      42.124  31.393  35.103  1.00  0.00     0.148 A 
ATOM     60  C   UNL A   1      43.210  33.855  34.291  1.00  0.00     0.002 A 
ATOM     61  C   UNL A   1      42.031  32.508  35.927  1.00  0.00     0.091 A 
ATOM     62  F   UNL A   1      41.645  30.197  35.474  1.00  0.00    -0.205 F 
ATOM     63  C   UNL A   1      42.584  33.736  35.528  1.00  0.00     0.022 A 
BRANCH  61  64
ATOM     64  S   UNL A   1      41.173  32.482  37.505  1.00  0.00     0.127 S 
ATOM     65  O   UNL A   1      41.995  31.546  38.271  1.00  0.00    -0.237 OA
ATOM     66  O   UNL A   1      41.278  33.877  37.934  1.00  0.00    -0.237 OA
ATOM     67  O   UNL A   1      39.818  32.032  37.220  1.00  0.00    -0.744 OA
ENDBRANCH  61  64
ENDBRANCH  43  57
BRANCH  44  68
ATOM     68  C   UNL A   1      42.837  24.163  27.083  1.00  0.00     0.023 A 
ATOM     69  C   UNL A   1      43.540  24.397  25.884  1.00  0.00     0.012 A 
ATOM     70  C   UNL A   1      42.211  22.916  27.279  1.00  0.00     0.148 A 
ATOM     71  C   UNL A   1      43.585  23.424  24.885  1.00  0.00     0.002 A 
ATOM     72  C   UNL A   1      42.313  21.930  26.305  1.00  0.00     0.091 A 
ATOM     73  F   UNL A   1      41.539  22.716  28.421  1.00  0.00    -0.205 F 
ATOM     74  C   UNL A   1      42.982  22.189  25.099  1.00  0.00     0.022 A 
BRANCH  72  75
ATOM     75  S   UNL A   1      41.689  20.264  26.553  1.00  0.00     0.127 S 
ATOM     76  O   UNL A   1      40.245  20.480  26.542  1.00  0.00    -0.237 OA
ATOM     77  O   UNL A   1      42.219  19.567  25.380  1.00  0.00    -0.237 OA
ATOM     78  O   UNL A   1      42.255  19.816  27.819  1.00  0.00    -0.744 OA
ENDBRANCH  72  75
ENDBRANCH  44  68
BRANCH  56  79
ATOM     79  C   UNL A   1      47.197  26.086  32.183  1.00  0.00     0.023 A 
ATOM     80  C   UNL A   1      48.390  26.617  31.651  1.00  0.00     0.012 A 
ATOM     81  C   UNL A   1      47.270  25.102  33.190  1.00  0.00     0.148 A 
ATOM     82  C   UNL A   1      49.630  26.150  32.086  1.00  0.00     0.002 A 
ATOM     83  C   UNL A   1      48.509  24.681  33.655  1.00  0.00     0.091 A 
ATOM     84  F   UNL A   1      46.125  24.596  33.672  1.00  0.00    -0.205 F 
ATOM     85  C   UNL A   1      49.690  25.192  33.095  1.00  0.00     0.022 A 
BRANCH  83  86
ATOM     86  S   UNL A   1      48.686  23.522  35.016  1.00  0.00     0.127 S 
ATOM     87  O   UNL A   1      50.139  23.382  35.101  1.00  0.00    -0.237 OA
ATOM     88  O   UNL A   1      48.080  24.256  36.128  1.00  0.00    -0.237 OA
ATOM     89  O   UNL A   1      47.966  22.319  34.620  1.00  0.00    -0.744 OA
ENDBRANCH  83  86
ENDBRANCH  56  79
ENDBRANCH  30  31
ENDBRANCH  22  25
ENDBRANCH  20  21
ENDBRANCH   1  20
TORSDOF 16
ENDMDL
MODEL 2
REMARK VINA RESULT:     -10.0      4.727     10.642
REMARK SMILES CC(C)c1cc(=O)[nH]c(SCC(=O)NCCCNC(=O)c2ccc(-c3c4nc(c(-c5cccc(S(=O)(=O)[O-])c5F)c5ccc([nH]5)c(-c5cccc(S(=O)(=O)[O-])c5F)c5nc(c(-c6cccc(S(=O)(=O)[O-])c6F)c6ccc3[nH]6)C=C5)C=C4)cc2)n1
REMARK SMILES IDX 16 1 15 2 14 3 12 4 13 5 11 7 10 8 9 9 4 10 5 11 84 12 6 13
REMARK SMILES IDX 7 14 8 15 2 17 1 18 3 19 17 20 18 21 19 22 20 24 21 25 22 26
REMARK SMILES IDX 83 27 23 28 82 29 24 30 25 31 26 32 76 33 27 34 81 35 75 36
REMARK SMILES IDX 77 37 28 38 80 39 74 40 73 41 29 43 61 44 41 45 60 46 42 47
REMARK SMILES IDX 45 48 59 49 78 50 43 51 44 52 58 54 79 55 46 56 30 57 31 58
REMARK SMILES IDX 39 59 32 60 34 61 40 62 33 63 35 64 36 65 37 66 38 67 62 68
REMARK SMILES IDX 63 69 71 70 64 71 66 72 72 73 65 74 67 75 68 76 69 77 70 78
REMARK SMILES IDX 47 79 48 80 56 81 49 82 51 83 57 84 50 85 52 86 53 87 54 88
REMARK SMILES IDX 55 89
REMARK H PARENT 14 6 8 16 18 23 77 42 45 53
REMARK Flexibility Score: inf
ROOT
ATOM      1  C   UNL A   1      31.669  31.667  26.581  1.00  0.00     0.042 C 
ENDROOT
BRANCH   1   2
ATOM      2  C   UNL A   1      32.082  30.330  25.970  1.00  0.00     0.117 C 
BRANCH   2   3
ATOM      3  N   UNL A   1      31.748  29.207  26.826  1.00  0.00    -0.355 N 
ATOM      4  C   UNL A   1      31.501  27.903  26.509  1.00  0.00     0.230 C 
ATOM      5  O   UNL A   1      31.388  27.111  27.450  1.00  0.00    -0.274 OA
ATOM      6  H   UNL A   1      31.691  29.418  27.785  1.00  0.00     0.163 HD
BRANCH   4   7
ATOM      7  C   UNL A   1      31.521  27.417  25.071  1.00  0.00     0.178 C 
BRANCH   7   8
ATOM      8  S   UNL A   1      30.074  26.457  24.565  1.00  0.00    -0.078 SA
BRANCH   8   9
ATOM      9  C   UNL A   1      30.531  24.843  24.999  1.00  0.00     0.168 A 
ATOM     10  C   UNL A   1      31.507  22.810  24.711  1.00  0.00     0.051 A 
ATOM     11  C   UNL A   1      31.088  22.363  25.905  1.00  0.00     0.095 A 
ATOM     12  N   UNL A   1      31.217  24.069  24.231  1.00  0.00    -0.229 NA
ATOM     13  C   UNL A   1      30.274  23.255  26.739  1.00  0.00     0.251 A 
ATOM     14  O   UNL A   1      29.811  22.875  27.807  1.00  0.00    -0.269 OA
ATOM     15  N   UNL A   1      30.064  24.495  26.226  1.00  0.00    -0.301 N 
ATOM     16  H   UNL A   1      29.563  25.156  26.756  1.00  0.00     0.172 HD
BRANCH  10  17
ATOM     17  C   UNL A   1      32.329  21.910  23.801  1.00  0.00     0.032 C 
ATOM     18  C   UNL A   1      33.767  22.417  23.674  1.00  0.00     0.014 C 
ATOM     19  C   UNL A   1      32.302  20.456  24.274  1.00  0.00     0.014 C 
ENDBRANCH  10  17
ENDBRANCH   8   9
ENDBRANCH   7   8
ENDBRANCH   4   7
ENDBRANCH   2   3
ENDBRANCH   1   2
BRANCH   1  20
ATOM     20  C   UNL A   1      32.740  32.321  27.452  1.00  0.00     0.118 C 
BRANCH  20  21
ATOM     21  N   UNL A   1      32.520  33.748  27.647  1.00  0.00    -0.352 N 
ATOM     22  C   UNL A   1      33.126  34.635  28.503  1.00  0.00     0.251 C 
ATOM     23  H   UNL A   1      31.824  34.141  27.071  1.00  0.00     0.163 HD
ATOM     24  O   UNL A   1      32.661  35.767  28.621  1.00  0.00    -0.269 OA
BRANCH  22  25
ATOM     25  C   UNL A   1      34.308  34.237  29.302  1.00  0.00     0.039 A 
ATOM     26  C   UNL A   1      34.106  33.534  30.492  1.00  0.00     0.014 A 
ATOM     27  C   UNL A   1      35.605  34.565  28.899  1.00  0.00     0.014 A 
ATOM     28  C   UNL A   1      35.205  33.090  31.234  1.00  0.00     0.010 A 
ATOM     29  C   UNL A   1      36.700  34.059  29.600  1.00  0.00     0.010 A 
ATOM     30  C   UNL A   1      36.512  33.306  30.769  1.00  0.00    -0.014 A 
BRANCH  30  31
ATOM     31  C   UNL A   1      37.682  32.693  31.455  1.00  0.00     0.031 A 
ATOM     32  C   UNL A   1      38.425  31.539  30.839  1.00  0.00     0.074 A 
ATOM     33  C   UNL A   1      38.019  33.126  32.687  1.00  0.00     0.049 A 
ATOM     34  N   UNL A   1      39.433  30.859  31.323  1.00  0.00    -0.248 NA
ATOM     35  C   UNL A   1      37.969  31.077  29.519  1.00  0.00     0.031 C 
ATOM     36  C   UNL A   1      37.328  34.186  33.427  1.00  0.00     0.029 A 
ATOM     37  N   UNL A   1      39.005  32.712  33.547  1.00  0.00    -0.354 N 
ATOM     38  C   UNL A   1      39.712  29.871  30.386  1.00  0.00     0.074 A 
ATOM     39  C   UNL A   1      38.749  30.025  29.316  1.00  0.00     0.031 C 
ATOM     40  C   UNL A   1      37.914  34.341  34.625  1.00  0.00     0.029 A 
ATOM     41  C   UNL A   1      38.992  33.367  34.758  1.00  0.00     0.049 A 
ATOM     42  H   UNL A   1      39.660  32.012  33.320  1.00  0.00     0.167 HD
ATOM     43  C   UNL A   1      40.692  28.936  30.404  1.00  0.00     0.034 A 
ATOM     44  C   UNL A   1      39.749  33.195  35.859  1.00  0.00     0.034 A 
ATOM     45  C   UNL A   1      41.662  28.800  31.459  1.00  0.00     0.049 A 
ATOM     46  C   UNL A   1      40.837  32.158  35.845  1.00  0.00     0.074 A 
ATOM     47  C   UNL A   1      42.746  27.940  31.524  1.00  0.00     0.029 A 
ATOM     48  N   UNL A   1      41.659  29.525  32.640  1.00  0.00    -0.354 N 
ATOM     49  N   UNL A   1      41.189  31.343  34.881  1.00  0.00    -0.248 NA
ATOM     50  C   UNL A   1      41.655  32.037  37.061  1.00  0.00     0.031 C 
ATOM     51  C   UNL A   1      43.373  28.118  32.762  1.00  0.00     0.029 A 
ATOM     52  C   UNL A   1      42.706  29.118  33.450  1.00  0.00     0.049 A 
ATOM     53  H   UNL A   1      41.008  30.227  32.870  1.00  0.00     0.167 HD
ATOM     54  C   UNL A   1      42.286  30.637  35.360  1.00  0.00     0.074 A 
ATOM     55  C   UNL A   1      42.558  31.140  36.690  1.00  0.00     0.031 C 
ATOM     56  C   UNL A   1      42.996  29.652  34.757  1.00  0.00     0.034 A 
BRANCH  43  57
ATOM     57  C   UNL A   1      40.796  28.000  29.225  1.00  0.00     0.023 A 
ATOM     58  C   UNL A   1      40.015  26.827  29.194  1.00  0.00     0.012 A 
ATOM     59  C   UNL A   1      41.609  28.317  28.119  1.00  0.00     0.148 A 
ATOM     60  C   UNL A   1      40.066  25.967  28.098  1.00  0.00     0.002 A 
ATOM     61  C   UNL A   1      41.619  27.479  27.010  1.00  0.00     0.091 A 
ATOM     62  F   UNL A   1      42.358  29.427  28.173  1.00  0.00    -0.205 F 
ATOM     63  C   UNL A   1      40.858  26.299  27.003  1.00  0.00     0.022 A 
BRANCH  61  64
ATOM     64  S   UNL A   1      42.542  27.856  25.515  1.00  0.00     0.127 S 
ATOM     65  O   UNL A   1      42.329  26.644  24.725  1.00  0.00    -0.237 OA
ATOM     66  O   UNL A   1      41.843  29.039  25.013  1.00  0.00    -0.237 OA
ATOM     67  O   UNL A   1      43.915  28.091  25.938  1.00  0.00    -0.744 OA
ENDBRANCH  61  64
ENDBRANCH  43  57
BRANCH  44  68
ATOM     68  C   UNL A   1      39.530  34.057  37.057  1.00  0.00     0.023 A 
ATOM     69  C   UNL A   1      39.887  35.418  37.008  1.00  0.00     0.012 A 
ATOM     70  C   UNL A   1      38.951  33.540  38.233  1.00  0.00     0.148 A 
ATOM     71  C   UNL A   1      39.707  36.240  38.121  1.00  0.00     0.002 A 
ATOM     72  C   UNL A   1      38.718  34.380  39.315  1.00  0.00     0.091 A 
ATOM     73  F   UNL A   1      38.627  32.240  38.263  1.00  0.00    -0.205 F 
ATOM     74  C   UNL A   1      39.114  35.725  39.269  1.00  0.00     0.022 A 
BRANCH  72  75
ATOM     75  S   UNL A   1      37.832  33.838  40.781  1.00  0.00     0.127 S 
ATOM     76  O   UNL A   1      37.575  35.103  41.462  1.00  0.00    -0.237 OA
ATOM     77  O   UNL A   1      36.651  33.199  40.199  1.00  0.00    -0.237 OA
ATOM     78  O   UNL A   1      38.731  32.919  41.466  1.00  0.00    -0.744 OA
ENDBRANCH  72  75
ENDBRANCH  44  68
BRANCH  56  79
ATOM     79  C   UNL A   1      44.161  29.067  35.514  1.00  0.00     0.023 A 
ATOM     80  C   UNL A   1      45.439  29.653  35.402  1.00  0.00     0.012 A 
ATOM     81  C   UNL A   1      43.977  27.975  36.385  1.00  0.00     0.148 A 
ATOM     82  C   UNL A   1      46.521  29.136  36.116  1.00  0.00     0.002 A 
ATOM     83  C   UNL A   1      45.047  27.500  37.132  1.00  0.00     0.091 A 
ATOM     84  F   UNL A   1      42.759  27.420  36.465  1.00  0.00    -0.205 F 
ATOM     85  C   UNL A   1      46.323  28.068  36.988  1.00  0.00     0.022 A 
BRANCH  83  86
ATOM     86  S   UNL A   1      44.869  26.193  38.351  1.00  0.00     0.127 S 
ATOM     87  O   UNL A   1      46.149  25.495  38.231  1.00  0.00    -0.237 OA
ATOM     88  O   UNL A   1      44.703  26.949  39.593  1.00  0.00    -0.237 OA
ATOM     89  O   UNL A   1      43.700  25.422  37.949  1.00  0.00    -0.744 OA
ENDBRANCH  83  86
ENDBRANCH  56  79
ENDBRANCH  30  31
ENDBRANCH  22  25
ENDBRANCH  20  21
ENDBRANCH   1  20
TORSDOF 16
ENDMDL
MODEL 3
REMARK VINA RESULT:     -10.0      5.930     11.575
REMARK SMILES CC(C)c1cc(=O)[nH]c(SCC(=O)NCCCNC(=O)c2ccc(-c3c4nc(c(-c5cccc(S(=O)(=O)[O-])c5F)c5ccc([nH]5)c(-c5cccc(S(=O)(=O)[O-])c5F)c5nc(c(-c6cccc(S(=O)(=O)[O-])c6F)c6ccc3[nH]6)C=C5)C=C4)cc2)n1
REMARK SMILES IDX 16 1 15 2 14 3 12 4 13 5 11 7 10 8 9 9 4 10 5 11 84 12 6 13
REMARK SMILES IDX 7 14 8 15 2 17 1 18 3 19 17 20 18 21 19 22 20 24 21 25 22 26
REMARK SMILES IDX 83 27 23 28 82 29 24 30 25 31 26 32 76 33 27 34 81 35 75 36
REMARK SMILES IDX 77 37 28 38 80 39 74 40 73 41 29 43 61 44 41 45 60 46 42 47
REMARK SMILES IDX 45 48 59 49 78 50 43 51 44 52 58 54 79 55 46 56 30 57 31 58
REMARK SMILES IDX 39 59 32 60 34 61 40 62 33 63 35 64 36 65 37 66 38 67 62 68
REMARK SMILES IDX 63 69 71 70 64 71 66 72 72 73 65 74 67 75 68 76 69 77 70 78
REMARK SMILES IDX 47 79 48 80 56 81 49 82 51 83 57 84 50 85 52 86 53 87 54 88
REMARK SMILES IDX 55 89
REMARK H PARENT 14 6 8 16 18 23 77 42 45 53
REMARK Flexibility Score: inf
ROOT
ATOM      1  C   UNL A   1      35.736  21.600  24.495  1.00  0.00     0.042 C 
ENDROOT
BRANCH   1   2
ATOM      2  C   UNL A   1      35.095  21.314  25.850  1.00  0.00     0.117 C 
BRANCH   2   3
ATOM      3  N   UNL A   1      34.079  20.279  25.771  1.00  0.00    -0.355 N 
ATOM      4  C   UNL A   1      32.792  20.342  25.323  1.00  0.00     0.230 C 
ATOM      5  O   UNL A   1      32.183  19.273  25.222  1.00  0.00    -0.274 OA
ATOM      6  H   UNL A   1      34.364  19.393  26.092  1.00  0.00     0.163 HD
BRANCH   4   7
ATOM      7  C   UNL A   1      32.189  21.642  24.821  1.00  0.00     0.178 C 
BRANCH   7   8
ATOM      8  S   UNL A   1      32.259  21.880  23.030  1.00  0.00    -0.078 SA
BRANCH   8   9
ATOM      9  C   UNL A   1      32.398  23.601  22.890  1.00  0.00     0.168 A 
ATOM     10  C   UNL A   1      32.334  25.756  23.610  1.00  0.00     0.051 A 
ATOM     11  C   UNL A   1      32.658  26.242  22.401  1.00  0.00     0.095 A 
ATOM     12  N   UNL A   1      32.185  24.411  23.869  1.00  0.00    -0.229 NA
ATOM     13  C   UNL A   1      32.854  25.295  21.297  1.00  0.00     0.251 A 
ATOM     14  O   UNL A   1      33.085  25.687  20.160  1.00  0.00    -0.269 OA
ATOM     15  N   UNL A   1      32.736  23.984  21.632  1.00  0.00    -0.301 N 
ATOM     16  H   UNL A   1      32.899  23.296  20.947  1.00  0.00     0.172 HD
BRANCH  10  17
ATOM     17  C   UNL A   1      32.094  26.702  24.776  1.00  0.00     0.032 C 
ATOM     18  C   UNL A   1      30.674  27.270  24.744  1.00  0.00     0.014 C 
ATOM     19  C   UNL A   1      32.381  26.025  26.118  1.00  0.00     0.014 C 
ENDBRANCH  10  17
ENDBRANCH   8   9
ENDBRANCH   7   8
ENDBRANCH   4   7
ENDBRANCH   2   3
ENDBRANCH   1   2
BRANCH   1  20
ATOM     20  C   UNL A   1      37.232  21.899  24.555  1.00  0.00     0.118 C 
BRANCH  20  21
ATOM     21  N   UNL A   1      37.987  20.879  25.271  1.00  0.00    -0.352 N 
ATOM     22  C   UNL A   1      39.062  20.996  26.118  1.00  0.00     0.251 C 
ATOM     23  H   UNL A   1      37.676  19.956  25.125  1.00  0.00     0.163 HD
ATOM     24  O   UNL A   1      39.654  19.980  26.479  1.00  0.00    -0.269 OA
BRANCH  22  25
ATOM     25  C   UNL A   1      39.531  22.324  26.576  1.00  0.00     0.039 A 
ATOM     26  C   UNL A   1      40.632  22.385  27.434  1.00  0.00     0.014 A 
ATOM     27  C   UNL A   1      38.887  23.500  26.186  1.00  0.00     0.014 A 
ATOM     28  C   UNL A   1      41.136  23.627  27.832  1.00  0.00     0.010 A 
ATOM     29  C   UNL A   1      39.434  24.739  26.523  1.00  0.00     0.010 A 
ATOM     30  C   UNL A   1      40.572  24.816  27.341  1.00  0.00    -0.014 A 
BRANCH  30  31
ATOM     31  C   UNL A   1      41.201  26.135  27.617  1.00  0.00     0.031 A 
ATOM     32  C   UNL A   1      42.618  26.422  27.200  1.00  0.00     0.074 A 
ATOM     33  C   UNL A   1      40.515  27.051  28.331  1.00  0.00     0.049 A 
ATOM     34  N   UNL A   1      43.333  27.498  27.403  1.00  0.00    -0.248 NA
ATOM     35  C   UNL A   1      43.330  25.357  26.475  1.00  0.00     0.031 C 
ATOM     36  C   UNL A   1      39.162  26.866  28.862  1.00  0.00     0.029 A 
ATOM     37  N   UNL A   1      40.869  28.306  28.760  1.00  0.00    -0.354 N 
ATOM     38  C   UNL A   1      44.586  27.233  26.864  1.00  0.00     0.074 A 
ATOM     39  C   UNL A   1      44.541  25.882  26.345  1.00  0.00     0.031 C 
ATOM     40  C   UNL A   1      38.800  27.967  29.539  1.00  0.00     0.029 A 
ATOM     41  C   UNL A   1      39.905  28.919  29.529  1.00  0.00     0.049 A 
ATOM     42  H   UNL A   1      41.731  28.729  28.538  1.00  0.00     0.167 HD
ATOM     43  C   UNL A   1      45.668  28.045  26.787  1.00  0.00     0.034 A 
ATOM     44  C   UNL A   1      39.913  30.104  30.169  1.00  0.00     0.034 A 
ATOM     45  C   UNL A   1      45.702  29.396  27.283  1.00  0.00     0.049 A 
ATOM     46  C   UNL A   1      41.123  30.990  30.056  1.00  0.00     0.074 A 
ATOM     47  C   UNL A   1      46.722  30.326  27.173  1.00  0.00     0.029 A 
ATOM     48  N   UNL A   1      44.684  30.006  27.999  1.00  0.00    -0.354 N 
ATOM     49  N   UNL A   1      42.238  30.784  29.400  1.00  0.00    -0.248 NA
ATOM     50  C   UNL A   1      41.063  32.286  30.746  1.00  0.00     0.031 C 
ATOM     51  C   UNL A   1      46.336  31.483  27.857  1.00  0.00     0.029 A 
ATOM     52  C   UNL A   1      45.059  31.291  28.357  1.00  0.00     0.049 A 
ATOM     53  H   UNL A   1      43.821  29.588  28.220  1.00  0.00     0.167 HD
ATOM     54  C   UNL A   1      42.999  31.934  29.570  1.00  0.00     0.074 A 
ATOM     55  C   UNL A   1      42.205  32.845  30.369  1.00  0.00     0.031 C 
ATOM     56  C   UNL A   1      44.248  32.207  29.117  1.00  0.00     0.034 A 
BRANCH  43  57
ATOM     57  C   UNL A   1      46.903  27.512  26.105  1.00  0.00     0.023 A 
ATOM     58  C   UNL A   1      47.129  27.802  24.744  1.00  0.00     0.012 A 
ATOM     59  C   UNL A   1      47.873  26.788  26.827  1.00  0.00     0.148 A 
ATOM     60  C   UNL A   1      48.284  27.352  24.104  1.00  0.00     0.002 A 
ATOM     61  C   UNL A   1      49.042  26.383  26.194  1.00  0.00     0.091 A 
ATOM     62  F   UNL A   1      47.633  26.506  28.115  1.00  0.00    -0.205 F 
ATOM     63  C   UNL A   1      49.243  26.654  24.830  1.00  0.00     0.022 A 
BRANCH  61  64
ATOM     64  S   UNL A   1      50.378  25.549  27.059  1.00  0.00     0.127 S 
ATOM     65  O   UNL A   1      50.737  26.540  28.072  1.00  0.00    -0.237 OA
ATOM     66  O   UNL A   1      49.708  24.359  27.582  1.00  0.00    -0.237 OA
ATOM     67  O   UNL A   1      51.401  25.282  26.058  1.00  0.00    -0.744 OA
ENDBRANCH  61  64
ENDBRANCH  43  57
BRANCH  44  68
ATOM     68  C   UNL A   1      38.716  30.541  30.943  1.00  0.00     0.023 A 
ATOM     69  C   UNL A   1      38.659  30.301  32.330  1.00  0.00     0.012 A 
ATOM     70  C   UNL A   1      37.646  31.212  30.318  1.00  0.00     0.148 A 
ATOM     71  C   UNL A   1      37.542  30.685  33.073  1.00  0.00     0.002 A 
ATOM     72  C   UNL A   1      36.565  31.647  31.076  1.00  0.00     0.091 A 
ATOM     73  F   UNL A   1      37.715  31.423  28.996  1.00  0.00    -0.205 F 
ATOM     74  C   UNL A   1      36.502  31.367  32.449  1.00  0.00     0.022 A 
BRANCH  72  75
ATOM     75  S   UNL A   1      35.248  32.653  30.384  1.00  0.00     0.127 S 
ATOM     76  O   UNL A   1      34.834  31.855  29.233  1.00  0.00    -0.237 OA
ATOM     77  O   UNL A   1      34.287  32.690  31.487  1.00  0.00    -0.237 OA
ATOM     78  O   UNL A   1      35.855  33.941  30.078  1.00  0.00    -0.744 OA
ENDBRANCH  72  75
ENDBRANCH  44  68
BRANCH  56  79
ATOM     79  C   UNL A   1      44.829  33.559  29.443  1.00  0.00     0.023 A 
ATOM     80  C   UNL A   1      45.577  33.738  30.624  1.00  0.00     0.012 A 
ATOM     81  C   UNL A   1      44.685  34.638  28.548  1.00  0.00     0.148 A 
ATOM     82  C   UNL A   1      46.140  34.978  30.927  1.00  0.00     0.002 A 
ATOM     83  C   UNL A   1      45.292  35.855  28.830  1.00  0.00     0.091 A 
ATOM     84  F   UNL A   1      43.955  34.455  27.438  1.00  0.00    -0.205 F 
ATOM     85  C   UNL A   1      46.007  36.032  30.026  1.00  0.00     0.022 A 
BRANCH  83  86
ATOM     86  S   UNL A   1      45.259  37.240  27.687  1.00  0.00     0.127 S 
ATOM     87  O   UNL A   1      45.989  38.263  28.435  1.00  0.00    -0.237 OA
ATOM     88  O   UNL A   1      45.976  36.703  26.530  1.00  0.00    -0.237 OA
ATOM     89  O   UNL A   1      43.851  37.531  27.446  1.00  0.00    -0.744 OA
ENDBRANCH  83  86
ENDBRANCH  56  79
ENDBRANCH  30  31
ENDBRANCH  22  25
ENDBRANCH  20  21
ENDBRANCH   1  20
TORSDOF 16
ENDMDL
