MODEL 1
REMARK VINA RESULT:     -13.2      0.000      0.000
REMARK SMILES Cc1ccc(-c2cc(OCC(=O)NCCCNC(=O)c3ccc(-c4c5nc(c(-c6cccc(S(=O)(=O)[O-])c6F)c6ccc([nH]6)c(-c6cccc(S(=O)(=O)[O-])c6F)c6nc(c(-c7cccc(S(=O)(=O)[O-])c7F)c7ccc4[nH]7)C=C6)C=C5)cc3)nc(NCc3ccc4c(c3)OCO4)n2)cc1
REMARK SMILES IDX 14 1 13 2 11 3 12 4 10 6 9 7 8 8 6 9 7 10 96 11 84 12 83 13
REMARK SMILES IDX 5 14 1 15 2 16 3 17 98 18 4 19 97 20 85 21 86 23 87 24 88 25
REMARK SMILES IDX 92 26 89 27 91 28 90 29 93 30 95 31 94 32 15 33 16 34 17 35
REMARK SMILES IDX 18 36 19 38 20 39 21 40 82 41 22 42 81 43 23 44 24 45 25 46
REMARK SMILES IDX 75 47 26 48 80 49 74 50 76 51 27 52 79 53 73 54 72 55 28 57
REMARK SMILES IDX 60 58 40 59 59 60 41 61 44 62 58 63 77 64 42 65 43 66 57 68
REMARK SMILES IDX 78 69 45 70 29 71 30 72 38 73 31 74 33 75 39 76 32 77 34 78
REMARK SMILES IDX 35 79 36 80 37 81 61 82 62 83 70 84 63 85 65 86 71 87 64 88
REMARK SMILES IDX 66 89 67 90 68 91 69 92 46 93 47 94 55 95 48 96 50 97 56 98
REMARK SMILES IDX 49 99 51 100 52 101 53 102 54 103
REMARK H PARENT 13 5 85 22 17 37 76 56 44 67
REMARK Flexibility Score: inf
ROOT
ATOM      1  C   UNL A   1      33.904  29.421  26.880  1.00  0.00     0.117 C 
ENDROOT
BRANCH   1   2
ATOM      2  N   UNL A   1      34.058  29.235  25.446  1.00  0.00    -0.353 N 
ATOM      3  C   UNL A   1      33.940  28.086  24.719  1.00  0.00     0.258 C 
ATOM      4  O   UNL A   1      34.031  28.132  23.491  1.00  0.00    -0.271 OA
ATOM      5  H   UNL A   1      34.278  30.045  24.930  1.00  0.00     0.163 HD
BRANCH   3   6
ATOM      6  C   UNL A   1      33.679  26.755  25.435  1.00  0.00     0.331 C 
BRANCH   6   7
ATOM      7  O   UNL A   1      34.206  25.598  24.814  1.00  0.00    -0.467 OA
BRANCH   7   8
ATOM      8  C   UNL A   1      33.325  24.629  24.416  1.00  0.00     0.219 A 
ATOM      9  C   UNL A   1      32.593  22.483  23.867  1.00  0.00     0.080 A 
ATOM     10  C   UNL A   1      33.621  23.298  24.294  1.00  0.00     0.097 A 
ATOM     11  N   UNL A   1      31.380  22.959  23.530  1.00  0.00    -0.213 NA
ATOM     12  C   UNL A   1      31.170  24.266  23.713  1.00  0.00     0.226 A 
ATOM     13  N   UNL A   1      32.107  25.121  24.143  1.00  0.00    -0.177 NA
BRANCH   9  14
ATOM     14  C   UNL A   1      32.780  21.031  23.814  1.00  0.00     0.000 A 
ATOM     15  C   UNL A   1      33.592  16.792  23.526  1.00  0.00     0.044 C 
ATOM     16  C   UNL A   1      33.301  18.259  23.640  1.00  0.00    -0.051 A 
ATOM     17  C   UNL A   1      32.401  18.872  22.758  1.00  0.00     0.004 A 
ATOM     18  C   UNL A   1      33.923  19.033  24.621  1.00  0.00     0.004 A 
ATOM     19  C   UNL A   1      32.138  20.244  22.850  1.00  0.00     0.010 A 
ATOM     20  C   UNL A   1      33.667  20.403  24.705  1.00  0.00     0.010 A 
ENDBRANCH   9  14
BRANCH  12  21
ATOM     21  N   UNL A   1      29.938  24.816  23.485  1.00  0.00    -0.350 N 
ATOM     22  H   UNL A   1      29.390  24.465  22.746  1.00  0.00     0.164 HD
BRANCH  21  23
ATOM     23  C   UNL A   1      29.417  25.890  24.289  1.00  0.00     0.152 C 
BRANCH  23  24
ATOM     24  C   UNL A   1      29.347  27.206  23.528  1.00  0.00    -0.025 A 
ATOM     25  C   UNL A   1      30.521  27.697  22.904  1.00  0.00     0.009 A 
ATOM     26  C   UNL A   1      28.158  27.952  23.416  1.00  0.00     0.056 A 
ATOM     27  C   UNL A   1      30.532  28.928  22.236  1.00  0.00     0.051 A 
ATOM     28  C   UNL A   1      28.205  29.173  22.780  1.00  0.00     0.166 A 
ATOM     29  C   UNL A   1      29.362  29.653  22.215  1.00  0.00     0.165 A 
ATOM     30  O   UNL A   1      27.168  30.046  22.663  1.00  0.00    -0.454 OA
ATOM     31  O   UNL A   1      29.196  30.895  21.683  1.00  0.00    -0.454 OA
ATOM     32  C   UNL A   1      27.861  31.195  22.141  1.00  0.00     0.468 C 
ENDBRANCH  23  24
ENDBRANCH  21  23
ENDBRANCH  12  21
ENDBRANCH   7   8
ENDBRANCH   6   7
ENDBRANCH   3   6
ENDBRANCH   1   2
BRANCH   1  33
ATOM     33  C   UNL A   1      33.372  30.797  27.257  1.00  0.00     0.042 C 
BRANCH  33  34
ATOM     34  C   UNL A   1      34.459  31.756  27.709  1.00  0.00     0.118 C 
BRANCH  34  35
ATOM     35  N   UNL A   1      33.954  33.002  28.264  1.00  0.00    -0.352 N 
ATOM     36  C   UNL A   1      34.403  33.741  29.341  1.00  0.00     0.251 C 
ATOM     37  H   UNL A   1      33.172  33.376  27.799  1.00  0.00     0.163 HD
ATOM     38  O   UNL A   1      33.681  34.653  29.745  1.00  0.00    -0.269 OA
BRANCH  36  39
ATOM     39  C   UNL A   1      35.762  33.538  29.912  1.00  0.00     0.039 A 
ATOM     40  C   UNL A   1      36.873  33.863  29.116  1.00  0.00     0.014 A 
ATOM     41  C   UNL A   1      35.964  32.874  31.117  1.00  0.00     0.014 A 
ATOM     42  C   UNL A   1      38.126  33.316  29.403  1.00  0.00     0.010 A 
ATOM     43  C   UNL A   1      37.167  32.251  31.351  1.00  0.00     0.010 A 
ATOM     44  C   UNL A   1      38.227  32.421  30.459  1.00  0.00    -0.014 A 
BRANCH  44  45
ATOM     45  C   UNL A   1      39.354  31.547  30.732  1.00  0.00     0.031 A 
ATOM     46  C   UNL A   1      39.456  30.238  30.069  1.00  0.00     0.074 A 
ATOM     47  C   UNL A   1      40.446  32.108  31.296  1.00  0.00     0.049 A 
ATOM     48  N   UNL A   1      40.370  29.371  30.333  1.00  0.00    -0.248 NA
ATOM     49  C   UNL A   1      38.514  29.799  29.049  1.00  0.00     0.031 C 
ATOM     50  C   UNL A   1      41.830  31.670  31.172  1.00  0.00     0.029 A 
ATOM     51  N   UNL A   1      40.490  33.106  32.271  1.00  0.00    -0.354 N 
ATOM     52  C   UNL A   1      40.333  28.416  29.341  1.00  0.00     0.074 A 
ATOM     53  C   UNL A   1      39.098  28.670  28.639  1.00  0.00     0.031 C 
ATOM     54  C   UNL A   1      42.530  32.165  32.202  1.00  0.00     0.029 A 
ATOM     55  C   UNL A   1      41.575  32.780  33.106  1.00  0.00     0.049 A 
ATOM     56  H   UNL A   1      39.887  33.880  32.358  1.00  0.00     0.167 HD
ATOM     57  C   UNL A   1      41.430  27.623  29.164  1.00  0.00     0.034 A 
ATOM     58  C   UNL A   1      41.436  32.488  34.434  1.00  0.00     0.034 A 
ATOM     59  C   UNL A   1      42.443  27.883  30.206  1.00  0.00     0.049 A 
ATOM     60  C   UNL A   1      41.907  31.086  34.797  1.00  0.00     0.074 A 
ATOM     61  C   UNL A   1      43.658  28.551  30.253  1.00  0.00     0.029 A 
ATOM     62  N   UNL A   1      42.117  27.606  31.521  1.00  0.00    -0.354 N 
ATOM     63  N   UNL A   1      42.486  30.254  33.975  1.00  0.00    -0.248 NA
ATOM     64  C   UNL A   1      41.667  30.480  36.108  1.00  0.00     0.031 C 
ATOM     65  C   UNL A   1      44.044  28.674  31.623  1.00  0.00     0.029 A 
ATOM     66  C   UNL A   1      43.078  28.065  32.403  1.00  0.00     0.049 A 
ATOM     67  H   UNL A   1      41.297  27.138  31.797  1.00  0.00     0.167 HD
ATOM     68  C   UNL A   1      42.518  29.001  34.538  1.00  0.00     0.074 A 
ATOM     69  C   UNL A   1      42.048  29.209  35.896  1.00  0.00     0.031 C 
ATOM     70  C   UNL A   1      42.848  27.876  33.830  1.00  0.00     0.034 A 
BRANCH  57  71
ATOM     71  C   UNL A   1      41.735  26.752  27.953  1.00  0.00     0.023 A 
ATOM     72  C   UNL A   1      41.481  27.314  26.678  1.00  0.00     0.012 A 
ATOM     73  C   UNL A   1      42.193  25.415  27.943  1.00  0.00     0.148 A 
ATOM     74  C   UNL A   1      41.579  26.581  25.491  1.00  0.00     0.002 A 
ATOM     75  C   UNL A   1      42.249  24.664  26.765  1.00  0.00     0.091 A 
ATOM     76  F   UNL A   1      42.647  24.853  29.060  1.00  0.00    -0.205 F 
ATOM     77  C   UNL A   1      41.935  25.244  25.535  1.00  0.00     0.022 A 
BRANCH  75  78
ATOM     78  S   UNL A   1      42.668  22.909  26.751  1.00  0.00     0.127 S 
ATOM     79  O   UNL A   1      42.295  22.518  25.390  1.00  0.00    -0.237 OA
ATOM     80  O   UNL A   1      44.107  22.927  27.004  1.00  0.00    -0.237 OA
ATOM     81  O   UNL A   1      41.863  22.283  27.793  1.00  0.00    -0.744 OA
ENDBRANCH  75  78
ENDBRANCH  57  71
BRANCH  58  82
ATOM     82  C   UNL A   1      40.301  33.217  35.071  1.00  0.00     0.023 A 
ATOM     83  C   UNL A   1      39.035  32.586  35.030  1.00  0.00     0.012 A 
ATOM     84  C   UNL A   1      40.524  34.232  36.020  1.00  0.00     0.148 A 
ATOM     85  C   UNL A   1      38.063  32.864  35.991  1.00  0.00     0.002 A 
ATOM     86  C   UNL A   1      39.549  34.502  36.977  1.00  0.00     0.091 A 
ATOM     87  F   UNL A   1      41.715  34.842  36.035  1.00  0.00    -0.205 F 
ATOM     88  C   UNL A   1      38.335  33.796  36.987  1.00  0.00     0.022 A 
BRANCH  86  89
ATOM     89  S   UNL A   1      39.849  35.645  38.333  1.00  0.00     0.127 S 
ATOM     90  O   UNL A   1      39.747  36.934  37.655  1.00  0.00    -0.237 OA
ATOM     91  O   UNL A   1      38.750  35.337  39.247  1.00  0.00    -0.237 OA
ATOM     92  O   UNL A   1      41.164  35.286  38.842  1.00  0.00    -0.744 OA
ENDBRANCH  86  89
ENDBRANCH  58  82
BRANCH  70  93
ATOM     93  C   UNL A   1      42.949  26.482  34.432  1.00  0.00     0.023 A 
ATOM     94  C   UNL A   1      41.835  25.889  35.059  1.00  0.00     0.012 A 
ATOM     95  C   UNL A   1      44.179  25.776  34.521  1.00  0.00     0.148 A 
ATOM     96  C   UNL A   1      41.917  24.635  35.679  1.00  0.00     0.002 A 
ATOM     97  C   UNL A   1      44.275  24.572  35.213  1.00  0.00     0.091 A 
ATOM     98  F   UNL A   1      45.267  26.248  33.909  1.00  0.00    -0.205 F 
ATOM     99  C   UNL A   1      43.139  23.982  35.768  1.00  0.00     0.022 A 
BRANCH  97 100
ATOM    100  S   UNL A   1      45.851  23.753  35.520  1.00  0.00     0.127 S 
ATOM    101  O   UNL A   1      45.485  22.797  36.568  1.00  0.00    -0.237 OA
ATOM    102  O   UNL A   1      46.131  23.150  34.218  1.00  0.00    -0.237 OA
ATOM    103  O   UNL A   1      46.776  24.792  35.943  1.00  0.00    -0.744 OA
ENDBRANCH  97 100
ENDBRANCH  70  93
ENDBRANCH  44  45
ENDBRANCH  36  39
ENDBRANCH  34  35
ENDBRANCH  33  34
ENDBRANCH   1  33
TORSDOF 19
ENDMDL
MODEL 2
REMARK VINA RESULT:     -12.9      2.099      4.705
REMARK SMILES Cc1ccc(-c2cc(OCC(=O)NCCCNC(=O)c3ccc(-c4c5nc(c(-c6cccc(S(=O)(=O)[O-])c6F)c6ccc([nH]6)c(-c6cccc(S(=O)(=O)[O-])c6F)c6nc(c(-c7cccc(S(=O)(=O)[O-])c7F)c7ccc4[nH]7)C=C6)C=C5)cc3)nc(NCc3ccc4c(c3)OCO4)n2)cc1
REMARK SMILES IDX 14 1 13 2 11 3 12 4 10 6 9 7 8 8 6 9 7 10 96 11 84 12 83 13
REMARK SMILES IDX 5 14 1 15 2 16 3 17 98 18 4 19 97 20 85 21 86 23 87 24 88 25
REMARK SMILES IDX 92 26 89 27 91 28 90 29 93 30 95 31 94 32 15 33 16 34 17 35
REMARK SMILES IDX 18 36 19 38 20 39 21 40 82 41 22 42 81 43 23 44 24 45 25 46
REMARK SMILES IDX 75 47 26 48 80 49 74 50 76 51 27 52 79 53 73 54 72 55 28 57
REMARK SMILES IDX 60 58 40 59 59 60 41 61 44 62 58 63 77 64 42 65 43 66 57 68
REMARK SMILES IDX 78 69 45 70 29 71 30 72 38 73 31 74 33 75 39 76 32 77 34 78
REMARK SMILES IDX 35 79 36 80 37 81 61 82 62 83 70 84 63 85 65 86 71 87 64 88
REMARK SMILES IDX 66 89 67 90 68 91 69 92 46 93 47 94 55 95 48 96 50 97 56 98
REMARK SMILES IDX 49 99 51 100 52 101 53 102 54 103
REMARK H PARENT 13 5 85 22 17 37 76 56 44 67
REMARK Flexibility Score: inf
ROOT
ATOM      1  C   UNL A   1      34.011  29.551  27.117  1.00  0.00     0.117 C 
ENDROOT
BRANCH   1   2
ATOM      2  N   UNL A   1      32.731  28.947  27.452  1.00  0.00    -0.353 N 
ATOM      3  C   UNL A   1      32.259  27.711  27.117  1.00  0.00     0.258 C 
ATOM      4  O   UNL A   1      31.171  27.336  27.557  1.00  0.00    -0.271 OA
ATOM      5  H   UNL A   1      32.123  29.504  27.992  1.00  0.00     0.163 HD
BRANCH   3   6
ATOM      6  C   UNL A   1      33.094  26.797  26.211  1.00  0.00     0.331 C 
BRANCH   6   7
ATOM      7  O   UNL A   1      32.425  25.671  25.673  1.00  0.00    -0.467 OA
BRANCH   7   8
ATOM      8  C   UNL A   1      33.149  24.524  25.494  1.00  0.00     0.219 A 
ATOM      9  C   UNL A   1      35.049  23.175  25.394  1.00  0.00     0.080 A 
ATOM     10  C   UNL A   1      34.508  24.421  25.627  1.00  0.00     0.097 A 
ATOM     11  N   UNL A   1      34.309  22.122  25.001  1.00  0.00    -0.213 NA
ATOM     12  C   UNL A   1      32.987  22.305  24.929  1.00  0.00     0.226 A 
ATOM     13  N   UNL A   1      32.380  23.476  25.161  1.00  0.00    -0.177 NA
BRANCH   9  14
ATOM     14  C   UNL A   1      36.477  22.940  25.621  1.00  0.00     0.000 A 
ATOM     15  C   UNL A   1      40.621  22.093  26.529  1.00  0.00     0.044 C 
ATOM     16  C   UNL A   1      39.188  22.387  26.198  1.00  0.00    -0.051 A 
ATOM     17  C   UNL A   1      38.646  23.651  26.468  1.00  0.00     0.004 A 
ATOM     18  C   UNL A   1      38.377  21.409  25.621  1.00  0.00     0.004 A 
ATOM     19  C   UNL A   1      37.305  23.926  26.174  1.00  0.00     0.010 A 
ATOM     20  C   UNL A   1      37.038  21.682  25.338  1.00  0.00     0.010 A 
ENDBRANCH   9  14
BRANCH  12  21
ATOM     21  N   UNL A   1      32.152  21.264  24.628  1.00  0.00    -0.350 N 
ATOM     22  H   UNL A   1      31.391  21.077  25.224  1.00  0.00     0.164 HD
BRANCH  21  23
ATOM     23  C   UNL A   1      32.348  20.433  23.469  1.00  0.00     0.152 C 
BRANCH  23  24
ATOM     24  C   UNL A   1      32.708  19.000  23.833  1.00  0.00    -0.025 A 
ATOM     25  C   UNL A   1      33.395  18.206  22.881  1.00  0.00     0.009 A 
ATOM     26  C   UNL A   1      32.390  18.435  25.081  1.00  0.00     0.056 A 
ATOM     27  C   UNL A   1      33.706  16.864  23.137  1.00  0.00     0.051 A 
ATOM     28  C   UNL A   1      32.679  17.105  25.295  1.00  0.00     0.166 A 
ATOM     29  C   UNL A   1      33.310  16.338  24.345  1.00  0.00     0.165 A 
ATOM     30  O   UNL A   1      32.361  16.394  26.410  1.00  0.00    -0.454 OA
ATOM     31  O   UNL A   1      33.456  15.045  24.744  1.00  0.00    -0.454 OA
ATOM     32  C   UNL A   1      32.687  15.064  25.965  1.00  0.00     0.468 C 
ENDBRANCH  23  24
ENDBRANCH  21  23
ENDBRANCH  12  21
ENDBRANCH   7   8
ENDBRANCH   6   7
ENDBRANCH   3   6
ENDBRANCH   1   2
BRANCH   1  33
ATOM     33  C   UNL A   1      34.494  30.557  28.154  1.00  0.00     0.042 C 
BRANCH  33  34
ATOM     34  C   UNL A   1      34.708  31.948  27.584  1.00  0.00     0.118 C 
BRANCH  34  35
ATOM     35  N   UNL A   1      34.062  33.004  28.346  1.00  0.00    -0.352 N 
ATOM     36  C   UNL A   1      34.406  33.558  29.564  1.00  0.00     0.251 C 
ATOM     37  H   UNL A   1      33.255  33.383  27.929  1.00  0.00     0.163 HD
ATOM     38  O   UNL A   1      33.583  34.297  30.105  1.00  0.00    -0.269 OA
BRANCH  36  39
ATOM     39  C   UNL A   1      35.766  33.382  30.142  1.00  0.00     0.039 A 
ATOM     40  C   UNL A   1      36.872  33.792  29.378  1.00  0.00     0.014 A 
ATOM     41  C   UNL A   1      35.981  32.669  31.316  1.00  0.00     0.014 A 
ATOM     42  C   UNL A   1      38.143  33.283  29.654  1.00  0.00     0.010 A 
ATOM     43  C   UNL A   1      37.206  32.085  31.535  1.00  0.00     0.010 A 
ATOM     44  C   UNL A   1      38.269  32.342  30.666  1.00  0.00    -0.014 A 
BRANCH  44  45
ATOM     45  C   UNL A   1      39.428  31.502  30.912  1.00  0.00     0.031 A 
ATOM     46  C   UNL A   1      39.574  30.217  30.211  1.00  0.00     0.074 A 
ATOM     47  C   UNL A   1      40.501  32.086  31.487  1.00  0.00     0.049 A 
ATOM     48  N   UNL A   1      40.520  29.376  30.448  1.00  0.00    -0.248 NA
ATOM     49  C   UNL A   1      38.645  29.773  29.183  1.00  0.00     0.031 C 
ATOM     50  C   UNL A   1      41.900  31.702  31.347  1.00  0.00     0.029 A 
ATOM     51  N   UNL A   1      40.513  33.058  32.491  1.00  0.00    -0.354 N 
ATOM     52  C   UNL A   1      40.514  28.449  29.430  1.00  0.00     0.074 A 
ATOM     53  C   UNL A   1      39.267  28.677  28.739  1.00  0.00     0.031 C 
ATOM     54  C   UNL A   1      42.585  32.193  32.389  1.00  0.00     0.029 A 
ATOM     55  C   UNL A   1      41.612  32.748  33.312  1.00  0.00     0.049 A 
ATOM     56  H   UNL A   1      39.882  33.806  32.601  1.00  0.00     0.167 HD
ATOM     57  C   UNL A   1      41.638  27.702  29.228  1.00  0.00     0.034 A 
ATOM     58  C   UNL A   1      41.489  32.414  34.632  1.00  0.00     0.034 A 
ATOM     59  C   UNL A   1      42.646  27.969  30.273  1.00  0.00     0.049 A 
ATOM     60  C   UNL A   1      42.012  31.020  34.954  1.00  0.00     0.074 A 
ATOM     61  C   UNL A   1      43.835  28.678  30.335  1.00  0.00     0.029 A 
ATOM     62  N   UNL A   1      42.335  27.643  31.581  1.00  0.00    -0.354 N 
ATOM     63  N   UNL A   1      42.618  30.233  34.107  1.00  0.00    -0.248 NA
ATOM     64  C   UNL A   1      41.800  30.369  36.248  1.00  0.00     0.031 C 
ATOM     65  C   UNL A   1      44.222  28.777  31.707  1.00  0.00     0.029 A 
ATOM     66  C   UNL A   1      43.282  28.112  32.473  1.00  0.00     0.049 A 
ATOM     67  H   UNL A   1      41.533  27.138  31.846  1.00  0.00     0.167 HD
ATOM     68  C   UNL A   1      42.697  28.967  34.634  1.00  0.00     0.074 A 
ATOM     69  C   UNL A   1      42.225  29.119  36.000  1.00  0.00     0.031 C 
ATOM     70  C   UNL A   1      43.065  27.875  33.894  1.00  0.00     0.034 A 
BRANCH  57  71
ATOM     71  C   UNL A   1      41.969  26.876  27.991  1.00  0.00     0.023 A 
ATOM     72  C   UNL A   1      41.159  27.080  26.849  1.00  0.00     0.012 A 
ATOM     73  C   UNL A   1      42.963  25.879  27.858  1.00  0.00     0.148 A 
ATOM     74  C   UNL A   1      41.257  26.292  25.696  1.00  0.00     0.002 A 
ATOM     75  C   UNL A   1      43.037  25.060  26.727  1.00  0.00     0.091 A 
ATOM     76  F   UNL A   1      43.902  25.739  28.789  1.00  0.00    -0.205 F 
ATOM     77  C   UNL A   1      42.178  25.260  25.645  1.00  0.00     0.022 A 
BRANCH  75  78
ATOM     78  S   UNL A   1      44.185  23.673  26.606  1.00  0.00     0.127 S 
ATOM     79  O   UNL A   1      43.830  22.881  27.785  1.00  0.00    -0.237 OA
ATOM     80  O   UNL A   1      43.811  23.065  25.331  1.00  0.00    -0.237 OA
ATOM     81  O   UNL A   1      45.527  24.242  26.652  1.00  0.00    -0.744 OA
ENDBRANCH  75  78
ENDBRANCH  57  71
BRANCH  58  82
ATOM     82  C   UNL A   1      40.331  33.083  35.293  1.00  0.00     0.023 A 
ATOM     83  C   UNL A   1      39.117  32.357  35.338  1.00  0.00     0.012 A 
ATOM     84  C   UNL A   1      40.518  34.152  36.188  1.00  0.00     0.148 A 
ATOM     85  C   UNL A   1      38.171  32.604  36.333  1.00  0.00     0.002 A 
ATOM     86  C   UNL A   1      39.569  34.390  37.180  1.00  0.00     0.091 A 
ATOM     87  F   UNL A   1      41.658  34.850  36.122  1.00  0.00    -0.205 F 
ATOM     88  C   UNL A   1      38.414  33.597  37.275  1.00  0.00     0.022 A 
BRANCH  86  89
ATOM     89  S   UNL A   1      39.840  35.611  38.472  1.00  0.00     0.127 S 
ATOM     90  O   UNL A   1      41.170  35.242  38.946  1.00  0.00    -0.237 OA
ATOM     91  O   UNL A   1      39.775  36.869  37.728  1.00  0.00    -0.237 OA
ATOM     92  O   UNL A   1      38.743  35.416  39.408  1.00  0.00    -0.744 OA
ENDBRANCH  86  89
ENDBRANCH  58  82
BRANCH  70  93
ATOM     93  C   UNL A   1      43.218  26.469  34.457  1.00  0.00     0.023 A 
ATOM     94  C   UNL A   1      42.103  25.773  34.963  1.00  0.00     0.012 A 
ATOM     95  C   UNL A   1      44.486  25.850  34.630  1.00  0.00     0.148 A 
ATOM     96  C   UNL A   1      42.226  24.505  35.547  1.00  0.00     0.002 A 
ATOM     97  C   UNL A   1      44.613  24.630  35.288  1.00  0.00     0.091 A 
ATOM     98  F   UNL A   1      45.584  26.424  34.132  1.00  0.00    -0.205 F 
ATOM     99  C   UNL A   1      43.482  23.939  35.721  1.00  0.00     0.022 A 
BRANCH  97 100
ATOM    100  S   UNL A   1      46.214  23.915  35.705  1.00  0.00     0.127 S 
ATOM    101  O   UNL A   1      46.863  25.031  36.396  1.00  0.00    -0.237 OA
ATOM    102  O   UNL A   1      45.827  22.805  36.573  1.00  0.00    -0.237 OA
ATOM    103  O   UNL A   1      46.835  23.540  34.444  1.00  0.00    -0.744 OA
ENDBRANCH  97 100
ENDBRANCH  70  93
ENDBRANCH  44  45
ENDBRANCH  36  39
ENDBRANCH  34  35
ENDBRANCH  33  34
ENDBRANCH   1  33
TORSDOF 19
ENDMDL
MODEL 3
REMARK VINA RESULT:     -12.9      4.897     10.322
REMARK SMILES Cc1ccc(-c2cc(OCC(=O)NCCCNC(=O)c3ccc(-c4c5nc(c(-c6cccc(S(=O)(=O)[O-])c6F)c6ccc([nH]6)c(-c6cccc(S(=O)(=O)[O-])c6F)c6nc(c(-c7cccc(S(=O)(=O)[O-])c7F)c7ccc4[nH]7)C=C6)C=C5)cc3)nc(NCc3ccc4c(c3)OCO4)n2)cc1
REMARK SMILES IDX 14 1 13 2 11 3 12 4 10 6 9 7 8 8 6 9 7 10 96 11 84 12 83 13
REMARK SMILES IDX 5 14 1 15 2 16 3 17 98 18 4 19 97 20 85 21 86 23 87 24 88 25
REMARK SMILES IDX 92 26 89 27 91 28 90 29 93 30 95 31 94 32 15 33 16 34 17 35
REMARK SMILES IDX 18 36 19 38 20 39 21 40 82 41 22 42 81 43 23 44 24 45 25 46
REMARK SMILES IDX 75 47 26 48 80 49 74 50 76 51 27 52 79 53 73 54 72 55 28 57
REMARK SMILES IDX 60 58 40 59 59 60 41 61 44 62 58 63 77 64 42 65 43 66 57 68
REMARK SMILES IDX 78 69 45 70 29 71 30 72 38 73 31 74 33 75 39 76 32 77 34 78
REMARK SMILES IDX 35 79 36 80 37 81 61 82 62 83 70 84 63 85 65 86 71 87 64 88
REMARK SMILES IDX 66 89 67 90 68 91 69 92 46 93 47 94 55 95 48 96 50 97 56 98
REMARK SMILES IDX 49 99 51 100 52 101 53 102 54 103
REMARK H PARENT 13 5 85 22 17 37 76 56 44 67
REMARK Flexibility Score: inf
ROOT
ATOM      1  C   UNL A   1      40.930  19.684  26.938  1.00  0.00     0.117 C 
ENDROOT
BRANCH   1   2
ATOM      2  N   UNL A   1      40.784  21.112  27.168  1.00  0.00    -0.353 N 
ATOM      3  C   UNL A   1      39.818  21.955  26.700  1.00  0.00     0.258 C 
ATOM      4  O   UNL A   1      39.810  23.132  27.064  1.00  0.00    -0.271 OA
ATOM      5  H   UNL A   1      41.473  21.527  27.737  1.00  0.00     0.163 HD
BRANCH   3   6
ATOM      6  C   UNL A   1      38.744  21.426  25.742  1.00  0.00     0.331 C 
BRANCH   6   7
ATOM      7  O   UNL A   1      37.812  22.377  25.261  1.00  0.00    -0.467 OA
BRANCH   7   8
ATOM      8  C   UNL A   1      36.535  21.951  25.014  1.00  0.00     0.219 A 
ATOM      9  C   UNL A   1      34.794  20.424  24.734  1.00  0.00     0.080 A 
ATOM     10  C   UNL A   1      36.126  20.645  25.017  1.00  0.00     0.097 A 
ATOM     11  N   UNL A   1      33.944  21.416  24.413  1.00  0.00    -0.213 NA
ATOM     12  C   UNL A   1      34.422  22.663  24.468  1.00  0.00     0.226 A 
ATOM     13  N   UNL A   1      35.694  22.965  24.756  1.00  0.00    -0.177 NA
BRANCH   9  14
ATOM     14  C   UNL A   1      34.239  19.071  24.824  1.00  0.00     0.000 A 
ATOM     15  C   UNL A   1      32.662  15.081  25.375  1.00  0.00     0.044 C 
ATOM     16  C   UNL A   1      33.198  16.467  25.171  1.00  0.00    -0.051 A 
ATOM     17  C   UNL A   1      34.451  16.659  24.575  1.00  0.00     0.004 A 
ATOM     18  C   UNL A   1      32.459  17.581  25.574  1.00  0.00     0.004 A 
ATOM     19  C   UNL A   1      34.963  17.950  24.396  1.00  0.00     0.010 A 
ATOM     20  C   UNL A   1      32.975  18.866  25.404  1.00  0.00     0.010 A 
ENDBRANCH   9  14
BRANCH  12  21
ATOM     21  N   UNL A   1      33.602  23.737  24.248  1.00  0.00    -0.350 N 
ATOM     22  H   UNL A   1      33.983  24.643  24.301  1.00  0.00     0.164 HD
BRANCH  21  23
ATOM     23  C   UNL A   1      32.204  23.585  23.944  1.00  0.00     0.152 C 
BRANCH  23  24
ATOM     24  C   UNL A   1      31.586  24.860  23.389  1.00  0.00    -0.025 A 
ATOM     25  C   UNL A   1      32.298  25.592  22.406  1.00  0.00     0.009 A 
ATOM     26  C   UNL A   1      30.331  25.337  23.810  1.00  0.00     0.056 A 
ATOM     27  C   UNL A   1      31.806  26.801  21.897  1.00  0.00     0.051 A 
ATOM     28  C   UNL A   1      29.885  26.543  23.316  1.00  0.00     0.166 A 
ATOM     29  C   UNL A   1      30.608  27.261  22.393  1.00  0.00     0.165 A 
ATOM     30  O   UNL A   1      28.740  27.177  23.687  1.00  0.00    -0.454 OA
ATOM     31  O   UNL A   1      30.008  28.442  22.079  1.00  0.00    -0.454 OA
ATOM     32  C   UNL A   1      28.933  28.449  23.041  1.00  0.00     0.468 C 
ENDBRANCH  23  24
ENDBRANCH  21  23
ENDBRANCH  12  21
ENDBRANCH   7   8
ENDBRANCH   6   7
ENDBRANCH   3   6
ENDBRANCH   1   2
BRANCH   1  33
ATOM     33  C   UNL A   1      42.376  19.249  26.742  1.00  0.00     0.042 C 
BRANCH  33  34
ATOM     34  C   UNL A   1      42.938  19.633  25.384  1.00  0.00     0.118 C 
BRANCH  34  35
ATOM     35  N   UNL A   1      44.345  19.998  25.410  1.00  0.00    -0.352 N 
ATOM     36  C   UNL A   1      44.939  21.243  25.481  1.00  0.00     0.251 C 
ATOM     37  H   UNL A   1      44.972  19.240  25.370  1.00  0.00     0.163 HD
ATOM     38  O   UNL A   1      46.152  21.307  25.277  1.00  0.00    -0.269 OA
BRANCH  36  39
ATOM     39  C   UNL A   1      44.177  22.443  25.919  1.00  0.00     0.039 A 
ATOM     40  C   UNL A   1      43.968  23.475  24.988  1.00  0.00     0.014 A 
ATOM     41  C   UNL A   1      43.831  22.652  27.250  1.00  0.00     0.014 A 
ATOM     42  C   UNL A   1      43.655  24.763  25.428  1.00  0.00     0.010 A 
ATOM     43  C   UNL A   1      43.623  23.935  27.699  1.00  0.00     0.010 A 
ATOM     44  C   UNL A   1      43.600  24.998  26.794  1.00  0.00    -0.014 A 
BRANCH  44  45
ATOM     45  C   UNL A   1      43.573  26.299  27.438  1.00  0.00     0.031 A 
ATOM     46  C   UNL A   1      42.313  27.052  27.537  1.00  0.00     0.074 A 
ATOM     47  C   UNL A   1      44.613  26.611  28.241  1.00  0.00     0.049 A 
ATOM     48  N   UNL A   1      42.229  28.248  28.004  1.00  0.00    -0.248 NA
ATOM     49  C   UNL A   1      41.036  26.506  27.102  1.00  0.00     0.031 C 
ATOM     50  C   UNL A   1      44.609  27.511  29.387  1.00  0.00     0.029 A 
ATOM     51  N   UNL A   1      45.963  26.305  28.053  1.00  0.00    -0.354 N 
ATOM     52  C   UNL A   1      40.895  28.517  28.216  1.00  0.00     0.074 A 
ATOM     53  C   UNL A   1      40.197  27.450  27.537  1.00  0.00     0.031 C 
ATOM     54  C   UNL A   1      45.866  27.911  29.622  1.00  0.00     0.029 A 
ATOM     55  C   UNL A   1      46.679  27.420  28.524  1.00  0.00     0.049 A 
ATOM     56  H   UNL A   1      46.337  25.478  27.669  1.00  0.00     0.167 HD
ATOM     57  C   UNL A   1      40.565  29.538  29.060  1.00  0.00     0.034 A 
ATOM     58  C   UNL A   1      47.481  28.187  27.726  1.00  0.00     0.034 A 
ATOM     59  C   UNL A   1      41.771  30.264  29.507  1.00  0.00     0.049 A 
ATOM     60  C   UNL A   1      47.041  29.643  27.646  1.00  0.00     0.074 A 
ATOM     61  C   UNL A   1      42.512  30.313  30.677  1.00  0.00     0.029 A 
ATOM     62  N   UNL A   1      42.524  30.929  28.556  1.00  0.00    -0.354 N 
ATOM     63  N   UNL A   1      46.066  30.169  28.335  1.00  0.00    -0.248 NA
ATOM     64  C   UNL A   1      47.617  30.599  26.699  1.00  0.00     0.031 C 
ATOM     65  C   UNL A   1      43.728  31.014  30.403  1.00  0.00     0.029 A 
ATOM     66  C   UNL A   1      43.713  31.406  29.077  1.00  0.00     0.049 A 
ATOM     67  H   UNL A   1      42.247  31.049  27.620  1.00  0.00     0.167 HD
ATOM     68  C   UNL A   1      45.755  31.404  27.821  1.00  0.00     0.074 A 
ATOM     69  C   UNL A   1      46.794  31.652  26.837  1.00  0.00     0.031 C 
ATOM     70  C   UNL A   1      44.629  32.097  28.178  1.00  0.00     0.034 A 
BRANCH  57  71
ATOM     71  C   UNL A   1      39.200  29.795  29.685  1.00  0.00     0.023 A 
ATOM     72  C   UNL A   1      38.589  28.710  30.358  1.00  0.00     0.012 A 
ATOM     73  C   UNL A   1      38.434  30.981  29.628  1.00  0.00     0.148 A 
ATOM     74  C   UNL A   1      37.281  28.761  30.852  1.00  0.00     0.002 A 
ATOM     75  C   UNL A   1      37.111  31.025  30.080  1.00  0.00     0.091 A 
ATOM     76  F   UNL A   1      38.981  32.114  29.197  1.00  0.00    -0.205 F 
ATOM     77  C   UNL A   1      36.528  29.912  30.687  1.00  0.00     0.022 A 
BRANCH  75  78
ATOM     78  S   UNL A   1      36.059  32.475  29.864  1.00  0.00     0.127 S 
ATOM     79  O   UNL A   1      36.108  32.673  28.414  1.00  0.00    -0.237 OA
ATOM     80  O   UNL A   1      34.770  32.007  30.370  1.00  0.00    -0.237 OA
ATOM     81  O   UNL A   1      36.674  33.551  30.634  1.00  0.00    -0.744 OA
ENDBRANCH  75  78
ENDBRANCH  57  71
BRANCH  58  82
ATOM     82  C   UNL A   1      48.114  27.407  26.621  1.00  0.00     0.023 A 
ATOM     83  C   UNL A   1      47.573  27.585  25.326  1.00  0.00     0.012 A 
ATOM     84  C   UNL A   1      49.410  26.876  26.750  1.00  0.00     0.148 A 
ATOM     85  C   UNL A   1      48.350  27.365  24.189  1.00  0.00     0.002 A 
ATOM     86  C   UNL A   1      50.180  26.661  25.610  1.00  0.00     0.091 A 
ATOM     87  F   UNL A   1      49.904  26.686  27.980  1.00  0.00    -0.205 F 
ATOM     88  C   UNL A   1      49.665  26.938  24.332  1.00  0.00     0.022 A 
BRANCH  86  89
ATOM     89  S   UNL A   1      51.907  26.172  25.715  1.00  0.00     0.127 S 
ATOM     90  O   UNL A   1      51.794  24.824  26.264  1.00  0.00    -0.237 OA
ATOM     91  O   UNL A   1      52.334  26.237  24.318  1.00  0.00    -0.237 OA
ATOM     92  O   UNL A   1      52.527  27.169  26.574  1.00  0.00    -0.744 OA
ENDBRANCH  86  89
ENDBRANCH  58  82
BRANCH  70  93
ATOM     93  C   UNL A   1      44.282  33.490  27.672  1.00  0.00     0.023 A 
ATOM     94  C   UNL A   1      43.788  33.677  26.366  1.00  0.00     0.012 A 
ATOM     95  C   UNL A   1      44.564  34.666  28.419  1.00  0.00     0.148 A 
ATOM     96  C   UNL A   1      43.523  34.953  25.852  1.00  0.00     0.002 A 
ATOM     97  C   UNL A   1      44.381  35.933  27.873  1.00  0.00     0.091 A 
ATOM     98  F   UNL A   1      44.986  34.570  29.682  1.00  0.00    -0.205 F 
ATOM     99  C   UNL A   1      43.831  36.081  26.599  1.00  0.00     0.022 A 
BRANCH  97 100
ATOM    100  S   UNL A   1      44.915  37.437  28.710  1.00  0.00     0.127 S 
ATOM    101  O   UNL A   1      44.378  38.472  27.826  1.00  0.00    -0.237 OA
ATOM    102  O   UNL A   1      44.231  37.320  29.997  1.00  0.00    -0.237 OA
ATOM    103  O   UNL A   1      46.368  37.380  28.763  1.00  0.00    -0.744 OA
ENDBRANCH  97 100
ENDBRANCH  70  93
ENDBRANCH  44  45
ENDBRANCH  36  39
ENDBRANCH  34  35
ENDBRANCH  33  34
ENDBRANCH   1  33
TORSDOF 19
ENDMDL
