MODEL 1
REMARK VINA RESULT:     -12.9      0.000      0.000
REMARK SMILES Cc1c(NS(=O)(=O)c2ncn(C)c2Cl)cccc1C(=O)NCCCNC(=O)c1ccc(-c2c3nc(c(-c4cccc(S(=O)(=O)[O-])c4F)c4ccc([nH]4)c(-c4cccc(S(=O)(=O)[O-])c4F)c4nc(c(-c5cccc(S(=O)(=O)[O-])c5F)c5ccc2[nH]5)C=C4)C=C3)cc1
REMARK SMILES IDX 23 1 22 2 21 3 19 4 20 5 18 7 1 8 2 9 3 10 15 11 17 12 16 13
REMARK SMILES IDX 4 14 5 16 6 17 7 18 8 19 9 20 13 21 10 22 11 23 14 24 12 25
REMARK SMILES IDX 24 26 25 27 26 28 27 30 28 31 29 32 90 33 30 34 89 35 31 36
REMARK SMILES IDX 32 37 33 38 83 39 34 40 88 41 82 42 84 43 35 44 87 45 81 46
REMARK SMILES IDX 80 47 36 49 68 50 48 51 67 52 49 53 52 54 66 55 85 56 50 57
REMARK SMILES IDX 51 58 65 60 86 61 53 62 37 63 38 64 46 65 39 66 41 67 47 68
REMARK SMILES IDX 40 69 42 70 43 71 44 72 45 73 69 74 70 75 78 76 71 77 73 78
REMARK SMILES IDX 79 79 72 80 74 81 75 82 76 83 77 84 54 85 55 86 63 87 56 88
REMARK SMILES IDX 58 89 64 90 57 91 59 92 60 93 61 94 62 95
REMARK H PARENT 21 6 4 15 25 29 84 48 52 59
REMARK Flexibility Score: inf
ROOT
ATOM      1  C   UNL A   1      33.791  30.927  27.905  1.00  0.00     0.042 C 
ENDROOT
BRANCH   1   2
ATOM      2  C   UNL A   1      32.583  30.595  27.041  1.00  0.00     0.118 C 
BRANCH   2   3
ATOM      3  N   UNL A   1      31.971  29.355  27.466  1.00  0.00    -0.352 N 
ATOM      4  C   UNL A   1      31.627  28.173  26.871  1.00  0.00     0.251 C 
ATOM      5  O   UNL A   1      31.077  27.375  27.641  1.00  0.00    -0.269 OA
ATOM      6  H   UNL A   1      31.745  29.365  28.424  1.00  0.00     0.163 HD
BRANCH   4   7
ATOM      7  C   UNL A   1      31.883  27.705  25.450  1.00  0.00     0.044 A 
ATOM      8  C   UNL A   1      33.971  26.232  25.665  1.00  0.00     0.047 C 
ATOM      9  C   UNL A   1      32.804  26.767  24.905  1.00  0.00    -0.014 A 
ATOM     10  C   UNL A   1      32.802  26.466  23.518  1.00  0.00     0.053 A 
ATOM     11  C   UNL A   1      32.239  27.406  22.668  1.00  0.00     0.027 A 
ATOM     12  C   UNL A   1      31.148  28.470  24.516  1.00  0.00     0.014 A 
ATOM     13  C   UNL A   1      31.381  28.382  23.150  1.00  0.00     0.003 A 
BRANCH  10  14
ATOM     14  N   UNL A   1      33.657  25.417  22.998  1.00  0.00    -0.278 N 
ATOM     15  H   UNL A   1      34.618  25.600  22.889  1.00  0.00     0.180 HD
BRANCH  14  16
ATOM     16  S   UNL A   1      33.062  23.875  22.569  1.00  0.00     0.282 S 
ATOM     17  O   UNL A   1      31.642  23.897  22.927  1.00  0.00    -0.199 OA
ATOM     18  O   UNL A   1      33.455  23.612  21.220  1.00  0.00    -0.199 OA
BRANCH  16  19
ATOM     19  C   UNL A   1      33.747  22.611  23.533  1.00  0.00     0.213 A 
ATOM     20  N   UNL A   1      33.006  21.781  24.366  1.00  0.00    -0.222 NA
ATOM     21  C   UNL A   1      35.092  22.414  23.758  1.00  0.00     0.149 A 
ATOM     22  C   UNL A   1      33.888  21.194  25.141  1.00  0.00     0.202 A 
ATOM     23  N   UNL A   1      35.155  21.662  24.898  1.00  0.00    -0.324 N 
ATOM     24  Cl  UNL A   1      36.493  23.102  23.081  1.00  0.00    -0.061 Cl
ATOM     25  C   UNL A   1      36.203  21.644  25.889  1.00  0.00     0.152 C 
ENDBRANCH  16  19
ENDBRANCH  14  16
ENDBRANCH  10  14
ENDBRANCH   4   7
ENDBRANCH   2   3
ENDBRANCH   1   2
BRANCH   1  26
ATOM     26  C   UNL A   1      35.098  31.236  27.210  1.00  0.00     0.118 C 
BRANCH  26  27
ATOM     27  N   UNL A   1      36.028  31.857  28.161  1.00  0.00    -0.352 N 
ATOM     28  C   UNL A   1      37.078  31.306  28.873  1.00  0.00     0.251 C 
ATOM     29  H   UNL A   1      35.880  32.817  28.317  1.00  0.00     0.163 HD
ATOM     30  O   UNL A   1      37.689  31.962  29.707  1.00  0.00    -0.269 OA
BRANCH  28  31
ATOM     31  C   UNL A   1      37.497  29.944  28.499  1.00  0.00     0.039 A 
ATOM     32  C   UNL A   1      37.584  29.056  29.572  1.00  0.00     0.014 A 
ATOM     33  C   UNL A   1      38.290  29.800  27.363  1.00  0.00     0.014 A 
ATOM     34  C   UNL A   1      38.705  28.248  29.670  1.00  0.00     0.010 A 
ATOM     35  C   UNL A   1      39.436  29.039  27.491  1.00  0.00     0.010 A 
ATOM     36  C   UNL A   1      39.690  28.365  28.693  1.00  0.00    -0.014 A 
BRANCH  36  37
ATOM     37  C   UNL A   1      40.981  27.710  28.797  1.00  0.00     0.031 A 
ATOM     38  C   UNL A   1      40.980  26.249  28.609  1.00  0.00     0.074 A 
ATOM     39  C   UNL A   1      42.133  28.386  29.020  1.00  0.00     0.049 A 
ATOM     40  N   UNL A   1      41.906  25.460  29.022  1.00  0.00    -0.248 NA
ATOM     41  C   UNL A   1      39.853  25.557  27.991  1.00  0.00     0.031 C 
ATOM     42  C   UNL A   1      43.486  27.860  28.864  1.00  0.00     0.029 A 
ATOM     43  N   UNL A   1      42.339  29.637  29.616  1.00  0.00    -0.354 N 
ATOM     44  C   UNL A   1      41.655  24.221  28.475  1.00  0.00     0.074 A 
ATOM     45  C   UNL A   1      40.309  24.305  27.970  1.00  0.00     0.031 C 
ATOM     46  C   UNL A   1      44.334  28.611  29.583  1.00  0.00     0.029 A 
ATOM     47  C   UNL A   1      43.523  29.515  30.377  1.00  0.00     0.049 A 
ATOM     48  H   UNL A   1      41.773  30.437  29.523  1.00  0.00     0.167 HD
ATOM     49  C   UNL A   1      42.689  23.341  28.372  1.00  0.00     0.034 A 
ATOM     50  C   UNL A   1      43.597  29.648  31.739  1.00  0.00     0.034 A 
ATOM     51  C   UNL A   1      43.873  23.849  29.095  1.00  0.00     0.049 A 
ATOM     52  C   UNL A   1      44.174  28.419  32.445  1.00  0.00     0.074 A 
ATOM     53  C   UNL A   1      45.037  24.493  28.704  1.00  0.00     0.029 A 
ATOM     54  N   UNL A   1      43.800  24.008  30.474  1.00  0.00    -0.354 N 
ATOM     55  N   UNL A   1      44.581  27.335  31.845  1.00  0.00    -0.248 NA
ATOM     56  C   UNL A   1      44.189  28.279  33.901  1.00  0.00     0.031 C 
ATOM     57  C   UNL A   1      45.644  25.066  29.863  1.00  0.00     0.029 A 
ATOM     58  C   UNL A   1      44.874  24.740  30.966  1.00  0.00     0.049 A 
ATOM     59  H   UNL A   1      43.077  23.645  31.035  1.00  0.00     0.167 HD
ATOM     60  C   UNL A   1      44.719  26.320  32.764  1.00  0.00     0.074 A 
ATOM     61  C   UNL A   1      44.467  26.973  34.039  1.00  0.00     0.031 C 
ATOM     62  C   UNL A   1      44.945  25.014  32.402  1.00  0.00     0.034 A 
BRANCH  49  63
ATOM     63  C   UNL A   1      42.741  22.181  27.379  1.00  0.00     0.023 A 
ATOM     64  C   UNL A   1      41.824  21.126  27.580  1.00  0.00     0.012 A 
ATOM     65  C   UNL A   1      43.665  21.987  26.321  1.00  0.00     0.148 A 
ATOM     66  C   UNL A   1      41.880  19.926  26.858  1.00  0.00     0.002 A 
ATOM     67  C   UNL A   1      43.757  20.773  25.631  1.00  0.00     0.091 A 
ATOM     68  F   UNL A   1      44.433  22.992  25.906  1.00  0.00    -0.205 F 
ATOM     69  C   UNL A   1      42.866  19.737  25.903  1.00  0.00     0.022 A 
BRANCH  67  70
ATOM     70  S   UNL A   1      45.043  20.446  24.406  1.00  0.00     0.127 S 
ATOM     71  O   UNL A   1      44.787  19.046  24.060  1.00  0.00    -0.237 OA
ATOM     72  O   UNL A   1      44.719  21.401  23.349  1.00  0.00    -0.237 OA
ATOM     73  O   UNL A   1      46.319  20.669  25.075  1.00  0.00    -0.744 OA
ENDBRANCH  67  70
ENDBRANCH  49  63
BRANCH  50  74
ATOM     74  C   UNL A   1      42.504  30.497  32.310  1.00  0.00     0.023 A 
ATOM     75  C   UNL A   1      42.424  31.835  31.859  1.00  0.00     0.012 A 
ATOM     76  C   UNL A   1      41.366  29.906  32.877  1.00  0.00     0.148 A 
ATOM     77  C   UNL A   1      41.181  32.456  31.730  1.00  0.00     0.002 A 
ATOM     78  C   UNL A   1      40.136  30.539  32.760  1.00  0.00     0.091 A 
ATOM     79  F   UNL A   1      41.466  28.710  33.468  1.00  0.00    -0.205 F 
ATOM     80  C   UNL A   1      40.028  31.777  32.114  1.00  0.00     0.022 A 
BRANCH  78  81
ATOM     81  S   UNL A   1      38.658  29.712  33.346  1.00  0.00     0.127 S 
ATOM     82  O   UNL A   1      38.710  29.997  34.775  1.00  0.00    -0.237 OA
ATOM     83  O   UNL A   1      37.594  30.403  32.620  1.00  0.00    -0.237 OA
ATOM     84  O   UNL A   1      38.849  28.324  32.949  1.00  0.00    -0.744 OA
ENDBRANCH  78  81
ENDBRANCH  50  74
BRANCH  62  85
ATOM     85  C   UNL A   1      45.181  23.856  33.376  1.00  0.00     0.023 A 
ATOM     86  C   UNL A   1      44.137  23.025  33.826  1.00  0.00     0.012 A 
ATOM     87  C   UNL A   1      46.457  23.603  33.952  1.00  0.00     0.148 A 
ATOM     88  C   UNL A   1      44.359  21.913  34.649  1.00  0.00     0.002 A 
ATOM     89  C   UNL A   1      46.676  22.514  34.795  1.00  0.00     0.091 A 
ATOM     90  F   UNL A   1      47.465  24.456  33.748  1.00  0.00    -0.205 F 
ATOM     91  C   UNL A   1      45.636  21.643  35.114  1.00  0.00     0.022 A 
BRANCH  89  92
ATOM     92  S   UNL A   1      48.275  22.187  35.550  1.00  0.00     0.127 S 
ATOM     93  O   UNL A   1      47.935  21.130  36.504  1.00  0.00    -0.237 OA
ATOM     94  O   UNL A   1      49.066  21.738  34.403  1.00  0.00    -0.237 OA
ATOM     95  O   UNL A   1      48.715  23.442  36.139  1.00  0.00    -0.744 OA
ENDBRANCH  89  92
ENDBRANCH  62  85
ENDBRANCH  36  37
ENDBRANCH  28  31
ENDBRANCH  26  27
ENDBRANCH   1  26
TORSDOF 16
ENDMDL
MODEL 2
REMARK VINA RESULT:     -12.7      2.157      2.658
REMARK SMILES Cc1c(NS(=O)(=O)c2ncn(C)c2Cl)cccc1C(=O)NCCCNC(=O)c1ccc(-c2c3nc(c(-c4cccc(S(=O)(=O)[O-])c4F)c4ccc([nH]4)c(-c4cccc(S(=O)(=O)[O-])c4F)c4nc(c(-c5cccc(S(=O)(=O)[O-])c5F)c5ccc2[nH]5)C=C4)C=C3)cc1
REMARK SMILES IDX 23 1 22 2 21 3 19 4 20 5 18 7 1 8 2 9 3 10 15 11 17 12 16 13
REMARK SMILES IDX 4 14 5 16 6 17 7 18 8 19 9 20 13 21 10 22 11 23 14 24 12 25
REMARK SMILES IDX 24 26 25 27 26 28 27 30 28 31 29 32 90 33 30 34 89 35 31 36
REMARK SMILES IDX 32 37 33 38 83 39 34 40 88 41 82 42 84 43 35 44 87 45 81 46
REMARK SMILES IDX 80 47 36 49 68 50 48 51 67 52 49 53 52 54 66 55 85 56 50 57
REMARK SMILES IDX 51 58 65 60 86 61 53 62 37 63 38 64 46 65 39 66 41 67 47 68
REMARK SMILES IDX 40 69 42 70 43 71 44 72 45 73 69 74 70 75 78 76 71 77 73 78
REMARK SMILES IDX 79 79 72 80 74 81 75 82 76 83 77 84 54 85 55 86 63 87 56 88
REMARK SMILES IDX 58 89 64 90 57 91 59 92 60 93 61 94 62 95
REMARK H PARENT 21 6 4 15 25 29 84 48 52 59
REMARK Flexibility Score: inf
ROOT
ATOM      1  C   UNL A   1      32.944  31.157  26.733  1.00  0.00     0.042 C 
ENDROOT
BRANCH   1   2
ATOM      2  C   UNL A   1      31.667  30.541  26.180  1.00  0.00     0.118 C 
BRANCH   2   3
ATOM      3  N   UNL A   1      31.836  30.161  24.795  1.00  0.00    -0.352 N 
ATOM      4  C   UNL A   1      31.772  28.998  24.078  1.00  0.00     0.251 C 
ATOM      5  O   UNL A   1      32.028  29.145  22.876  1.00  0.00    -0.269 OA
ATOM      6  H   UNL A   1      32.053  30.934  24.224  1.00  0.00     0.163 HD
BRANCH   4   7
ATOM      7  C   UNL A   1      31.377  27.608  24.541  1.00  0.00     0.044 A 
ATOM      8  C   UNL A   1      33.261  26.948  26.149  1.00  0.00     0.047 C 
ATOM      9  C   UNL A   1      31.921  26.740  25.529  1.00  0.00    -0.014 A 
ATOM     10  C   UNL A   1      31.317  25.486  25.810  1.00  0.00     0.053 A 
ATOM     11  C   UNL A   1      30.511  24.939  24.823  1.00  0.00     0.027 A 
ATOM     12  C   UNL A   1      30.369  27.058  23.717  1.00  0.00     0.014 A 
ATOM     13  C   UNL A   1      29.999  25.722  23.801  1.00  0.00     0.003 A 
BRANCH  10  14
ATOM     14  N   UNL A   1      31.804  24.670  26.905  1.00  0.00    -0.278 N 
ATOM     15  H   UNL A   1      32.253  25.113  27.661  1.00  0.00     0.180 HD
BRANCH  14  16
ATOM     16  S   UNL A   1      31.629  22.973  26.934  1.00  0.00     0.282 S 
ATOM     17  O   UNL A   1      32.183  22.550  28.222  1.00  0.00    -0.199 OA
ATOM     18  O   UNL A   1      30.272  22.665  26.603  1.00  0.00    -0.199 OA
BRANCH  16  19
ATOM     19  C   UNL A   1      32.611  22.186  25.745  1.00  0.00     0.213 A 
ATOM     20  N   UNL A   1      32.237  21.029  25.071  1.00  0.00    -0.222 NA
ATOM     21  C   UNL A   1      33.933  22.470  25.482  1.00  0.00     0.149 A 
ATOM     22  C   UNL A   1      33.340  20.580  24.518  1.00  0.00     0.202 A 
ATOM     23  N   UNL A   1      34.421  21.351  24.865  1.00  0.00    -0.324 N 
ATOM     24  Cl  UNL A   1      34.972  23.718  25.988  1.00  0.00    -0.061 Cl
ATOM     25  C   UNL A   1      35.772  20.846  24.889  1.00  0.00     0.152 C 
ENDBRANCH  16  19
ENDBRANCH  14  16
ENDBRANCH  10  14
ENDBRANCH   4   7
ENDBRANCH   2   3
ENDBRANCH   1   2
BRANCH   1  26
ATOM     26  C   UNL A   1      33.607  30.478  27.910  1.00  0.00     0.118 C 
BRANCH  26  27
ATOM     27  N   UNL A   1      34.491  31.429  28.595  1.00  0.00    -0.352 N 
ATOM     28  C   UNL A   1      35.739  31.241  29.161  1.00  0.00     0.251 C 
ATOM     29  H   UNL A   1      34.139  32.346  28.664  1.00  0.00     0.163 HD
ATOM     30  O   UNL A   1      36.290  32.137  29.788  1.00  0.00    -0.269 OA
BRANCH  28  31
ATOM     31  C   UNL A   1      36.415  29.963  28.877  1.00  0.00     0.039 A 
ATOM     32  C   UNL A   1      36.854  29.283  30.014  1.00  0.00     0.014 A 
ATOM     33  C   UNL A   1      37.059  29.832  27.650  1.00  0.00     0.014 A 
ATOM     34  C   UNL A   1      38.138  28.762  30.015  1.00  0.00     0.010 A 
ATOM     35  C   UNL A   1      38.360  29.366  27.671  1.00  0.00     0.010 A 
ATOM     36  C   UNL A   1      38.927  28.946  28.883  1.00  0.00    -0.014 A 
BRANCH  36  37
ATOM     37  C   UNL A   1      40.337  28.611  28.846  1.00  0.00     0.031 A 
ATOM     38  C   UNL A   1      40.657  27.184  28.664  1.00  0.00     0.074 A 
ATOM     39  C   UNL A   1      41.317  29.541  28.936  1.00  0.00     0.049 A 
ATOM     40  N   UNL A   1      41.780  26.644  28.975  1.00  0.00    -0.248 NA
ATOM     41  C   UNL A   1      39.663  26.233  28.178  1.00  0.00     0.031 C 
ATOM     42  C   UNL A   1      42.731  29.338  28.633  1.00  0.00     0.029 A 
ATOM     43  N   UNL A   1      41.289  30.823  29.500  1.00  0.00    -0.354 N 
ATOM     44  C   UNL A   1      41.767  25.364  28.465  1.00  0.00     0.074 A 
ATOM     45  C   UNL A   1      40.393  25.120  28.112  1.00  0.00     0.031 C 
ATOM     46  C   UNL A   1      43.453  30.286  29.250  1.00  0.00     0.029 A 
ATOM     47  C   UNL A   1      42.543  31.001  30.126  1.00  0.00     0.049 A 
ATOM     48  H   UNL A   1      40.546  31.468  29.467  1.00  0.00     0.167 HD
ATOM     49  C   UNL A   1      42.961  24.744  28.250  1.00  0.00     0.034 A 
ATOM     50  C   UNL A   1      42.729  31.188  31.470  1.00  0.00     0.034 A 
ATOM     51  C   UNL A   1      44.065  25.533  28.835  1.00  0.00     0.049 A 
ATOM     52  C   UNL A   1      43.649  30.148  32.112  1.00  0.00     0.074 A 
ATOM     53  C   UNL A   1      44.998  26.417  28.315  1.00  0.00     0.029 A 
ATOM     54  N   UNL A   1      44.105  25.712  30.214  1.00  0.00    -0.354 N 
ATOM     55  N   UNL A   1      44.232  29.169  31.475  1.00  0.00    -0.248 NA
ATOM     56  C   UNL A   1      43.853  30.058  33.558  1.00  0.00     0.031 C 
ATOM     57  C   UNL A   1      45.575  27.149  29.397  1.00  0.00     0.029 A 
ATOM     58  C   UNL A   1      45.025  26.688  30.580  1.00  0.00     0.049 A 
ATOM     59  H   UNL A   1      43.550  25.209  30.852  1.00  0.00     0.167 HD
ATOM     60  C   UNL A   1      44.700  28.242  32.378  1.00  0.00     0.074 A 
ATOM     61  C   UNL A   1      44.441  28.857  33.670  1.00  0.00     0.031 C 
ATOM     62  C   UNL A   1      45.184  27.013  31.998  1.00  0.00     0.034 A 
BRANCH  49  63
ATOM     63  C   UNL A   1      43.175  23.599  27.263  1.00  0.00     0.023 A 
ATOM     64  C   UNL A   1      43.905  23.895  26.090  1.00  0.00     0.012 A 
ATOM     65  C   UNL A   1      42.651  22.284  27.334  1.00  0.00     0.148 A 
ATOM     66  C   UNL A   1      44.022  22.993  25.024  1.00  0.00     0.002 A 
ATOM     67  C   UNL A   1      42.723  21.398  26.253  1.00  0.00     0.091 A 
ATOM     68  F   UNL A   1      42.131  21.827  28.471  1.00  0.00    -0.205 F 
ATOM     69  C   UNL A   1      43.406  21.754  25.092  1.00  0.00     0.022 A 
BRANCH  67  70
ATOM     70  S   UNL A   1      41.907  19.786  26.260  1.00  0.00     0.127 S 
ATOM     71  O   UNL A   1      42.501  19.138  25.088  1.00  0.00    -0.237 OA
ATOM     72  O   UNL A   1      42.330  19.227  27.542  1.00  0.00    -0.237 OA
ATOM     73  O   UNL A   1      40.478  20.045  26.137  1.00  0.00    -0.744 OA
ENDBRANCH  67  70
ENDBRANCH  49  63
BRANCH  50  74
ATOM     74  C   UNL A   1      41.537  31.778  32.155  1.00  0.00     0.023 A 
ATOM     75  C   UNL A   1      41.111  33.056  31.725  1.00  0.00     0.012 A 
ATOM     76  C   UNL A   1      40.625  30.955  32.833  1.00  0.00     0.148 A 
ATOM     77  C   UNL A   1      39.753  33.378  31.727  1.00  0.00     0.002 A 
ATOM     78  C   UNL A   1      39.278  31.292  32.846  1.00  0.00     0.091 A 
ATOM     79  F   UNL A   1      41.052  29.822  33.402  1.00  0.00    -0.205 F 
ATOM     80  C   UNL A   1      38.828  32.463  32.223  1.00  0.00     0.022 A 
BRANCH  78  81
ATOM     81  S   UNL A   1      38.093  30.163  33.575  1.00  0.00     0.127 S 
ATOM     82  O   UNL A   1      38.570  28.877  33.079  1.00  0.00    -0.237 OA
ATOM     83  O   UNL A   1      38.284  30.378  35.008  1.00  0.00    -0.237 OA
ATOM     84  O   UNL A   1      36.808  30.624  33.066  1.00  0.00    -0.744 OA
ENDBRANCH  78  81
ENDBRANCH  50  74
BRANCH  62  85
ATOM     85  C   UNL A   1      45.786  25.970  32.945  1.00  0.00     0.023 A 
ATOM     86  C   UNL A   1      47.174  25.766  33.057  1.00  0.00     0.012 A 
ATOM     87  C   UNL A   1      44.973  25.084  33.705  1.00  0.00     0.148 A 
ATOM     88  C   UNL A   1      47.733  24.874  33.982  1.00  0.00     0.002 A 
ATOM     89  C   UNL A   1      45.526  24.175  34.605  1.00  0.00     0.091 A 
ATOM     90  F   UNL A   1      43.651  25.059  33.516  1.00  0.00    -0.205 F 
ATOM     91  C   UNL A   1      46.907  24.095  34.775  1.00  0.00     0.022 A 
BRANCH  89  92
ATOM     92  S   UNL A   1      44.519  23.032  35.562  1.00  0.00     0.127 S 
ATOM     93  O   UNL A   1      44.206  22.012  34.560  1.00  0.00    -0.237 OA
ATOM     94  O   UNL A   1      45.456  22.598  36.599  1.00  0.00    -0.237 OA
ATOM     95  O   UNL A   1      43.382  23.797  36.051  1.00  0.00    -0.744 OA
ENDBRANCH  89  92
ENDBRANCH  62  85
ENDBRANCH  36  37
ENDBRANCH  28  31
ENDBRANCH  26  27
ENDBRANCH   1  26
TORSDOF 16
ENDMDL
MODEL 3
REMARK VINA RESULT:     -12.7      4.411      9.964
REMARK SMILES Cc1c(NS(=O)(=O)c2ncn(C)c2Cl)cccc1C(=O)NCCCNC(=O)c1ccc(-c2c3nc(c(-c4cccc(S(=O)(=O)[O-])c4F)c4ccc([nH]4)c(-c4cccc(S(=O)(=O)[O-])c4F)c4nc(c(-c5cccc(S(=O)(=O)[O-])c5F)c5ccc2[nH]5)C=C4)C=C3)cc1
REMARK SMILES IDX 23 1 22 2 21 3 19 4 20 5 18 7 1 8 2 9 3 10 15 11 17 12 16 13
REMARK SMILES IDX 4 14 5 16 6 17 7 18 8 19 9 20 13 21 10 22 11 23 14 24 12 25
REMARK SMILES IDX 24 26 25 27 26 28 27 30 28 31 29 32 90 33 30 34 89 35 31 36
REMARK SMILES IDX 32 37 33 38 83 39 34 40 88 41 82 42 84 43 35 44 87 45 81 46
REMARK SMILES IDX 80 47 36 49 68 50 48 51 67 52 49 53 52 54 66 55 85 56 50 57
REMARK SMILES IDX 51 58 65 60 86 61 53 62 37 63 38 64 46 65 39 66 41 67 47 68
REMARK SMILES IDX 40 69 42 70 43 71 44 72 45 73 69 74 70 75 78 76 71 77 73 78
REMARK SMILES IDX 79 79 72 80 74 81 75 82 76 83 77 84 54 85 55 86 63 87 56 88
REMARK SMILES IDX 58 89 64 90 57 91 59 92 60 93 61 94 62 95
REMARK H PARENT 21 6 4 15 25 29 84 48 52 59
REMARK Flexibility Score: inf
ROOT
ATOM      1  C   UNL A   1      38.023  21.052  25.953  1.00  0.00     0.042 C 
ENDROOT
BRANCH   1   2
ATOM      2  C   UNL A   1      37.623  20.229  24.737  1.00  0.00     0.118 C 
BRANCH   2   3
ATOM      3  N   UNL A   1      36.251  19.783  24.846  1.00  0.00    -0.352 N 
ATOM      4  C   UNL A   1      35.033  20.379  25.016  1.00  0.00     0.251 C 
ATOM      5  O   UNL A   1      34.095  19.573  25.086  1.00  0.00    -0.269 OA
ATOM      6  H   UNL A   1      36.176  18.803  24.780  1.00  0.00     0.163 HD
BRANCH   4   7
ATOM      7  C   UNL A   1      34.687  21.856  25.065  1.00  0.00     0.044 A 
ATOM      8  C   UNL A   1      35.898  22.827  23.024  1.00  0.00     0.047 C 
ATOM      9  C   UNL A   1      34.932  22.924  24.157  1.00  0.00    -0.014 A 
ATOM     10  C   UNL A   1      34.445  24.231  24.421  1.00  0.00     0.053 A 
ATOM     11  C   UNL A   1      34.154  24.541  25.741  1.00  0.00     0.027 A 
ATOM     12  C   UNL A   1      34.149  22.218  26.321  1.00  0.00     0.014 A 
ATOM     13  C   UNL A   1      33.963  23.545  26.685  1.00  0.00     0.003 A 
BRANCH  10  14
ATOM     14  N   UNL A   1      34.591  25.278  23.429  1.00  0.00    -0.278 N 
ATOM     15  H   UNL A   1      35.430  25.792  23.404  1.00  0.00     0.180 HD
BRANCH  14  16
ATOM     16  S   UNL A   1      33.365  25.654  22.303  1.00  0.00     0.282 S 
ATOM     17  O   UNL A   1      33.806  26.887  21.648  1.00  0.00    -0.199 OA
ATOM     18  O   UNL A   1      33.110  24.482  21.524  1.00  0.00    -0.199 OA
BRANCH  16  19
ATOM     19  C   UNL A   1      31.867  26.065  23.069  1.00  0.00     0.213 A 
ATOM     20  N   UNL A   1      31.434  27.370  23.276  1.00  0.00    -0.222 NA
ATOM     21  C   UNL A   1      31.045  25.190  23.743  1.00  0.00     0.149 A 
ATOM     22  C   UNL A   1      30.452  27.273  24.142  1.00  0.00     0.202 A 
ATOM     23  N   UNL A   1      30.281  25.978  24.559  1.00  0.00    -0.324 N 
ATOM     24  Cl  UNL A   1      31.032  23.495  23.894  1.00  0.00    -0.061 Cl
ATOM     25  C   UNL A   1      29.707  25.632  25.837  1.00  0.00     0.152 C 
ENDBRANCH  16  19
ENDBRANCH  14  16
ENDBRANCH  10  14
ENDBRANCH   4   7
ENDBRANCH   2   3
ENDBRANCH   1   2
BRANCH   1  26
ATOM     26  C   UNL A   1      38.553  22.449  25.722  1.00  0.00     0.118 C 
BRANCH  26  27
ATOM     27  N   UNL A   1      39.949  22.527  26.170  1.00  0.00    -0.352 N 
ATOM     28  C   UNL A   1      40.704  23.621  26.554  1.00  0.00     0.251 C 
ATOM     29  H   UNL A   1      40.423  21.665  26.201  1.00  0.00     0.163 HD
ATOM     30  O   UNL A   1      41.897  23.509  26.803  1.00  0.00    -0.269 OA
BRANCH  28  31
ATOM     31  C   UNL A   1      39.984  24.890  26.759  1.00  0.00     0.039 A 
ATOM     32  C   UNL A   1      40.652  26.013  26.268  1.00  0.00     0.014 A 
ATOM     33  C   UNL A   1      39.113  24.971  27.843  1.00  0.00     0.014 A 
ATOM     34  C   UNL A   1      40.733  27.136  27.075  1.00  0.00     0.010 A 
ATOM     35  C   UNL A   1      39.244  26.068  28.672  1.00  0.00     0.010 A 
ATOM     36  C   UNL A   1      40.147  27.087  28.336  1.00  0.00    -0.014 A 
BRANCH  36  37
ATOM     37  C   UNL A   1      40.331  28.129  29.329  1.00  0.00     0.031 A 
ATOM     38  C   UNL A   1      39.458  29.308  29.197  1.00  0.00     0.074 A 
ATOM     39  C   UNL A   1      41.223  28.029  30.343  1.00  0.00     0.049 A 
ATOM     40  N   UNL A   1      39.706  30.460  29.709  1.00  0.00    -0.248 NA
ATOM     41  C   UNL A   1      38.249  29.278  28.381  1.00  0.00     0.031 C 
ATOM     42  C   UNL A   1      41.283  28.882  31.527  1.00  0.00     0.029 A 
ATOM     43  N   UNL A   1      42.388  27.257  30.441  1.00  0.00    -0.354 N 
ATOM     44  C   UNL A   1      38.572  31.225  29.551  1.00  0.00     0.074 A 
ATOM     45  C   UNL A   1      37.764  30.499  28.606  1.00  0.00     0.031 C 
ATOM     46  C   UNL A   1      42.511  28.805  32.061  1.00  0.00     0.029 A 
ATOM     47  C   UNL A   1      43.330  28.060  31.123  1.00  0.00     0.049 A 
ATOM     48  H   UNL A   1      42.522  26.343  30.104  1.00  0.00     0.167 HD
ATOM     49  C   UNL A   1      38.394  32.293  30.378  1.00  0.00     0.034 A 
ATOM     50  C   UNL A   1      44.517  28.497  30.595  1.00  0.00     0.034 A 
ATOM     51  C   UNL A   1      39.616  32.541  31.171  1.00  0.00     0.049 A 
ATOM     52  C   UNL A   1      44.668  30.019  30.604  1.00  0.00     0.074 A 
ATOM     53  C   UNL A   1      40.002  32.235  32.467  1.00  0.00     0.029 A 
ATOM     54  N   UNL A   1      40.781  32.912  30.509  1.00  0.00    -0.354 N 
ATOM     55  N   UNL A   1      43.784  30.856  31.072  1.00  0.00    -0.248 NA
ATOM     56  C   UNL A   1      45.776  30.707  29.941  1.00  0.00     0.031 C 
ATOM     57  C   UNL A   1      41.417  32.398  32.564  1.00  0.00     0.029 A 
ATOM     58  C   UNL A   1      41.892  32.840  31.342  1.00  0.00     0.049 A 
ATOM     59  H   UNL A   1      40.815  33.192  29.566  1.00  0.00     0.167 HD
ATOM     60  C   UNL A   1      44.068  32.128  30.629  1.00  0.00     0.074 A 
ATOM     61  C   UNL A   1      45.335  31.974  29.930  1.00  0.00     0.031 C 
ATOM     62  C   UNL A   1      43.206  33.184  30.798  1.00  0.00     0.034 A 
BRANCH  49  63
ATOM     63  C   UNL A   1      37.039  32.921  30.699  1.00  0.00     0.023 A 
ATOM     64  C   UNL A   1      36.536  32.723  32.005  1.00  0.00     0.012 A 
ATOM     65  C   UNL A   1      36.172  33.610  29.815  1.00  0.00     0.148 A 
ATOM     66  C   UNL A   1      35.237  33.089  32.379  1.00  0.00     0.002 A 
ATOM     67  C   UNL A   1      34.857  33.933  30.168  1.00  0.00     0.091 A 
ATOM     68  F   UNL A   1      36.614  34.036  28.634  1.00  0.00    -0.205 F 
ATOM     69  C   UNL A   1      34.384  33.667  31.451  1.00  0.00     0.022 A 
BRANCH  67  70
ATOM     70  S   UNL A   1      33.682  34.648  28.996  1.00  0.00     0.127 S 
ATOM     71  O   UNL A   1      33.432  33.525  28.090  1.00  0.00    -0.237 OA
ATOM     72  O   UNL A   1      32.554  34.996  29.858  1.00  0.00    -0.237 OA
ATOM     73  O   UNL A   1      34.357  35.779  28.371  1.00  0.00    -0.744 OA
ENDBRANCH  67  70
ENDBRANCH  49  63
BRANCH  50  74
ATOM     74  C   UNL A   1      45.036  27.616  29.502  1.00  0.00     0.023 A 
ATOM     75  C   UNL A   1      45.287  26.263  29.826  1.00  0.00     0.012 A 
ATOM     76  C   UNL A   1      44.845  27.964  28.156  1.00  0.00     0.148 A 
ATOM     77  C   UNL A   1      45.078  25.265  28.873  1.00  0.00     0.002 A 
ATOM     78  C   UNL A   1      44.656  26.965  27.212  1.00  0.00     0.091 A 
ATOM     79  F   UNL A   1      44.783  29.255  27.808  1.00  0.00    -0.205 F 
ATOM     80  C   UNL A   1      44.690  25.615  27.583  1.00  0.00     0.022 A 
BRANCH  78  81
ATOM     81  S   UNL A   1      44.256  27.410  25.522  1.00  0.00     0.127 S 
ATOM     82  O   UNL A   1      43.755  26.146  24.996  1.00  0.00    -0.237 OA
ATOM     83  O   UNL A   1      43.242  28.448  25.696  1.00  0.00    -0.237 OA
ATOM     84  O   UNL A   1      45.518  27.892  24.976  1.00  0.00    -0.744 OA
ENDBRANCH  78  81
ENDBRANCH  50  74
BRANCH  62  85
ATOM     85  C   UNL A   1      43.496  34.634  30.396  1.00  0.00     0.023 A 
ATOM     86  C   UNL A   1      43.816  35.628  31.339  1.00  0.00     0.012 A 
ATOM     87  C   UNL A   1      43.375  35.081  29.051  1.00  0.00     0.148 A 
ATOM     88  C   UNL A   1      44.165  36.934  30.969  1.00  0.00     0.002 A 
ATOM     89  C   UNL A   1      43.694  36.387  28.683  1.00  0.00     0.091 A 
ATOM     90  F   UNL A   1      42.881  34.265  28.115  1.00  0.00    -0.205 F 
ATOM     91  C   UNL A   1      44.128  37.307  29.636  1.00  0.00     0.022 A 
BRANCH  89  92
ATOM     92  S   UNL A   1      43.530  36.980  26.992  1.00  0.00     0.127 S 
ATOM     93  O   UNL A   1      42.086  37.199  26.900  1.00  0.00    -0.237 OA
ATOM     94  O   UNL A   1      44.331  38.204  27.021  1.00  0.00    -0.237 OA
ATOM     95  O   UNL A   1      44.058  35.928  26.136  1.00  0.00    -0.744 OA
ENDBRANCH  89  92
ENDBRANCH  62  85
ENDBRANCH  36  37
ENDBRANCH  28  31
ENDBRANCH  26  27
ENDBRANCH   1  26
TORSDOF 16
ENDMDL
