MODEL 1
REMARK VINA RESULT:     -12.4      0.000      0.000
REMARK SMILES O=C(NCCCNC(=O)c1cccnc1-c1ccccn1)c1ccc(-c2c3nc(c(-c4cccc(S(=O)(=O)[O-])c4F)c4ccc([nH]4)c(-c4cccc(S(=O)(=O)[O-])c4F)c4nc(c(-c5cccc(S(=O)(=O)[O-])c5F)c5ccc2[nH]5)C=C4)C=C3)cc1
REMARK SMILES IDX 4 1 3 2 1 3 2 4 22 6 23 7 84 8 24 9 83 10 25 11 26 12 27 13
REMARK SMILES IDX 77 14 28 15 82 16 76 17 78 18 29 19 81 20 75 21 74 22 30 24
REMARK SMILES IDX 62 25 42 26 61 27 43 28 46 29 60 30 79 31 44 32 45 33 59 35
REMARK SMILES IDX 80 36 47 37 31 38 32 39 40 40 33 41 35 42 41 43 34 44 36 45
REMARK SMILES IDX 37 46 38 47 39 48 63 49 64 50 72 51 65 52 67 53 73 54 66 55
REMARK SMILES IDX 68 56 69 57 70 58 71 59 48 60 49 61 57 62 50 63 52 64 58 65
REMARK SMILES IDX 51 66 53 67 54 68 55 69 56 70 5 71 6 72 7 73 8 74 9 76 10 77
REMARK SMILES IDX 11 78 15 79 12 80 14 81 13 82 16 83 17 84 21 85 18 86 20 87
REMARK SMILES IDX 19 88
REMARK H PARENT 3 5 78 23 46 34 7 75
REMARK Flexibility Score: inf
ROOT
ATOM      1  C   UNL A   1      32.274  29.751  26.272  1.00  0.00     0.118 C 
ENDROOT
BRANCH   1   2
ATOM      2  N   UNL A   1      32.159  31.182  26.524  1.00  0.00    -0.352 N 
ATOM      3  O   UNL A   1      32.590  33.195  27.424  1.00  0.00    -0.269 OA
ATOM      4  C   UNL A   1      32.975  32.045  27.221  1.00  0.00     0.251 C 
ATOM      5  H   UNL A   1      31.363  31.603  26.129  1.00  0.00     0.163 HD
BRANCH   4   6
ATOM      6  C   UNL A   1      34.278  31.591  27.759  1.00  0.00     0.039 A 
ATOM      7  C   UNL A   1      34.482  30.263  28.125  1.00  0.00     0.014 A 
ATOM      8  C   UNL A   1      35.319  32.514  27.900  1.00  0.00     0.014 A 
ATOM      9  C   UNL A   1      35.629  29.907  28.825  1.00  0.00     0.010 A 
ATOM     10  C   UNL A   1      36.522  32.124  28.498  1.00  0.00     0.010 A 
ATOM     11  C   UNL A   1      36.666  30.832  29.024  1.00  0.00    -0.014 A 
BRANCH  11  12
ATOM     12  C   UNL A   1      37.889  30.405  29.758  1.00  0.00     0.031 A 
ATOM     13  C   UNL A   1      38.122  30.805  31.193  1.00  0.00     0.074 A 
ATOM     14  C   UNL A   1      38.783  29.613  29.132  1.00  0.00     0.049 A 
ATOM     15  N   UNL A   1      39.093  30.451  31.997  1.00  0.00    -0.248 NA
ATOM     16  C   UNL A   1      37.152  31.727  31.807  1.00  0.00     0.031 C 
ATOM     17  C   UNL A   1      38.698  29.193  27.730  1.00  0.00     0.029 A 
ATOM     18  N   UNL A   1      39.927  29.009  29.587  1.00  0.00    -0.354 N 
ATOM     19  C   UNL A   1      38.882  31.140  33.186  1.00  0.00     0.074 A 
ATOM     20  C   UNL A   1      37.691  31.940  32.999  1.00  0.00     0.031 C 
ATOM     21  C   UNL A   1      39.715  28.365  27.454  1.00  0.00     0.029 A 
ATOM     22  C   UNL A   1      40.556  28.237  28.639  1.00  0.00     0.049 A 
ATOM     23  H   UNL A   1      40.266  29.118  30.506  1.00  0.00     0.167 HD
ATOM     24  C   UNL A   1      39.601  31.098  34.335  1.00  0.00     0.034 A 
ATOM     25  C   UNL A   1      41.686  27.508  28.707  1.00  0.00     0.034 A 
ATOM     26  C   UNL A   1      40.757  30.265  34.536  1.00  0.00     0.049 A 
ATOM     27  C   UNL A   1      42.437  27.448  30.007  1.00  0.00     0.074 A 
ATOM     28  C   UNL A   1      41.507  30.098  35.687  1.00  0.00     0.029 A 
ATOM     29  N   UNL A   1      41.336  29.463  33.563  1.00  0.00    -0.354 N 
ATOM     30  N   UNL A   1      42.139  27.999  31.157  1.00  0.00    -0.248 NA
ATOM     31  C   UNL A   1      43.662  26.637  30.025  1.00  0.00     0.031 C 
ATOM     32  C   UNL A   1      42.553  29.213  35.404  1.00  0.00     0.029 A 
ATOM     33  C   UNL A   1      42.439  28.806  34.085  1.00  0.00     0.049 A 
ATOM     34  H   UNL A   1      41.012  29.375  32.639  1.00  0.00     0.167 HD
ATOM     35  C   UNL A   1      43.120  27.576  32.045  1.00  0.00     0.074 A 
ATOM     36  C   UNL A   1      44.005  26.702  31.304  1.00  0.00     0.031 C 
ATOM     37  C   UNL A   1      43.281  27.896  33.352  1.00  0.00     0.034 A 
BRANCH  24  38
ATOM     38  C   UNL A   1      39.142  31.957  35.486  1.00  0.00     0.023 A 
ATOM     39  C   UNL A   1      39.391  33.345  35.468  1.00  0.00     0.012 A 
ATOM     40  C   UNL A   1      38.402  31.404  36.550  1.00  0.00     0.148 A 
ATOM     41  C   UNL A   1      38.940  34.163  36.505  1.00  0.00     0.002 A 
ATOM     42  C   UNL A   1      37.918  32.232  37.558  1.00  0.00     0.091 A 
ATOM     43  F   UNL A   1      38.192  30.080  36.563  1.00  0.00    -0.205 F 
ATOM     44  C   UNL A   1      38.195  33.607  37.543  1.00  0.00     0.022 A 
BRANCH  42  45
ATOM     45  S   UNL A   1      36.883  31.623  38.895  1.00  0.00     0.127 S 
ATOM     46  O   UNL A   1      37.779  31.750  40.043  1.00  0.00    -0.237 OA
ATOM     47  O   UNL A   1      35.771  32.576  38.882  1.00  0.00    -0.237 OA
ATOM     48  O   UNL A   1      36.517  30.262  38.530  1.00  0.00    -0.744 OA
ENDBRANCH  42  45
ENDBRANCH  24  38
BRANCH  25  49
ATOM     49  C   UNL A   1      42.140  26.731  27.519  1.00  0.00     0.023 A 
ATOM     50  C   UNL A   1      42.872  27.378  26.505  1.00  0.00     0.012 A 
ATOM     51  C   UNL A   1      41.886  25.350  27.409  1.00  0.00     0.148 A 
ATOM     52  C   UNL A   1      43.319  26.669  25.389  1.00  0.00     0.002 A 
ATOM     53  C   UNL A   1      42.385  24.638  26.326  1.00  0.00     0.091 A 
ATOM     54  F   UNL A   1      41.174  24.756  28.377  1.00  0.00    -0.205 F 
ATOM     55  C   UNL A   1      43.087  25.300  25.305  1.00  0.00     0.022 A 
BRANCH  53  56
ATOM     56  S   UNL A   1      42.255  22.852  26.212  1.00  0.00     0.127 S 
ATOM     57  O   UNL A   1      43.005  22.421  27.388  1.00  0.00    -0.237 OA
ATOM     58  O   UNL A   1      40.808  22.648  26.294  1.00  0.00    -0.237 OA
ATOM     59  O   UNL A   1      42.834  22.499  24.923  1.00  0.00    -0.744 OA
ENDBRANCH  53  56
ENDBRANCH  25  49
BRANCH  37  60
ATOM     60  C   UNL A   1      44.436  27.264  34.085  1.00  0.00     0.023 A 
ATOM     61  C   UNL A   1      45.713  27.857  34.029  1.00  0.00     0.012 A 
ATOM     62  C   UNL A   1      44.242  26.111  34.870  1.00  0.00     0.148 A 
ATOM     63  C   UNL A   1      46.787  27.291  34.713  1.00  0.00     0.002 A 
ATOM     64  C   UNL A   1      45.306  25.581  35.590  1.00  0.00     0.091 A 
ATOM     65  F   UNL A   1      43.026  25.547  34.892  1.00  0.00    -0.205 F 
ATOM     66  C   UNL A   1      46.582  26.160  35.502  1.00  0.00     0.022 A 
BRANCH  64  67
ATOM     67  S   UNL A   1      45.105  24.187  36.705  1.00  0.00     0.127 S 
ATOM     68  O   UNL A   1      44.163  24.722  37.685  1.00  0.00    -0.237 OA
ATOM     69  O   UNL A   1      44.551  23.159  35.824  1.00  0.00    -0.237 OA
ATOM     70  O   UNL A   1      46.439  23.889  37.210  1.00  0.00    -0.744 OA
ENDBRANCH  64  67
ENDBRANCH  37  60
ENDBRANCH  11  12
ENDBRANCH   4   6
ENDBRANCH   1   2
BRANCH   1  71
ATOM     71  C   UNL A   1      32.851  29.419  24.903  1.00  0.00     0.042 C 
BRANCH  71  72
ATOM     72  C   UNL A   1      33.645  28.121  24.849  1.00  0.00     0.118 C 
BRANCH  72  73
ATOM     73  N   UNL A   1      33.970  27.716  23.489  1.00  0.00    -0.352 N 
ATOM     74  C   UNL A   1      33.559  26.636  22.753  1.00  0.00     0.253 C 
ATOM     75  H   UNL A   1      34.589  28.320  23.019  1.00  0.00     0.163 HD
ATOM     76  O   UNL A   1      34.029  26.467  21.625  1.00  0.00    -0.269 OA
BRANCH  74  77
ATOM     77  C   UNL A   1      32.554  25.703  23.287  1.00  0.00     0.067 A 
ATOM     78  C   UNL A   1      31.195  25.969  23.083  1.00  0.00     0.018 A 
ATOM     79  C   UNL A   1      32.920  24.519  23.935  1.00  0.00     0.101 A 
ATOM     80  C   UNL A   1      30.238  25.099  23.593  1.00  0.00     0.021 A 
ATOM     81  N   UNL A   1      31.979  23.667  24.448  1.00  0.00    -0.254 NA
ATOM     82  C   UNL A   1      30.676  23.975  24.268  1.00  0.00     0.112 A 
BRANCH  79  83
ATOM     83  C   UNL A   1      34.316  24.100  24.136  1.00  0.00     0.089 A 
ATOM     84  C   UNL A   1      35.022  24.419  25.297  1.00  0.00     0.031 A 
ATOM     85  N   UNL A   1      34.879  23.389  23.120  1.00  0.00    -0.255 NA
ATOM     86  C   UNL A   1      36.353  24.020  25.410  1.00  0.00     0.004 A 
ATOM     87  C   UNL A   1      36.171  23.023  23.257  1.00  0.00     0.112 A 
ATOM     88  C   UNL A   1      36.942  23.314  24.369  1.00  0.00     0.020 A 
ENDBRANCH  79  83
ENDBRANCH  74  77
ENDBRANCH  72  73
ENDBRANCH  71  72
ENDBRANCH   1  71
TORSDOF 14
ENDMDL
MODEL 2
REMARK VINA RESULT:     -12.3      5.235     10.241
REMARK SMILES O=C(NCCCNC(=O)c1cccnc1-c1ccccn1)c1ccc(-c2c3nc(c(-c4cccc(S(=O)(=O)[O-])c4F)c4ccc([nH]4)c(-c4cccc(S(=O)(=O)[O-])c4F)c4nc(c(-c5cccc(S(=O)(=O)[O-])c5F)c5ccc2[nH]5)C=C4)C=C3)cc1
REMARK SMILES IDX 4 1 3 2 1 3 2 4 22 6 23 7 84 8 24 9 83 10 25 11 26 12 27 13
REMARK SMILES IDX 77 14 28 15 82 16 76 17 78 18 29 19 81 20 75 21 74 22 30 24
REMARK SMILES IDX 62 25 42 26 61 27 43 28 46 29 60 30 79 31 44 32 45 33 59 35
REMARK SMILES IDX 80 36 47 37 31 38 32 39 40 40 33 41 35 42 41 43 34 44 36 45
REMARK SMILES IDX 37 46 38 47 39 48 63 49 64 50 72 51 65 52 67 53 73 54 66 55
REMARK SMILES IDX 68 56 69 57 70 58 71 59 48 60 49 61 57 62 50 63 52 64 58 65
REMARK SMILES IDX 51 66 53 67 54 68 55 69 56 70 5 71 6 72 7 73 8 74 9 76 10 77
REMARK SMILES IDX 11 78 15 79 12 80 14 81 13 82 16 83 17 84 21 85 18 86 20 87
REMARK SMILES IDX 19 88
REMARK H PARENT 3 5 78 23 46 34 7 75
REMARK Flexibility Score: inf
ROOT
ATOM      1  C   UNL A   1      36.549  22.061  24.957  1.00  0.00     0.118 C 
ENDROOT
BRANCH   1   2
ATOM      2  N   UNL A   1      37.474  20.968  25.228  1.00  0.00    -0.352 N 
ATOM      3  O   UNL A   1      39.384  19.925  25.786  1.00  0.00    -0.269 OA
ATOM      4  C   UNL A   1      38.727  20.964  25.797  1.00  0.00     0.251 C 
ATOM      5  H   UNL A   1      37.147  20.080  24.957  1.00  0.00     0.163 HD
BRANCH   4   6
ATOM      6  C   UNL A   1      39.301  22.200  26.378  1.00  0.00     0.039 A 
ATOM      7  C   UNL A   1      38.763  23.450  26.083  1.00  0.00     0.014 A 
ATOM      8  C   UNL A   1      40.400  22.106  27.238  1.00  0.00     0.014 A 
ATOM      9  C   UNL A   1      39.444  24.603  26.460  1.00  0.00     0.010 A 
ATOM     10  C   UNL A   1      41.015  23.269  27.716  1.00  0.00     0.010 A 
ATOM     11  C   UNL A   1      40.581  24.530  27.281  1.00  0.00    -0.014 A 
BRANCH  11  12
ATOM     12  C   UNL A   1      41.269  25.789  27.681  1.00  0.00     0.031 A 
ATOM     13  C   UNL A   1      42.678  26.088  27.238  1.00  0.00     0.074 A 
ATOM     14  C   UNL A   1      40.597  26.691  28.425  1.00  0.00     0.049 A 
ATOM     15  N   UNL A   1      43.389  27.170  27.434  1.00  0.00    -0.248 NA
ATOM     16  C   UNL A   1      43.391  25.040  26.488  1.00  0.00     0.031 C 
ATOM     17  C   UNL A   1      39.244  26.501  28.957  1.00  0.00     0.029 A 
ATOM     18  N   UNL A   1      40.945  27.946  28.852  1.00  0.00    -0.354 N 
ATOM     19  C   UNL A   1      44.639  26.918  26.881  1.00  0.00     0.074 A 
ATOM     20  C   UNL A   1      44.596  25.575  26.344  1.00  0.00     0.031 C 
ATOM     21  C   UNL A   1      38.861  27.615  29.596  1.00  0.00     0.029 A 
ATOM     22  C   UNL A   1      39.957  28.578  29.569  1.00  0.00     0.049 A 
ATOM     23  H   UNL A   1      41.820  28.357  28.662  1.00  0.00     0.167 HD
ATOM     24  C   UNL A   1      45.719  27.734  26.809  1.00  0.00     0.034 A 
ATOM     25  C   UNL A   1      39.929  29.793  30.148  1.00  0.00     0.034 A 
ATOM     26  C   UNL A   1      45.746  29.087  27.300  1.00  0.00     0.049 A 
ATOM     27  C   UNL A   1      41.126  30.691  30.012  1.00  0.00     0.074 A 
ATOM     28  C   UNL A   1      46.768  30.016  27.206  1.00  0.00     0.029 A 
ATOM     29  N   UNL A   1      44.707  29.705  27.981  1.00  0.00    -0.354 N 
ATOM     30  N   UNL A   1      42.245  30.481  29.365  1.00  0.00    -0.248 NA
ATOM     31  C   UNL A   1      41.042  32.006  30.662  1.00  0.00     0.031 C 
ATOM     32  C   UNL A   1      46.356  31.187  27.852  1.00  0.00     0.029 A 
ATOM     33  C   UNL A   1      45.067  30.998  28.322  1.00  0.00     0.049 A 
ATOM     34  H   UNL A   1      43.843  29.284  28.192  1.00  0.00     0.167 HD
ATOM     35  C   UNL A   1      42.986  31.648  29.500  1.00  0.00     0.074 A 
ATOM     36  C   UNL A   1      42.176  32.570  30.269  1.00  0.00     0.031 C 
ATOM     37  C   UNL A   1      44.231  31.926  29.041  1.00  0.00     0.034 A 
BRANCH  24  38
ATOM     38  C   UNL A   1      46.964  27.201  26.145  1.00  0.00     0.023 A 
ATOM     39  C   UNL A   1      47.174  27.423  24.768  1.00  0.00     0.012 A 
ATOM     40  C   UNL A   1      47.959  26.544  26.896  1.00  0.00     0.148 A 
ATOM     41  C   UNL A   1      48.337  26.973  24.144  1.00  0.00     0.002 A 
ATOM     42  C   UNL A   1      49.136  26.136  26.275  1.00  0.00     0.091 A 
ATOM     43  F   UNL A   1      47.736  26.322  28.199  1.00  0.00    -0.205 F 
ATOM     44  C   UNL A   1      49.321  26.340  24.899  1.00  0.00     0.022 A 
BRANCH  42  45
ATOM     45  S   UNL A   1      50.494  25.384  27.179  1.00  0.00     0.127 S 
ATOM     46  O   UNL A   1      50.878  26.464  28.086  1.00  0.00    -0.237 OA
ATOM     47  O   UNL A   1      49.841  24.246  27.829  1.00  0.00    -0.237 OA
ATOM     48  O   UNL A   1      51.488  25.020  26.179  1.00  0.00    -0.744 OA
ENDBRANCH  42  45
ENDBRANCH  24  38
BRANCH  25  49
ATOM     49  C   UNL A   1      38.700  30.250  30.855  1.00  0.00     0.023 A 
ATOM     50  C   UNL A   1      38.569  30.018  32.238  1.00  0.00     0.012 A 
ATOM     51  C   UNL A   1      37.683  30.949  30.176  1.00  0.00     0.148 A 
ATOM     52  C   UNL A   1      37.434  30.447  32.926  1.00  0.00     0.002 A 
ATOM     53  C   UNL A   1      36.584  31.427  30.879  1.00  0.00     0.091 A 
ATOM     54  F   UNL A   1      37.820  31.147  28.857  1.00  0.00    -0.205 F 
ATOM     55  C   UNL A   1      36.448  31.161  32.250  1.00  0.00     0.022 A 
BRANCH  53  56
ATOM     56  S   UNL A   1      35.342  32.475  30.116  1.00  0.00     0.127 S 
ATOM     57  O   UNL A   1      34.850  31.620  29.039  1.00  0.00    -0.237 OA
ATOM     58  O   UNL A   1      34.402  32.681  31.218  1.00  0.00    -0.237 OA
ATOM     59  O   UNL A   1      36.048  33.678  29.701  1.00  0.00    -0.744 OA
ENDBRANCH  53  56
ENDBRANCH  25  49
BRANCH  37  60
ATOM     60  C   UNL A   1      44.783  33.299  29.318  1.00  0.00     0.023 A 
ATOM     61  C   UNL A   1      45.442  33.559  30.537  1.00  0.00     0.012 A 
ATOM     62  C   UNL A   1      44.695  34.317  28.349  1.00  0.00     0.148 A 
ATOM     63  C   UNL A   1      45.971  34.821  30.801  1.00  0.00     0.002 A 
ATOM     64  C   UNL A   1      45.268  35.558  28.599  1.00  0.00     0.091 A 
ATOM     65  F   UNL A   1      44.043  34.059  27.206  1.00  0.00    -0.205 F 
ATOM     66  C   UNL A   1      45.894  35.817  29.829  1.00  0.00     0.022 A 
BRANCH  64  67
ATOM     67  S   UNL A   1      45.299  36.862  27.364  1.00  0.00     0.127 S 
ATOM     68  O   UNL A   1      46.116  37.879  28.024  1.00  0.00    -0.237 OA
ATOM     69  O   UNL A   1      45.944  36.204  26.228  1.00  0.00    -0.237 OA
ATOM     70  O   UNL A   1      43.906  37.224  27.135  1.00  0.00    -0.744 OA
ENDBRANCH  64  67
ENDBRANCH  37  60
ENDBRANCH  11  12
ENDBRANCH   4   6
ENDBRANCH   1   2
BRANCH   1  71
ATOM     71  C   UNL A   1      35.347  22.086  25.891  1.00  0.00     0.042 C 
BRANCH  71  72
ATOM     72  C   UNL A   1      34.619  23.422  25.949  1.00  0.00     0.118 C 
BRANCH  72  73
ATOM     73  N   UNL A   1      33.472  23.399  26.846  1.00  0.00    -0.352 N 
ATOM     74  C   UNL A   1      32.173  23.788  26.650  1.00  0.00     0.253 C 
ATOM     75  H   UNL A   1      33.662  23.045  27.744  1.00  0.00     0.163 HD
ATOM     76  O   UNL A   1      31.384  23.734  27.595  1.00  0.00    -0.269 OA
BRANCH  74  77
ATOM     77  C   UNL A   1      31.718  24.241  25.325  1.00  0.00     0.067 A 
ATOM     78  C   UNL A   1      31.175  23.309  24.431  1.00  0.00     0.018 A 
ATOM     79  C   UNL A   1      31.747  25.589  24.958  1.00  0.00     0.101 A 
ATOM     80  C   UNL A   1      30.752  23.725  23.175  1.00  0.00     0.021 A 
ATOM     81  N   UNL A   1      31.341  25.999  23.717  1.00  0.00    -0.254 NA
ATOM     82  C   UNL A   1      30.860  25.068  22.865  1.00  0.00     0.112 A 
BRANCH  79  83
ATOM     83  C   UNL A   1      32.222  26.663  25.845  1.00  0.00     0.089 A 
ATOM     84  C   UNL A   1      31.368  27.315  26.736  1.00  0.00     0.031 A 
ATOM     85  N   UNL A   1      33.541  26.986  25.741  1.00  0.00    -0.255 NA
ATOM     86  C   UNL A   1      31.874  28.347  27.525  1.00  0.00     0.004 A 
ATOM     87  C   UNL A   1      33.998  27.995  26.513  1.00  0.00     0.112 A 
ATOM     88  C   UNL A   1      33.212  28.699  27.408  1.00  0.00     0.020 A 
ENDBRANCH  79  83
ENDBRANCH  74  77
ENDBRANCH  72  73
ENDBRANCH  71  72
ENDBRANCH   1  71
TORSDOF 14
ENDMDL
MODEL 3
REMARK VINA RESULT:     -12.2      5.920      9.013
REMARK SMILES O=C(NCCCNC(=O)c1cccnc1-c1ccccn1)c1ccc(-c2c3nc(c(-c4cccc(S(=O)(=O)[O-])c4F)c4ccc([nH]4)c(-c4cccc(S(=O)(=O)[O-])c4F)c4nc(c(-c5cccc(S(=O)(=O)[O-])c5F)c5ccc2[nH]5)C=C4)C=C3)cc1
REMARK SMILES IDX 4 1 3 2 1 3 2 4 22 6 23 7 84 8 24 9 83 10 25 11 26 12 27 13
REMARK SMILES IDX 77 14 28 15 82 16 76 17 78 18 29 19 81 20 75 21 74 22 30 24
REMARK SMILES IDX 62 25 42 26 61 27 43 28 46 29 60 30 79 31 44 32 45 33 59 35
REMARK SMILES IDX 80 36 47 37 31 38 32 39 40 40 33 41 35 42 41 43 34 44 36 45
REMARK SMILES IDX 37 46 38 47 39 48 63 49 64 50 72 51 65 52 67 53 73 54 66 55
REMARK SMILES IDX 68 56 69 57 70 58 71 59 48 60 49 61 57 62 50 63 52 64 58 65
REMARK SMILES IDX 51 66 53 67 54 68 55 69 56 70 5 71 6 72 7 73 8 74 9 76 10 77
REMARK SMILES IDX 11 78 15 79 12 80 14 81 13 82 16 83 17 84 21 85 18 86 20 87
REMARK SMILES IDX 19 88
REMARK H PARENT 3 5 78 23 46 34 7 75
REMARK Flexibility Score: inf
ROOT
ATOM      1  C   UNL A   1      38.748  20.251  25.564  1.00  0.00     0.118 C 
ENDROOT
BRANCH   1   2
ATOM      2  N   UNL A   1      39.801  19.275  25.817  1.00  0.00    -0.352 N 
ATOM      3  O   UNL A   1      41.868  18.454  26.134  1.00  0.00    -0.269 OA
ATOM      4  C   UNL A   1      41.137  19.442  26.106  1.00  0.00     0.251 C 
ATOM      5  H   UNL A   1      39.508  18.338  25.773  1.00  0.00     0.163 HD
BRANCH   4   6
ATOM      6  C   UNL A   1      41.701  20.791  26.339  1.00  0.00     0.039 A 
ATOM      7  C   UNL A   1      41.725  21.351  27.614  1.00  0.00     0.014 A 
ATOM      8  C   UNL A   1      42.220  21.512  25.258  1.00  0.00     0.014 A 
ATOM      9  C   UNL A   1      42.055  22.692  27.775  1.00  0.00     0.010 A 
ATOM     10  C   UNL A   1      42.665  22.826  25.445  1.00  0.00     0.010 A 
ATOM     11  C   UNL A   1      42.529  23.450  26.692  1.00  0.00    -0.014 A 
BRANCH  11  12
ATOM     12  C   UNL A   1      42.894  24.878  26.911  1.00  0.00     0.031 A 
ATOM     13  C   UNL A   1      41.979  25.816  27.656  1.00  0.00     0.074 A 
ATOM     14  C   UNL A   1      44.085  25.322  26.463  1.00  0.00     0.049 A 
ATOM     15  N   UNL A   1      42.184  27.063  27.999  1.00  0.00    -0.248 NA
ATOM     16  C   UNL A   1      40.662  25.299  28.063  1.00  0.00     0.031 C 
ATOM     17  C   UNL A   1      45.042  24.527  25.686  1.00  0.00     0.029 A 
ATOM     18  N   UNL A   1      44.705  26.538  26.601  1.00  0.00    -0.354 N 
ATOM     19  C   UNL A   1      41.014  27.493  28.612  1.00  0.00     0.074 A 
ATOM     20  C   UNL A   1      40.095  26.376  28.591  1.00  0.00     0.031 C 
ATOM     21  C   UNL A   1      46.142  25.257  25.459  1.00  0.00     0.029 A 
ATOM     22  C   UNL A   1      45.951  26.589  26.023  1.00  0.00     0.049 A 
ATOM     23  H   UNL A   1      44.295  27.301  27.070  1.00  0.00     0.167 HD
ATOM     24  C   UNL A   1      40.732  28.702  29.159  1.00  0.00     0.034 A 
ATOM     25  C   UNL A   1      46.845  27.593  25.948  1.00  0.00     0.034 A 
ATOM     26  C   UNL A   1      41.663  29.797  29.224  1.00  0.00     0.049 A 
ATOM     27  C   UNL A   1      46.522  28.906  26.602  1.00  0.00     0.074 A 
ATOM     28  C   UNL A   1      41.497  31.033  29.824  1.00  0.00     0.029 A 
ATOM     29  N   UNL A   1      42.933  29.794  28.666  1.00  0.00    -0.354 N 
ATOM     30  N   UNL A   1      45.463  29.243  27.296  1.00  0.00    -0.248 NA
ATOM     31  C   UNL A   1      47.533  29.967  26.490  1.00  0.00     0.031 C 
ATOM     32  C   UNL A   1      42.656  31.785  29.608  1.00  0.00     0.029 A 
ATOM     33  C   UNL A   1      43.557  31.008  28.899  1.00  0.00     0.049 A 
ATOM     34  H   UNL A   1      43.331  29.039  28.176  1.00  0.00     0.167 HD
ATOM     35  C   UNL A   1      45.692  30.542  27.731  1.00  0.00     0.074 A 
ATOM     36  C   UNL A   1      47.003  30.920  27.244  1.00  0.00     0.031 C 
ATOM     37  C   UNL A   1      44.884  31.354  28.456  1.00  0.00     0.034 A 
BRANCH  24  38
ATOM     38  C   UNL A   1      39.366  28.901  29.767  1.00  0.00     0.023 A 
ATOM     39  C   UNL A   1      39.097  28.412  31.062  1.00  0.00     0.012 A 
ATOM     40  C   UNL A   1      38.373  29.634  29.088  1.00  0.00     0.148 A 
ATOM     41  C   UNL A   1      37.853  28.621  31.658  1.00  0.00     0.002 A 
ATOM     42  C   UNL A   1      37.150  29.875  29.705  1.00  0.00     0.091 A 
ATOM     43  F   UNL A   1      38.637  30.075  27.850  1.00  0.00    -0.205 F 
ATOM     44  C   UNL A   1      36.885  29.361  30.984  1.00  0.00     0.022 A 
BRANCH  42  45
ATOM     45  S   UNL A   1      35.869  30.885  28.951  1.00  0.00     0.127 S 
ATOM     46  O   UNL A   1      35.137  29.893  28.165  1.00  0.00    -0.237 OA
ATOM     47  O   UNL A   1      35.146  31.391  30.119  1.00  0.00    -0.237 OA
ATOM     48  O   UNL A   1      36.565  31.906  28.181  1.00  0.00    -0.744 OA
ENDBRANCH  42  45
ENDBRANCH  24  38
BRANCH  25  49
ATOM     49  C   UNL A   1      48.155  27.371  25.275  1.00  0.00     0.023 A 
ATOM     50  C   UNL A   1      49.244  26.880  26.021  1.00  0.00     0.012 A 
ATOM     51  C   UNL A   1      48.317  27.603  23.895  1.00  0.00     0.148 A 
ATOM     52  C   UNL A   1      50.478  26.651  25.412  1.00  0.00     0.002 A 
ATOM     53  C   UNL A   1      49.531  27.316  23.282  1.00  0.00     0.091 A 
ATOM     54  F   UNL A   1      47.274  28.085  23.205  1.00  0.00    -0.205 F 
ATOM     55  C   UNL A   1      50.618  26.857  24.042  1.00  0.00     0.022 A 
BRANCH  53  56
ATOM     56  S   UNL A   1      49.753  27.417  21.504  1.00  0.00     0.127 S 
ATOM     57  O   UNL A   1      48.659  26.580  21.018  1.00  0.00    -0.237 OA
ATOM     58  O   UNL A   1      49.588  28.850  21.259  1.00  0.00    -0.237 OA
ATOM     59  O   UNL A   1      51.097  26.919  21.249  1.00  0.00    -0.744 OA
ENDBRANCH  53  56
ENDBRANCH  25  49
BRANCH  37  60
ATOM     60  C   UNL A   1      45.408  32.721  28.809  1.00  0.00     0.023 A 
ATOM     61  C   UNL A   1      46.124  32.911  30.007  1.00  0.00     0.012 A 
ATOM     62  C   UNL A   1      45.236  33.804  27.926  1.00  0.00     0.148 A 
ATOM     63  C   UNL A   1      46.628  34.168  30.339  1.00  0.00     0.002 A 
ATOM     64  C   UNL A   1      45.783  35.042  28.240  1.00  0.00     0.091 A 
ATOM     65  F   UNL A   1      44.531  33.611  26.802  1.00  0.00    -0.205 F 
ATOM     66  C   UNL A   1      46.468  35.231  29.452  1.00  0.00     0.022 A 
BRANCH  64  67
ATOM     67  S   UNL A   1      45.707  36.436  27.109  1.00  0.00     0.127 S 
ATOM     68  O   UNL A   1      46.433  37.464  27.851  1.00  0.00    -0.237 OA
ATOM     69  O   UNL A   1      46.408  35.923  25.932  1.00  0.00    -0.237 OA
ATOM     70  O   UNL A   1      44.289  36.696  26.897  1.00  0.00    -0.744 OA
ENDBRANCH  64  67
ENDBRANCH  37  60
ENDBRANCH  11  12
ENDBRANCH   4   6
ENDBRANCH   1   2
BRANCH   1  71
ATOM     71  C   UNL A   1      37.476  19.638  24.994  1.00  0.00     0.042 C 
BRANCH  71  72
ATOM     72  C   UNL A   1      36.361  20.637  24.719  1.00  0.00     0.118 C 
BRANCH  72  73
ATOM     73  N   UNL A   1      35.425  20.754  25.827  1.00  0.00    -0.352 N 
ATOM     74  C   UNL A   1      34.070  20.961  25.838  1.00  0.00     0.253 C 
ATOM     75  H   UNL A   1      35.833  20.669  26.719  1.00  0.00     0.163 HD
ATOM     76  O   UNL A   1      33.494  21.092  26.921  1.00  0.00    -0.269 OA
BRANCH  74  77
ATOM     77  C   UNL A   1      33.308  21.004  24.580  1.00  0.00     0.067 A 
ATOM     78  C   UNL A   1      33.044  22.241  23.979  1.00  0.00     0.018 A 
ATOM     79  C   UNL A   1      32.896  19.837  23.930  1.00  0.00     0.101 A 
ATOM     80  C   UNL A   1      32.316  22.292  22.797  1.00  0.00     0.021 A 
ATOM     81  N   UNL A   1      32.169  19.886  22.771  1.00  0.00    -0.254 NA
ATOM     82  C   UNL A   1      31.898  21.097  22.239  1.00  0.00     0.112 A 
BRANCH  79  83
ATOM     83  C   UNL A   1      33.185  18.483  24.428  1.00  0.00     0.089 A 
ATOM     84  C   UNL A   1      34.317  17.774  24.023  1.00  0.00     0.031 A 
ATOM     85  N   UNL A   1      32.280  17.961  25.302  1.00  0.00    -0.255 NA
ATOM     86  C   UNL A   1      34.515  16.482  24.507  1.00  0.00     0.004 A 
ATOM     87  C   UNL A   1      32.497  16.705  25.747  1.00  0.00     0.112 A 
ATOM     88  C   UNL A   1      33.585  15.933  25.381  1.00  0.00     0.020 A 
ENDBRANCH  79  83
ENDBRANCH  74  77
ENDBRANCH  72  73
ENDBRANCH  71  72
ENDBRANCH   1  71
TORSDOF 14
ENDMDL
