MODEL 1
REMARK VINA RESULT:     -12.3      0.000      0.000
REMARK SMILES C[NH+]1CCN(c2nc3c(cc2F)c(=O)c(C(=O)NCCCNC(=O)c2ccc(-c4c5nc(c(-c6cccc(S(=O)(=O)[O-])c6F)c6ccc([nH]6)c(-c6cccc(S(=O)(=O)[O-])c6F)c6nc(c(-c7cccc(S(=O)(=O)[O-])c7F)c7ccc4[nH]7)C=C6)C=C5)cc2)cn3-c2ccc(F)cc2F)CC1
REMARK SMILES IDX 21 1 20 2 19 3 18 4 16 5 17 6 15 8 6 9 7 10 11 11 8 12 10 13
REMARK SMILES IDX 12 14 9 15 89 16 13 17 88 18 14 19 5 20 1 21 2 22 3 23 99 24
REMARK SMILES IDX 4 26 98 27 90 28 91 29 96 30 92 31 95 32 97 33 93 34 94 35
REMARK SMILES IDX 22 36 23 37 24 39 25 40 26 41 87 42 27 43 86 44 28 45 29 46
REMARK SMILES IDX 30 47 80 48 31 49 85 50 79 51 81 52 32 53 84 54 78 55 77 56
REMARK SMILES IDX 33 58 65 59 45 60 64 61 46 62 49 63 63 64 82 65 47 66 48 67
REMARK SMILES IDX 62 69 83 70 50 71 34 72 35 73 43 74 36 75 38 76 44 77 37 78
REMARK SMILES IDX 39 79 40 80 41 81 42 82 66 83 67 84 75 85 68 86 70 87 76 88
REMARK SMILES IDX 69 89 71 90 72 91 73 92 74 93 51 94 52 95 60 96 53 97 55 98
REMARK SMILES IDX 61 99 54 100 56 101 57 102 58 103 59 104
REMARK H PARENT 18 7 2 25 22 38 81 57 49 68
REMARK Flexibility Score: inf
ROOT
ATOM      1  C   UNL A   1      34.054  28.328  26.331  1.00  0.00     0.118 C 
ENDROOT
BRANCH   1   2
ATOM      2  C   UNL A   1      34.139  28.276  24.814  1.00  0.00     0.042 C 
BRANCH   2   3
ATOM      3  C   UNL A   1      32.884  27.701  24.160  1.00  0.00     0.118 C 
BRANCH   3   4
ATOM      4  N   UNL A   1      33.102  27.414  22.753  1.00  0.00    -0.352 N 
ATOM      5  C   UNL A   1      33.341  26.258  22.080  1.00  0.00     0.256 C 
ATOM      6  O   UNL A   1      33.437  26.357  20.852  1.00  0.00    -0.269 OA
ATOM      7  H   UNL A   1      33.069  28.211  22.175  1.00  0.00     0.163 HD
BRANCH   5   8
ATOM      8  C   UNL A   1      33.399  24.915  22.726  1.00  0.00     0.104 A 
ATOM      9  C   UNL A   1      33.460  20.069  24.262  1.00  0.00     0.167 A 
ATOM     10  N   UNL A   1      34.247  21.145  24.510  1.00  0.00    -0.209 NA
ATOM     11  C   UNL A   1      32.326  20.176  23.452  1.00  0.00     0.166 A 
ATOM     12  C   UNL A   1      33.942  22.347  23.955  1.00  0.00     0.151 A 
ATOM     13  C   UNL A   1      31.965  21.404  22.933  1.00  0.00     0.059 A 
ATOM     14  F   UNL A   1      31.548  19.112  23.201  1.00  0.00    -0.203 F 
ATOM     15  C   UNL A   1      32.782  22.501  23.197  1.00  0.00     0.069 A 
ATOM     16  N   UNL A   1      34.805  23.477  24.134  1.00  0.00    -0.297 N 
ATOM     17  C   UNL A   1      32.394  23.831  22.704  1.00  0.00     0.203 A 
ATOM     18  C   UNL A   1      34.490  24.661  23.470  1.00  0.00     0.111 A 
ATOM     19  O   UNL A   1      31.241  23.971  22.324  1.00  0.00    -0.288 OA
BRANCH   9  20
ATOM     20  N   UNL A   1      33.818  18.886  24.853  1.00  0.00    -0.343 N 
ATOM     21  C   UNL A   1      32.750  14.790  25.259  1.00  0.00     0.332 C 
ATOM     22  N   UNL A   1      33.429  16.076  25.404  1.00  0.00    -0.334 N 
ATOM     23  C   UNL A   1      32.501  17.102  25.942  1.00  0.00     0.283 C 
ATOM     24  C   UNL A   1      33.943  16.536  24.093  1.00  0.00     0.283 C 
ATOM     25  H   UNL A   1      34.205  15.948  26.054  1.00  0.00     0.347 HD
ATOM     26  C   UNL A   1      33.171  18.493  26.103  1.00  0.00     0.179 C 
ATOM     27  C   UNL A   1      34.659  17.898  24.191  1.00  0.00     0.179 C 
ENDBRANCH   9  20
BRANCH  16  28
ATOM     28  C   UNL A   1      35.999  23.404  24.913  1.00  0.00     0.083 A 
ATOM     29  C   UNL A   1      36.109  24.105  26.126  1.00  0.00     0.033 A 
ATOM     30  C   UNL A   1      37.095  22.627  24.497  1.00  0.00     0.150 A 
ATOM     31  C   UNL A   1      37.275  24.026  26.891  1.00  0.00     0.041 A 
ATOM     32  C   UNL A   1      38.266  22.556  25.245  1.00  0.00     0.080 A 
ATOM     33  F   UNL A   1      37.038  21.949  23.341  1.00  0.00    -0.205 F 
ATOM     34  C   UNL A   1      38.343  23.257  26.439  1.00  0.00     0.126 A 
ATOM     35  F   UNL A   1      39.462  23.192  27.171  1.00  0.00    -0.207 F 
ENDBRANCH  16  28
ENDBRANCH   5   8
ENDBRANCH   3   4
ENDBRANCH   2   3
ENDBRANCH   1   2
BRANCH   1  36
ATOM     36  N   UNL A   1      33.793  29.677  26.813  1.00  0.00    -0.352 N 
ATOM     37  C   UNL A   1      34.513  30.425  27.712  1.00  0.00     0.251 C 
ATOM     38  H   UNL A   1      32.989  30.112  26.445  1.00  0.00     0.163 HD
ATOM     39  O   UNL A   1      34.025  31.446  28.191  1.00  0.00    -0.269 OA
BRANCH  37  40
ATOM     40  C   UNL A   1      35.871  29.994  28.105  1.00  0.00     0.039 A 
ATOM     41  C   UNL A   1      36.937  30.216  27.230  1.00  0.00     0.014 A 
ATOM     42  C   UNL A   1      36.084  29.354  29.330  1.00  0.00     0.014 A 
ATOM     43  C   UNL A   1      38.227  29.833  27.604  1.00  0.00     0.010 A 
ATOM     44  C   UNL A   1      37.379  29.037  29.730  1.00  0.00     0.010 A 
ATOM     45  C   UNL A   1      38.457  29.252  28.862  1.00  0.00    -0.014 A 
BRANCH  45  46
ATOM     46  C   UNL A   1      39.814  28.808  29.255  1.00  0.00     0.031 A 
ATOM     47  C   UNL A   1      40.543  29.534  30.351  1.00  0.00     0.074 A 
ATOM     48  C   UNL A   1      40.403  27.783  28.608  1.00  0.00     0.049 A 
ATOM     49  N   UNL A   1      41.719  29.281  30.862  1.00  0.00    -0.248 NA
ATOM     50  C   UNL A   1      39.876  30.708  30.942  1.00  0.00     0.031 C 
ATOM     51  C   UNL A   1      39.823  27.051  27.480  1.00  0.00     0.029 A 
ATOM     52  N   UNL A   1      41.624  27.188  28.799  1.00  0.00    -0.354 N 
ATOM     53  C   UNL A   1      41.938  30.269  31.813  1.00  0.00     0.074 A 
ATOM     54  C   UNL A   1      40.796  31.151  31.786  1.00  0.00     0.031 C 
ATOM     55  C   UNL A   1      40.682  26.093  27.092  1.00  0.00     0.029 A 
ATOM     56  C   UNL A   1      41.873  26.148  27.935  1.00  0.00     0.049 A 
ATOM     57  H   UNL A   1      42.262  27.477  29.492  1.00  0.00     0.167 HD
ATOM     58  C   UNL A   1      42.979  30.402  32.666  1.00  0.00     0.034 A 
ATOM     59  C   UNL A   1      42.936  25.323  27.845  1.00  0.00     0.034 A 
ATOM     60  C   UNL A   1      44.080  29.487  32.734  1.00  0.00     0.049 A 
ATOM     61  C   UNL A   1      44.065  25.469  28.828  1.00  0.00     0.074 A 
ATOM     62  C   UNL A   1      45.133  29.483  33.630  1.00  0.00     0.029 A 
ATOM     63  N   UNL A   1      44.270  28.416  31.876  1.00  0.00    -0.354 N 
ATOM     64  N   UNL A   1      44.181  26.316  29.823  1.00  0.00    -0.248 NA
ATOM     65  C   UNL A   1      45.193  24.534  28.702  1.00  0.00     0.031 C 
ATOM     66  C   UNL A   1      45.968  28.409  33.309  1.00  0.00     0.029 A 
ATOM     67  C   UNL A   1      45.429  27.746  32.216  1.00  0.00     0.049 A 
ATOM     68  H   UNL A   1      43.670  28.171  31.136  1.00  0.00     0.167 HD
ATOM     69  C   UNL A   1      45.379  26.002  30.454  1.00  0.00     0.074 A 
ATOM     70  C   UNL A   1      45.950  24.881  29.737  1.00  0.00     0.031 C 
ATOM     71  C   UNL A   1      45.955  26.599  31.524  1.00  0.00     0.034 A 
BRANCH  58  72
ATOM     72  C   UNL A   1      42.934  31.526  33.660  1.00  0.00     0.023 A 
ATOM     73  C   UNL A   1      43.353  32.809  33.256  1.00  0.00     0.012 A 
ATOM     74  C   UNL A   1      42.402  31.339  34.949  1.00  0.00     0.148 A 
ATOM     75  C   UNL A   1      43.254  33.892  34.127  1.00  0.00     0.002 A 
ATOM     76  C   UNL A   1      42.280  32.428  35.802  1.00  0.00     0.091 A 
ATOM     77  F   UNL A   1      42.024  30.105  35.311  1.00  0.00    -0.205 F 
ATOM     78  C   UNL A   1      42.709  33.704  35.395  1.00  0.00     0.022 A 
BRANCH  76  79
ATOM     79  S   UNL A   1      41.548  32.310  37.437  1.00  0.00     0.127 S 
ATOM     80  O   UNL A   1      41.721  33.675  37.937  1.00  0.00    -0.237 OA
ATOM     81  O   UNL A   1      40.166  31.945  37.128  1.00  0.00    -0.237 OA
ATOM     82  O   UNL A   1      42.308  31.292  38.149  1.00  0.00    -0.744 OA
ENDBRANCH  76  79
ENDBRANCH  58  72
BRANCH  59  83
ATOM     83  C   UNL A   1      42.923  24.221  26.844  1.00  0.00     0.023 A 
ATOM     84  C   UNL A   1      43.525  24.432  25.589  1.00  0.00     0.012 A 
ATOM     85  C   UNL A   1      42.385  22.955  27.148  1.00  0.00     0.148 A 
ATOM     86  C   UNL A   1      43.583  23.404  24.647  1.00  0.00     0.002 A 
ATOM     87  C   UNL A   1      42.476  21.925  26.219  1.00  0.00     0.091 A 
ATOM     88  F   UNL A   1      41.819  22.781  28.350  1.00  0.00    -0.205 F 
ATOM     89  C   UNL A   1      43.068  22.150  24.965  1.00  0.00     0.022 A 
BRANCH  87  90
ATOM     90  S   UNL A   1      41.924  20.251  26.561  1.00  0.00     0.127 S 
ATOM     91  O   UNL A   1      42.669  19.934  27.778  1.00  0.00    -0.237 OA
ATOM     92  O   UNL A   1      40.487  20.443  26.752  1.00  0.00    -0.237 OA
ATOM     93  O   UNL A   1      42.282  19.466  25.388  1.00  0.00    -0.744 OA
ENDBRANCH  87  90
ENDBRANCH  59  83
BRANCH  71  94
ATOM     94  C   UNL A   1      47.273  26.076  32.019  1.00  0.00     0.023 A 
ATOM     95  C   UNL A   1      48.460  26.654  31.532  1.00  0.00     0.012 A 
ATOM     96  C   UNL A   1      47.325  25.174  33.099  1.00  0.00     0.148 A 
ATOM     97  C   UNL A   1      49.685  26.349  32.123  1.00  0.00     0.002 A 
ATOM     98  C   UNL A   1      48.545  24.901  33.704  1.00  0.00     0.091 A 
ATOM     99  F   UNL A   1      46.175  24.645  33.542  1.00  0.00    -0.205 F 
ATOM    100  C   UNL A   1      49.726  25.486  33.217  1.00  0.00     0.022 A 
BRANCH  98 101
ATOM    101  S   UNL A   1      48.693  23.874  35.171  1.00  0.00     0.127 S 
ATOM    102  O   UNL A   1      47.846  24.590  36.125  1.00  0.00    -0.237 OA
ATOM    103  O   UNL A   1      48.149  22.599  34.709  1.00  0.00    -0.237 OA
ATOM    104  O   UNL A   1      50.110  23.850  35.509  1.00  0.00    -0.744 OA
ENDBRANCH  98 101
ENDBRANCH  71  94
ENDBRANCH  45  46
ENDBRANCH  37  40
ENDBRANCH   1  36
TORSDOF 15
ENDMDL
MODEL 2
REMARK VINA RESULT:     -12.3      1.960      2.666
REMARK SMILES C[NH+]1CCN(c2nc3c(cc2F)c(=O)c(C(=O)NCCCNC(=O)c2ccc(-c4c5nc(c(-c6cccc(S(=O)(=O)[O-])c6F)c6ccc([nH]6)c(-c6cccc(S(=O)(=O)[O-])c6F)c6nc(c(-c7cccc(S(=O)(=O)[O-])c7F)c7ccc4[nH]7)C=C6)C=C5)cc2)cn3-c2ccc(F)cc2F)CC1
REMARK SMILES IDX 21 1 20 2 19 3 18 4 16 5 17 6 15 8 6 9 7 10 11 11 8 12 10 13
REMARK SMILES IDX 12 14 9 15 89 16 13 17 88 18 14 19 5 20 1 21 2 22 3 23 99 24
REMARK SMILES IDX 4 26 98 27 90 28 91 29 96 30 92 31 95 32 97 33 93 34 94 35
REMARK SMILES IDX 22 36 23 37 24 39 25 40 26 41 87 42 27 43 86 44 28 45 29 46
REMARK SMILES IDX 30 47 80 48 31 49 85 50 79 51 81 52 32 53 84 54 78 55 77 56
REMARK SMILES IDX 33 58 65 59 45 60 64 61 46 62 49 63 63 64 82 65 47 66 48 67
REMARK SMILES IDX 62 69 83 70 50 71 34 72 35 73 43 74 36 75 38 76 44 77 37 78
REMARK SMILES IDX 39 79 40 80 41 81 42 82 66 83 67 84 75 85 68 86 70 87 76 88
REMARK SMILES IDX 69 89 71 90 72 91 73 92 74 93 51 94 52 95 60 96 53 97 55 98
REMARK SMILES IDX 61 99 54 100 56 101 57 102 58 103 59 104
REMARK H PARENT 18 7 2 25 22 38 81 57 49 68
REMARK Flexibility Score: inf
ROOT
ATOM      1  C   UNL A   1      33.678  28.974  25.087  1.00  0.00     0.118 C 
ENDROOT
BRANCH   1   2
ATOM      2  C   UNL A   1      32.877  27.728  25.430  1.00  0.00     0.042 C 
BRANCH   2   3
ATOM      3  C   UNL A   1      31.927  27.296  24.315  1.00  0.00     0.118 C 
BRANCH   3   4
ATOM      4  N   UNL A   1      32.616  27.196  23.040  1.00  0.00    -0.352 N 
ATOM      5  C   UNL A   1      33.253  26.167  22.421  1.00  0.00     0.256 C 
ATOM      6  O   UNL A   1      33.703  26.409  21.296  1.00  0.00    -0.269 OA
ATOM      7  H   UNL A   1      32.621  28.034  22.524  1.00  0.00     0.163 HD
BRANCH   5   8
ATOM      8  C   UNL A   1      33.347  24.789  22.981  1.00  0.00     0.104 A 
ATOM      9  C   UNL A   1      33.484  19.859  24.221  1.00  0.00     0.167 A 
ATOM     10  N   UNL A   1      34.294  20.917  24.475  1.00  0.00    -0.209 NA
ATOM     11  C   UNL A   1      32.297  20.018  23.501  1.00  0.00     0.166 A 
ATOM     12  C   UNL A   1      33.958  22.151  24.015  1.00  0.00     0.151 A 
ATOM     13  C   UNL A   1      31.908  21.274  23.082  1.00  0.00     0.059 A 
ATOM     14  F   UNL A   1      31.495  18.972  23.243  1.00  0.00    -0.203 F 
ATOM     15  C   UNL A   1      32.749  22.352  23.351  1.00  0.00     0.069 A 
ATOM     16  N   UNL A   1      34.839  23.266  24.199  1.00  0.00    -0.297 N 
ATOM     17  C   UNL A   1      32.336  23.710  22.967  1.00  0.00     0.203 A 
ATOM     18  C   UNL A   1      34.486  24.487  23.630  1.00  0.00     0.111 A 
ATOM     19  O   UNL A   1      31.160  23.875  22.678  1.00  0.00    -0.288 OA
BRANCH   9  20
ATOM     20  N   UNL A   1      33.874  18.642  24.715  1.00  0.00    -0.343 N 
ATOM     21  C   UNL A   1      32.642  14.613  25.285  1.00  0.00     0.332 C 
ATOM     22  N   UNL A   1      33.420  15.850  25.303  1.00  0.00    -0.334 N 
ATOM     23  C   UNL A   1      32.690  16.919  26.029  1.00  0.00     0.283 C 
ATOM     24  C   UNL A   1      33.688  16.308  23.920  1.00  0.00     0.283 C 
ATOM     25  H   UNL A   1      34.301  15.658  25.780  1.00  0.00     0.347 HD
ATOM     26  C   UNL A   1      33.468  18.262  26.066  1.00  0.00     0.179 C 
ATOM     27  C   UNL A   1      34.498  17.620  23.885  1.00  0.00     0.179 C 
ENDBRANCH   9  20
BRANCH  16  28
ATOM     28  C   UNL A   1      36.085  23.144  24.886  1.00  0.00     0.083 A 
ATOM     29  C   UNL A   1      36.947  22.064  24.624  1.00  0.00     0.033 A 
ATOM     30  C   UNL A   1      36.489  24.097  25.838  1.00  0.00     0.150 A 
ATOM     31  C   UNL A   1      38.168  21.951  25.292  1.00  0.00     0.041 A 
ATOM     32  C   UNL A   1      37.697  23.983  26.518  1.00  0.00     0.080 A 
ATOM     33  F   UNL A   1      35.694  25.138  26.126  1.00  0.00    -0.205 F 
ATOM     34  C   UNL A   1      38.527  22.908  26.236  1.00  0.00     0.126 A 
ATOM     35  F   UNL A   1      39.695  22.790  26.880  1.00  0.00    -0.207 F 
ENDBRANCH  16  28
ENDBRANCH   5   8
ENDBRANCH   3   4
ENDBRANCH   2   3
ENDBRANCH   1   2
BRANCH   1  36
ATOM     36  N   UNL A   1      33.066  30.178  25.630  1.00  0.00    -0.352 N 
ATOM     37  C   UNL A   1      33.377  30.859  26.782  1.00  0.00     0.251 C 
ATOM     38  H   UNL A   1      32.327  30.557  25.099  1.00  0.00     0.163 HD
ATOM     39  O   UNL A   1      32.608  31.712  27.217  1.00  0.00    -0.269 OA
BRANCH  37  40
ATOM     40  C   UNL A   1      34.634  30.554  27.497  1.00  0.00     0.039 A 
ATOM     41  C   UNL A   1      34.785  29.309  28.111  1.00  0.00     0.014 A 
ATOM     42  C   UNL A   1      35.654  31.508  27.573  1.00  0.00     0.014 A 
ATOM     43  C   UNL A   1      35.980  29.005  28.768  1.00  0.00     0.010 A 
ATOM     44  C   UNL A   1      36.869  31.178  28.166  1.00  0.00     0.010 A 
ATOM     45  C   UNL A   1      37.033  29.934  28.789  1.00  0.00    -0.014 A 
BRANCH  45  46
ATOM     46  C   UNL A   1      38.291  29.638  29.513  1.00  0.00     0.031 A 
ATOM     47  C   UNL A   1      38.505  30.202  30.890  1.00  0.00     0.074 A 
ATOM     48  C   UNL A   1      39.251  28.897  28.924  1.00  0.00     0.049 A 
ATOM     49  N   UNL A   1      39.518  30.033  31.698  1.00  0.00    -0.248 NA
ATOM     50  C   UNL A   1      37.455  31.085  31.427  1.00  0.00     0.031 C 
ATOM     51  C   UNL A   1      39.186  28.358  27.564  1.00  0.00     0.029 A 
ATOM     52  N   UNL A   1      40.471  28.480  29.391  1.00  0.00    -0.354 N 
ATOM     53  C   UNL A   1      39.237  30.798  32.821  1.00  0.00     0.074 A 
ATOM     54  C   UNL A   1      37.980  31.467  32.582  1.00  0.00     0.031 C 
ATOM     55  C   UNL A   1      40.311  27.666  27.313  1.00  0.00     0.029 A 
ATOM     56  C   UNL A   1      41.177  27.719  28.488  1.00  0.00     0.049 A 
ATOM     57  H   UNL A   1      40.809  28.702  30.288  1.00  0.00     0.167 HD
ATOM     58  C   UNL A   1      39.942  30.899  33.971  1.00  0.00     0.034 A 
ATOM     59  C   UNL A   1      42.379  27.119  28.603  1.00  0.00     0.034 A 
ATOM     60  C   UNL A   1      41.157  30.184  34.231  1.00  0.00     0.049 A 
ATOM     61  C   UNL A   1      43.127  27.218  29.904  1.00  0.00     0.074 A 
ATOM     62  C   UNL A   1      41.892  30.145  35.401  1.00  0.00     0.029 A 
ATOM     63  N   UNL A   1      41.812  29.383  33.310  1.00  0.00    -0.354 N 
ATOM     64  N   UNL A   1      42.770  27.822  31.012  1.00  0.00    -0.248 NA
ATOM     65  C   UNL A   1      44.426  26.531  29.987  1.00  0.00     0.031 C 
ATOM     66  C   UNL A   1      43.001  29.323  35.186  1.00  0.00     0.029 A 
ATOM     67  C   UNL A   1      42.950  28.849  33.883  1.00  0.00     0.049 A 
ATOM     68  H   UNL A   1      41.512  29.220  32.387  1.00  0.00     0.167 HD
ATOM     69  C   UNL A   1      43.783  27.570  31.929  1.00  0.00     0.074 A 
ATOM     70  C   UNL A   1      44.767  26.750  31.252  1.00  0.00     0.031 C 
ATOM     71  C   UNL A   1      43.891  27.991  33.211  1.00  0.00     0.034 A 
BRANCH  58  72
ATOM     72  C   UNL A   1      39.372  31.744  35.074  1.00  0.00     0.023 A 
ATOM     73  C   UNL A   1      38.462  31.160  35.977  1.00  0.00     0.012 A 
ATOM     74  C   UNL A   1      39.796  33.070  35.271  1.00  0.00     0.148 A 
ATOM     75  C   UNL A   1      37.971  31.888  37.058  1.00  0.00     0.002 A 
ATOM     76  C   UNL A   1      39.325  33.782  36.366  1.00  0.00     0.091 A 
ATOM     77  F   UNL A   1      40.653  33.605  34.388  1.00  0.00    -0.205 F 
ATOM     78  C   UNL A   1      38.410  33.196  37.258  1.00  0.00     0.022 A 
BRANCH  76  79
ATOM     79  S   UNL A   1      39.861  35.454  36.747  1.00  0.00     0.127 S 
ATOM     80  O   UNL A   1      41.310  35.280  36.858  1.00  0.00    -0.237 OA
ATOM     81  O   UNL A   1      39.425  36.192  35.563  1.00  0.00    -0.237 OA
ATOM     82  O   UNL A   1      39.188  35.822  37.985  1.00  0.00    -0.744 OA
ENDBRANCH  76  79
ENDBRANCH  58  72
BRANCH  59  83
ATOM     83  C   UNL A   1      42.892  26.288  27.479  1.00  0.00     0.023 A 
ATOM     84  C   UNL A   1      43.653  26.904  26.466  1.00  0.00     0.012 A 
ATOM     85  C   UNL A   1      42.693  24.895  27.443  1.00  0.00     0.148 A 
ATOM     86  C   UNL A   1      44.198  26.148  25.429  1.00  0.00     0.002 A 
ATOM     87  C   UNL A   1      43.267  24.142  26.424  1.00  0.00     0.091 A 
ATOM     88  F   UNL A   1      41.966  24.334  28.419  1.00  0.00    -0.205 F 
ATOM     89  C   UNL A   1      44.013  24.768  25.412  1.00  0.00     0.022 A 
BRANCH  87  90
ATOM     90  S   UNL A   1      43.165  22.350  26.360  1.00  0.00     0.127 S 
ATOM     91  O   UNL A   1      42.150  22.146  25.328  1.00  0.00    -0.237 OA
ATOM     92  O   UNL A   1      44.525  21.987  25.965  1.00  0.00    -0.237 OA
ATOM     93  O   UNL A   1      42.786  21.925  27.700  1.00  0.00    -0.744 OA
ENDBRANCH  87  90
ENDBRANCH  59  83
BRANCH  71  94
ATOM     94  C   UNL A   1      45.101  27.589  34.004  1.00  0.00     0.023 A 
ATOM     95  C   UNL A   1      46.172  28.496  34.117  1.00  0.00     0.012 A 
ATOM     96  C   UNL A   1      45.086  26.422  34.791  1.00  0.00     0.148 A 
ATOM     97  C   UNL A   1      47.210  28.250  35.014  1.00  0.00     0.002 A 
ATOM     98  C   UNL A   1      46.106  26.201  35.707  1.00  0.00     0.091 A 
ATOM     99  F   UNL A   1      44.049  25.582  34.663  1.00  0.00    -0.205 F 
ATOM    100  C   UNL A   1      47.169  27.113  35.820  1.00  0.00     0.022 A 
BRANCH  98 101
ATOM    101  S   UNL A   1      46.102  24.815  36.850  1.00  0.00     0.127 S 
ATOM    102  O   UNL A   1      47.348  25.030  37.586  1.00  0.00    -0.237 OA
ATOM    103  O   UNL A   1      44.886  25.060  37.624  1.00  0.00    -0.237 OA
ATOM    104  O   UNL A   1      46.076  23.612  36.030  1.00  0.00    -0.744 OA
ENDBRANCH  98 101
ENDBRANCH  71  94
ENDBRANCH  45  46
ENDBRANCH  37  40
ENDBRANCH   1  36
TORSDOF 15
ENDMDL
MODEL 3
REMARK VINA RESULT:     -12.1      4.900     10.078
REMARK SMILES C[NH+]1CCN(c2nc3c(cc2F)c(=O)c(C(=O)NCCCNC(=O)c2ccc(-c4c5nc(c(-c6cccc(S(=O)(=O)[O-])c6F)c6ccc([nH]6)c(-c6cccc(S(=O)(=O)[O-])c6F)c6nc(c(-c7cccc(S(=O)(=O)[O-])c7F)c7ccc4[nH]7)C=C6)C=C5)cc2)cn3-c2ccc(F)cc2F)CC1
REMARK SMILES IDX 21 1 20 2 19 3 18 4 16 5 17 6 15 8 6 9 7 10 11 11 8 12 10 13
REMARK SMILES IDX 12 14 9 15 89 16 13 17 88 18 14 19 5 20 1 21 2 22 3 23 99 24
REMARK SMILES IDX 4 26 98 27 90 28 91 29 96 30 92 31 95 32 97 33 93 34 94 35
REMARK SMILES IDX 22 36 23 37 24 39 25 40 26 41 87 42 27 43 86 44 28 45 29 46
REMARK SMILES IDX 30 47 80 48 31 49 85 50 79 51 81 52 32 53 84 54 78 55 77 56
REMARK SMILES IDX 33 58 65 59 45 60 64 61 46 62 49 63 63 64 82 65 47 66 48 67
REMARK SMILES IDX 62 69 83 70 50 71 34 72 35 73 43 74 36 75 38 76 44 77 37 78
REMARK SMILES IDX 39 79 40 80 41 81 42 82 66 83 67 84 75 85 68 86 70 87 76 88
REMARK SMILES IDX 69 89 71 90 72 91 73 92 74 93 51 94 52 95 60 96 53 97 55 98
REMARK SMILES IDX 61 99 54 100 56 101 57 102 58 103 59 104
REMARK H PARENT 18 7 2 25 22 38 81 57 49 68
REMARK Flexibility Score: inf
ROOT
ATOM      1  C   UNL A   1      36.454  23.605  25.878  1.00  0.00     0.118 C 
ENDROOT
BRANCH   1   2
ATOM      2  C   UNL A   1      35.206  23.376  26.717  1.00  0.00     0.042 C 
BRANCH   2   3
ATOM      3  C   UNL A   1      34.050  22.772  25.924  1.00  0.00     0.118 C 
BRANCH   3   4
ATOM      4  N   UNL A   1      32.858  22.635  26.743  1.00  0.00    -0.352 N 
ATOM      5  C   UNL A   1      31.745  23.403  26.877  1.00  0.00     0.256 C 
ATOM      6  O   UNL A   1      30.878  22.969  27.644  1.00  0.00    -0.269 OA
ATOM      7  H   UNL A   1      32.856  21.829  27.309  1.00  0.00     0.163 HD
BRANCH   5   8
ATOM      8  C   UNL A   1      31.496  24.651  26.101  1.00  0.00     0.104 A 
ATOM      9  C   UNL A   1      29.939  28.797  23.602  1.00  0.00     0.167 A 
ATOM     10  N   UNL A   1      30.956  28.543  24.464  1.00  0.00    -0.209 NA
ATOM     11  C   UNL A   1      29.070  27.781  23.193  1.00  0.00     0.166 A 
ATOM     12  C   UNL A   1      31.130  27.286  24.951  1.00  0.00     0.151 A 
ATOM     13  C   UNL A   1      29.272  26.487  23.628  1.00  0.00     0.059 A 
ATOM     14  F   UNL A   1      28.061  28.031  22.344  1.00  0.00    -0.203 F 
ATOM     15  C   UNL A   1      30.320  26.240  24.513  1.00  0.00     0.069 A 
ATOM     16  N   UNL A   1      32.143  27.013  25.927  1.00  0.00    -0.297 N 
ATOM     17  C   UNL A   1      30.593  24.863  24.949  1.00  0.00     0.203 A 
ATOM     18  C   UNL A   1      32.219  25.728  26.458  1.00  0.00     0.111 A 
ATOM     19  O   UNL A   1      30.072  23.960  24.311  1.00  0.00    -0.288 OA
BRANCH   9  20
ATOM     20  N   UNL A   1      29.819  30.082  23.142  1.00  0.00    -0.343 N 
ATOM     21  C   UNL A   1      27.426  32.664  20.758  1.00  0.00     0.332 C 
ATOM     22  N   UNL A   1      28.492  32.140  21.609  1.00  0.00    -0.334 N 
ATOM     23  C   UNL A   1      29.190  31.012  20.943  1.00  0.00     0.283 C 
ATOM     24  C   UNL A   1      27.935  31.665  22.897  1.00  0.00     0.283 C 
ATOM     25  H   UNL A   1      29.156  32.897  21.778  1.00  0.00     0.347 HD
ATOM     26  C   UNL A   1      30.326  30.410  21.812  1.00  0.00     0.179 C 
ATOM     27  C   UNL A   1      29.023  31.090  23.828  1.00  0.00     0.179 C 
ENDBRANCH   9  20
BRANCH  16  28
ATOM     28  C   UNL A   1      33.024  28.028  26.411  1.00  0.00     0.083 A 
ATOM     29  C   UNL A   1      34.384  28.025  26.058  1.00  0.00     0.033 A 
ATOM     30  C   UNL A   1      32.560  29.059  27.247  1.00  0.00     0.150 A 
ATOM     31  C   UNL A   1      35.243  29.023  26.525  1.00  0.00     0.041 A 
ATOM     32  C   UNL A   1      33.412  30.047  27.729  1.00  0.00     0.080 A 
ATOM     33  F   UNL A   1      31.271  29.095  27.617  1.00  0.00    -0.205 F 
ATOM     34  C   UNL A   1      34.748  30.019  27.361  1.00  0.00     0.126 A 
ATOM     35  F   UNL A   1      35.578  30.968  27.814  1.00  0.00    -0.207 F 
ENDBRANCH  16  28
ENDBRANCH   5   8
ENDBRANCH   3   4
ENDBRANCH   2   3
ENDBRANCH   1   2
BRANCH   1  36
ATOM     36  N   UNL A   1      37.475  22.601  26.142  1.00  0.00    -0.352 N 
ATOM     37  C   UNL A   1      38.781  22.781  26.530  1.00  0.00     0.251 C 
ATOM     38  H   UNL A   1      37.192  21.665  26.025  1.00  0.00     0.163 HD
ATOM     39  O   UNL A   1      39.572  21.844  26.473  1.00  0.00    -0.269 OA
BRANCH  37  40
ATOM     40  C   UNL A   1      39.228  24.107  27.007  1.00  0.00     0.039 A 
ATOM     41  C   UNL A   1      39.045  24.445  28.350  1.00  0.00     0.014 A 
ATOM     42  C   UNL A   1      39.811  25.018  26.122  1.00  0.00     0.014 A 
ATOM     43  C   UNL A   1      39.487  25.686  28.814  1.00  0.00     0.010 A 
ATOM     44  C   UNL A   1      40.314  26.225  26.600  1.00  0.00     0.010 A 
ATOM     45  C   UNL A   1      40.134  26.579  27.943  1.00  0.00    -0.014 A 
BRANCH  45  46
ATOM     46  C   UNL A   1      40.575  27.912  28.415  1.00  0.00     0.031 A 
ATOM     47  C   UNL A   1      42.036  28.265  28.383  1.00  0.00     0.074 A 
ATOM     48  C   UNL A   1      39.673  28.788  28.901  1.00  0.00     0.049 A 
ATOM     49  N   UNL A   1      42.617  29.386  28.719  1.00  0.00    -0.248 NA
ATOM     50  C   UNL A   1      42.972  27.219  27.933  1.00  0.00     0.031 C 
ATOM     51  C   UNL A   1      38.239  28.530  29.049  1.00  0.00     0.029 A 
ATOM     52  N   UNL A   1      39.832  30.066  29.371  1.00  0.00    -0.354 N 
ATOM     53  C   UNL A   1      43.977  29.175  28.540  1.00  0.00     0.074 A 
ATOM     54  C   UNL A   1      44.146  27.809  28.104  1.00  0.00     0.031 C 
ATOM     55  C   UNL A   1      37.647  29.623  29.558  1.00  0.00     0.029 A 
ATOM     56  C   UNL A   1      38.658  30.655  29.779  1.00  0.00     0.049 A 
ATOM     57  H   UNL A   1      40.704  30.521  29.411  1.00  0.00     0.167 HD
ATOM     58  C   UNL A   1      44.993  30.056  28.682  1.00  0.00     0.034 A 
ATOM     59  C   UNL A   1      38.422  31.892  30.261  1.00  0.00     0.034 A 
ATOM     60  C   UNL A   1      44.816  31.430  29.052  1.00  0.00     0.049 A 
ATOM     61  C   UNL A   1      39.564  32.864  30.376  1.00  0.00     0.074 A 
ATOM     62  C   UNL A   1      45.773  32.425  29.127  1.00  0.00     0.029 A 
ATOM     63  N   UNL A   1      43.605  32.000  29.407  1.00  0.00    -0.354 N 
ATOM     64  N   UNL A   1      40.823  32.693  30.054  1.00  0.00    -0.248 NA
ATOM     65  C   UNL A   1      39.254  34.208  30.890  1.00  0.00     0.031 C 
ATOM     66  C   UNL A   1      45.140  33.601  29.536  1.00  0.00     0.029 A 
ATOM     67  C   UNL A   1      43.789  33.335  29.710  1.00  0.00     0.049 A 
ATOM     68  H   UNL A   1      42.743  31.526  29.439  1.00  0.00     0.167 HD
ATOM     69  C   UNL A   1      41.450  33.908  30.301  1.00  0.00     0.074 A 
ATOM     70  C   UNL A   1      40.432  34.813  30.793  1.00  0.00     0.031 C 
ATOM     71  C   UNL A   1      42.755  34.236  30.146  1.00  0.00     0.034 A 
BRANCH  58  72
ATOM     72  C   UNL A   1      46.380  29.590  28.346  1.00  0.00     0.023 A 
ATOM     73  C   UNL A   1      46.820  29.668  27.010  1.00  0.00     0.012 A 
ATOM     74  C   UNL A   1      47.270  29.165  29.350  1.00  0.00     0.148 A 
ATOM     75  C   UNL A   1      48.125  29.317  26.672  1.00  0.00     0.002 A 
ATOM     76  C   UNL A   1      48.578  28.844  29.011  1.00  0.00     0.091 A 
ATOM     77  F   UNL A   1      46.821  29.088  30.610  1.00  0.00    -0.205 F 
ATOM     78  C   UNL A   1      49.006  28.915  27.674  1.00  0.00     0.022 A 
BRANCH  76  79
ATOM     79  S   UNL A   1      49.810  28.362  30.226  1.00  0.00     0.127 S 
ATOM     80  O   UNL A   1      49.613  29.377  31.262  1.00  0.00    -0.237 OA
ATOM     81  O   UNL A   1      49.367  27.019  30.595  1.00  0.00    -0.237 OA
ATOM     82  O   UNL A   1      51.096  28.421  29.544  1.00  0.00    -0.744 OA
ENDBRANCH  76  79
ENDBRANCH  58  72
BRANCH  59  83
ATOM     83  C   UNL A   1      37.025  32.302  30.571  1.00  0.00     0.023 A 
ATOM     84  C   UNL A   1      36.511  32.056  31.859  1.00  0.00     0.012 A 
ATOM     85  C   UNL A   1      36.233  32.989  29.631  1.00  0.00     0.148 A 
ATOM     86  C   UNL A   1      35.227  32.478  32.203  1.00  0.00     0.002 A 
ATOM     87  C   UNL A   1      34.967  33.436  29.990  1.00  0.00     0.091 A 
ATOM     88  F   UNL A   1      36.747  33.211  28.413  1.00  0.00    -0.205 F 
ATOM     89  C   UNL A   1      34.458  33.175  31.273  1.00  0.00     0.022 A 
BRANCH  87  90
ATOM     90  S   UNL A   1      33.933  34.419  28.899  1.00  0.00     0.127 S 
ATOM     91  O   UNL A   1      32.841  34.807  29.790  1.00  0.00    -0.237 OA
ATOM     92  O   UNL A   1      34.839  35.506  28.527  1.00  0.00    -0.237 OA
ATOM     93  O   UNL A   1      33.561  33.537  27.802  1.00  0.00    -0.744 OA
ENDBRANCH  87  90
ENDBRANCH  59  83
BRANCH  71  94
ATOM     94  C   UNL A   1      43.195  35.629  30.496  1.00  0.00     0.023 A 
ATOM     95  C   UNL A   1      43.816  35.853  31.739  1.00  0.00     0.012 A 
ATOM     96  C   UNL A   1      43.182  36.649  29.526  1.00  0.00     0.148 A 
ATOM     97  C   UNL A   1      44.429  37.076  32.009  1.00  0.00     0.002 A 
ATOM     98  C   UNL A   1      43.824  37.851  29.788  1.00  0.00     0.091 A 
ATOM     99  F   UNL A   1      42.587  36.400  28.350  1.00  0.00    -0.205 F 
ATOM    100  C   UNL A   1      44.447  38.067  31.029  1.00  0.00     0.022 A 
BRANCH  98 101
ATOM    101  S   UNL A   1      43.980  39.157  28.564  1.00  0.00     0.127 S 
ATOM    102  O   UNL A   1      42.585  39.553  28.370  1.00  0.00    -0.237 OA
ATOM    103  O   UNL A   1      44.801  40.141  29.269  1.00  0.00    -0.237 OA
ATOM    104  O   UNL A   1      44.612  38.551  27.401  1.00  0.00    -0.744 OA
ENDBRANCH  98 101
ENDBRANCH  71  94
ENDBRANCH  45  46
ENDBRANCH  37  40
ENDBRANCH   1  36
TORSDOF 15
ENDMDL
