MODEL 1
REMARK VINA RESULT:     -11.9      0.000      0.000
REMARK SMILES Cc1cc(C)nc(N2CCCC[C@H]2C(=O)NCCCNC(=O)c2ccc(-c3c4nc(c(-c5cccc(S(=O)(=O)[O-])c5F)c5ccc([nH]5)c(-c5cccc(S(=O)(=O)[O-])c5F)c5nc(c(-c6cccc(S(=O)(=O)[O-])c6F)c6ccc3[nH]6)C=C5)C=C4)cc2)n1
REMARK SMILES IDX 19 1 18 2 17 3 16 4 14 5 15 6 13 8 8 9 9 10 10 11 12 12
REMARK SMILES IDX 11 13 7 14 1 15 2 16 3 17 86 18 4 19 5 20 6 21 20 22 21 23
REMARK SMILES IDX 22 25 23 26 24 27 85 28 25 29 84 30 26 31 27 32 28 33 78 34
REMARK SMILES IDX 29 35 83 36 77 37 79 38 30 39 82 40 76 41 75 42 31 44 63 45
REMARK SMILES IDX 43 46 62 47 44 48 47 49 61 50 80 51 45 52 46 53 60 55 81 56
REMARK SMILES IDX 48 57 32 58 33 59 41 60 34 61 36 62 42 63 35 64 37 65 38 66
REMARK SMILES IDX 39 67 40 68 64 69 65 70 73 71 66 72 68 73 74 74 67 75 69 76
REMARK SMILES IDX 70 77 71 78 72 79 49 80 50 81 58 82 51 83 53 84 59 85 52 86
REMARK SMILES IDX 54 87 55 88 56 89 57 90
REMARK H PARENT 16 7 20 24 79 43 47 54
REMARK Flexibility Score: inf
ROOT
ATOM      1  C   UNL A   1      34.103  29.011  26.105  1.00  0.00     0.118 C 
ENDROOT
BRANCH   1   2
ATOM      2  C   UNL A   1      33.353  27.940  26.869  1.00  0.00     0.042 C 
BRANCH   2   3
ATOM      3  C   UNL A   1      31.946  27.733  26.374  1.00  0.00     0.117 C 
BRANCH   3   4
ATOM      4  N   UNL A   1      31.291  26.559  26.879  1.00  0.00    -0.354 N 
ATOM      5  C   UNL A   1      31.562  25.274  26.505  1.00  0.00     0.242 C 
ATOM      6  O   UNL A   1      31.058  24.386  27.198  1.00  0.00    -0.273 OA
ATOM      7  H   UNL A   1      30.585  26.692  27.553  1.00  0.00     0.163 HD
BRANCH   5   8
ATOM      8  C   UNL A   1      32.436  24.985  25.242  1.00  0.00     0.174 C 
ATOM      9  N   UNL A   1      32.471  23.565  24.871  1.00  0.00    -0.329 N 
ATOM     10  C   UNL A   1      31.244  22.922  24.467  1.00  0.00     0.120 C 
ATOM     11  C   UNL A   1      30.653  23.679  23.274  1.00  0.00     0.022 C 
ATOM     12  C   UNL A   1      31.877  25.771  24.041  1.00  0.00     0.035 C 
ATOM     13  C   UNL A   1      30.564  25.189  23.503  1.00  0.00     0.004 C 
BRANCH   9  14
ATOM     14  C   UNL A   1      33.583  22.799  25.106  1.00  0.00     0.226 A 
ATOM     15  C   UNL A   1      37.123  23.485  25.791  1.00  0.00     0.067 C 
ATOM     16  C   UNL A   1      35.855  22.718  25.553  1.00  0.00     0.043 A 
ATOM     17  C   UNL A   1      35.908  21.386  25.226  1.00  0.00     0.047 A 
ATOM     18  N   UNL A   1      34.691  23.405  25.556  1.00  0.00    -0.218 NA
ATOM     19  C   UNL A   1      34.705  20.797  24.902  1.00  0.00     0.043 A 
ATOM     20  C   UNL A   1      34.667  19.324  24.624  1.00  0.00     0.067 C 
ATOM     21  N   UNL A   1      33.549  21.496  24.798  1.00  0.00    -0.218 NA
ENDBRANCH   9  14
ENDBRANCH   5   8
ENDBRANCH   3   4
ENDBRANCH   2   3
ENDBRANCH   1   2
BRANCH   1  22
ATOM     22  N   UNL A   1      33.880  30.366  26.612  1.00  0.00    -0.352 N 
ATOM     23  C   UNL A   1      34.536  31.098  27.573  1.00  0.00     0.251 C 
ATOM     24  H   UNL A   1      33.127  30.839  26.189  1.00  0.00     0.163 HD
ATOM     25  O   UNL A   1      34.064  32.172  27.944  1.00  0.00    -0.269 OA
BRANCH  23  26
ATOM     26  C   UNL A   1      35.783  30.589  28.187  1.00  0.00     0.039 A 
ATOM     27  C   UNL A   1      35.716  29.765  29.313  1.00  0.00     0.014 A 
ATOM     28  C   UNL A   1      37.024  30.915  27.646  1.00  0.00     0.014 A 
ATOM     29  C   UNL A   1      36.890  29.218  29.838  1.00  0.00     0.010 A 
ATOM     30  C   UNL A   1      38.155  30.227  28.047  1.00  0.00     0.010 A 
ATOM     31  C   UNL A   1      38.116  29.413  29.182  1.00  0.00    -0.014 A 
BRANCH  31  32
ATOM     32  C   UNL A   1      39.387  28.834  29.686  1.00  0.00     0.031 A 
ATOM     33  C   UNL A   1      40.110  29.498  30.833  1.00  0.00     0.074 A 
ATOM     34  C   UNL A   1      39.946  27.787  29.050  1.00  0.00     0.049 A 
ATOM     35  N   UNL A   1      41.268  29.202  31.362  1.00  0.00    -0.248 NA
ATOM     36  C   UNL A   1      39.475  30.690  31.428  1.00  0.00     0.031 C 
ATOM     37  C   UNL A   1      39.409  27.135  27.855  1.00  0.00     0.029 A 
ATOM     38  N   UNL A   1      41.111  27.108  29.304  1.00  0.00    -0.354 N 
ATOM     39  C   UNL A   1      41.522  30.198  32.299  1.00  0.00     0.074 A 
ATOM     40  C   UNL A   1      40.433  31.142  32.220  1.00  0.00     0.031 C 
ATOM     41  C   UNL A   1      40.234  26.142  27.487  1.00  0.00     0.029 A 
ATOM     42  C   UNL A   1      41.373  26.108  28.398  1.00  0.00     0.049 A 
ATOM     43  H   UNL A   1      41.702  27.316  30.063  1.00  0.00     0.167 HD
ATOM     44  C   UNL A   1      42.545  30.299  33.179  1.00  0.00     0.034 A 
ATOM     45  C   UNL A   1      42.419  25.265  28.306  1.00  0.00     0.034 A 
ATOM     46  C   UNL A   1      43.589  29.320  33.295  1.00  0.00     0.049 A 
ATOM     47  C   UNL A   1      43.495  25.329  29.353  1.00  0.00     0.074 A 
ATOM     48  C   UNL A   1      44.604  29.250  34.230  1.00  0.00     0.029 A 
ATOM     49  N   UNL A   1      43.754  28.242  32.439  1.00  0.00    -0.354 N 
ATOM     50  N   UNL A   1      43.626  26.172  30.349  1.00  0.00    -0.248 NA
ATOM     51  C   UNL A   1      44.542  24.300  29.293  1.00  0.00     0.031 C 
ATOM     52  C   UNL A   1      45.406  28.146  33.917  1.00  0.00     0.029 A 
ATOM     53  C   UNL A   1      44.863  27.505  32.813  1.00  0.00     0.049 A 
ATOM     54  H   UNL A   1      43.167  28.031  31.677  1.00  0.00     0.167 HD
ATOM     55  C   UNL A   1      44.750  25.758  31.055  1.00  0.00     0.074 A 
ATOM     56  C   UNL A   1      45.249  24.575  30.381  1.00  0.00     0.031 C 
ATOM     57  C   UNL A   1      45.323  26.310  32.153  1.00  0.00     0.034 A 
BRANCH  44  58
ATOM     58  C   UNL A   1      42.550  31.488  34.106  1.00  0.00     0.023 A 
ATOM     59  C   UNL A   1      43.154  32.699  33.702  1.00  0.00     0.012 A 
ATOM     60  C   UNL A   1      41.948  31.413  35.378  1.00  0.00     0.148 A 
ATOM     61  C   UNL A   1      43.215  33.790  34.567  1.00  0.00     0.002 A 
ATOM     62  C   UNL A   1      41.962  32.525  36.212  1.00  0.00     0.091 A 
ATOM     63  F   UNL A   1      41.399  30.252  35.760  1.00  0.00    -0.205 F 
ATOM     64  C   UNL A   1      42.611  33.707  35.818  1.00  0.00     0.022 A 
BRANCH  62  65
ATOM     65  S   UNL A   1      41.133  32.546  37.805  1.00  0.00     0.127 S 
ATOM     66  O   UNL A   1      39.795  32.079  37.447  1.00  0.00    -0.237 OA
ATOM     67  O   UNL A   1      41.926  31.588  38.577  1.00  0.00    -0.237 OA
ATOM     68  O   UNL A   1      41.213  33.920  38.280  1.00  0.00    -0.744 OA
ENDBRANCH  62  65
ENDBRANCH  44  58
BRANCH  45  69
ATOM     69  C   UNL A   1      42.445  24.248  27.219  1.00  0.00     0.023 A 
ATOM     70  C   UNL A   1      43.290  24.436  26.107  1.00  0.00     0.012 A 
ATOM     71  C   UNL A   1      41.692  23.063  27.318  1.00  0.00     0.148 A 
ATOM     72  C   UNL A   1      43.363  23.472  25.101  1.00  0.00     0.002 A 
ATOM     73  C   UNL A   1      41.814  22.081  26.343  1.00  0.00     0.091 A 
ATOM     74  F   UNL A   1      40.894  22.908  28.385  1.00  0.00    -0.205 F 
ATOM     75  C   UNL A   1      42.636  22.291  25.225  1.00  0.00     0.022 A 
BRANCH  73  76
ATOM     76  S   UNL A   1      41.032  20.471  26.491  1.00  0.00     0.127 S 
ATOM     77  O   UNL A   1      39.647  20.779  26.146  1.00  0.00    -0.237 OA
ATOM     78  O   UNL A   1      41.759  19.693  25.488  1.00  0.00    -0.237 OA
ATOM     79  O   UNL A   1      41.260  20.045  27.865  1.00  0.00    -0.744 OA
ENDBRANCH  73  76
ENDBRANCH  45  69
BRANCH  57  80
ATOM     80  C   UNL A   1      46.535  25.623  32.725  1.00  0.00     0.023 A 
ATOM     81  C   UNL A   1      47.824  25.974  32.279  1.00  0.00     0.012 A 
ATOM     82  C   UNL A   1      46.393  24.671  33.754  1.00  0.00     0.148 A 
ATOM     83  C   UNL A   1      48.952  25.358  32.820  1.00  0.00     0.002 A 
ATOM     84  C   UNL A   1      47.523  24.103  34.327  1.00  0.00     0.091 A 
ATOM     85  F   UNL A   1      45.157  24.338  34.153  1.00  0.00    -0.205 F 
ATOM     86  C   UNL A   1      48.803  24.433  33.851  1.00  0.00     0.022 A 
BRANCH  84  87
ATOM     87  S   UNL A   1      47.428  22.984  35.728  1.00  0.00     0.127 S 
ATOM     88  O   UNL A   1      48.686  22.249  35.607  1.00  0.00    -0.237 OA
ATOM     89  O   UNL A   1      47.366  23.908  36.861  1.00  0.00    -0.237 OA
ATOM     90  O   UNL A   1      46.220  22.194  35.528  1.00  0.00    -0.744 OA
ENDBRANCH  84  87
ENDBRANCH  57  80
ENDBRANCH  31  32
ENDBRANCH  23  26
ENDBRANCH   1  22
TORSDOF 14
ENDMDL
MODEL 2
REMARK VINA RESULT:     -11.8      1.706      2.202
REMARK SMILES Cc1cc(C)nc(N2CCCC[C@H]2C(=O)NCCCNC(=O)c2ccc(-c3c4nc(c(-c5cccc(S(=O)(=O)[O-])c5F)c5ccc([nH]5)c(-c5cccc(S(=O)(=O)[O-])c5F)c5nc(c(-c6cccc(S(=O)(=O)[O-])c6F)c6ccc3[nH]6)C=C5)C=C4)cc2)n1
REMARK SMILES IDX 19 1 18 2 17 3 16 4 14 5 15 6 13 8 8 9 9 10 10 11 12 12
REMARK SMILES IDX 11 13 7 14 1 15 2 16 3 17 86 18 4 19 5 20 6 21 20 22 21 23
REMARK SMILES IDX 22 25 23 26 24 27 85 28 25 29 84 30 26 31 27 32 28 33 78 34
REMARK SMILES IDX 29 35 83 36 77 37 79 38 30 39 82 40 76 41 75 42 31 44 63 45
REMARK SMILES IDX 43 46 62 47 44 48 47 49 61 50 80 51 45 52 46 53 60 55 81 56
REMARK SMILES IDX 48 57 32 58 33 59 41 60 34 61 36 62 42 63 35 64 37 65 38 66
REMARK SMILES IDX 39 67 40 68 64 69 65 70 73 71 66 72 68 73 74 74 67 75 69 76
REMARK SMILES IDX 70 77 71 78 72 79 49 80 50 81 58 82 51 83 53 84 59 85 52 86
REMARK SMILES IDX 54 87 55 88 56 89 57 90
REMARK H PARENT 16 7 20 24 79 43 47 54
REMARK Flexibility Score: inf
ROOT
ATOM      1  C   UNL A   1      33.009  29.877  26.426  1.00  0.00     0.118 C 
ENDROOT
BRANCH   1   2
ATOM      2  C   UNL A   1      31.797  29.089  26.879  1.00  0.00     0.042 C 
BRANCH   2   3
ATOM      3  C   UNL A   1      32.077  27.620  27.058  1.00  0.00     0.117 C 
BRANCH   3   4
ATOM      4  N   UNL A   1      31.288  26.747  26.234  1.00  0.00    -0.354 N 
ATOM      5  C   UNL A   1      31.776  25.875  25.303  1.00  0.00     0.242 C 
ATOM      6  O   UNL A   1      30.974  25.055  24.850  1.00  0.00    -0.273 OA
ATOM      7  H   UNL A   1      30.310  26.780  26.351  1.00  0.00     0.163 HD
BRANCH   5   8
ATOM      8  C   UNL A   1      33.265  25.969  24.837  1.00  0.00     0.174 C 
ATOM      9  N   UNL A   1      33.730  24.768  24.131  1.00  0.00    -0.329 N 
ATOM     10  C   UNL A   1      33.106  24.414  22.878  1.00  0.00     0.120 C 
ATOM     11  C   UNL A   1      33.247  25.587  21.903  1.00  0.00     0.022 C 
ATOM     12  C   UNL A   1      33.431  27.168  23.885  1.00  0.00     0.035 C 
ATOM     13  C   UNL A   1      32.812  26.924  22.503  1.00  0.00     0.004 C 
BRANCH   9  14
ATOM     14  C   UNL A   1      34.576  23.875  24.735  1.00  0.00     0.226 A 
ATOM     15  C   UNL A   1      37.892  24.071  26.294  1.00  0.00     0.067 C 
ATOM     16  C   UNL A   1      36.601  23.492  25.792  1.00  0.00     0.043 A 
ATOM     17  C   UNL A   1      36.475  22.136  25.622  1.00  0.00     0.047 A 
ATOM     18  N   UNL A   1      35.631  24.352  25.410  1.00  0.00    -0.218 NA
ATOM     19  C   UNL A   1      35.301  21.709  25.040  1.00  0.00     0.043 A 
ATOM     20  C   UNL A   1      35.049  20.237  24.906  1.00  0.00     0.067 C 
ATOM     21  N   UNL A   1      34.368  22.563  24.557  1.00  0.00    -0.218 NA
ENDBRANCH   9  14
ENDBRANCH   5   8
ENDBRANCH   3   4
ENDBRANCH   2   3
ENDBRANCH   1   2
BRANCH   1  22
ATOM     22  N   UNL A   1      32.976  31.289  26.811  1.00  0.00    -0.352 N 
ATOM     23  C   UNL A   1      33.803  32.032  27.619  1.00  0.00     0.251 C 
ATOM     24  H   UNL A   1      32.228  31.797  26.421  1.00  0.00     0.163 HD
ATOM     25  O   UNL A   1      33.480  33.179  27.924  1.00  0.00    -0.269 OA
BRANCH  23  26
ATOM     26  C   UNL A   1      35.056  31.452  28.151  1.00  0.00     0.039 A 
ATOM     27  C   UNL A   1      36.227  32.216  28.155  1.00  0.00     0.014 A 
ATOM     28  C   UNL A   1      35.079  30.156  28.658  1.00  0.00     0.014 A 
ATOM     29  C   UNL A   1      37.387  31.696  28.735  1.00  0.00     0.010 A 
ATOM     30  C   UNL A   1      36.166  29.721  29.395  1.00  0.00     0.010 A 
ATOM     31  C   UNL A   1      37.353  30.459  29.398  1.00  0.00    -0.014 A 
BRANCH  31  32
ATOM     32  C   UNL A   1      38.552  29.874  30.050  1.00  0.00     0.031 A 
ATOM     33  C   UNL A   1      38.971  30.356  31.417  1.00  0.00     0.074 A 
ATOM     34  C   UNL A   1      39.323  29.000  29.375  1.00  0.00     0.049 A 
ATOM     35  N   UNL A   1      40.027  30.037  32.118  1.00  0.00    -0.248 NA
ATOM     36  C   UNL A   1      38.121  31.375  32.061  1.00  0.00     0.031 C 
ATOM     37  C   UNL A   1      39.093  28.549  28.001  1.00  0.00     0.029 A 
ATOM     38  N   UNL A   1      40.476  28.357  29.748  1.00  0.00    -0.354 N 
ATOM     39  C   UNL A   1      39.997  30.855  33.242  1.00  0.00     0.074 A 
ATOM     40  C   UNL A   1      38.858  31.729  33.100  1.00  0.00     0.031 C 
ATOM     41  C   UNL A   1      40.066  27.694  27.650  1.00  0.00     0.029 A 
ATOM     42  C   UNL A   1      41.005  27.560  28.759  1.00  0.00     0.049 A 
ATOM     43  H   UNL A   1      40.885  28.455  30.637  1.00  0.00     0.167 HD
ATOM     44  C   UNL A   1      40.815  30.852  34.320  1.00  0.00     0.034 A 
ATOM     45  C   UNL A   1      42.125  26.813  28.746  1.00  0.00     0.034 A 
ATOM     46  C   UNL A   1      41.906  29.932  34.483  1.00  0.00     0.049 A 
ATOM     47  C   UNL A   1      42.966  26.746  29.990  1.00  0.00     0.074 A 
ATOM     48  C   UNL A   1      42.723  29.751  35.584  1.00  0.00     0.029 A 
ATOM     49  N   UNL A   1      42.338  29.044  33.510  1.00  0.00    -0.354 N 
ATOM     50  N   UNL A   1      42.819  27.395  31.120  1.00  0.00    -0.248 NA
ATOM     51  C   UNL A   1      44.099  25.811  29.975  1.00  0.00     0.031 C 
ATOM     52  C   UNL A   1      43.673  28.775  35.262  1.00  0.00     0.029 A 
ATOM     53  C   UNL A   1      43.419  28.319  33.977  1.00  0.00     0.049 A 
ATOM     54  H   UNL A   1      41.933  28.944  32.618  1.00  0.00     0.167 HD
ATOM     55  C   UNL A   1      43.819  26.926  31.963  1.00  0.00     0.074 A 
ATOM     56  C   UNL A   1      44.552  25.921  31.217  1.00  0.00     0.031 C 
ATOM     57  C   UNL A   1      44.112  27.297  33.234  1.00  0.00     0.034 A 
BRANCH  44  58
ATOM     58  C   UNL A   1      40.525  31.846  35.417  1.00  0.00     0.023 A 
ATOM     59  C   UNL A   1      41.348  32.981  35.579  1.00  0.00     0.012 A 
ATOM     60  C   UNL A   1      39.430  31.663  36.284  1.00  0.00     0.148 A 
ATOM     61  C   UNL A   1      41.127  33.881  36.620  1.00  0.00     0.002 A 
ATOM     62  C   UNL A   1      39.181  32.596  37.284  1.00  0.00     0.091 A 
ATOM     63  F   UNL A   1      38.669  30.570  36.136  1.00  0.00    -0.205 F 
ATOM     64  C   UNL A   1      40.038  33.694  37.466  1.00  0.00     0.022 A 
BRANCH  62  65
ATOM     65  S   UNL A   1      37.751  32.492  38.366  1.00  0.00     0.127 S 
ATOM     66  O   UNL A   1      38.140  33.385  39.456  1.00  0.00    -0.237 OA
ATOM     67  O   UNL A   1      36.680  33.005  37.510  1.00  0.00    -0.237 OA
ATOM     68  O   UNL A   1      37.621  31.087  38.721  1.00  0.00    -0.744 OA
ENDBRANCH  62  65
ENDBRANCH  44  58
BRANCH  45  69
ATOM     69  C   UNL A   1      42.461  26.020  27.531  1.00  0.00     0.023 A 
ATOM     70  C   UNL A   1      43.238  26.600  26.510  1.00  0.00     0.012 A 
ATOM     71  C   UNL A   1      42.073  24.671  27.419  1.00  0.00     0.148 A 
ATOM     72  C   UNL A   1      43.602  25.858  25.387  1.00  0.00     0.002 A 
ATOM     73  C   UNL A   1      42.489  23.920  26.327  1.00  0.00     0.091 A 
ATOM     74  F   UNL A   1      41.332  24.142  28.403  1.00  0.00    -0.205 F 
ATOM     75  C   UNL A   1      43.239  24.516  25.300  1.00  0.00     0.022 A 
BRANCH  73  76
ATOM     76  S   UNL A   1      42.193  22.153  26.201  1.00  0.00     0.127 S 
ATOM     77  O   UNL A   1      40.747  22.105  26.000  1.00  0.00    -0.237 OA
ATOM     78  O   UNL A   1      42.992  21.800  25.027  1.00  0.00    -0.237 OA
ATOM     79  O   UNL A   1      42.675  21.581  27.451  1.00  0.00    -0.744 OA
ENDBRANCH  73  76
ENDBRANCH  45  69
BRANCH  57  80
ATOM     80  C   UNL A   1      45.251  26.590  33.921  1.00  0.00     0.023 A 
ATOM     81  C   UNL A   1      46.568  27.067  33.779  1.00  0.00     0.012 A 
ATOM     82  C   UNL A   1      44.999  25.487  34.760  1.00  0.00     0.148 A 
ATOM     83  C   UNL A   1      47.624  26.430  34.430  1.00  0.00     0.002 A 
ATOM     84  C   UNL A   1      46.049  24.893  35.449  1.00  0.00     0.091 A 
ATOM     85  F   UNL A   1      43.740  25.037  34.868  1.00  0.00    -0.205 F 
ATOM     86  C   UNL A   1      47.364  25.353  35.274  1.00  0.00     0.022 A 
BRANCH  84  87
ATOM     87  S   UNL A   1      45.789  23.569  36.635  1.00  0.00     0.127 S 
ATOM     88  O   UNL A   1      44.902  24.209  37.605  1.00  0.00    -0.237 OA
ATOM     89  O   UNL A   1      45.154  22.537  35.814  1.00  0.00    -0.237 OA
ATOM     90  O   UNL A   1      47.111  23.213  37.134  1.00  0.00    -0.744 OA
ENDBRANCH  84  87
ENDBRANCH  57  80
ENDBRANCH  31  32
ENDBRANCH  23  26
ENDBRANCH   1  22
TORSDOF 14
ENDMDL
MODEL 3
REMARK VINA RESULT:     -11.8      5.135      9.863
REMARK SMILES Cc1cc(C)nc(N2CCCC[C@H]2C(=O)NCCCNC(=O)c2ccc(-c3c4nc(c(-c5cccc(S(=O)(=O)[O-])c5F)c5ccc([nH]5)c(-c5cccc(S(=O)(=O)[O-])c5F)c5nc(c(-c6cccc(S(=O)(=O)[O-])c6F)c6ccc3[nH]6)C=C5)C=C4)cc2)n1
REMARK SMILES IDX 19 1 18 2 17 3 16 4 14 5 15 6 13 8 8 9 9 10 10 11 12 12
REMARK SMILES IDX 11 13 7 14 1 15 2 16 3 17 86 18 4 19 5 20 6 21 20 22 21 23
REMARK SMILES IDX 22 25 23 26 24 27 85 28 25 29 84 30 26 31 27 32 28 33 78 34
REMARK SMILES IDX 29 35 83 36 77 37 79 38 30 39 82 40 76 41 75 42 31 44 63 45
REMARK SMILES IDX 43 46 62 47 44 48 47 49 61 50 80 51 45 52 46 53 60 55 81 56
REMARK SMILES IDX 48 57 32 58 33 59 41 60 34 61 36 62 42 63 35 64 37 65 38 66
REMARK SMILES IDX 39 67 40 68 64 69 65 70 73 71 66 72 68 73 74 74 67 75 69 76
REMARK SMILES IDX 70 77 71 78 72 79 49 80 50 81 58 82 51 83 53 84 59 85 52 86
REMARK SMILES IDX 54 87 55 88 56 89 57 90
REMARK H PARENT 16 7 20 24 79 43 47 54
REMARK Flexibility Score: inf
ROOT
ATOM      1  C   UNL A   1      36.681  22.387  25.307  1.00  0.00     0.118 C 
ENDROOT
BRANCH   1   2
ATOM      2  C   UNL A   1      36.416  22.549  23.824  1.00  0.00     0.042 C 
BRANCH   2   3
ATOM      3  C   UNL A   1      35.155  23.315  23.526  1.00  0.00     0.117 C 
BRANCH   3   4
ATOM      4  N   UNL A   1      33.951  22.534  23.543  1.00  0.00    -0.354 N 
ATOM      5  C   UNL A   1      32.883  22.735  24.371  1.00  0.00     0.242 C 
ATOM      6  O   UNL A   1      31.855  22.110  24.097  1.00  0.00    -0.273 OA
ATOM      7  H   UNL A   1      33.889  21.788  22.902  1.00  0.00     0.163 HD
BRANCH   5   8
ATOM      8  C   UNL A   1      33.009  23.684  25.607  1.00  0.00     0.174 C 
ATOM      9  N   UNL A   1      32.304  24.960  25.434  1.00  0.00    -0.329 N 
ATOM     10  C   UNL A   1      30.868  24.947  25.285  1.00  0.00     0.120 C 
ATOM     11  C   UNL A   1      30.248  24.257  26.503  1.00  0.00     0.022 C 
ATOM     12  C   UNL A   1      32.423  22.987  26.850  1.00  0.00     0.035 C 
ATOM     13  C   UNL A   1      30.891  22.908  26.825  1.00  0.00     0.004 C 
BRANCH   9  14
ATOM     14  C   UNL A   1      32.992  26.122  25.197  1.00  0.00     0.226 A 
ATOM     15  C   UNL A   1      34.117  28.950  27.247  1.00  0.00     0.067 C 
ATOM     16  C   UNL A   1      33.888  28.083  26.043  1.00  0.00     0.043 A 
ATOM     17  C   UNL A   1      34.025  28.607  24.782  1.00  0.00     0.047 A 
ATOM     18  N   UNL A   1      33.436  26.826  26.247  1.00  0.00    -0.218 NA
ATOM     19  C   UNL A   1      33.674  27.774  23.742  1.00  0.00     0.043 A 
ATOM     20  C   UNL A   1      33.883  28.241  22.333  1.00  0.00     0.067 C 
ATOM     21  N   UNL A   1      33.120  26.553  23.935  1.00  0.00    -0.218 NA
ENDBRANCH   9  14
ENDBRANCH   5   8
ENDBRANCH   3   4
ENDBRANCH   2   3
ENDBRANCH   1   2
BRANCH   1  22
ATOM     22  N   UNL A   1      37.688  21.373  25.622  1.00  0.00    -0.352 N 
ATOM     23  C   UNL A   1      38.960  21.481  26.132  1.00  0.00     0.251 C 
ATOM     24  H   UNL A   1      37.405  20.449  25.436  1.00  0.00     0.163 HD
ATOM     25  O   UNL A   1      39.686  20.489  26.164  1.00  0.00    -0.269 OA
BRANCH  23  26
ATOM     26  C   UNL A   1      39.472  22.784  26.610  1.00  0.00     0.039 A 
ATOM     27  C   UNL A   1      40.458  22.823  27.600  1.00  0.00     0.014 A 
ATOM     28  C   UNL A   1      38.989  23.975  26.074  1.00  0.00     0.014 A 
ATOM     29  C   UNL A   1      40.999  24.051  27.987  1.00  0.00     0.010 A 
ATOM     30  C   UNL A   1      39.654  25.163  26.320  1.00  0.00     0.010 A 
ATOM     31  C   UNL A   1      40.629  25.229  27.319  1.00  0.00    -0.014 A 
BRANCH  31  32
ATOM     32  C   UNL A   1      41.192  26.555  27.677  1.00  0.00     0.031 A 
ATOM     33  C   UNL A   1      42.617  26.889  27.306  1.00  0.00     0.074 A 
ATOM     34  C   UNL A   1      40.470  27.410  28.426  1.00  0.00     0.049 A 
ATOM     35  N   UNL A   1      43.319  27.952  27.600  1.00  0.00    -0.248 NA
ATOM     36  C   UNL A   1      43.373  25.870  26.555  1.00  0.00     0.031 C 
ATOM     37  C   UNL A   1      39.128  27.154  28.952  1.00  0.00     0.029 A 
ATOM     38  N   UNL A   1      40.780  28.660  28.901  1.00  0.00    -0.354 N 
ATOM     39  C   UNL A   1      44.602  27.700  27.126  1.00  0.00     0.074 A 
ATOM     40  C   UNL A   1      44.600  26.361  26.586  1.00  0.00     0.031 C 
ATOM     41  C   UNL A   1      38.724  28.217  29.665  1.00  0.00     0.029 A 
ATOM     42  C   UNL A   1      39.788  29.214  29.676  1.00  0.00     0.049 A 
ATOM     43  H   UNL A   1      41.630  29.116  28.705  1.00  0.00     0.167 HD
ATOM     44  C   UNL A   1      45.677  28.522  27.099  1.00  0.00     0.034 A 
ATOM     45  C   UNL A   1      39.746  30.392  30.328  1.00  0.00     0.034 A 
ATOM     46  C   UNL A   1      45.651  29.876  27.578  1.00  0.00     0.049 A 
ATOM     47  C   UNL A   1      40.912  31.332  30.202  1.00  0.00     0.074 A 
ATOM     48  C   UNL A   1      46.637  30.841  27.488  1.00  0.00     0.029 A 
ATOM     49  N   UNL A   1      44.581  30.452  28.245  1.00  0.00    -0.354 N 
ATOM     50  N   UNL A   1      42.057  31.147  29.591  1.00  0.00    -0.248 NA
ATOM     51  C   UNL A   1      40.763  32.659  30.815  1.00  0.00     0.031 C 
ATOM     52  C   UNL A   1      46.175  31.992  28.134  1.00  0.00     0.029 A 
ATOM     53  C   UNL A   1      44.885  31.758  28.587  1.00  0.00     0.049 A 
ATOM     54  H   UNL A   1      43.730  30.000  28.445  1.00  0.00     0.167 HD
ATOM     55  C   UNL A   1      42.754  32.343  29.716  1.00  0.00     0.074 A 
ATOM     56  C   UNL A   1      41.890  33.252  30.444  1.00  0.00     0.031 C 
ATOM     57  C   UNL A   1      43.998  32.659  29.279  1.00  0.00     0.034 A 
BRANCH  44  58
ATOM     58  C   UNL A   1      46.949  27.984  26.493  1.00  0.00     0.023 A 
ATOM     59  C   UNL A   1      47.943  27.417  27.320  1.00  0.00     0.012 A 
ATOM     60  C   UNL A   1      47.161  28.030  25.101  1.00  0.00     0.148 A 
ATOM     61  C   UNL A   1      49.147  26.964  26.784  1.00  0.00     0.002 A 
ATOM     62  C   UNL A   1      48.340  27.524  24.567  1.00  0.00     0.091 A 
ATOM     63  F   UNL A   1      46.221  28.592  24.328  1.00  0.00    -0.205 F 
ATOM     64  C   UNL A   1      49.341  27.008  25.406  1.00  0.00     0.022 A 
BRANCH  62  65
ATOM     65  S   UNL A   1      48.645  27.452  22.798  1.00  0.00     0.127 S 
ATOM     66  O   UNL A   1      49.958  28.087  22.700  1.00  0.00    -0.237 OA
ATOM     67  O   UNL A   1      48.643  26.011  22.544  1.00  0.00    -0.237 OA
ATOM     68  O   UNL A   1      47.548  28.178  22.174  1.00  0.00    -0.744 OA
ENDBRANCH  62  65
ENDBRANCH  44  58
BRANCH  45  69
ATOM     69  C   UNL A   1      38.523  30.760  31.093  1.00  0.00     0.023 A 
ATOM     70  C   UNL A   1      38.486  30.566  32.488  1.00  0.00     0.012 A 
ATOM     71  C   UNL A   1      37.426  31.368  30.453  1.00  0.00     0.148 A 
ATOM     72  C   UNL A   1      37.367  30.949  33.227  1.00  0.00     0.002 A 
ATOM     73  C   UNL A   1      36.340  31.801  31.203  1.00  0.00     0.091 A 
ATOM     74  F   UNL A   1      37.484  31.540  29.125  1.00  0.00    -0.205 F 
ATOM     75  C   UNL A   1      36.300  31.577  32.589  1.00  0.00     0.022 A 
BRANCH  73  76
ATOM     76  S   UNL A   1      34.990  32.747  30.491  1.00  0.00     0.127 S 
ATOM     77  O   UNL A   1      34.076  32.864  31.624  1.00  0.00    -0.237 OA
ATOM     78  O   UNL A   1      35.664  33.989  30.111  1.00  0.00    -0.237 OA
ATOM     79  O   UNL A   1      34.503  31.958  29.368  1.00  0.00    -0.744 OA
ENDBRANCH  73  76
ENDBRANCH  45  69
BRANCH  57  80
ATOM     80  C   UNL A   1      44.493  34.058  29.537  1.00  0.00     0.023 A 
ATOM     81  C   UNL A   1      45.155  34.363  30.742  1.00  0.00     0.012 A 
ATOM     82  C   UNL A   1      44.353  35.055  28.551  1.00  0.00     0.148 A 
ATOM     83  C   UNL A   1      45.636  35.651  30.978  1.00  0.00     0.002 A 
ATOM     84  C   UNL A   1      44.883  36.319  28.771  1.00  0.00     0.091 A 
ATOM     85  F   UNL A   1      43.704  34.749  27.419  1.00  0.00    -0.205 F 
ATOM     86  C   UNL A   1      45.511  36.624  29.990  1.00  0.00     0.022 A 
BRANCH  84  87
ATOM     87  S   UNL A   1      44.860  37.600  27.513  1.00  0.00     0.127 S 
ATOM     88  O   UNL A   1      45.381  38.750  28.250  1.00  0.00    -0.237 OA
ATOM     89  O   UNL A   1      45.769  37.060  26.502  1.00  0.00    -0.237 OA
ATOM     90  O   UNL A   1      43.474  37.710  27.079  1.00  0.00    -0.744 OA
ENDBRANCH  84  87
ENDBRANCH  57  80
ENDBRANCH  31  32
ENDBRANCH  23  26
ENDBRANCH   1  22
TORSDOF 14
ENDMDL
