MODEL 1
REMARK VINA RESULT:     -11.9      0.000      0.000
REMARK SMILES O=C(CCn1ccnc1)N[C@H]1C=C[C@@H](C(=O)NCCCNC(=O)c2ccc(-c3c4nc(c(-c5cccc(S(=O)(=O)[O-])c5F)c5ccc([nH]5)c(-c5cccc(S(=O)(=O)[O-])c5F)c5nc(c(-c6cccc(S(=O)(=O)[O-])c6F)c6ccc3[nH]6)C=C5)C=C4)cc2)C1
REMARK SMILES IDX 18 1 17 2 15 3 16 4 14 6 11 7 12 8 87 9 13 10 10 11 1 12
REMARK SMILES IDX 2 13 3 15 4 16 5 17 6 18 9 19 7 20 8 21 19 22 20 23 21 24
REMARK SMILES IDX 22 25 23 27 24 28 25 29 86 30 26 31 85 32 27 33 28 34 29 35
REMARK SMILES IDX 79 36 30 37 84 38 78 39 80 40 31 41 83 42 77 43 76 44 32 46
REMARK SMILES IDX 64 47 44 48 63 49 45 50 48 51 62 52 81 53 46 54 47 55 61 57
REMARK SMILES IDX 82 58 49 59 33 60 34 61 42 62 35 63 37 64 43 65 36 66 38 67
REMARK SMILES IDX 39 68 40 69 41 70 65 71 66 72 74 73 67 74 69 75 75 76 68 77
REMARK SMILES IDX 70 78 71 79 72 80 73 81 50 82 51 83 59 84 52 85 54 86 60 87
REMARK SMILES IDX 53 88 55 89 56 90 57 91 58 92
REMARK H PARENT 17 5 10 14 21 26 80 45 48 56
REMARK Flexibility Score: inf
ROOT
ATOM      1  C   UNL A   1      37.557  20.606  24.799  1.00  0.00     0.117 C 
ENDROOT
BRANCH   1   2
ATOM      2  N   UNL A   1      36.156  20.308  25.045  1.00  0.00    -0.356 N 
ATOM      3  C   UNL A   1      35.099  21.115  25.339  1.00  0.00     0.227 C 
ATOM      4  O   UNL A   1      33.975  20.607  25.313  1.00  0.00    -0.274 OA
ATOM      5  H   UNL A   1      35.930  19.351  24.989  1.00  0.00     0.163 HD
BRANCH   3   6
ATOM      6  C   UNL A   1      35.247  22.594  25.702  1.00  0.00     0.103 C 
ATOM      7  C   UNL A   1      34.548  24.794  24.888  1.00  0.00     0.106 C 
ATOM      8  C   UNL A   1      33.726  24.344  26.056  1.00  0.00    -0.006 C 
ATOM      9  C   UNL A   1      35.323  23.531  24.492  1.00  0.00     0.047 C 
ATOM     10  C   UNL A   1      34.128  23.156  26.522  1.00  0.00    -0.016 C 
BRANCH   7  11
ATOM     11  N   UNL A   1      33.660  25.274  23.851  1.00  0.00    -0.350 N 
ATOM     12  O   UNL A   1      33.909  27.486  24.396  1.00  0.00    -0.275 OA
ATOM     13  C   UNL A   1      33.385  26.613  23.707  1.00  0.00     0.222 C 
ATOM     14  H   UNL A   1      33.246  24.629  23.234  1.00  0.00     0.164 HD
BRANCH  13  15
ATOM     15  C   UNL A   1      32.322  26.978  22.691  1.00  0.00     0.122 C 
BRANCH  15  16
ATOM     16  C   UNL A   1      31.926  28.450  22.693  1.00  0.00     0.133 C 
BRANCH  16  17
ATOM     17  N   UNL A   1      30.509  28.745  22.622  1.00  0.00    -0.337 N 
ATOM     18  C   UNL A   1      29.966  29.815  21.964  1.00  0.00     0.107 A 
ATOM     19  C   UNL A   1      29.483  28.077  23.219  1.00  0.00     0.199 A 
ATOM     20  C   UNL A   1      28.605  29.661  22.092  1.00  0.00     0.130 A 
ATOM     21  N   UNL A   1      28.320  28.579  22.880  1.00  0.00    -0.245 NA
ENDBRANCH  16  17
ENDBRANCH  15  16
ENDBRANCH  13  15
ENDBRANCH   7  11
ENDBRANCH   3   6
ENDBRANCH   1   2
BRANCH   1  22
ATOM     22  C   UNL A   1      38.499  19.449  25.110  1.00  0.00     0.042 C 
BRANCH  22  23
ATOM     23  C   UNL A   1      39.567  19.821  26.115  1.00  0.00     0.118 C 
BRANCH  23  24
ATOM     24  N   UNL A   1      40.816  19.052  25.955  1.00  0.00    -0.352 N 
ATOM     25  C   UNL A   1      42.110  19.542  25.868  1.00  0.00     0.251 C 
ATOM     26  H   UNL A   1      40.718  18.075  25.901  1.00  0.00     0.163 HD
ATOM     27  O   UNL A   1      43.015  18.851  25.388  1.00  0.00    -0.269 OA
BRANCH  25  28
ATOM     28  C   UNL A   1      42.390  20.895  26.379  1.00  0.00     0.039 A 
ATOM     29  C   UNL A   1      42.783  21.974  25.582  1.00  0.00     0.014 A 
ATOM     30  C   UNL A   1      42.187  21.077  27.736  1.00  0.00     0.014 A 
ATOM     31  C   UNL A   1      42.938  23.220  26.190  1.00  0.00     0.010 A 
ATOM     32  C   UNL A   1      41.960  22.324  28.215  1.00  0.00     0.010 A 
ATOM     33  C   UNL A   1      42.526  23.372  27.524  1.00  0.00    -0.014 A 
BRANCH  33  34
ATOM     34  C   UNL A   1      42.567  24.623  28.260  1.00  0.00     0.031 A 
ATOM     35  C   UNL A   1      41.357  25.439  28.041  1.00  0.00     0.074 A 
ATOM     36  C   UNL A   1      43.459  24.845  29.255  1.00  0.00     0.049 A 
ATOM     37  N   UNL A   1      41.241  26.469  27.271  1.00  0.00    -0.248 NA
ATOM     38  C   UNL A   1      40.073  24.905  28.524  1.00  0.00     0.031 C 
ATOM     39  C   UNL A   1      44.467  23.918  29.803  1.00  0.00     0.029 A 
ATOM     40  N   UNL A   1      43.560  25.905  30.101  1.00  0.00    -0.354 N 
ATOM     41  C   UNL A   1      39.927  26.889  27.445  1.00  0.00     0.074 A 
ATOM     42  C   UNL A   1      39.217  25.738  27.927  1.00  0.00     0.031 C 
ATOM     43  C   UNL A   1      44.888  24.358  31.010  1.00  0.00     0.029 A 
ATOM     44  C   UNL A   1      44.318  25.669  31.249  1.00  0.00     0.049 A 
ATOM     45  H   UNL A   1      43.132  26.772  29.917  1.00  0.00     0.167 HD
ATOM     46  C   UNL A   1      39.641  28.217  27.546  1.00  0.00     0.034 A 
ATOM     47  C   UNL A   1      44.428  26.483  32.331  1.00  0.00     0.034 A 
ATOM     48  C   UNL A   1      40.785  29.008  27.135  1.00  0.00     0.049 A 
ATOM     49  C   UNL A   1      44.005  27.831  31.891  1.00  0.00     0.074 A 
ATOM     50  C   UNL A   1      41.563  29.102  25.998  1.00  0.00     0.029 A 
ATOM     51  N   UNL A   1      41.530  29.558  28.152  1.00  0.00    -0.354 N 
ATOM     52  N   UNL A   1      44.659  28.538  31.013  1.00  0.00    -0.248 NA
ATOM     53  C   UNL A   1      42.612  28.199  32.084  1.00  0.00     0.031 C 
ATOM     54  C   UNL A   1      42.895  29.300  26.473  1.00  0.00     0.029 A 
ATOM     55  C   UNL A   1      42.857  29.404  27.867  1.00  0.00     0.049 A 
ATOM     56  H   UNL A   1      41.165  29.992  28.957  1.00  0.00     0.167 HD
ATOM     57  C   UNL A   1      43.665  29.083  30.211  1.00  0.00     0.074 A 
ATOM     58  C   UNL A   1      42.434  28.947  30.991  1.00  0.00     0.031 C 
ATOM     59  C   UNL A   1      43.886  29.299  28.880  1.00  0.00     0.034 A 
BRANCH  46  60
ATOM     60  C   UNL A   1      38.565  28.825  28.441  1.00  0.00     0.023 A 
ATOM     61  C   UNL A   1      37.676  29.731  27.814  1.00  0.00     0.012 A 
ATOM     62  C   UNL A   1      38.540  28.803  29.855  1.00  0.00     0.148 A 
ATOM     63  C   UNL A   1      36.910  30.645  28.543  1.00  0.00     0.002 A 
ATOM     64  C   UNL A   1      37.736  29.677  30.581  1.00  0.00     0.091 A 
ATOM     65  F   UNL A   1      39.354  28.007  30.542  1.00  0.00    -0.205 F 
ATOM     66  C   UNL A   1      36.950  30.626  29.930  1.00  0.00     0.022 A 
BRANCH  64  67
ATOM     67  S   UNL A   1      37.723  29.679  32.381  1.00  0.00     0.127 S 
ATOM     68  O   UNL A   1      36.654  30.633  32.660  1.00  0.00    -0.237 OA
ATOM     69  O   UNL A   1      37.402  28.281  32.673  1.00  0.00    -0.237 OA
ATOM     70  O   UNL A   1      39.061  30.083  32.795  1.00  0.00    -0.744 OA
ENDBRANCH  64  67
ENDBRANCH  46  60
BRANCH  47  71
ATOM     71  C   UNL A   1      44.622  26.172  33.769  1.00  0.00     0.023 A 
ATOM     72  C   UNL A   1      45.911  26.256  34.338  1.00  0.00     0.012 A 
ATOM     73  C   UNL A   1      43.516  26.103  34.644  1.00  0.00     0.148 A 
ATOM     74  C   UNL A   1      46.090  26.314  35.727  1.00  0.00     0.002 A 
ATOM     75  C   UNL A   1      43.699  26.160  36.025  1.00  0.00     0.091 A 
ATOM     76  F   UNL A   1      42.284  26.076  34.120  1.00  0.00    -0.205 F 
ATOM     77  C   UNL A   1      44.984  26.278  36.570  1.00  0.00     0.022 A 
BRANCH  75  78
ATOM     78  S   UNL A   1      42.319  26.166  37.179  1.00  0.00     0.127 S 
ATOM     79  O   UNL A   1      41.737  24.844  36.956  1.00  0.00    -0.237 OA
ATOM     80  O   UNL A   1      43.000  26.326  38.461  1.00  0.00    -0.237 OA
ATOM     81  O   UNL A   1      41.470  27.277  36.773  1.00  0.00    -0.744 OA
ENDBRANCH  75  78
ENDBRANCH  47  71
BRANCH  59  82
ATOM     82  C   UNL A   1      45.308  29.215  28.381  1.00  0.00     0.023 A 
ATOM     83  C   UNL A   1      45.913  28.005  27.978  1.00  0.00     0.012 A 
ATOM     84  C   UNL A   1      45.995  30.420  28.164  1.00  0.00     0.148 A 
ATOM     85  C   UNL A   1      47.183  28.000  27.390  1.00  0.00     0.002 A 
ATOM     86  C   UNL A   1      47.234  30.415  27.538  1.00  0.00     0.091 A 
ATOM     87  F   UNL A   1      45.405  31.561  28.553  1.00  0.00    -0.205 F 
ATOM     88  C   UNL A   1      47.837  29.207  27.158  1.00  0.00     0.022 A 
BRANCH  86  89
ATOM     89  S   UNL A   1      48.064  31.944  27.103  1.00  0.00     0.127 S 
ATOM     90  O   UNL A   1      49.323  31.459  26.541  1.00  0.00    -0.237 OA
ATOM     91  O   UNL A   1      47.145  32.534  26.130  1.00  0.00    -0.237 OA
ATOM     92  O   UNL A   1      48.184  32.703  28.343  1.00  0.00    -0.744 OA
ENDBRANCH  86  89
ENDBRANCH  59  82
ENDBRANCH  33  34
ENDBRANCH  25  28
ENDBRANCH  23  24
ENDBRANCH  22  23
ENDBRANCH   1  22
TORSDOF 17
ENDMDL
MODEL 2
REMARK VINA RESULT:     -11.8      1.775      2.250
REMARK SMILES O=C(CCn1ccnc1)N[C@H]1C=C[C@@H](C(=O)NCCCNC(=O)c2ccc(-c3c4nc(c(-c5cccc(S(=O)(=O)[O-])c5F)c5ccc([nH]5)c(-c5cccc(S(=O)(=O)[O-])c5F)c5nc(c(-c6cccc(S(=O)(=O)[O-])c6F)c6ccc3[nH]6)C=C5)C=C4)cc2)C1
REMARK SMILES IDX 18 1 17 2 15 3 16 4 14 6 11 7 12 8 87 9 13 10 10 11 1 12
REMARK SMILES IDX 2 13 3 15 4 16 5 17 6 18 9 19 7 20 8 21 19 22 20 23 21 24
REMARK SMILES IDX 22 25 23 27 24 28 25 29 86 30 26 31 85 32 27 33 28 34 29 35
REMARK SMILES IDX 79 36 30 37 84 38 78 39 80 40 31 41 83 42 77 43 76 44 32 46
REMARK SMILES IDX 64 47 44 48 63 49 45 50 48 51 62 52 81 53 46 54 47 55 61 57
REMARK SMILES IDX 82 58 49 59 33 60 34 61 42 62 35 63 37 64 43 65 36 66 38 67
REMARK SMILES IDX 39 68 40 69 41 70 65 71 66 72 74 73 67 74 69 75 75 76 68 77
REMARK SMILES IDX 70 78 71 79 72 80 73 81 50 82 51 83 59 84 52 85 54 86 60 87
REMARK SMILES IDX 53 88 55 89 56 90 57 91 58 92
REMARK H PARENT 17 5 10 14 21 26 80 45 48 56
REMARK Flexibility Score: inf
ROOT
ATOM      1  C   UNL A   1      37.464  20.016  24.754  1.00  0.00     0.117 C 
ENDROOT
BRANCH   1   2
ATOM      2  N   UNL A   1      37.752  21.436  24.867  1.00  0.00    -0.356 N 
ATOM      3  C   UNL A   1      37.007  22.475  25.338  1.00  0.00     0.227 C 
ATOM      4  O   UNL A   1      37.579  23.558  25.488  1.00  0.00    -0.274 OA
ATOM      5  H   UNL A   1      38.647  21.694  24.544  1.00  0.00     0.163 HD
BRANCH   3   6
ATOM      6  C   UNL A   1      35.520  22.357  25.672  1.00  0.00     0.103 C 
ATOM      7  C   UNL A   1      33.549  23.783  25.945  1.00  0.00     0.106 C 
ATOM      8  C   UNL A   1      33.552  23.082  24.623  1.00  0.00    -0.006 C 
ATOM      9  C   UNL A   1      34.964  23.533  26.482  1.00  0.00     0.047 C 
ATOM     10  C   UNL A   1      34.611  22.277  24.485  1.00  0.00    -0.016 C 
BRANCH   7  11
ATOM     11  N   UNL A   1      33.254  25.183  25.731  1.00  0.00    -0.350 N 
ATOM     12  O   UNL A   1      31.103  25.046  26.510  1.00  0.00    -0.275 OA
ATOM     13  C   UNL A   1      32.013  25.704  26.011  1.00  0.00     0.222 C 
ATOM     14  H   UNL A   1      33.956  25.776  25.378  1.00  0.00     0.164 HD
BRANCH  13  15
ATOM     15  C   UNL A   1      31.777  27.142  25.598  1.00  0.00     0.122 C 
BRANCH  15  16
ATOM     16  C   UNL A   1      31.233  27.312  24.184  1.00  0.00     0.133 C 
BRANCH  16  17
ATOM     17  N   UNL A   1      32.024  26.749  23.108  1.00  0.00    -0.337 N 
ATOM     18  C   UNL A   1      31.634  25.702  22.317  1.00  0.00     0.107 A 
ATOM     19  C   UNL A   1      33.283  27.097  22.723  1.00  0.00     0.199 A 
ATOM     20  C   UNL A   1      32.643  25.554  21.395  1.00  0.00     0.130 A 
ATOM     21  N   UNL A   1      33.664  26.425  21.663  1.00  0.00    -0.245 NA
ENDBRANCH  16  17
ENDBRANCH  15  16
ENDBRANCH  13  15
ENDBRANCH   7  11
ENDBRANCH   3   6
ENDBRANCH   1   2
BRANCH   1  22
ATOM     22  C   UNL A   1      38.520  19.119  25.387  1.00  0.00     0.042 C 
BRANCH  22  23
ATOM     23  C   UNL A   1      39.723  19.893  25.881  1.00  0.00     0.118 C 
BRANCH  23  24
ATOM     24  N   UNL A   1      40.955  19.084  25.946  1.00  0.00    -0.352 N 
ATOM     25  C   UNL A   1      42.264  19.533  26.028  1.00  0.00     0.251 C 
ATOM     26  H   UNL A   1      40.833  18.108  25.928  1.00  0.00     0.163 HD
ATOM     27  O   UNL A   1      43.205  18.793  25.723  1.00  0.00    -0.269 OA
BRANCH  25  28
ATOM     28  C   UNL A   1      42.512  20.904  26.507  1.00  0.00     0.039 A 
ATOM     29  C   UNL A   1      42.866  21.976  25.682  1.00  0.00     0.014 A 
ATOM     30  C   UNL A   1      42.321  21.109  27.863  1.00  0.00     0.014 A 
ATOM     31  C   UNL A   1      42.993  23.239  26.262  1.00  0.00     0.010 A 
ATOM     32  C   UNL A   1      42.065  22.360  28.317  1.00  0.00     0.010 A 
ATOM     33  C   UNL A   1      42.593  23.408  27.597  1.00  0.00    -0.014 A 
BRANCH  33  34
ATOM     34  C   UNL A   1      42.608  24.675  28.306  1.00  0.00     0.031 A 
ATOM     35  C   UNL A   1      41.357  25.435  28.117  1.00  0.00     0.074 A 
ATOM     36  C   UNL A   1      43.527  24.956  29.261  1.00  0.00     0.049 A 
ATOM     37  N   UNL A   1      41.169  26.442  27.332  1.00  0.00    -0.248 NA
ATOM     38  C   UNL A   1      40.116  24.858  28.660  1.00  0.00     0.031 C 
ATOM     39  C   UNL A   1      44.593  24.084  29.789  1.00  0.00     0.029 A 
ATOM     40  N   UNL A   1      43.613  26.037  30.081  1.00  0.00    -0.354 N 
ATOM     41  C   UNL A   1      39.846  26.810  27.548  1.00  0.00     0.074 A 
ATOM     42  C   UNL A   1      39.204  25.641  28.079  1.00  0.00     0.031 C 
ATOM     43  C   UNL A   1      45.039  24.567  30.970  1.00  0.00     0.029 A 
ATOM     44  C   UNL A   1      44.423  25.858  31.204  1.00  0.00     0.049 A 
ATOM     45  H   UNL A   1      43.143  26.882  29.897  1.00  0.00     0.167 HD
ATOM     46  C   UNL A   1      39.506  28.127  27.633  1.00  0.00     0.034 A 
ATOM     47  C   UNL A   1      44.539  26.699  32.264  1.00  0.00     0.034 A 
ATOM     48  C   UNL A   1      40.600  28.957  27.162  1.00  0.00     0.049 A 
ATOM     49  C   UNL A   1      44.043  28.019  31.814  1.00  0.00     0.074 A 
ATOM     50  C   UNL A   1      41.330  29.059  25.995  1.00  0.00     0.029 A 
ATOM     51  N   UNL A   1      41.358  29.559  28.139  1.00  0.00    -0.354 N 
ATOM     52  N   UNL A   1      44.633  28.733  30.898  1.00  0.00    -0.248 NA
ATOM     53  C   UNL A   1      42.644  28.332  32.053  1.00  0.00     0.031 C 
ATOM     54  C   UNL A   1      42.669  29.322  26.415  1.00  0.00     0.029 A 
ATOM     55  C   UNL A   1      42.679  29.455  27.806  1.00  0.00     0.049 A 
ATOM     56  H   UNL A   1      41.005  29.994  28.948  1.00  0.00     0.167 HD
ATOM     57  C   UNL A   1      43.588  29.219  30.124  1.00  0.00     0.074 A 
ATOM     58  C   UNL A   1      42.394  29.048  30.953  1.00  0.00     0.031 C 
ATOM     59  C   UNL A   1      43.749  29.415  28.781  1.00  0.00     0.034 A 
BRANCH  46  60
ATOM     60  C   UNL A   1      38.440  28.709  28.556  1.00  0.00     0.023 A 
ATOM     61  C   UNL A   1      37.489  29.560  27.944  1.00  0.00     0.012 A 
ATOM     62  C   UNL A   1      38.470  28.719  29.970  1.00  0.00     0.148 A 
ATOM     63  C   UNL A   1      36.712  30.457  28.684  1.00  0.00     0.002 A 
ATOM     64  C   UNL A   1      37.657  29.575  30.707  1.00  0.00     0.091 A 
ATOM     65  F   UNL A   1      39.345  27.975  30.642  1.00  0.00    -0.205 F 
ATOM     66  C   UNL A   1      36.805  30.473  30.067  1.00  0.00     0.022 A 
BRANCH  64  67
ATOM     67  S   UNL A   1      37.713  29.618  32.507  1.00  0.00     0.127 S 
ATOM     68  O   UNL A   1      37.444  28.221  32.836  1.00  0.00    -0.237 OA
ATOM     69  O   UNL A   1      39.087  30.060  32.747  1.00  0.00    -0.237 OA
ATOM     70  O   UNL A   1      36.695  30.576  32.920  1.00  0.00    -0.744 OA
ENDBRANCH  64  67
ENDBRANCH  46  60
BRANCH  47  71
ATOM     71  C   UNL A   1      44.800  26.428  33.700  1.00  0.00     0.023 A 
ATOM     72  C   UNL A   1      46.094  26.626  34.229  1.00  0.00     0.012 A 
ATOM     73  C   UNL A   1      43.729  26.282  34.609  1.00  0.00     0.148 A 
ATOM     74  C   UNL A   1      46.308  26.720  35.611  1.00  0.00     0.002 A 
ATOM     75  C   UNL A   1      43.947  26.376  35.983  1.00  0.00     0.091 A 
ATOM     76  F   UNL A   1      42.489  26.146  34.123  1.00  0.00    -0.205 F 
ATOM     77  C   UNL A   1      45.233  26.607  36.487  1.00  0.00     0.022 A 
BRANCH  75  78
ATOM     78  S   UNL A   1      42.606  26.286  37.178  1.00  0.00     0.127 S 
ATOM     79  O   UNL A   1      41.776  27.424  36.784  1.00  0.00    -0.237 OA
ATOM     80  O   UNL A   1      42.029  24.977  36.885  1.00  0.00    -0.237 OA
ATOM     81  O   UNL A   1      43.234  26.420  38.486  1.00  0.00    -0.744 OA
ENDBRANCH  75  78
ENDBRANCH  47  71
BRANCH  59  82
ATOM     82  C   UNL A   1      45.154  29.380  28.229  1.00  0.00     0.023 A 
ATOM     83  C   UNL A   1      46.057  30.457  28.353  1.00  0.00     0.012 A 
ATOM     84  C   UNL A   1      45.620  28.161  27.713  1.00  0.00     0.148 A 
ATOM     85  C   UNL A   1      47.391  30.323  27.951  1.00  0.00     0.002 A 
ATOM     86  C   UNL A   1      46.955  28.017  27.360  1.00  0.00     0.091 A 
ATOM     87  F   UNL A   1      44.748  27.147  27.603  1.00  0.00    -0.205 F 
ATOM     88  C   UNL A   1      47.843  29.098  27.467  1.00  0.00     0.022 A 
BRANCH  86  89
ATOM     89  S   UNL A   1      47.618  26.431  26.849  1.00  0.00     0.127 S 
ATOM     90  O   UNL A   1      46.832  26.144  25.651  1.00  0.00    -0.237 OA
ATOM     91  O   UNL A   1      49.025  26.745  26.597  1.00  0.00    -0.237 OA
ATOM     92  O   UNL A   1      47.403  25.525  27.970  1.00  0.00    -0.744 OA
ENDBRANCH  86  89
ENDBRANCH  59  82
ENDBRANCH  33  34
ENDBRANCH  25  28
ENDBRANCH  23  24
ENDBRANCH  22  23
ENDBRANCH   1  22
TORSDOF 17
ENDMDL
MODEL 3
REMARK VINA RESULT:     -11.6      4.655      9.488
REMARK SMILES O=C(CCn1ccnc1)N[C@H]1C=C[C@@H](C(=O)NCCCNC(=O)c2ccc(-c3c4nc(c(-c5cccc(S(=O)(=O)[O-])c5F)c5ccc([nH]5)c(-c5cccc(S(=O)(=O)[O-])c5F)c5nc(c(-c6cccc(S(=O)(=O)[O-])c6F)c6ccc3[nH]6)C=C5)C=C4)cc2)C1
REMARK SMILES IDX 18 1 17 2 15 3 16 4 14 6 11 7 12 8 87 9 13 10 10 11 1 12
REMARK SMILES IDX 2 13 3 15 4 16 5 17 6 18 9 19 7 20 8 21 19 22 20 23 21 24
REMARK SMILES IDX 22 25 23 27 24 28 25 29 86 30 26 31 85 32 27 33 28 34 29 35
REMARK SMILES IDX 79 36 30 37 84 38 78 39 80 40 31 41 83 42 77 43 76 44 32 46
REMARK SMILES IDX 64 47 44 48 63 49 45 50 48 51 62 52 81 53 46 54 47 55 61 57
REMARK SMILES IDX 82 58 49 59 33 60 34 61 42 62 35 63 37 64 43 65 36 66 38 67
REMARK SMILES IDX 39 68 40 69 41 70 65 71 66 72 74 73 67 74 69 75 75 76 68 77
REMARK SMILES IDX 70 78 71 79 72 80 73 81 50 82 51 83 59 84 52 85 54 86 60 87
REMARK SMILES IDX 53 88 55 89 56 90 57 91 58 92
REMARK H PARENT 17 5 10 14 21 26 80 45 48 56
REMARK Flexibility Score: inf
ROOT
ATOM      1  C   UNL A   1      31.614  30.728  25.928  1.00  0.00     0.117 C 
ENDROOT
BRANCH   1   2
ATOM      2  N   UNL A   1      32.667  30.001  26.617  1.00  0.00    -0.356 N 
ATOM      3  C   UNL A   1      33.390  28.903  26.260  1.00  0.00     0.227 C 
ATOM      4  O   UNL A   1      34.357  28.609  26.967  1.00  0.00    -0.274 OA
ATOM      5  H   UNL A   1      32.898  30.367  27.502  1.00  0.00     0.163 HD
BRANCH   3   6
ATOM      6  C   UNL A   1      33.052  28.034  25.048  1.00  0.00     0.103 C 
ATOM      7  C   UNL A   1      31.266  27.742  23.400  1.00  0.00     0.106 C 
ATOM      8  C   UNL A   1      32.429  28.497  22.835  1.00  0.00    -0.006 C 
ATOM      9  C   UNL A   1      31.561  27.710  24.905  1.00  0.00     0.047 C 
ATOM     10  C   UNL A   1      33.419  28.628  23.724  1.00  0.00    -0.016 C 
BRANCH   7  11
ATOM     11  N   UNL A   1      30.046  28.447  23.067  1.00  0.00    -0.350 N 
ATOM     12  O   UNL A   1      28.658  26.748  23.730  1.00  0.00    -0.275 OA
ATOM     13  C   UNL A   1      28.814  27.864  23.237  1.00  0.00     0.222 C 
ATOM     14  H   UNL A   1      30.101  29.364  22.713  1.00  0.00     0.164 HD
BRANCH  13  15
ATOM     15  C   UNL A   1      27.623  28.637  22.708  1.00  0.00     0.122 C 
BRANCH  15  16
ATOM     16  C   UNL A   1      27.397  29.986  23.379  1.00  0.00     0.133 C 
BRANCH  16  17
ATOM     17  N   UNL A   1      27.768  31.164  22.620  1.00  0.00    -0.337 N 
ATOM     18  C   UNL A   1      27.796  31.235  21.253  1.00  0.00     0.107 A 
ATOM     19  C   UNL A   1      28.200  32.365  23.094  1.00  0.00     0.199 A 
ATOM     20  C   UNL A   1      28.125  32.540  20.969  1.00  0.00     0.130 A 
ATOM     21  N   UNL A   1      28.379  33.229  22.123  1.00  0.00    -0.245 NA
ENDBRANCH  16  17
ENDBRANCH  15  16
ENDBRANCH  13  15
ENDBRANCH   7  11
ENDBRANCH   3   6
ENDBRANCH   1   2
BRANCH   1  22
ATOM     22  C   UNL A   1      31.317  32.099  26.523  1.00  0.00     0.042 C 
BRANCH  22  23
ATOM     23  C   UNL A   1      32.405  32.575  27.461  1.00  0.00     0.118 C 
BRANCH  23  24
ATOM     24  N   UNL A   1      32.310  34.010  27.789  1.00  0.00    -0.352 N 
ATOM     25  C   UNL A   1      33.046  34.719  28.726  1.00  0.00     0.251 C 
ATOM     26  H   UNL A   1      31.643  34.526  27.283  1.00  0.00     0.163 HD
ATOM     27  O   UNL A   1      32.643  35.805  29.154  1.00  0.00    -0.269 OA
BRANCH  25  28
ATOM     28  C   UNL A   1      34.330  34.161  29.185  1.00  0.00     0.039 A 
ATOM     29  C   UNL A   1      34.521  33.533  30.420  1.00  0.00     0.014 A 
ATOM     30  C   UNL A   1      35.376  34.239  28.281  1.00  0.00     0.014 A 
ATOM     31  C   UNL A   1      35.773  32.980  30.690  1.00  0.00     0.010 A 
ATOM     32  C   UNL A   1      36.418  33.382  28.392  1.00  0.00     0.010 A 
ATOM     33  C   UNL A   1      36.720  32.924  29.656  1.00  0.00    -0.014 A 
BRANCH  33  34
ATOM     34  C   UNL A   1      38.035  32.320  29.776  1.00  0.00     0.031 A 
ATOM     35  C   UNL A   1      38.051  30.921  29.305  1.00  0.00     0.074 A 
ATOM     36  C   UNL A   1      39.151  33.056  29.994  1.00  0.00     0.049 A 
ATOM     37  N   UNL A   1      38.039  29.854  30.033  1.00  0.00    -0.248 NA
ATOM     38  C   UNL A   1      37.790  30.674  27.877  1.00  0.00     0.031 C 
ATOM     39  C   UNL A   1      39.272  34.523  30.093  1.00  0.00     0.029 A 
ATOM     40  N   UNL A   1      40.451  32.662  30.025  1.00  0.00    -0.354 N 
ATOM     41  C   UNL A   1      38.098  28.808  29.119  1.00  0.00     0.074 A 
ATOM     42  C   UNL A   1      37.613  29.351  27.882  1.00  0.00     0.031 C 
ATOM     43  C   UNL A   1      40.563  34.889  29.929  1.00  0.00     0.029 A 
ATOM     44  C   UNL A   1      41.380  33.694  29.883  1.00  0.00     0.049 A 
ATOM     45  H   UNL A   1      40.717  31.721  30.141  1.00  0.00     0.167 HD
ATOM     46  C   UNL A   1      38.890  27.726  29.366  1.00  0.00     0.034 A 
ATOM     47  C   UNL A   1      42.720  33.561  29.699  1.00  0.00     0.034 A 
ATOM     48  C   UNL A   1      39.323  27.730  30.751  1.00  0.00     0.049 A 
ATOM     49  C   UNL A   1      43.075  32.194  30.143  1.00  0.00     0.074 A 
ATOM     50  C   UNL A   1      38.696  27.749  31.981  1.00  0.00     0.029 A 
ATOM     51  N   UNL A   1      40.612  28.152  30.974  1.00  0.00    -0.354 N 
ATOM     52  N   UNL A   1      42.979  31.793  31.379  1.00  0.00    -0.248 NA
ATOM     53  C   UNL A   1      43.097  31.142  29.140  1.00  0.00     0.031 C 
ATOM     54  C   UNL A   1      39.506  28.595  32.798  1.00  0.00     0.029 A 
ATOM     55  C   UNL A   1      40.629  28.980  32.061  1.00  0.00     0.049 A 
ATOM     56  H   UNL A   1      41.397  27.899  30.436  1.00  0.00     0.167 HD
ATOM     57  C   UNL A   1      42.440  30.517  31.279  1.00  0.00     0.074 A 
ATOM     58  C   UNL A   1      42.655  30.125  29.886  1.00  0.00     0.031 C 
ATOM     59  C   UNL A   1      41.599  30.039  32.244  1.00  0.00     0.034 A 
BRANCH  46  60
ATOM     60  C   UNL A   1      39.671  26.943  28.316  1.00  0.00     0.023 A 
ATOM     61  C   UNL A   1      39.606  25.533  28.419  1.00  0.00     0.012 A 
ATOM     62  C   UNL A   1      40.661  27.462  27.449  1.00  0.00     0.148 A 
ATOM     63  C   UNL A   1      40.545  24.700  27.804  1.00  0.00     0.002 A 
ATOM     64  C   UNL A   1      41.563  26.627  26.795  1.00  0.00     0.091 A 
ATOM     65  F   UNL A   1      40.824  28.774  27.301  1.00  0.00    -0.205 F 
ATOM     66  C   UNL A   1      41.533  25.249  27.000  1.00  0.00     0.022 A 
BRANCH  64  67
ATOM     67  S   UNL A   1      42.847  27.281  25.715  1.00  0.00     0.127 S 
ATOM     68  O   UNL A   1      43.751  27.895  26.683  1.00  0.00    -0.237 OA
ATOM     69  O   UNL A   1      43.349  26.060  25.083  1.00  0.00    -0.237 OA
ATOM     70  O   UNL A   1      42.178  28.196  24.799  1.00  0.00    -0.744 OA
ENDBRANCH  64  67
ENDBRANCH  46  60
BRANCH  47  71
ATOM     71  C   UNL A   1      43.689  34.398  28.950  1.00  0.00     0.023 A 
ATOM     72  C   UNL A   1      43.797  34.264  27.548  1.00  0.00     0.012 A 
ATOM     73  C   UNL A   1      44.275  35.533  29.552  1.00  0.00     0.148 A 
ATOM     74  C   UNL A   1      44.425  35.246  26.770  1.00  0.00     0.002 A 
ATOM     75  C   UNL A   1      44.899  36.506  28.774  1.00  0.00     0.091 A 
ATOM     76  F   UNL A   1      44.137  35.700  30.873  1.00  0.00    -0.205 F 
ATOM     77  C   UNL A   1      44.965  36.372  27.382  1.00  0.00     0.022 A 
BRANCH  75  78
ATOM     78  S   UNL A   1      45.582  38.012  29.482  1.00  0.00     0.127 S 
ATOM     79  O   UNL A   1      45.974  37.565  30.818  1.00  0.00    -0.237 OA
ATOM     80  O   UNL A   1      46.695  38.292  28.579  1.00  0.00    -0.237 OA
ATOM     81  O   UNL A   1      44.497  38.983  29.464  1.00  0.00    -0.744 OA
ENDBRANCH  75  78
ENDBRANCH  47  71
BRANCH  59  82
ATOM     82  C   UNL A   1      41.515  30.803  33.545  1.00  0.00     0.023 A 
ATOM     83  C   UNL A   1      42.473  30.678  34.573  1.00  0.00     0.012 A 
ATOM     84  C   UNL A   1      40.525  31.790  33.657  1.00  0.00     0.148 A 
ATOM     85  C   UNL A   1      42.429  31.510  35.697  1.00  0.00     0.002 A 
ATOM     86  C   UNL A   1      40.513  32.646  34.751  1.00  0.00     0.091 A 
ATOM     87  F   UNL A   1      39.623  31.895  32.670  1.00  0.00    -0.205 F 
ATOM     88  C   UNL A   1      41.457  32.503  35.779  1.00  0.00     0.022 A 
BRANCH  86  89
ATOM     89  S   UNL A   1      39.362  34.017  34.848  1.00  0.00     0.127 S 
ATOM     90  O   UNL A   1      39.755  34.828  33.698  1.00  0.00    -0.237 OA
ATOM     91  O   UNL A   1      38.067  33.350  34.714  1.00  0.00    -0.237 OA
ATOM     92  O   UNL A   1      39.580  34.634  36.152  1.00  0.00    -0.744 OA
ENDBRANCH  86  89
ENDBRANCH  59  82
ENDBRANCH  33  34
ENDBRANCH  25  28
ENDBRANCH  23  24
ENDBRANCH  22  23
ENDBRANCH   1  22
TORSDOF 17
ENDMDL
