MODEL 1
REMARK VINA RESULT:     -12.4      0.000      0.000
REMARK SMILES Cc1cc(C)cc(C(=O)N2CC[C@H](C(=O)NCCCNC(=O)c3ccc(-c4c5nc(c(-c6cccc(S(=O)(=O)[O-])c6F)c6ccc([nH]6)c(-c6cccc(S(=O)(=O)[O-])c6F)c6nc(c(-c7cccc(S(=O)(=O)[O-])c7F)c7ccc4[nH]7)C=C6)C=C5)cc3)[C@@H]2C)c1
REMARK SMILES IDX 18 1 17 2 16 3 14 4 15 5 13 7 10 8 11 9 86 10 12 11 87 12
REMARK SMILES IDX 8 13 9 14 7 15 1 16 2 17 3 18 88 19 4 20 5 21 6 22 19 23
REMARK SMILES IDX 20 24 21 25 22 27 23 28 24 29 85 30 25 31 84 32 26 33 27 34
REMARK SMILES IDX 28 35 78 36 29 37 83 38 77 39 79 40 30 41 82 42 76 43 75 44
REMARK SMILES IDX 31 46 63 47 43 48 62 49 44 50 47 51 61 52 80 53 45 54 46 55
REMARK SMILES IDX 60 57 81 58 48 59 32 60 33 61 41 62 34 63 36 64 42 65 35 66
REMARK SMILES IDX 37 67 38 68 39 69 40 70 64 71 65 72 73 73 66 74 68 75 74 76
REMARK SMILES IDX 67 77 69 78 70 79 71 80 72 81 49 82 50 83 58 84 51 85 53 86
REMARK SMILES IDX 59 87 52 88 54 89 55 90 56 91 57 92
REMARK H PARENT 16 6 20 26 79 45 47 56
REMARK Flexibility Score: inf
ROOT
ATOM      1  C   UNL A   1      31.477  29.204  25.496  1.00  0.00     0.042 C 
ENDROOT
BRANCH   1   2
ATOM      2  C   UNL A   1      31.191  28.983  24.016  1.00  0.00     0.117 C 
BRANCH   2   3
ATOM      3  N   UNL A   1      32.398  28.742  23.245  1.00  0.00    -0.356 N 
ATOM      4  C   UNL A   1      32.969  27.583  22.821  1.00  0.00     0.225 C 
ATOM      5  O   UNL A   1      33.972  27.665  22.110  1.00  0.00    -0.275 OA
ATOM      6  H   UNL A   1      32.886  29.557  22.987  1.00  0.00     0.163 HD
BRANCH   4   7
ATOM      7  C   UNL A   1      32.370  26.242  23.213  1.00  0.00     0.102 C 
ATOM      8  N   UNL A   1      33.575  24.366  24.060  1.00  0.00    -0.335 N 
ATOM      9  C   UNL A   1      33.879  24.454  22.650  1.00  0.00     0.121 C 
ATOM     10  C   UNL A   1      32.934  25.612  24.515  1.00  0.00     0.094 C 
ATOM     11  C   UNL A   1      32.678  25.206  22.114  1.00  0.00     0.037 C 
ATOM     12  C   UNL A   1      33.927  26.476  25.292  1.00  0.00     0.032 C 
BRANCH   8  13
ATOM     13  C   UNL A   1      33.971  23.240  24.760  1.00  0.00     0.254 C 
ATOM     14  O   UNL A   1      33.151  22.542  25.360  1.00  0.00    -0.269 OA
BRANCH  13  15
ATOM     15  C   UNL A   1      35.415  22.925  24.952  1.00  0.00     0.040 A 
ATOM     16  C   UNL A   1      38.522  24.352  26.643  1.00  0.00     0.044 C 
ATOM     17  C   UNL A   1      37.590  23.409  25.941  1.00  0.00    -0.050 A 
ATOM     18  C   UNL A   1      38.003  22.103  25.651  1.00  0.00     0.006 A 
ATOM     19  C   UNL A   1      36.281  23.798  25.623  1.00  0.00     0.017 A 
ATOM     20  C   UNL A   1      37.133  21.195  25.033  1.00  0.00    -0.050 A 
ATOM     21  C   UNL A   1      37.558  19.769  24.840  1.00  0.00     0.044 C 
ATOM     22  C   UNL A   1      35.850  21.622  24.667  1.00  0.00     0.017 A 
ENDBRANCH  13  15
ENDBRANCH   8  13
ENDBRANCH   4   7
ENDBRANCH   2   3
ENDBRANCH   1   2
BRANCH   1  23
ATOM     23  C   UNL A   1      32.783  29.936  25.794  1.00  0.00     0.118 C 
BRANCH  23  24
ATOM     24  N   UNL A   1      32.579  31.291  26.285  1.00  0.00    -0.352 N 
ATOM     25  C   UNL A   1      33.258  32.012  27.236  1.00  0.00     0.251 C 
ATOM     26  H   UNL A   1      31.828  31.771  25.865  1.00  0.00     0.163 HD
ATOM     27  O   UNL A   1      32.799  33.098  27.588  1.00  0.00    -0.269 OA
BRANCH  25  28
ATOM     28  C   UNL A   1      34.507  31.505  27.852  1.00  0.00     0.039 A 
ATOM     29  C   UNL A   1      35.559  32.405  28.050  1.00  0.00     0.014 A 
ATOM     30  C   UNL A   1      34.679  30.160  28.190  1.00  0.00     0.014 A 
ATOM     31  C   UNL A   1      36.753  31.969  28.631  1.00  0.00     0.010 A 
ATOM     32  C   UNL A   1      35.839  29.744  28.845  1.00  0.00     0.010 A 
ATOM     33  C   UNL A   1      36.894  30.640  29.064  1.00  0.00    -0.014 A 
BRANCH  33  34
ATOM     34  C   UNL A   1      38.133  30.200  29.759  1.00  0.00     0.031 A 
ATOM     35  C   UNL A   1      38.449  30.663  31.158  1.00  0.00     0.074 A 
ATOM     36  C   UNL A   1      39.010  29.410  29.105  1.00  0.00     0.049 A 
ATOM     37  N   UNL A   1      39.462  30.340  31.921  1.00  0.00    -0.248 NA
ATOM     38  C   UNL A   1      37.526  31.631  31.770  1.00  0.00     0.031 C 
ATOM     39  C   UNL A   1      38.873  28.969  27.714  1.00  0.00     0.029 A 
ATOM     40  N   UNL A   1      40.193  28.847  29.515  1.00  0.00    -0.354 N 
ATOM     41  C   UNL A   1      39.314  31.080  33.088  1.00  0.00     0.074 A 
ATOM     42  C   UNL A   1      38.135  31.901  32.916  1.00  0.00     0.031 C 
ATOM     43  C   UNL A   1      39.918  28.189  27.395  1.00  0.00     0.029 A 
ATOM     44  C   UNL A   1      40.809  28.092  28.546  1.00  0.00     0.049 A 
ATOM     45  H   UNL A   1      40.564  28.973  30.418  1.00  0.00     0.167 HD
ATOM     46  C   UNL A   1      40.069  31.059  34.213  1.00  0.00     0.034 A 
ATOM     47  C   UNL A   1      41.960  27.390  28.579  1.00  0.00     0.034 A 
ATOM     48  C   UNL A   1      41.221  30.215  34.398  1.00  0.00     0.049 A 
ATOM     49  C   UNL A   1      42.744  27.332  29.861  1.00  0.00     0.074 A 
ATOM     50  C   UNL A   1      41.997  30.054  35.532  1.00  0.00     0.029 A 
ATOM     51  N   UNL A   1      41.767  29.395  33.423  1.00  0.00    -0.354 N 
ATOM     52  N   UNL A   1      42.487  27.901  31.013  1.00  0.00    -0.248 NA
ATOM     53  C   UNL A   1      43.953  26.495  29.862  1.00  0.00     0.031 C 
ATOM     54  C   UNL A   1      43.028  29.156  35.235  1.00  0.00     0.029 A 
ATOM     55  C   UNL A   1      42.875  28.733  33.924  1.00  0.00     0.049 A 
ATOM     56  H   UNL A   1      41.419  29.299  32.507  1.00  0.00     0.167 HD
ATOM     57  C   UNL A   1      43.480  27.468  31.883  1.00  0.00     0.074 A 
ATOM     58  C   UNL A   1      44.326  26.564  31.131  1.00  0.00     0.031 C 
ATOM     59  C   UNL A   1      43.685  27.801  33.182  1.00  0.00     0.034 A 
BRANCH  46  60
ATOM     60  C   UNL A   1      39.640  31.937  35.363  1.00  0.00     0.023 A 
ATOM     61  C   UNL A   1      40.022  33.295  35.379  1.00  0.00     0.012 A 
ATOM     62  C   UNL A   1      38.812  31.443  36.388  1.00  0.00     0.148 A 
ATOM     63  C   UNL A   1      39.616  34.137  36.413  1.00  0.00     0.002 A 
ATOM     64  C   UNL A   1      38.373  32.299  37.393  1.00  0.00     0.091 A 
ATOM     65  F   UNL A   1      38.475  30.145  36.369  1.00  0.00    -0.205 F 
ATOM     66  C   UNL A   1      38.784  33.642  37.414  1.00  0.00     0.022 A 
BRANCH  64  67
ATOM     67  S   UNL A   1      37.234  31.780  38.681  1.00  0.00     0.127 S 
ATOM     68  O   UNL A   1      38.025  32.018  39.888  1.00  0.00    -0.237 OA
ATOM     69  O   UNL A   1      36.116  32.706  38.494  1.00  0.00    -0.237 OA
ATOM     70  O   UNL A   1      36.921  30.387  38.403  1.00  0.00    -0.744 OA
ENDBRANCH  64  67
ENDBRANCH  46  60
BRANCH  47  71
ATOM     71  C   UNL A   1      42.394  26.617  27.380  1.00  0.00     0.023 A 
ATOM     72  C   UNL A   1      43.015  27.290  26.310  1.00  0.00     0.012 A 
ATOM     73  C   UNL A   1      42.223  25.222  27.309  1.00  0.00     0.148 A 
ATOM     74  C   UNL A   1      43.426  26.592  25.174  1.00  0.00     0.002 A 
ATOM     75  C   UNL A   1      42.688  24.524  26.200  1.00  0.00     0.091 A 
ATOM     76  F   UNL A   1      41.620  24.601  28.333  1.00  0.00    -0.205 F 
ATOM     77  C   UNL A   1      43.273  25.209  25.124  1.00  0.00     0.022 A 
BRANCH  75  78
ATOM     78  S   UNL A   1      42.660  22.730  26.114  1.00  0.00     0.127 S 
ATOM     79  O   UNL A   1      43.452  22.362  27.285  1.00  0.00    -0.237 OA
ATOM     80  O   UNL A   1      41.228  22.446  26.225  1.00  0.00    -0.237 OA
ATOM     81  O   UNL A   1      43.238  22.389  24.823  1.00  0.00    -0.744 OA
ENDBRANCH  75  78
ENDBRANCH  47  71
BRANCH  59  82
ATOM     82  C   UNL A   1      44.855  27.163  33.886  1.00  0.00     0.023 A 
ATOM     83  C   UNL A   1      46.136  27.742  33.788  1.00  0.00     0.012 A 
ATOM     84  C   UNL A   1      44.678  26.012  34.679  1.00  0.00     0.148 A 
ATOM     85  C   UNL A   1      47.230  27.160  34.428  1.00  0.00     0.002 A 
ATOM     86  C   UNL A   1      45.763  25.466  35.356  1.00  0.00     0.091 A 
ATOM     87  F   UNL A   1      43.458  25.460  34.746  1.00  0.00    -0.205 F 
ATOM     88  C   UNL A   1      47.042  26.030  35.220  1.00  0.00     0.022 A 
BRANCH  86  89
ATOM     89  S   UNL A   1      45.591  24.069  36.472  1.00  0.00     0.127 S 
ATOM     90  O   UNL A   1      46.956  23.915  36.970  1.00  0.00    -0.237 OA
ATOM     91  O   UNL A   1      44.636  24.573  37.460  1.00  0.00    -0.237 OA
ATOM     92  O   UNL A   1      45.090  22.971  35.658  1.00  0.00    -0.744 OA
ENDBRANCH  86  89
ENDBRANCH  59  82
ENDBRANCH  33  34
ENDBRANCH  25  28
ENDBRANCH  23  24
ENDBRANCH   1  23
TORSDOF 15
ENDMDL
MODEL 2
REMARK VINA RESULT:     -12.4      2.277      8.228
REMARK SMILES Cc1cc(C)cc(C(=O)N2CC[C@H](C(=O)NCCCNC(=O)c3ccc(-c4c5nc(c(-c6cccc(S(=O)(=O)[O-])c6F)c6ccc([nH]6)c(-c6cccc(S(=O)(=O)[O-])c6F)c6nc(c(-c7cccc(S(=O)(=O)[O-])c7F)c7ccc4[nH]7)C=C6)C=C5)cc3)[C@@H]2C)c1
REMARK SMILES IDX 18 1 17 2 16 3 14 4 15 5 13 7 10 8 11 9 86 10 12 11 87 12
REMARK SMILES IDX 8 13 9 14 7 15 1 16 2 17 3 18 88 19 4 20 5 21 6 22 19 23
REMARK SMILES IDX 20 24 21 25 22 27 23 28 24 29 85 30 25 31 84 32 26 33 27 34
REMARK SMILES IDX 28 35 78 36 29 37 83 38 77 39 79 40 30 41 82 42 76 43 75 44
REMARK SMILES IDX 31 46 63 47 43 48 62 49 44 50 47 51 61 52 80 53 45 54 46 55
REMARK SMILES IDX 60 57 81 58 48 59 32 60 33 61 41 62 34 63 36 64 42 65 35 66
REMARK SMILES IDX 37 67 38 68 39 69 40 70 64 71 65 72 73 73 66 74 68 75 74 76
REMARK SMILES IDX 67 77 69 78 70 79 71 80 72 81 49 82 50 83 58 84 51 85 53 86
REMARK SMILES IDX 59 87 52 88 54 89 55 90 56 91 57 92
REMARK H PARENT 16 6 20 26 79 45 47 56
REMARK Flexibility Score: inf
ROOT
ATOM      1  C   UNL A   1      31.427  32.015  26.532  1.00  0.00     0.042 C 
ENDROOT
BRANCH   1   2
ATOM      2  C   UNL A   1      31.597  30.631  25.918  1.00  0.00     0.117 C 
BRANCH   2   3
ATOM      3  N   UNL A   1      30.859  30.478  24.677  1.00  0.00    -0.356 N 
ATOM      4  C   UNL A   1      30.633  29.383  23.902  1.00  0.00     0.225 C 
ATOM      5  O   UNL A   1      29.902  29.519  22.920  1.00  0.00    -0.275 OA
ATOM      6  H   UNL A   1      30.454  31.309  24.338  1.00  0.00     0.163 HD
BRANCH   4   7
ATOM      7  C   UNL A   1      31.263  28.047  24.257  1.00  0.00     0.102 C 
ATOM      8  N   UNL A   1      32.315  26.545  22.731  1.00  0.00    -0.335 N 
ATOM      9  C   UNL A   1      30.892  26.451  22.495  1.00  0.00     0.121 C 
ATOM     10  C   UNL A   1      32.610  27.732  23.553  1.00  0.00     0.094 C 
ATOM     11  C   UNL A   1      30.320  26.908  23.821  1.00  0.00     0.037 C 
ATOM     12  C   UNL A   1      33.183  28.857  22.689  1.00  0.00     0.032 C 
BRANCH   8  13
ATOM     13  C   UNL A   1      33.155  25.625  22.131  1.00  0.00     0.254 C 
ATOM     14  O   UNL A   1      33.391  25.670  20.923  1.00  0.00    -0.269 OA
BRANCH  13  15
ATOM     15  C   UNL A   1      33.672  24.452  22.891  1.00  0.00     0.040 A 
ATOM     16  C   UNL A   1      36.036  23.643  25.773  1.00  0.00     0.044 C 
ATOM     17  C   UNL A   1      34.987  23.500  24.711  1.00  0.00    -0.050 A 
ATOM     18  C   UNL A   1      34.297  22.291  24.566  1.00  0.00     0.006 A 
ATOM     19  C   UNL A   1      34.640  24.587  23.895  1.00  0.00     0.017 A 
ATOM     20  C   UNL A   1      33.285  22.152  23.607  1.00  0.00    -0.050 A 
ATOM     21  C   UNL A   1      32.481  20.887  23.551  1.00  0.00     0.044 C 
ATOM     22  C   UNL A   1      32.995  23.230  22.761  1.00  0.00     0.017 A 
ENDBRANCH  13  15
ENDBRANCH   8  13
ENDBRANCH   4   7
ENDBRANCH   2   3
ENDBRANCH   1   2
BRANCH   1  23
ATOM     23  C   UNL A   1      32.665  32.560  27.240  1.00  0.00     0.118 C 
BRANCH  23  24
ATOM     24  N   UNL A   1      32.529  33.954  27.636  1.00  0.00    -0.352 N 
ATOM     25  C   UNL A   1      33.185  34.680  28.599  1.00  0.00     0.251 C 
ATOM     26  H   UNL A   1      31.855  34.461  27.128  1.00  0.00     0.163 HD
ATOM     27  O   UNL A   1      32.788  35.817  28.851  1.00  0.00    -0.269 OA
BRANCH  25  28
ATOM     28  C   UNL A   1      34.338  34.121  29.346  1.00  0.00     0.039 A 
ATOM     29  C   UNL A   1      34.077  33.283  30.434  1.00  0.00     0.014 A 
ATOM     30  C   UNL A   1      35.660  34.444  29.027  1.00  0.00     0.014 A 
ATOM     31  C   UNL A   1      35.134  32.732  31.163  1.00  0.00     0.010 A 
ATOM     32  C   UNL A   1      36.714  33.829  29.702  1.00  0.00     0.010 A 
ATOM     33  C   UNL A   1      36.465  32.973  30.784  1.00  0.00    -0.014 A 
BRANCH  33  34
ATOM     34  C   UNL A   1      37.587  32.318  31.509  1.00  0.00     0.031 A 
ATOM     35  C   UNL A   1      38.358  31.182  30.888  1.00  0.00     0.074 A 
ATOM     36  C   UNL A   1      37.886  32.719  32.762  1.00  0.00     0.049 A 
ATOM     37  N   UNL A   1      39.389  30.531  31.363  1.00  0.00    -0.248 NA
ATOM     38  C   UNL A   1      37.901  30.696  29.577  1.00  0.00     0.031 C 
ATOM     39  C   UNL A   1      37.156  33.741  33.517  1.00  0.00     0.029 A 
ATOM     40  N   UNL A   1      38.872  32.311  33.626  1.00  0.00    -0.354 N 
ATOM     41  C   UNL A   1      39.686  29.547  30.429  1.00  0.00     0.074 A 
ATOM     42  C   UNL A   1      38.701  29.660  29.375  1.00  0.00     0.031 C 
ATOM     43  C   UNL A   1      37.731  33.893  34.720  1.00  0.00     0.029 A 
ATOM     44  C   UNL A   1      38.853  32.968  34.833  1.00  0.00     0.049 A 
ATOM     45  H   UNL A   1      39.529  31.613  33.401  1.00  0.00     0.167 HD
ATOM     46  C   UNL A   1      40.703  28.650  30.428  1.00  0.00     0.034 A 
ATOM     47  C   UNL A   1      39.655  32.849  35.910  1.00  0.00     0.034 A 
ATOM     48  C   UNL A   1      41.704  28.563  31.458  1.00  0.00     0.049 A 
ATOM     49  C   UNL A   1      40.814  31.892  35.856  1.00  0.00     0.074 A 
ATOM     50  C   UNL A   1      42.825  27.751  31.503  1.00  0.00     0.029 A 
ATOM     51  N   UNL A   1      41.704  29.306  32.628  1.00  0.00    -0.354 N 
ATOM     52  N   UNL A   1      41.183  31.094  34.883  1.00  0.00    -0.248 NA
ATOM     53  C   UNL A   1      41.697  31.853  37.031  1.00  0.00     0.031 C 
ATOM     54  C   UNL A   1      43.488  27.986  32.713  1.00  0.00     0.029 A 
ATOM     55  C   UNL A   1      42.798  28.967  33.407  1.00  0.00     0.049 A 
ATOM     56  H   UNL A   1      41.025  29.976  32.870  1.00  0.00     0.167 HD
ATOM     57  C   UNL A   1      42.355  30.484  35.313  1.00  0.00     0.074 A 
ATOM     58  C   UNL A   1      42.651  31.028  36.623  1.00  0.00     0.031 C 
ATOM     59  C   UNL A   1      43.109  29.545  34.689  1.00  0.00     0.034 A 
BRANCH  46  60
ATOM     60  C   UNL A   1      40.820  27.724  29.243  1.00  0.00     0.023 A 
ATOM     61  C   UNL A   1      40.040  26.549  29.200  1.00  0.00     0.012 A 
ATOM     62  C   UNL A   1      41.645  28.042  28.147  1.00  0.00     0.148 A 
ATOM     63  C   UNL A   1      40.106  25.689  28.105  1.00  0.00     0.002 A 
ATOM     64  C   UNL A   1      41.672  27.202  27.038  1.00  0.00     0.091 A 
ATOM     65  F   UNL A   1      42.395  29.151  28.211  1.00  0.00    -0.205 F 
ATOM     66  C   UNL A   1      40.914  26.021  27.021  1.00  0.00     0.022 A 
BRANCH  64  67
ATOM     67  S   UNL A   1      42.616  27.582  25.557  1.00  0.00     0.127 S 
ATOM     68  O   UNL A   1      43.971  27.701  26.095  1.00  0.00    -0.237 OA
ATOM     69  O   UNL A   1      42.390  26.392  24.735  1.00  0.00    -0.237 OA
ATOM     70  O   UNL A   1      42.046  28.808  25.020  1.00  0.00    -0.744 OA
ENDBRANCH  64  67
ENDBRANCH  46  60
BRANCH  47  71
ATOM     71  C   UNL A   1      39.436  33.719  37.100  1.00  0.00     0.023 A 
ATOM     72  C   UNL A   1      39.859  35.062  37.063  1.00  0.00     0.012 A 
ATOM     73  C   UNL A   1      38.785  33.235  38.251  1.00  0.00     0.148 A 
ATOM     74  C   UNL A   1      39.671  35.897  38.165  1.00  0.00     0.002 A 
ATOM     75  C   UNL A   1      38.548  34.089  39.322  1.00  0.00     0.091 A 
ATOM     76  F   UNL A   1      38.399  31.951  38.270  1.00  0.00    -0.205 F 
ATOM     77  C   UNL A   1      39.006  35.414  39.289  1.00  0.00     0.022 A 
BRANCH  75  78
ATOM     78  S   UNL A   1      37.576  33.591  40.749  1.00  0.00     0.127 S 
ATOM     79  O   UNL A   1      37.431  34.854  41.468  1.00  0.00    -0.237 OA
ATOM     80  O   UNL A   1      36.350  33.096  40.120  1.00  0.00    -0.237 OA
ATOM     81  O   UNL A   1      38.360  32.565  41.418  1.00  0.00    -0.744 OA
ENDBRANCH  75  78
ENDBRANCH  47  71
BRANCH  59  82
ATOM     82  C   UNL A   1      44.348  29.064  35.401  1.00  0.00     0.023 A 
ATOM     83  C   UNL A   1      45.595  29.659  35.122  1.00  0.00     0.012 A 
ATOM     84  C   UNL A   1      44.270  28.051  36.377  1.00  0.00     0.148 A 
ATOM     85  C   UNL A   1      46.751  29.221  35.767  1.00  0.00     0.002 A 
ATOM     86  C   UNL A   1      45.419  27.655  37.054  1.00  0.00     0.091 A 
ATOM     87  F   UNL A   1      43.081  27.481  36.617  1.00  0.00    -0.205 F 
ATOM     88  C   UNL A   1      46.661  28.228  36.739  1.00  0.00     0.022 A 
BRANCH  86  89
ATOM     89  S   UNL A   1      45.377  26.452  38.386  1.00  0.00     0.127 S 
ATOM     90  O   UNL A   1      44.852  25.270  37.706  1.00  0.00    -0.237 OA
ATOM     91  O   UNL A   1      46.787  26.359  38.769  1.00  0.00    -0.237 OA
ATOM     92  O   UNL A   1      44.515  27.024  39.411  1.00  0.00    -0.744 OA
ENDBRANCH  86  89
ENDBRANCH  59  82
ENDBRANCH  33  34
ENDBRANCH  25  28
ENDBRANCH  23  24
ENDBRANCH   1  23
TORSDOF 15
ENDMDL
MODEL 3
REMARK VINA RESULT:     -12.2      1.684      2.219
REMARK SMILES Cc1cc(C)cc(C(=O)N2CC[C@H](C(=O)NCCCNC(=O)c3ccc(-c4c5nc(c(-c6cccc(S(=O)(=O)[O-])c6F)c6ccc([nH]6)c(-c6cccc(S(=O)(=O)[O-])c6F)c6nc(c(-c7cccc(S(=O)(=O)[O-])c7F)c7ccc4[nH]7)C=C6)C=C5)cc3)[C@@H]2C)c1
REMARK SMILES IDX 18 1 17 2 16 3 14 4 15 5 13 7 10 8 11 9 86 10 12 11 87 12
REMARK SMILES IDX 8 13 9 14 7 15 1 16 2 17 3 18 88 19 4 20 5 21 6 22 19 23
REMARK SMILES IDX 20 24 21 25 22 27 23 28 24 29 85 30 25 31 84 32 26 33 27 34
REMARK SMILES IDX 28 35 78 36 29 37 83 38 77 39 79 40 30 41 82 42 76 43 75 44
REMARK SMILES IDX 31 46 63 47 43 48 62 49 44 50 47 51 61 52 80 53 45 54 46 55
REMARK SMILES IDX 60 57 81 58 48 59 32 60 33 61 41 62 34 63 36 64 42 65 35 66
REMARK SMILES IDX 37 67 38 68 39 69 40 70 64 71 65 72 73 73 66 74 68 75 74 76
REMARK SMILES IDX 67 77 69 78 70 79 71 80 72 81 49 82 50 83 58 84 51 85 53 86
REMARK SMILES IDX 59 87 52 88 54 89 55 90 56 91 57 92
REMARK H PARENT 16 6 20 26 79 45 47 56
REMARK Flexibility Score: inf
ROOT
ATOM      1  C   UNL A   1      33.466  29.004  23.874  1.00  0.00     0.042 C 
ENDROOT
BRANCH   1   2
ATOM      2  C   UNL A   1      32.277  28.922  22.924  1.00  0.00     0.117 C 
BRANCH   2   3
ATOM      3  N   UNL A   1      32.356  27.778  22.032  1.00  0.00    -0.356 N 
ATOM      4  C   UNL A   1      31.987  26.481  22.211  1.00  0.00     0.225 C 
ATOM      5  O   UNL A   1      32.099  25.717  21.251  1.00  0.00    -0.275 OA
ATOM      6  H   UNL A   1      32.742  27.975  21.149  1.00  0.00     0.163 HD
BRANCH   4   7
ATOM      7  C   UNL A   1      31.448  26.013  23.552  1.00  0.00     0.102 C 
ATOM      8  N   UNL A   1      31.944  23.933  24.610  1.00  0.00    -0.335 N 
ATOM      9  C   UNL A   1      31.051  23.639  23.513  1.00  0.00     0.121 C 
ATOM     10  C   UNL A   1      32.474  25.301  24.475  1.00  0.00     0.094 C 
ATOM     11  C   UNL A   1      30.342  24.964  23.319  1.00  0.00     0.037 C 
ATOM     12  C   UNL A   1      33.915  25.273  23.963  1.00  0.00     0.032 C 
BRANCH   8  13
ATOM     13  C   UNL A   1      32.225  22.938  25.528  1.00  0.00     0.254 C 
ATOM     14  O   UNL A   1      31.905  23.054  26.713  1.00  0.00    -0.269 OA
BRANCH  13  15
ATOM     15  C   UNL A   1      33.068  21.767  25.155  1.00  0.00     0.040 A 
ATOM     16  C   UNL A   1      36.736  20.730  25.002  1.00  0.00     0.044 C 
ATOM     17  C   UNL A   1      35.237  20.665  24.992  1.00  0.00    -0.050 A 
ATOM     18  C   UNL A   1      34.591  19.431  24.855  1.00  0.00     0.006 A 
ATOM     19  C   UNL A   1      34.467  21.822  25.181  1.00  0.00     0.017 A 
ATOM     20  C   UNL A   1      33.193  19.345  24.885  1.00  0.00    -0.050 A 
ATOM     21  C   UNL A   1      32.528  18.001  24.855  1.00  0.00     0.044 C 
ATOM     22  C   UNL A   1      32.440  20.520  25.013  1.00  0.00     0.017 A 
ENDBRANCH  13  15
ENDBRANCH   8  13
ENDBRANCH   4   7
ENDBRANCH   2   3
ENDBRANCH   1   2
BRANCH   1  23
ATOM     23  C   UNL A   1      33.100  29.087  25.354  1.00  0.00     0.118 C 
BRANCH  23  24
ATOM     24  N   UNL A   1      32.631  30.406  25.753  1.00  0.00    -0.352 N 
ATOM     25  C   UNL A   1      33.055  31.243  26.755  1.00  0.00     0.251 C 
ATOM     26  H   UNL A   1      31.885  30.757  25.214  1.00  0.00     0.163 HD
ATOM     27  O   UNL A   1      32.397  32.255  26.994  1.00  0.00    -0.269 OA
BRANCH  25  28
ATOM     28  C   UNL A   1      34.265  30.945  27.558  1.00  0.00     0.039 A 
ATOM     29  C   UNL A   1      34.436  29.644  28.040  1.00  0.00     0.014 A 
ATOM     30  C   UNL A   1      35.203  31.929  27.884  1.00  0.00     0.014 A 
ATOM     31  C   UNL A   1      35.565  29.320  28.797  1.00  0.00     0.010 A 
ATOM     32  C   UNL A   1      36.370  31.586  28.569  1.00  0.00     0.010 A 
ATOM     33  C   UNL A   1      36.560  30.280  29.043  1.00  0.00    -0.014 A 
BRANCH  33  34
ATOM     34  C   UNL A   1      37.801  29.912  29.777  1.00  0.00     0.031 A 
ATOM     35  C   UNL A   1      38.075  30.442  31.160  1.00  0.00     0.074 A 
ATOM     36  C   UNL A   1      38.715  29.126  29.171  1.00  0.00     0.049 A 
ATOM     37  N   UNL A   1      39.083  30.185  31.954  1.00  0.00    -0.248 NA
ATOM     38  C   UNL A   1      37.108  31.402  31.716  1.00  0.00     0.031 C 
ATOM     39  C   UNL A   1      38.619  28.625  27.797  1.00  0.00     0.029 A 
ATOM     40  N   UNL A   1      39.909  28.622  29.624  1.00  0.00    -0.354 N 
ATOM     41  C   UNL A   1      38.888  30.967  33.086  1.00  0.00     0.074 A 
ATOM     42  C   UNL A   1      37.686  31.738  32.860  1.00  0.00     0.031 C 
ATOM     43  C   UNL A   1      39.696  27.870  27.529  1.00  0.00     0.029 A 
ATOM     44  C   UNL A   1      40.569  27.850  28.697  1.00  0.00     0.049 A 
ATOM     45  H   UNL A   1      40.259  28.797  30.527  1.00  0.00     0.167 HD
ATOM     46  C   UNL A   1      39.623  31.018  34.224  1.00  0.00     0.034 A 
ATOM     47  C   UNL A   1      41.742  27.190  28.779  1.00  0.00     0.034 A 
ATOM     48  C   UNL A   1      40.799  30.223  34.463  1.00  0.00     0.049 A 
ATOM     49  C   UNL A   1      42.503  27.212  30.076  1.00  0.00     0.074 A 
ATOM     50  C   UNL A   1      41.559  30.135  35.617  1.00  0.00     0.029 A 
ATOM     51  N   UNL A   1      41.391  29.384  33.532  1.00  0.00    -0.354 N 
ATOM     52  N   UNL A   1      42.206  27.819  31.199  1.00  0.00    -0.248 NA
ATOM     53  C   UNL A   1      43.740  26.418  30.132  1.00  0.00     0.031 C 
ATOM     54  C   UNL A   1      42.626  29.262  35.374  1.00  0.00     0.029 A 
ATOM     55  C   UNL A   1      42.512  28.781  34.079  1.00  0.00     0.049 A 
ATOM     56  H   UNL A   1      41.063  29.238  32.615  1.00  0.00     0.167 HD
ATOM     57  C   UNL A   1      43.197  27.456  32.103  1.00  0.00     0.074 A 
ATOM     58  C   UNL A   1      44.087  26.552  31.404  1.00  0.00     0.031 C 
ATOM     59  C   UNL A   1      43.366  27.848  33.390  1.00  0.00     0.034 A 
BRANCH  46  60
ATOM     60  C   UNL A   1      39.143  31.926  35.329  1.00  0.00     0.023 A 
ATOM     61  C   UNL A   1      38.178  31.457  36.244  1.00  0.00     0.012 A 
ATOM     62  C   UNL A   1      39.688  33.213  35.503  1.00  0.00     0.148 A 
ATOM     63  C   UNL A   1      37.736  32.265  37.291  1.00  0.00     0.002 A 
ATOM     64  C   UNL A   1      39.276  33.996  36.577  1.00  0.00     0.091 A 
ATOM     65  F   UNL A   1      40.590  33.652  34.614  1.00  0.00    -0.205 F 
ATOM     66  C   UNL A   1      38.293  33.529  37.463  1.00  0.00     0.022 A 
BRANCH  64  67
ATOM     67  S   UNL A   1      39.991  35.605  36.933  1.00  0.00     0.127 S 
ATOM     68  O   UNL A   1      39.335  35.946  38.195  1.00  0.00    -0.237 OA
ATOM     69  O   UNL A   1      41.415  35.289  37.055  1.00  0.00    -0.237 OA
ATOM     70  O   UNL A   1      39.653  36.455  35.803  1.00  0.00    -0.744 OA
ENDBRANCH  64  67
ENDBRANCH  46  60
BRANCH  47  71
ATOM     71  C   UNL A   1      42.224  26.385  27.621  1.00  0.00     0.023 A 
ATOM     72  C   UNL A   1      43.080  26.979  26.674  1.00  0.00     0.012 A 
ATOM     73  C   UNL A   1      41.864  25.032  27.471  1.00  0.00     0.148 A 
ATOM     74  C   UNL A   1      43.542  26.249  25.577  1.00  0.00     0.002 A 
ATOM     75  C   UNL A   1      42.376  24.295  26.409  1.00  0.00     0.091 A 
ATOM     76  F   UNL A   1      41.039  24.489  28.378  1.00  0.00    -0.205 F 
ATOM     77  C   UNL A   1      43.199  24.906  25.452  1.00  0.00     0.022 A 
BRANCH  75  78
ATOM     78  S   UNL A   1      42.100  22.527  26.248  1.00  0.00     0.127 S 
ATOM     79  O   UNL A   1      40.646  22.461  26.121  1.00  0.00    -0.237 OA
ATOM     80  O   UNL A   1      42.840  22.217  25.024  1.00  0.00    -0.237 OA
ATOM     81  O   UNL A   1      42.659  21.932  27.452  1.00  0.00    -0.744 OA
ENDBRANCH  75  78
ENDBRANCH  47  71
BRANCH  59  82
ATOM     82  C   UNL A   1      44.544  27.280  34.140  1.00  0.00     0.023 A 
ATOM     83  C   UNL A   1      45.783  27.950  34.115  1.00  0.00     0.012 A 
ATOM     84  C   UNL A   1      44.412  26.103  34.904  1.00  0.00     0.148 A 
ATOM     85  C   UNL A   1      46.884  27.434  34.798  1.00  0.00     0.002 A 
ATOM     86  C   UNL A   1      45.500  25.623  35.625  1.00  0.00     0.091 A 
ATOM     87  F   UNL A   1      43.233  25.466  34.902  1.00  0.00    -0.205 F 
ATOM     88  C   UNL A   1      46.740  26.278  35.561  1.00  0.00     0.022 A 
BRANCH  86  89
ATOM     89  S   UNL A   1      45.376  24.195  36.707  1.00  0.00     0.127 S 
ATOM     90  O   UNL A   1      44.534  24.709  37.784  1.00  0.00    -0.237 OA
ATOM     91  O   UNL A   1      44.727  23.204  35.846  1.00  0.00    -0.237 OA
ATOM     92  O   UNL A   1      46.743  23.861  37.081  1.00  0.00    -0.744 OA
ENDBRANCH  86  89
ENDBRANCH  59  82
ENDBRANCH  33  34
ENDBRANCH  25  28
ENDBRANCH  23  24
ENDBRANCH   1  23
TORSDOF 15
ENDMDL
