MODEL 1
REMARK VINA RESULT:     -11.7      0.000      0.000
REMARK SMILES O=C(NCCCNC(=O)[C@H]1CC[C@@H](CNC(=O)[C@@H]2C[C@H]3CC[C@@H]2[NH2+]3)O1)c1ccc(-c2c3nc(c(-c4cccc(S(=O)(=O)[O-])c4F)c4ccc([nH]4)c(-c4cccc(S(=O)(=O)[O-])c4F)c4nc(c(-c5cccc(S(=O)(=O)[O-])c5F)c5ccc2[nH]5)C=C4)C=C3)cc1
REMARK SMILES IDX 5 1 4 2 3 3 1 4 2 5 26 7 27 8 88 9 28 10 87 11 29 12 30 13
REMARK SMILES IDX 31 14 81 15 32 16 86 17 80 18 82 19 33 20 85 21 79 22 78 23
REMARK SMILES IDX 34 25 66 26 46 27 65 28 47 29 50 30 64 31 83 32 48 33 49 34
REMARK SMILES IDX 63 36 84 37 51 38 35 39 36 40 44 41 37 42 39 43 45 44 38 45
REMARK SMILES IDX 40 46 41 47 42 48 43 49 67 50 68 51 76 52 69 53 71 54 77 55
REMARK SMILES IDX 70 56 72 57 73 58 74 59 75 60 52 61 53 62 61 63 54 64 56 65
REMARK SMILES IDX 62 66 55 67 57 68 58 69 59 70 60 71 6 72 7 73 8 74 9 76
REMARK SMILES IDX 10 77 11 78 25 79 12 80 13 81 14 82 15 83 16 84 17 86 18 87
REMARK SMILES IDX 19 88 23 89 20 90 22 91 24 92 21 93
REMARK H PARENT 3 6 82 24 50 35 7 75 15 85 24 94 24 95
REMARK Flexibility Score: inf
ROOT
ATOM      1  C   UNL A   1      37.943  19.895  24.796  1.00  0.00     0.042 C 
ENDROOT
BRANCH   1   2
ATOM      2  C   UNL A   1      38.653  19.624  26.122  1.00  0.00     0.118 C 
BRANCH   2   3
ATOM      3  N   UNL A   1      39.980  19.026  26.044  1.00  0.00    -0.352 N 
ATOM      4  O   UNL A   1      42.162  18.641  26.113  1.00  0.00    -0.269 OA
ATOM      5  C   UNL A   1      41.264  19.479  26.248  1.00  0.00     0.251 C 
ATOM      6  H   UNL A   1      39.951  18.077  25.785  1.00  0.00     0.163 HD
BRANCH   5   7
ATOM      7  C   UNL A   1      41.648  20.898  26.536  1.00  0.00     0.039 A 
ATOM      8  C   UNL A   1      42.285  21.327  27.696  1.00  0.00     0.014 A 
ATOM      9  C   UNL A   1      41.342  21.870  25.563  1.00  0.00     0.014 A 
ATOM     10  C   UNL A   1      42.468  22.691  27.950  1.00  0.00     0.010 A 
ATOM     11  C   UNL A   1      41.605  23.234  25.776  1.00  0.00     0.010 A 
ATOM     12  C   UNL A   1      42.153  23.663  26.988  1.00  0.00    -0.014 A 
BRANCH  12  13
ATOM     13  C   UNL A   1      42.561  25.077  27.219  1.00  0.00     0.031 A 
ATOM     14  C   UNL A   1      41.687  26.065  27.946  1.00  0.00     0.074 A 
ATOM     15  C   UNL A   1      43.762  25.474  26.752  1.00  0.00     0.049 A 
ATOM     16  N   UNL A   1      41.956  27.303  28.282  1.00  0.00    -0.248 NA
ATOM     17  C   UNL A   1      40.342  25.619  28.337  1.00  0.00     0.031 C 
ATOM     18  C   UNL A   1      44.678  24.634  25.974  1.00  0.00     0.029 A 
ATOM     19  N   UNL A   1      44.422  26.672  26.856  1.00  0.00    -0.354 N 
ATOM     20  C   UNL A   1      40.815  27.794  28.904  1.00  0.00     0.074 A 
ATOM     21  C   UNL A   1      39.840  26.721  28.886  1.00  0.00     0.031 C 
ATOM     22  C   UNL A   1      45.786  25.332  25.693  1.00  0.00     0.029 A 
ATOM     23  C   UNL A   1      45.646  26.681  26.227  1.00  0.00     0.049 A 
ATOM     24  H   UNL A   1      44.056  27.451  27.335  1.00  0.00     0.167 HD
ATOM     25  C   UNL A   1      40.605  29.017  29.452  1.00  0.00     0.034 A 
ATOM     26  C   UNL A   1      46.554  27.665  26.079  1.00  0.00     0.034 A 
ATOM     27  C   UNL A   1      41.582  30.077  29.483  1.00  0.00     0.049 A 
ATOM     28  C   UNL A   1      46.297  29.002  26.709  1.00  0.00     0.074 A 
ATOM     29  C   UNL A   1      41.481  31.320  30.087  1.00  0.00     0.029 A 
ATOM     30  N   UNL A   1      42.826  30.035  28.873  1.00  0.00    -0.354 N 
ATOM     31  N   UNL A   1      45.277  29.390  27.435  1.00  0.00    -0.248 NA
ATOM     32  C   UNL A   1      47.332  30.030  26.532  1.00  0.00     0.031 C 
ATOM     33  C   UNL A   1      42.647  32.043  29.808  1.00  0.00     0.029 A 
ATOM     34  C   UNL A   1      43.493  31.236  29.067  1.00  0.00     0.049 A 
ATOM     35  H   UNL A   1      43.184  29.266  28.374  1.00  0.00     0.167 HD
ATOM     36  C   UNL A   1      45.562  30.691  27.827  1.00  0.00     0.074 A 
ATOM     37  C   UNL A   1      46.863  31.018  27.281  1.00  0.00     0.031 C 
ATOM     38  C   UNL A   1      44.807  31.543  28.563  1.00  0.00     0.034 A 
BRANCH  25  39
ATOM     39  C   UNL A   1      39.273  29.286  30.110  1.00  0.00     0.023 A 
ATOM     40  C   UNL A   1      39.038  28.824  31.421  1.00  0.00     0.012 A 
ATOM     41  C   UNL A   1      38.300  30.091  29.480  1.00  0.00     0.148 A 
ATOM     42  C   UNL A   1      37.852  29.136  32.085  1.00  0.00     0.002 A 
ATOM     43  C   UNL A   1      37.138  30.432  30.163  1.00  0.00     0.091 A 
ATOM     44  F   UNL A   1      38.536  30.515  28.230  1.00  0.00    -0.205 F 
ATOM     45  C   UNL A   1      36.908  29.948  31.461  1.00  0.00     0.022 A 
BRANCH  43  46
ATOM     46  S   UNL A   1      35.897  31.539  29.483  1.00  0.00     0.127 S 
ATOM     47  O   UNL A   1      36.724  32.626  28.964  1.00  0.00    -0.237 OA
ATOM     48  O   UNL A   1      35.270  30.707  28.456  1.00  0.00    -0.237 OA
ATOM     49  O   UNL A   1      35.022  31.897  30.594  1.00  0.00    -0.744 OA
ENDBRANCH  43  46
ENDBRANCH  25  39
BRANCH  26  50
ATOM     50  C   UNL A   1      47.812  27.403  25.325  1.00  0.00     0.023 A 
ATOM     51  C   UNL A   1      48.918  26.837  25.986  1.00  0.00     0.012 A 
ATOM     52  C   UNL A   1      47.907  27.695  23.951  1.00  0.00     0.148 A 
ATOM     53  C   UNL A   1      50.110  26.603  25.301  1.00  0.00     0.002 A 
ATOM     54  C   UNL A   1      49.075  27.402  23.261  1.00  0.00     0.091 A 
ATOM     55  F   UNL A   1      46.845  28.245  23.343  1.00  0.00    -0.205 F 
ATOM     56  C   UNL A   1      50.185  26.875  23.937  1.00  0.00     0.022 A 
BRANCH  54  57
ATOM     57  S   UNL A   1      49.212  27.593  21.480  1.00  0.00     0.127 S 
ATOM     58  O   UNL A   1      50.356  26.740  21.175  1.00  0.00    -0.237 OA
ATOM     59  O   UNL A   1      47.919  27.080  21.023  1.00  0.00    -0.237 OA
ATOM     60  O   UNL A   1      49.404  29.019  21.252  1.00  0.00    -0.744 OA
ENDBRANCH  54  57
ENDBRANCH  26  50
BRANCH  38  61
ATOM     61  C   UNL A   1      45.382  32.904  28.864  1.00  0.00     0.023 A 
ATOM     62  C   UNL A   1      46.140  33.107  30.035  1.00  0.00     0.012 A 
ATOM     63  C   UNL A   1      45.215  33.970  27.958  1.00  0.00     0.148 A 
ATOM     64  C   UNL A   1      46.689  34.358  30.317  1.00  0.00     0.002 A 
ATOM     65  C   UNL A   1      45.809  35.199  28.220  1.00  0.00     0.091 A 
ATOM     66  F   UNL A   1      44.473  33.764  26.859  1.00  0.00    -0.205 F 
ATOM     67  C   UNL A   1      46.534  35.399  29.405  1.00  0.00     0.022 A 
BRANCH  65  68
ATOM     68  S   UNL A   1      45.744  36.570  27.060  1.00  0.00     0.127 S 
ATOM     69  O   UNL A   1      46.528  37.587  27.757  1.00  0.00    -0.237 OA
ATOM     70  O   UNL A   1      46.392  36.005  25.876  1.00  0.00    -0.237 OA
ATOM     71  O   UNL A   1      44.332  36.883  26.885  1.00  0.00    -0.744 OA
ENDBRANCH  65  68
ENDBRANCH  38  61
ENDBRANCH  12  13
ENDBRANCH   5   7
ENDBRANCH   2   3
ENDBRANCH   1   2
BRANCH   1  72
ATOM     72  C   UNL A   1      37.227  21.230  24.641  1.00  0.00     0.117 C 
BRANCH  72  73
ATOM     73  N   UNL A   1      37.943  22.259  25.368  1.00  0.00    -0.354 N 
ATOM     74  C   UNL A   1      37.506  23.501  25.723  1.00  0.00     0.249 C 
ATOM     75  H   UNL A   1      38.862  22.032  25.640  1.00  0.00     0.163 HD
ATOM     76  O   UNL A   1      38.364  24.292  26.128  1.00  0.00    -0.272 OA
BRANCH  74  77
ATOM     77  C   UNL A   1      35.984  23.846  25.759  1.00  0.00     0.207 C 
ATOM     78  C   UNL A   1      35.459  24.102  24.335  1.00  0.00     0.045 C 
ATOM     79  O   UNL A   1      35.042  22.949  26.369  1.00  0.00    -0.363 OA
ATOM     80  C   UNL A   1      34.472  22.976  24.126  1.00  0.00     0.037 C 
ATOM     81  C   UNL A   1      33.883  22.870  25.517  1.00  0.00     0.138 C 
BRANCH  81  82
ATOM     82  C   UNL A   1      32.986  21.637  25.737  1.00  0.00     0.147 C 
BRANCH  82  83
ATOM     83  N   UNL A   1      32.556  20.985  24.520  1.00  0.00    -0.353 N 
ATOM     84  C   UNL A   1      32.711  19.735  24.028  1.00  0.00     0.229 C 
ATOM     85  H   UNL A   1      32.043  21.577  23.924  1.00  0.00     0.163 HD
ATOM     86  O   UNL A   1      32.153  19.549  22.935  1.00  0.00    -0.275 OA
BRANCH  84  87
ATOM     87  C   UNL A   1      33.413  18.555  24.717  1.00  0.00     0.142 C 
ATOM     88  C   UNL A   1      34.742  17.950  24.249  1.00  0.00     0.084 C 
ATOM     89  C   UNL A   1      32.491  17.317  24.626  1.00  0.00     0.195 C 
ATOM     90  C   UNL A   1      34.429  16.460  24.061  1.00  0.00     0.183 C 
ATOM     91  C   UNL A   1      32.760  16.325  25.757  1.00  0.00     0.072 C 
ATOM     92  N   UNL A   1      33.088  16.576  23.487  1.00  0.00    -0.341 N 
ATOM     93  C   UNL A   1      34.131  15.761  25.385  1.00  0.00     0.071 C 
ATOM     94  H   UNL A   1      32.647  15.670  23.334  1.00  0.00     0.346 HD
ATOM     95  H   UNL A   1      33.013  17.004  22.564  1.00  0.00     0.346 HD
ENDBRANCH  84  87
ENDBRANCH  82  83
ENDBRANCH  81  82
ENDBRANCH  74  77
ENDBRANCH  72  73
ENDBRANCH   1  72
TORSDOF 16
ENDMDL
MODEL 2
REMARK VINA RESULT:     -11.6      5.471      8.306
REMARK SMILES O=C(NCCCNC(=O)[C@H]1CC[C@@H](CNC(=O)[C@@H]2C[C@H]3CC[C@@H]2[NH2+]3)O1)c1ccc(-c2c3nc(c(-c4cccc(S(=O)(=O)[O-])c4F)c4ccc([nH]4)c(-c4cccc(S(=O)(=O)[O-])c4F)c4nc(c(-c5cccc(S(=O)(=O)[O-])c5F)c5ccc2[nH]5)C=C4)C=C3)cc1
REMARK SMILES IDX 5 1 4 2 3 3 1 4 2 5 26 7 27 8 88 9 28 10 87 11 29 12 30 13
REMARK SMILES IDX 31 14 81 15 32 16 86 17 80 18 82 19 33 20 85 21 79 22 78 23
REMARK SMILES IDX 34 25 66 26 46 27 65 28 47 29 50 30 64 31 83 32 48 33 49 34
REMARK SMILES IDX 63 36 84 37 51 38 35 39 36 40 44 41 37 42 39 43 45 44 38 45
REMARK SMILES IDX 40 46 41 47 42 48 43 49 67 50 68 51 76 52 69 53 71 54 77 55
REMARK SMILES IDX 70 56 72 57 73 58 74 59 75 60 52 61 53 62 61 63 54 64 56 65
REMARK SMILES IDX 62 66 55 67 57 68 58 69 59 70 60 71 6 72 7 73 8 74 9 76
REMARK SMILES IDX 10 77 11 78 25 79 12 80 13 81 14 82 15 83 16 84 17 86 18 87
REMARK SMILES IDX 19 88 23 89 20 90 22 91 24 92 21 93
REMARK H PARENT 3 6 82 24 50 35 7 75 15 85 24 94 24 95
REMARK Flexibility Score: inf
ROOT
ATOM      1  C   UNL A   1      32.525  29.355  24.258  1.00  0.00     0.042 C 
ENDROOT
BRANCH   1   2
ATOM      2  C   UNL A   1      33.058  29.493  25.684  1.00  0.00     0.118 C 
BRANCH   2   3
ATOM      3  N   UNL A   1      32.853  30.780  26.337  1.00  0.00    -0.352 N 
ATOM      4  O   UNL A   1      33.066  32.620  27.555  1.00  0.00    -0.269 OA
ATOM      5  C   UNL A   1      33.559  31.529  27.253  1.00  0.00     0.251 C 
ATOM      6  H   UNL A   1      32.016  31.216  26.059  1.00  0.00     0.163 HD
BRANCH   5   7
ATOM      7  C   UNL A   1      34.808  31.091  27.954  1.00  0.00     0.039 A 
ATOM      8  C   UNL A   1      34.990  29.845  28.545  1.00  0.00     0.014 A 
ATOM      9  C   UNL A   1      35.877  32.007  28.022  1.00  0.00     0.014 A 
ATOM     10  C   UNL A   1      36.129  29.575  29.312  1.00  0.00     0.010 A 
ATOM     11  C   UNL A   1      37.061  31.706  28.716  1.00  0.00     0.010 A 
ATOM     12  C   UNL A   1      37.191  30.490  29.391  1.00  0.00    -0.014 A 
BRANCH  12  13
ATOM     13  C   UNL A   1      38.465  30.073  30.040  1.00  0.00     0.031 A 
ATOM     14  C   UNL A   1      38.895  30.588  31.389  1.00  0.00     0.074 A 
ATOM     15  C   UNL A   1      39.257  29.202  29.381  1.00  0.00     0.049 A 
ATOM     16  N   UNL A   1      39.941  30.246  32.099  1.00  0.00    -0.248 NA
ATOM     17  C   UNL A   1      38.058  31.619  32.018  1.00  0.00     0.031 C 
ATOM     18  C   UNL A   1      38.988  28.678  28.039  1.00  0.00     0.029 A 
ATOM     19  N   UNL A   1      40.438  28.605  29.738  1.00  0.00    -0.354 N 
ATOM     20  C   UNL A   1      39.905  31.028  33.247  1.00  0.00     0.074 A 
ATOM     21  C   UNL A   1      38.736  31.877  33.131  1.00  0.00     0.031 C 
ATOM     22  C   UNL A   1      39.960  27.822  27.697  1.00  0.00     0.029 A 
ATOM     23  C   UNL A   1      40.945  27.769  28.770  1.00  0.00     0.049 A 
ATOM     24  H   UNL A   1      40.881  28.759  30.604  1.00  0.00     0.167 HD
ATOM     25  C   UNL A   1      40.757  31.028  34.304  1.00  0.00     0.034 A 
ATOM     26  C   UNL A   1      42.082  27.047  28.736  1.00  0.00     0.034 A 
ATOM     27  C   UNL A   1      41.909  30.170  34.424  1.00  0.00     0.049 A 
ATOM     28  C   UNL A   1      42.995  27.058  29.927  1.00  0.00     0.074 A 
ATOM     29  C   UNL A   1      42.781  30.047  35.494  1.00  0.00     0.029 A 
ATOM     30  N   UNL A   1      42.368  29.305  33.441  1.00  0.00    -0.354 N 
ATOM     31  N   UNL A   1      42.853  27.683  31.070  1.00  0.00    -0.248 NA
ATOM     32  C   UNL A   1      44.210  26.236  29.840  1.00  0.00     0.031 C 
ATOM     33  C   UNL A   1      43.787  29.140  35.144  1.00  0.00     0.029 A 
ATOM     34  C   UNL A   1      43.520  28.663  33.872  1.00  0.00     0.049 A 
ATOM     35  H   UNL A   1      41.939  29.167  32.566  1.00  0.00     0.167 HD
ATOM     36  C   UNL A   1      43.939  27.304  31.848  1.00  0.00     0.074 A 
ATOM     37  C   UNL A   1      44.718  26.374  31.057  1.00  0.00     0.031 C 
ATOM     38  C   UNL A   1      44.268  27.702  33.101  1.00  0.00     0.034 A 
BRANCH  25  39
ATOM     39  C   UNL A   1      40.466  31.959  35.455  1.00  0.00     0.023 A 
ATOM     40  C   UNL A   1      41.209  33.149  35.593  1.00  0.00     0.012 A 
ATOM     41  C   UNL A   1      39.386  31.718  36.330  1.00  0.00     0.148 A 
ATOM     42  C   UNL A   1      40.901  34.070  36.594  1.00  0.00     0.002 A 
ATOM     43  C   UNL A   1      39.058  32.660  37.300  1.00  0.00     0.091 A 
ATOM     44  F   UNL A   1      38.694  30.578  36.191  1.00  0.00    -0.205 F 
ATOM     45  C   UNL A   1      39.820  33.831  37.439  1.00  0.00     0.022 A 
BRANCH  43  46
ATOM     46  S   UNL A   1      37.636  32.489  38.384  1.00  0.00     0.127 S 
ATOM     47  O   UNL A   1      36.554  32.979  37.532  1.00  0.00    -0.237 OA
ATOM     48  O   UNL A   1      37.609  31.048  38.634  1.00  0.00    -0.237 OA
ATOM     49  O   UNL A   1      37.923  33.306  39.559  1.00  0.00    -0.744 OA
ENDBRANCH  43  46
ENDBRANCH  25  39
BRANCH  26  50
ATOM     50  C   UNL A   1      42.400  26.224  27.536  1.00  0.00     0.023 A 
ATOM     51  C   UNL A   1      43.104  26.799  26.460  1.00  0.00     0.012 A 
ATOM     52  C   UNL A   1      42.026  24.869  27.467  1.00  0.00     0.148 A 
ATOM     53  C   UNL A   1      43.393  26.049  25.321  1.00  0.00     0.002 A 
ATOM     54  C   UNL A   1      42.372  24.111  26.356  1.00  0.00     0.091 A 
ATOM     55  F   UNL A   1      41.347  24.344  28.497  1.00  0.00    -0.205 F 
ATOM     56  C   UNL A   1      43.038  24.704  25.273  1.00  0.00     0.022 A 
BRANCH  54  57
ATOM     57  S   UNL A   1      42.075  22.342  26.271  1.00  0.00     0.127 S 
ATOM     58  O   UNL A   1      40.616  22.284  26.272  1.00  0.00    -0.237 OA
ATOM     59  O   UNL A   1      42.707  21.991  24.998  1.00  0.00    -0.237 OA
ATOM     60  O   UNL A   1      42.732  21.777  27.442  1.00  0.00    -0.744 OA
ENDBRANCH  54  57
ENDBRANCH  26  50
BRANCH  38  61
ATOM     61  C   UNL A   1      45.504  27.104  33.723  1.00  0.00     0.023 A 
ATOM     62  C   UNL A   1      46.742  27.769  33.611  1.00  0.00     0.012 A 
ATOM     63  C   UNL A   1      45.428  25.908  34.464  1.00  0.00     0.148 A 
ATOM     64  C   UNL A   1      47.891  27.232  34.195  1.00  0.00     0.002 A 
ATOM     65  C   UNL A   1      46.566  25.408  35.087  1.00  0.00     0.091 A 
ATOM     66  F   UNL A   1      44.246  25.279  34.542  1.00  0.00    -0.205 F 
ATOM     67  C   UNL A   1      47.801  26.060  34.941  1.00  0.00     0.022 A 
BRANCH  65  68
ATOM     68  S   UNL A   1      46.528  23.957  36.146  1.00  0.00     0.127 S 
ATOM     69  O   UNL A   1      46.073  22.923  35.219  1.00  0.00    -0.237 OA
ATOM     70  O   UNL A   1      47.927  23.836  36.556  1.00  0.00    -0.237 OA
ATOM     71  O   UNL A   1      45.606  24.272  37.229  1.00  0.00    -0.744 OA
ENDBRANCH  65  68
ENDBRANCH  38  61
ENDBRANCH  12  13
ENDBRANCH   5   7
ENDBRANCH   2   3
ENDBRANCH   1   2
BRANCH   1  72
ATOM     72  C   UNL A   1      31.382  28.377  24.027  1.00  0.00     0.117 C 
BRANCH  72  73
ATOM     73  N   UNL A   1      31.041  27.717  25.271  1.00  0.00    -0.354 N 
ATOM     74  C   UNL A   1      31.159  26.395  25.585  1.00  0.00     0.249 C 
ATOM     75  H   UNL A   1      30.678  28.296  25.980  1.00  0.00     0.163 HD
ATOM     76  O   UNL A   1      30.587  26.019  26.615  1.00  0.00    -0.272 OA
BRANCH  74  77
ATOM     77  C   UNL A   1      32.091  25.446  24.768  1.00  0.00     0.207 C 
ATOM     78  C   UNL A   1      33.566  25.714  25.115  1.00  0.00     0.045 C 
ATOM     79  O   UNL A   1      31.926  24.020  24.832  1.00  0.00    -0.363 OA
ATOM     80  C   UNL A   1      34.005  24.421  25.765  1.00  0.00     0.037 C 
ATOM     81  C   UNL A   1      33.233  23.421  24.930  1.00  0.00     0.138 C 
BRANCH  81  82
ATOM     82  C   UNL A   1      33.260  21.981  25.475  1.00  0.00     0.147 C 
BRANCH  82  83
ATOM     83  N   UNL A   1      34.531  21.308  25.326  1.00  0.00    -0.353 N 
ATOM     84  C   UNL A   1      34.883  20.045  24.997  1.00  0.00     0.229 C 
ATOM     85  H   UNL A   1      35.302  21.894  25.501  1.00  0.00     0.163 HD
ATOM     86  O   UNL A   1      36.109  19.859  24.944  1.00  0.00    -0.275 OA
BRANCH  84  87
ATOM     87  C   UNL A   1      33.937  18.895  24.618  1.00  0.00     0.142 C 
ATOM     88  C   UNL A   1      32.944  18.241  25.585  1.00  0.00     0.084 C 
ATOM     89  C   UNL A   1      34.793  17.670  24.220  1.00  0.00     0.195 C 
ATOM     90  C   UNL A   1      33.292  16.748  25.528  1.00  0.00     0.183 C 
ATOM     91  C   UNL A   1      34.043  16.740  23.266  1.00  0.00     0.072 C 
ATOM     92  N   UNL A   1      34.750  16.853  25.459  1.00  0.00    -0.341 N 
ATOM     93  C   UNL A   1      32.971  16.132  24.168  1.00  0.00     0.071 C 
ATOM     94  H   UNL A   1      35.205  15.948  25.349  1.00  0.00     0.346 HD
ATOM     95  H   UNL A   1      35.228  17.229  26.279  1.00  0.00     0.346 HD
ENDBRANCH  84  87
ENDBRANCH  82  83
ENDBRANCH  81  82
ENDBRANCH  74  77
ENDBRANCH  72  73
ENDBRANCH   1  72
TORSDOF 16
ENDMDL
MODEL 3
REMARK VINA RESULT:     -11.5      5.899     11.217
REMARK SMILES O=C(NCCCNC(=O)[C@H]1CC[C@@H](CNC(=O)[C@@H]2C[C@H]3CC[C@@H]2[NH2+]3)O1)c1ccc(-c2c3nc(c(-c4cccc(S(=O)(=O)[O-])c4F)c4ccc([nH]4)c(-c4cccc(S(=O)(=O)[O-])c4F)c4nc(c(-c5cccc(S(=O)(=O)[O-])c5F)c5ccc2[nH]5)C=C4)C=C3)cc1
REMARK SMILES IDX 5 1 4 2 3 3 1 4 2 5 26 7 27 8 88 9 28 10 87 11 29 12 30 13
REMARK SMILES IDX 31 14 81 15 32 16 86 17 80 18 82 19 33 20 85 21 79 22 78 23
REMARK SMILES IDX 34 25 66 26 46 27 65 28 47 29 50 30 64 31 83 32 48 33 49 34
REMARK SMILES IDX 63 36 84 37 51 38 35 39 36 40 44 41 37 42 39 43 45 44 38 45
REMARK SMILES IDX 40 46 41 47 42 48 43 49 67 50 68 51 76 52 69 53 71 54 77 55
REMARK SMILES IDX 70 56 72 57 73 58 74 59 75 60 52 61 53 62 61 63 54 64 56 65
REMARK SMILES IDX 62 66 55 67 57 68 58 69 59 70 60 71 6 72 7 73 8 74 9 76
REMARK SMILES IDX 10 77 11 78 25 79 12 80 13 81 14 82 15 83 16 84 17 86 18 87
REMARK SMILES IDX 19 88 23 89 20 90 22 91 24 92 21 93
REMARK H PARENT 3 6 82 24 50 35 7 75 15 85 24 94 24 95
REMARK Flexibility Score: inf
ROOT
ATOM      1  C   UNL A   1      31.946  31.286  27.265  1.00  0.00     0.042 C 
ENDROOT
BRANCH   1   2
ATOM      2  C   UNL A   1      32.198  32.590  26.507  1.00  0.00     0.118 C 
BRANCH   2   3
ATOM      3  N   UNL A   1      32.218  33.814  27.299  1.00  0.00    -0.352 N 
ATOM      4  O   UNL A   1      32.756  35.458  28.685  1.00  0.00    -0.269 OA
ATOM      5  C   UNL A   1      33.065  34.345  28.246  1.00  0.00     0.251 C 
ATOM      6  H   UNL A   1      31.446  34.396  27.114  1.00  0.00     0.163 HD
BRANCH   5   7
ATOM      7  C   UNL A   1      34.259  33.654  28.828  1.00  0.00     0.039 A 
ATOM      8  C   UNL A   1      35.577  33.909  28.464  1.00  0.00     0.014 A 
ATOM      9  C   UNL A   1      34.033  32.673  29.814  1.00  0.00     0.014 A 
ATOM     10  C   UNL A   1      36.621  33.110  28.946  1.00  0.00     0.010 A 
ATOM     11  C   UNL A   1      35.089  31.928  30.367  1.00  0.00     0.010 A 
ATOM     12  C   UNL A   1      36.398  32.124  29.919  1.00  0.00    -0.014 A 
BRANCH  12  13
ATOM     13  C   UNL A   1      37.564  31.448  30.553  1.00  0.00     0.031 A 
ATOM     14  C   UNL A   1      38.379  30.400  29.843  1.00  0.00     0.074 A 
ATOM     15  C   UNL A   1      37.890  31.798  31.814  1.00  0.00     0.049 A 
ATOM     16  N   UNL A   1      39.465  29.791  30.252  1.00  0.00    -0.248 NA
ATOM     17  C   UNL A   1      37.919  29.970  28.514  1.00  0.00     0.031 C 
ATOM     18  C   UNL A   1      37.143  32.752  32.638  1.00  0.00     0.029 A 
ATOM     19  N   UNL A   1      38.922  31.399  32.625  1.00  0.00    -0.354 N 
ATOM     20  C   UNL A   1      39.809  28.894  29.249  1.00  0.00     0.074 A 
ATOM     21  C   UNL A   1      38.806  29.028  28.211  1.00  0.00     0.031 C 
ATOM     22  C   UNL A   1      37.752  32.883  33.824  1.00  0.00     0.029 A 
ATOM     23  C   UNL A   1      38.904  31.991  33.867  1.00  0.00     0.049 A 
ATOM     24  H   UNL A   1      39.610  30.752  32.346  1.00  0.00     0.167 HD
ATOM     25  C   UNL A   1      40.871  28.051  29.190  1.00  0.00     0.034 A 
ATOM     26  C   UNL A   1      39.713  31.830  34.932  1.00  0.00     0.034 A 
ATOM     27  C   UNL A   1      41.878  27.932  30.216  1.00  0.00     0.049 A 
ATOM     28  C   UNL A   1      40.886  30.900  34.829  1.00  0.00     0.074 A 
ATOM     29  C   UNL A   1      43.029  27.161  30.204  1.00  0.00     0.029 A 
ATOM     30  N   UNL A   1      41.850  28.579  31.442  1.00  0.00    -0.354 N 
ATOM     31  N   UNL A   1      41.285  30.184  33.807  1.00  0.00    -0.248 NA
ATOM     32  C   UNL A   1      41.745  30.780  36.017  1.00  0.00     0.031 C 
ATOM     33  C   UNL A   1      43.676  27.311  31.436  1.00  0.00     0.029 A 
ATOM     34  C   UNL A   1      42.951  28.210  32.201  1.00  0.00     0.049 A 
ATOM     35  H   UNL A   1      41.151  29.209  31.731  1.00  0.00     0.167 HD
ATOM     36  C   UNL A   1      42.455  29.557  34.214  1.00  0.00     0.074 A 
ATOM     37  C   UNL A   1      42.717  29.998  35.569  1.00  0.00     0.031 C 
ATOM     38  C   UNL A   1      43.235  28.685  33.531  1.00  0.00     0.034 A 
BRANCH  25  39
ATOM     39  C   UNL A   1      41.040  27.200  27.954  1.00  0.00     0.023 A 
ATOM     40  C   UNL A   1      41.651  27.751  26.809  1.00  0.00     0.012 A 
ATOM     41  C   UNL A   1      40.704  25.830  27.963  1.00  0.00     0.148 A 
ATOM     42  C   UNL A   1      41.900  26.962  25.686  1.00  0.00     0.002 A 
ATOM     43  C   UNL A   1      40.993  25.041  26.856  1.00  0.00     0.091 A 
ATOM     44  F   UNL A   1      40.117  25.325  29.058  1.00  0.00    -0.205 F 
ATOM     45  C   UNL A   1      41.583  25.606  25.713  1.00  0.00     0.022 A 
BRANCH  43  46
ATOM     46  S   UNL A   1      40.701  23.268  26.819  1.00  0.00     0.127 S 
ATOM     47  O   UNL A   1      41.183  22.862  28.138  1.00  0.00    -0.237 OA
ATOM     48  O   UNL A   1      39.249  23.198  26.653  1.00  0.00    -0.237 OA
ATOM     49  O   UNL A   1      41.469  22.755  25.690  1.00  0.00    -0.744 OA
ENDBRANCH  43  46
ENDBRANCH  25  39
BRANCH  26  50
ATOM     50  C   UNL A   1      39.454  32.599  36.181  1.00  0.00     0.023 A 
ATOM     51  C   UNL A   1      40.067  33.853  36.370  1.00  0.00     0.012 A 
ATOM     52  C   UNL A   1      38.585  32.103  37.172  1.00  0.00     0.148 A 
ATOM     53  C   UNL A   1      39.852  34.579  37.541  1.00  0.00     0.002 A 
ATOM     54  C   UNL A   1      38.325  32.859  38.307  1.00  0.00     0.091 A 
ATOM     55  F   UNL A   1      38.019  30.902  36.977  1.00  0.00    -0.205 F 
ATOM     56  C   UNL A   1      38.973  34.088  38.503  1.00  0.00     0.022 A 
BRANCH  54  57
ATOM     57  S   UNL A   1      37.106  32.366  39.529  1.00  0.00     0.127 S 
ATOM     58  O   UNL A   1      37.153  33.485  40.465  1.00  0.00    -0.237 OA
ATOM     59  O   UNL A   1      35.887  32.286  38.723  1.00  0.00    -0.237 OA
ATOM     60  O   UNL A   1      37.566  31.085  40.048  1.00  0.00    -0.744 OA
ENDBRANCH  54  57
ENDBRANCH  26  50
BRANCH  38  61
ATOM     61  C   UNL A   1      44.477  28.173  34.216  1.00  0.00     0.023 A 
ATOM     62  C   UNL A   1      45.682  28.900  34.127  1.00  0.00     0.012 A 
ATOM     63  C   UNL A   1      44.436  26.999  34.993  1.00  0.00     0.148 A 
ATOM     64  C   UNL A   1      46.834  28.444  34.769  1.00  0.00     0.002 A 
ATOM     65  C   UNL A   1      45.574  26.580  35.673  1.00  0.00     0.091 A 
ATOM     66  F   UNL A   1      43.286  26.310  35.050  1.00  0.00    -0.205 F 
ATOM     67  C   UNL A   1      46.777  27.293  35.550  1.00  0.00     0.022 A 
BRANCH  65  68
ATOM     68  S   UNL A   1      45.572  25.163  36.777  1.00  0.00     0.127 S 
ATOM     69  O   UNL A   1      45.438  24.052  35.837  1.00  0.00    -0.237 OA
ATOM     70  O   UNL A   1      46.885  25.266  37.415  1.00  0.00    -0.237 OA
ATOM     71  O   UNL A   1      44.444  25.356  37.679  1.00  0.00    -0.744 OA
ENDBRANCH  65  68
ENDBRANCH  38  61
ENDBRANCH  12  13
ENDBRANCH   5   7
ENDBRANCH   2   3
ENDBRANCH   1   2
BRANCH   1  72
ATOM     72  C   UNL A   1      32.936  30.149  27.056  1.00  0.00     0.117 C 
BRANCH  72  73
ATOM     73  N   UNL A   1      33.311  30.075  25.658  1.00  0.00    -0.354 N 
ATOM     74  C   UNL A   1      32.784  29.281  24.683  1.00  0.00     0.249 C 
ATOM     75  H   UNL A   1      34.039  30.675  25.376  1.00  0.00     0.163 HD
ATOM     76  O   UNL A   1      33.416  29.214  23.623  1.00  0.00    -0.272 OA
BRANCH  74  77
ATOM     77  C   UNL A   1      31.381  28.615  24.849  1.00  0.00     0.207 C 
ATOM     78  C   UNL A   1      30.571  28.740  23.546  1.00  0.00     0.045 C 
ATOM     79  O   UNL A   1      31.263  27.242  25.254  1.00  0.00    -0.363 OA
ATOM     80  C   UNL A   1      30.412  27.303  23.103  1.00  0.00     0.037 C 
ATOM     81  C   UNL A   1      30.245  26.622  24.445  1.00  0.00     0.138 C 
BRANCH  81  82
ATOM     82  C   UNL A   1      30.293  25.084  24.388  1.00  0.00     0.147 C 
BRANCH  82  83
ATOM     83  N   UNL A   1      30.326  24.437  25.681  1.00  0.00    -0.353 N 
ATOM     84  C   UNL A   1      31.179  23.566  26.266  1.00  0.00     0.229 C 
ATOM     85  H   UNL A   1      29.566  24.683  26.256  1.00  0.00     0.163 HD
ATOM     86  O   UNL A   1      30.871  23.260  27.429  1.00  0.00    -0.275 OA
BRANCH  84  87
ATOM     87  C   UNL A   1      32.484  23.015  25.670  1.00  0.00     0.142 C 
ATOM     88  C   UNL A   1      32.549  22.067  24.467  1.00  0.00     0.084 C 
ATOM     89  C   UNL A   1      33.187  22.155  26.746  1.00  0.00     0.195 C 
ATOM     90  C   UNL A   1      33.356  20.867  24.978  1.00  0.00     0.183 C 
ATOM     91  C   UNL A   1      34.697  22.090  26.522  1.00  0.00     0.072 C 
ATOM     92  N   UNL A   1      32.808  20.780  26.332  1.00  0.00    -0.341 N 
ATOM     93  C   UNL A   1      34.811  21.229  25.265  1.00  0.00     0.071 C 
ATOM     94  H   UNL A   1      33.261  20.061  26.894  1.00  0.00     0.346 HD
ATOM     95  H   UNL A   1      31.824  20.524  26.419  1.00  0.00     0.346 HD
ENDBRANCH  84  87
ENDBRANCH  82  83
ENDBRANCH  81  82
ENDBRANCH  74  77
ENDBRANCH  72  73
ENDBRANCH   1  72
TORSDOF 16
ENDMDL
