MODEL 1
REMARK VINA RESULT:     -12.9      0.000      0.000
REMARK SMILES O=C1Nc2ccccc2/C1=C/c1cccc(C(=O)NCCCNC(=O)c2ccc(-c3c4nc(c(-c5cccc(S(=O)(=O)[O-])c5F)c5ccc([nH]5)c(-c5cccc(S(=O)(=O)[O-])c5F)c5nc(c(-c6cccc(S(=O)(=O)[O-])c6F)c6ccc3[nH]6)C=C5)C=C4)cc2)c1
REMARK SMILES IDX 22 1 21 2 20 3 19 4 17 5 18 6 16 8 12 9 13 10 89 11 14 12
REMARK SMILES IDX 15 13 11 14 1 15 2 16 3 17 10 18 4 19 9 21 5 22 8 23 6 24
REMARK SMILES IDX 7 25 23 26 24 27 25 29 26 30 27 31 88 32 28 33 87 34 29 35
REMARK SMILES IDX 30 36 31 37 81 38 32 39 86 40 80 41 82 42 33 43 85 44 79 45
REMARK SMILES IDX 78 46 34 48 66 49 46 50 65 51 47 52 50 53 64 54 83 55 48 56
REMARK SMILES IDX 49 57 63 59 84 60 51 61 35 62 36 63 44 64 37 65 39 66 45 67
REMARK SMILES IDX 38 68 40 69 41 70 42 71 43 72 67 73 68 74 76 75 69 76 71 77
REMARK SMILES IDX 77 78 70 79 72 80 73 81 74 82 75 83 52 84 53 85 61 86 54 87
REMARK SMILES IDX 56 88 62 89 55 90 57 91 58 92 59 93 60 94
REMARK H PARENT 19 7 3 20 23 28 82 47 50 58
REMARK Flexibility Score: inf
ROOT
ATOM      1  C   UNL A   1      32.652  32.429  27.240  1.00  0.00     0.118 C 
ENDROOT
BRANCH   1   2
ATOM      2  C   UNL A   1      31.422  31.935  26.482  1.00  0.00     0.042 C 
BRANCH   2   3
ATOM      3  C   UNL A   1      31.588  30.513  25.948  1.00  0.00     0.118 C 
BRANCH   3   4
ATOM      4  N   UNL A   1      31.071  30.397  24.595  1.00  0.00    -0.352 N 
ATOM      5  C   UNL A   1      30.778  29.321  23.793  1.00  0.00     0.251 C 
ATOM      6  O   UNL A   1      30.282  29.566  22.691  1.00  0.00    -0.269 OA
ATOM      7  H   UNL A   1      30.895  31.265  24.166  1.00  0.00     0.163 HD
BRANCH   5   8
ATOM      8  C   UNL A   1      30.972  27.898  24.195  1.00  0.00     0.040 A 
ATOM      9  C   UNL A   1      32.338  26.007  24.896  1.00  0.00    -0.024 A 
ATOM     10  C   UNL A   1      31.193  25.269  25.191  1.00  0.00     0.008 A 
ATOM     11  C   UNL A   1      32.212  27.276  24.316  1.00  0.00     0.022 A 
ATOM     12  C   UNL A   1      29.936  25.828  24.960  1.00  0.00     0.001 A 
ATOM     13  C   UNL A   1      29.828  27.142  24.493  1.00  0.00     0.014 A 
BRANCH   9  14
ATOM     14  C   UNL A   1      33.685  25.530  25.228  1.00  0.00     0.022 C 
ATOM     15  O   UNL A   1      32.894  24.202  22.537  1.00  0.00    -0.269 OA
ATOM     16  C   UNL A   1      33.877  23.962  23.206  1.00  0.00     0.256 C 
ATOM     17  N   UNL A   1      34.851  23.022  22.906  1.00  0.00    -0.321 N 
ATOM     18  C   UNL A   1      34.326  24.589  24.513  1.00  0.00     0.050 C 
ATOM     19  C   UNL A   1      35.848  22.994  23.874  1.00  0.00     0.049 A 
ATOM     20  H   UNL A   1      34.839  22.447  22.107  1.00  0.00     0.170 HD
ATOM     21  C   UNL A   1      35.586  23.933  24.880  1.00  0.00     0.011 A 
ATOM     22  C   UNL A   1      36.943  22.156  23.899  1.00  0.00     0.027 A 
ATOM     23  C   UNL A   1      36.429  24.033  25.972  1.00  0.00     0.011 A 
ATOM     24  C   UNL A   1      37.802  22.261  24.994  1.00  0.00     0.002 A 
ATOM     25  C   UNL A   1      37.544  23.188  26.023  1.00  0.00     0.001 A 
ENDBRANCH   9  14
ENDBRANCH   5   8
ENDBRANCH   3   4
ENDBRANCH   2   3
ENDBRANCH   1   2
BRANCH   1  26
ATOM     26  N   UNL A   1      32.539  33.843  27.583  1.00  0.00    -0.352 N 
ATOM     27  C   UNL A   1      33.142  34.563  28.581  1.00  0.00     0.251 C 
ATOM     28  H   UNL A   1      31.934  34.362  27.005  1.00  0.00     0.163 HD
ATOM     29  O   UNL A   1      32.712  35.678  28.864  1.00  0.00    -0.269 OA
BRANCH  27  30
ATOM     30  C   UNL A   1      34.301  34.009  29.312  1.00  0.00     0.039 A 
ATOM     31  C   UNL A   1      34.074  33.161  30.399  1.00  0.00     0.014 A 
ATOM     32  C   UNL A   1      35.607  34.357  28.959  1.00  0.00     0.014 A 
ATOM     33  C   UNL A   1      35.156  32.625  31.100  1.00  0.00     0.010 A 
ATOM     34  C   UNL A   1      36.684  33.755  29.600  1.00  0.00     0.010 A 
ATOM     35  C   UNL A   1      36.471  32.894  30.686  1.00  0.00    -0.014 A 
BRANCH  35  36
ATOM     36  C   UNL A   1      37.636  32.283  31.373  1.00  0.00     0.031 A 
ATOM     37  C   UNL A   1      38.372  31.132  30.744  1.00  0.00     0.074 A 
ATOM     38  C   UNL A   1      37.977  32.712  32.604  1.00  0.00     0.049 A 
ATOM     39  N   UNL A   1      39.377  30.439  31.214  1.00  0.00    -0.248 NA
ATOM     40  C   UNL A   1      37.901  30.681  29.424  1.00  0.00     0.031 C 
ATOM     41  C   UNL A   1      37.291  33.770  33.350  1.00  0.00     0.029 A 
ATOM     42  N   UNL A   1      38.968  32.296  33.456  1.00  0.00    -0.354 N 
ATOM     43  C   UNL A   1      39.633  29.452  30.270  1.00  0.00     0.074 A 
ATOM     44  C   UNL A   1      38.652  29.608  29.219  1.00  0.00     0.031 C 
ATOM     45  C   UNL A   1      37.891  33.932  34.538  1.00  0.00     0.029 A 
ATOM     46  C   UNL A   1      38.977  32.964  34.658  1.00  0.00     0.049 A 
ATOM     47  H   UNL A   1      39.613  31.589  33.228  1.00  0.00     0.167 HD
ATOM     48  C   UNL A   1      40.613  28.516  30.264  1.00  0.00     0.034 A 
ATOM     49  C   UNL A   1      39.765  32.809  35.740  1.00  0.00     0.034 A 
ATOM     50  C   UNL A   1      41.601  28.383  31.300  1.00  0.00     0.049 A 
ATOM     51  C   UNL A   1      40.857  31.775  35.701  1.00  0.00     0.074 A 
ATOM     52  C   UNL A   1      42.683  27.524  31.353  1.00  0.00     0.029 A 
ATOM     53  N   UNL A   1      41.617  29.119  32.476  1.00  0.00    -0.354 N 
ATOM     54  N   UNL A   1      41.178  30.950  34.735  1.00  0.00    -0.248 NA
ATOM     55  C   UNL A   1      41.718  31.676  36.888  1.00  0.00     0.031 C 
ATOM     56  C   UNL A   1      43.331  27.714  32.579  1.00  0.00     0.029 A 
ATOM     57  C   UNL A   1      42.681  28.724  33.269  1.00  0.00     0.049 A 
ATOM     58  H   UNL A   1      40.967  29.821  32.712  1.00  0.00     0.167 HD
ATOM     59  C   UNL A   1      42.300  30.260  35.179  1.00  0.00     0.074 A 
ATOM     60  C   UNL A   1      42.613  30.779  36.495  1.00  0.00     0.031 C 
ATOM     61  C   UNL A   1      43.003  29.279  34.559  1.00  0.00     0.034 A 
BRANCH  48  62
ATOM     62  C   UNL A   1      40.681  27.586  29.078  1.00  0.00     0.023 A 
ATOM     63  C   UNL A   1      39.819  26.470  29.012  1.00  0.00     0.012 A 
ATOM     64  C   UNL A   1      41.571  27.830  28.014  1.00  0.00     0.148 A 
ATOM     65  C   UNL A   1      39.877  25.587  27.934  1.00  0.00     0.002 A 
ATOM     66  C   UNL A   1      41.587  26.974  26.917  1.00  0.00     0.091 A 
ATOM     67  F   UNL A   1      42.396  28.883  28.098  1.00  0.00    -0.205 F 
ATOM     68  C   UNL A   1      40.753  25.844  26.884  1.00  0.00     0.022 A 
BRANCH  66  69
ATOM     69  S   UNL A   1      42.617  27.265  25.477  1.00  0.00     0.127 S 
ATOM     70  O   UNL A   1      43.948  27.349  26.078  1.00  0.00    -0.237 OA
ATOM     71  O   UNL A   1      42.383  26.057  24.684  1.00  0.00    -0.237 OA
ATOM     72  O   UNL A   1      42.126  28.494  24.871  1.00  0.00    -0.744 OA
ENDBRANCH  66  69
ENDBRANCH  48  62
BRANCH  49  73
ATOM     73  C   UNL A   1      39.590  33.701  36.921  1.00  0.00     0.023 A 
ATOM     74  C   UNL A   1      40.031  35.036  36.847  1.00  0.00     0.012 A 
ATOM     75  C   UNL A   1      38.959  33.249  38.096  1.00  0.00     0.148 A 
ATOM     76  C   UNL A   1      39.875  35.898  37.935  1.00  0.00     0.002 A 
ATOM     77  C   UNL A   1      38.756  34.127  39.154  1.00  0.00     0.091 A 
ATOM     78  F   UNL A   1      38.551  31.972  38.146  1.00  0.00    -0.205 F 
ATOM     79  C   UNL A   1      39.230  35.446  39.082  1.00  0.00     0.022 A 
BRANCH  77  80
ATOM     80  S   UNL A   1      37.820  33.676  40.619  1.00  0.00     0.127 S 
ATOM     81  O   UNL A   1      36.592  33.140  40.038  1.00  0.00    -0.237 OA
ATOM     82  O   UNL A   1      38.696  32.680  41.237  1.00  0.00    -0.237 OA
ATOM     83  O   UNL A   1      37.670  34.904  41.387  1.00  0.00    -0.744 OA
ENDBRANCH  77  80
ENDBRANCH  49  73
BRANCH  61  84
ATOM     84  C   UNL A   1      44.211  28.729  35.273  1.00  0.00     0.023 A 
ATOM     85  C   UNL A   1      45.487  29.274  35.029  1.00  0.00     0.012 A 
ATOM     86  C   UNL A   1      44.067  27.714  36.240  1.00  0.00     0.148 A 
ATOM     87  C   UNL A   1      46.605  28.793  35.708  1.00  0.00     0.002 A 
ATOM     88  C   UNL A   1      45.177  27.277  36.952  1.00  0.00     0.091 A 
ATOM     89  F   UNL A   1      42.847  27.197  36.446  1.00  0.00    -0.205 F 
ATOM     90  C   UNL A   1      46.449  27.804  36.677  1.00  0.00     0.022 A 
BRANCH  88  91
ATOM     91  S   UNL A   1      45.055  26.083  38.288  1.00  0.00     0.127 S 
ATOM     92  O   UNL A   1      46.452  25.959  38.702  1.00  0.00    -0.237 OA
ATOM     93  O   UNL A   1      44.195  26.778  39.246  1.00  0.00    -0.237 OA
ATOM     94  O   UNL A   1      44.470  24.884  37.706  1.00  0.00    -0.744 OA
ENDBRANCH  88  91
ENDBRANCH  61  84
ENDBRANCH  35  36
ENDBRANCH  27  30
ENDBRANCH   1  26
TORSDOF 14
ENDMDL
MODEL 2
REMARK VINA RESULT:     -12.8      3.298      8.539
REMARK SMILES O=C1Nc2ccccc2/C1=C/c1cccc(C(=O)NCCCNC(=O)c2ccc(-c3c4nc(c(-c5cccc(S(=O)(=O)[O-])c5F)c5ccc([nH]5)c(-c5cccc(S(=O)(=O)[O-])c5F)c5nc(c(-c6cccc(S(=O)(=O)[O-])c6F)c6ccc3[nH]6)C=C5)C=C4)cc2)c1
REMARK SMILES IDX 22 1 21 2 20 3 19 4 17 5 18 6 16 8 12 9 13 10 89 11 14 12
REMARK SMILES IDX 15 13 11 14 1 15 2 16 3 17 10 18 4 19 9 21 5 22 8 23 6 24
REMARK SMILES IDX 7 25 23 26 24 27 25 29 26 30 27 31 88 32 28 33 87 34 29 35
REMARK SMILES IDX 30 36 31 37 81 38 32 39 86 40 80 41 82 42 33 43 85 44 79 45
REMARK SMILES IDX 78 46 34 48 66 49 46 50 65 51 47 52 50 53 64 54 83 55 48 56
REMARK SMILES IDX 49 57 63 59 84 60 51 61 35 62 36 63 44 64 37 65 39 66 45 67
REMARK SMILES IDX 38 68 40 69 41 70 42 71 43 72 67 73 68 74 76 75 69 76 71 77
REMARK SMILES IDX 77 78 70 79 72 80 73 81 74 82 75 83 52 84 53 85 61 86 54 87
REMARK SMILES IDX 56 88 62 89 55 90 57 91 58 92 59 93 60 94
REMARK H PARENT 19 7 3 20 23 28 82 47 50 58
REMARK Flexibility Score: inf
ROOT
ATOM      1  C   UNL A   1      34.059  29.109  26.107  1.00  0.00     0.118 C 
ENDROOT
BRANCH   1   2
ATOM      2  C   UNL A   1      33.245  29.039  24.817  1.00  0.00     0.042 C 
BRANCH   2   3
ATOM      3  C   UNL A   1      31.797  29.492  25.005  1.00  0.00     0.118 C 
BRANCH   3   4
ATOM      4  N   UNL A   1      30.915  28.833  24.057  1.00  0.00    -0.352 N 
ATOM      5  C   UNL A   1      30.544  27.523  23.876  1.00  0.00     0.251 C 
ATOM      6  O   UNL A   1      29.708  27.296  22.999  1.00  0.00    -0.269 OA
ATOM      7  H   UNL A   1      30.499  29.451  23.413  1.00  0.00     0.163 HD
BRANCH   5   8
ATOM      8  C   UNL A   1      31.046  26.388  24.704  1.00  0.00     0.040 A 
ATOM      9  C   UNL A   1      32.815  24.994  25.632  1.00  0.00    -0.024 A 
ATOM     10  C   UNL A   1      31.905  24.386  26.495  1.00  0.00     0.008 A 
ATOM     11  C   UNL A   1      32.358  25.920  24.685  1.00  0.00     0.022 A 
ATOM     12  C   UNL A   1      30.559  24.753  26.445  1.00  0.00     0.001 A 
ATOM     13  C   UNL A   1      30.141  25.765  25.576  1.00  0.00     0.014 A 
BRANCH   9  14
ATOM     14  C   UNL A   1      34.258  24.748  25.715  1.00  0.00     0.022 C 
ATOM     15  O   UNL A   1      33.028  22.383  24.125  1.00  0.00    -0.269 OA
ATOM     16  C   UNL A   1      34.172  22.481  24.515  1.00  0.00     0.256 C 
ATOM     17  N   UNL A   1      35.171  21.536  24.339  1.00  0.00    -0.321 N 
ATOM     18  C   UNL A   1      34.835  23.615  25.275  1.00  0.00     0.050 C 
ATOM     19  C   UNL A   1      36.372  21.952  24.902  1.00  0.00     0.049 A 
ATOM     20  H   UNL A   1      35.046  20.678  23.873  1.00  0.00     0.170 HD
ATOM     21  C   UNL A   1      36.232  23.217  25.485  1.00  0.00     0.011 A 
ATOM     22  C   UNL A   1      37.553  21.239  24.933  1.00  0.00     0.027 A 
ATOM     23  C   UNL A   1      37.297  23.797  26.150  1.00  0.00     0.011 A 
ATOM     24  C   UNL A   1      38.633  21.825  25.595  1.00  0.00     0.002 A 
ATOM     25  C   UNL A   1      38.505  23.090  26.201  1.00  0.00     0.001 A 
ENDBRANCH   9  14
ENDBRANCH   5   8
ENDBRANCH   3   4
ENDBRANCH   2   3
ENDBRANCH   1   2
BRANCH   1  26
ATOM     26  N   UNL A   1      33.908  30.402  26.767  1.00  0.00    -0.352 N 
ATOM     27  C   UNL A   1      34.589  30.938  27.829  1.00  0.00     0.251 C 
ATOM     28  H   UNL A   1      33.207  30.981  26.389  1.00  0.00     0.163 HD
ATOM     29  O   UNL A   1      34.134  31.927  28.399  1.00  0.00    -0.269 OA
BRANCH  27  30
ATOM     30  C   UNL A   1      35.860  30.339  28.287  1.00  0.00     0.039 A 
ATOM     31  C   UNL A   1      37.004  30.492  27.499  1.00  0.00     0.014 A 
ATOM     32  C   UNL A   1      35.918  29.591  29.465  1.00  0.00     0.014 A 
ATOM     33  C   UNL A   1      38.214  29.936  27.917  1.00  0.00     0.010 A 
ATOM     34  C   UNL A   1      37.140  29.113  29.924  1.00  0.00     0.010 A 
ATOM     35  C   UNL A   1      38.299  29.268  29.149  1.00  0.00    -0.014 A 
BRANCH  35  36
ATOM     36  C   UNL A   1      39.588  28.727  29.646  1.00  0.00     0.031 A 
ATOM     37  C   UNL A   1      40.337  29.434  30.743  1.00  0.00     0.074 A 
ATOM     38  C   UNL A   1      40.125  27.645  29.049  1.00  0.00     0.049 A 
ATOM     39  N   UNL A   1      41.497  29.141  31.271  1.00  0.00    -0.248 NA
ATOM     40  C   UNL A   1      39.714  30.644  31.303  1.00  0.00     0.031 C 
ATOM     41  C   UNL A   1      39.529  26.918  27.925  1.00  0.00     0.029 A 
ATOM     42  N   UNL A   1      41.302  26.981  29.286  1.00  0.00    -0.354 N 
ATOM     43  C   UNL A   1      41.760  30.147  32.193  1.00  0.00     0.074 A 
ATOM     44  C   UNL A   1      40.658  31.080  32.125  1.00  0.00     0.031 C 
ATOM     45  C   UNL A   1      40.334  25.901  27.582  1.00  0.00     0.029 A 
ATOM     46  C   UNL A   1      41.521  25.926  28.431  1.00  0.00     0.049 A 
ATOM     47  H   UNL A   1      41.929  27.235  30.001  1.00  0.00     0.167 HD
ATOM     48  C   UNL A   1      42.809  30.269  33.042  1.00  0.00     0.034 A 
ATOM     49  C   UNL A   1      42.564  25.080  28.335  1.00  0.00     0.034 A 
ATOM     50  C   UNL A   1      43.889  29.322  33.122  1.00  0.00     0.049 A 
ATOM     51  C   UNL A   1      43.709  25.225  29.300  1.00  0.00     0.074 A 
ATOM     52  C   UNL A   1      44.958  29.308  34.000  1.00  0.00     0.029 A 
ATOM     53  N   UNL A   1      44.047  28.229  32.282  1.00  0.00    -0.354 N 
ATOM     54  N   UNL A   1      43.868  26.096  30.267  1.00  0.00    -0.248 NA
ATOM     55  C   UNL A   1      44.802  24.249  29.184  1.00  0.00     0.031 C 
ATOM     56  C   UNL A   1      45.782  28.227  33.664  1.00  0.00     0.029 A 
ATOM     57  C   UNL A   1      45.203  27.543  32.609  1.00  0.00     0.049 A 
ATOM     58  H   UNL A   1      43.426  27.979  31.559  1.00  0.00     0.167 HD
ATOM     59  C   UNL A   1      45.057  25.751  30.899  1.00  0.00     0.074 A 
ATOM     60  C   UNL A   1      45.567  24.580  30.215  1.00  0.00     0.031 C 
ATOM     61  C   UNL A   1      45.676  26.354  31.945  1.00  0.00     0.034 A 
BRANCH  48  62
ATOM     62  C   UNL A   1      42.818  31.455  33.975  1.00  0.00     0.023 A 
ATOM     63  C   UNL A   1      43.405  32.669  33.559  1.00  0.00     0.012 A 
ATOM     64  C   UNL A   1      42.218  31.382  35.247  1.00  0.00     0.148 A 
ATOM     65  C   UNL A   1      43.440  33.773  34.411  1.00  0.00     0.002 A 
ATOM     66  C   UNL A   1      42.211  32.502  36.071  1.00  0.00     0.091 A 
ATOM     67  F   UNL A   1      41.681  30.217  35.635  1.00  0.00    -0.205 F 
ATOM     68  C   UNL A   1      42.836  33.692  35.662  1.00  0.00     0.022 A 
BRANCH  66  69
ATOM     69  S   UNL A   1      41.385  32.526  37.665  1.00  0.00     0.127 S 
ATOM     70  O   UNL A   1      41.538  33.928  38.056  1.00  0.00    -0.237 OA
ATOM     71  O   UNL A   1      40.019  32.140  37.308  1.00  0.00    -0.237 OA
ATOM     72  O   UNL A   1      42.090  31.563  38.499  1.00  0.00    -0.744 OA
ENDBRANCH  66  69
ENDBRANCH  48  62
BRANCH  49  73
ATOM     73  C   UNL A   1      42.539  23.980  27.330  1.00  0.00     0.023 A 
ATOM     74  C   UNL A   1      43.050  24.213  26.039  1.00  0.00     0.012 A 
ATOM     75  C   UNL A   1      42.048  22.700  27.655  1.00  0.00     0.148 A 
ATOM     76  C   UNL A   1      43.044  23.200  25.078  1.00  0.00     0.002 A 
ATOM     77  C   UNL A   1      42.098  21.680  26.712  1.00  0.00     0.091 A 
ATOM     78  F   UNL A   1      41.562  22.501  28.889  1.00  0.00    -0.205 F 
ATOM     79  C   UNL A   1      42.579  21.934  25.417  1.00  0.00     0.022 A 
BRANCH  77  80
ATOM     80  S   UNL A   1      41.644  19.985  27.095  1.00  0.00     0.127 S 
ATOM     81  O   UNL A   1      40.505  20.175  27.988  1.00  0.00    -0.237 OA
ATOM     82  O   UNL A   1      41.309  19.461  25.770  1.00  0.00    -0.237 OA
ATOM     83  O   UNL A   1      42.825  19.385  27.699  1.00  0.00    -0.744 OA
ENDBRANCH  77  80
ENDBRANCH  49  73
BRANCH  61  84
ATOM     84  C   UNL A   1      46.954  25.735  32.450  1.00  0.00     0.023 A 
ATOM     85  C   UNL A   1      48.191  26.102  31.883  1.00  0.00     0.012 A 
ATOM     86  C   UNL A   1      46.932  24.838  33.537  1.00  0.00     0.148 A 
ATOM     87  C   UNL A   1      49.380  25.558  32.365  1.00  0.00     0.002 A 
ATOM     88  C   UNL A   1      48.124  24.343  34.048  1.00  0.00     0.091 A 
ATOM     89  F   UNL A   1      45.744  24.489  34.052  1.00  0.00    -0.205 F 
ATOM     90  C   UNL A   1      49.348  24.689  33.454  1.00  0.00     0.022 A 
BRANCH  88  91
ATOM     91  S   UNL A   1      48.188  23.301  35.509  1.00  0.00     0.127 S 
ATOM     92  O   UNL A   1      47.565  22.071  35.024  1.00  0.00    -0.237 OA
ATOM     93  O   UNL A   1      49.627  23.201  35.754  1.00  0.00    -0.237 OA
ATOM     94  O   UNL A   1      47.445  24.009  36.542  1.00  0.00    -0.744 OA
ENDBRANCH  88  91
ENDBRANCH  61  84
ENDBRANCH  35  36
ENDBRANCH  27  30
ENDBRANCH   1  26
TORSDOF 14
ENDMDL
MODEL 3
REMARK VINA RESULT:     -12.8      5.618     11.746
REMARK SMILES O=C1Nc2ccccc2/C1=C/c1cccc(C(=O)NCCCNC(=O)c2ccc(-c3c4nc(c(-c5cccc(S(=O)(=O)[O-])c5F)c5ccc([nH]5)c(-c5cccc(S(=O)(=O)[O-])c5F)c5nc(c(-c6cccc(S(=O)(=O)[O-])c6F)c6ccc3[nH]6)C=C5)C=C4)cc2)c1
REMARK SMILES IDX 22 1 21 2 20 3 19 4 17 5 18 6 16 8 12 9 13 10 89 11 14 12
REMARK SMILES IDX 15 13 11 14 1 15 2 16 3 17 10 18 4 19 9 21 5 22 8 23 6 24
REMARK SMILES IDX 7 25 23 26 24 27 25 29 26 30 27 31 88 32 28 33 87 34 29 35
REMARK SMILES IDX 30 36 31 37 81 38 32 39 86 40 80 41 82 42 33 43 85 44 79 45
REMARK SMILES IDX 78 46 34 48 66 49 46 50 65 51 47 52 50 53 64 54 83 55 48 56
REMARK SMILES IDX 49 57 63 59 84 60 51 61 35 62 36 63 44 64 37 65 39 66 45 67
REMARK SMILES IDX 38 68 40 69 41 70 42 71 43 72 67 73 68 74 76 75 69 76 71 77
REMARK SMILES IDX 77 78 70 79 72 80 73 81 74 82 75 83 52 84 53 85 61 86 54 87
REMARK SMILES IDX 56 88 62 89 55 90 57 91 58 92 59 93 60 94
REMARK H PARENT 19 7 3 20 23 28 82 47 50 58
REMARK Flexibility Score: inf
ROOT
ATOM      1  C   UNL A   1      38.983  20.432  25.659  1.00  0.00     0.118 C 
ENDROOT
BRANCH   1   2
ATOM      2  C   UNL A   1      37.780  19.794  24.969  1.00  0.00     0.042 C 
BRANCH   2   3
ATOM      3  C   UNL A   1      36.533  20.676  25.017  1.00  0.00     0.118 C 
BRANCH   3   4
ATOM      4  N   UNL A   1      35.336  19.882  25.235  1.00  0.00    -0.352 N 
ATOM      5  C   UNL A   1      34.001  20.120  25.018  1.00  0.00     0.251 C 
ATOM      6  O   UNL A   1      33.223  19.194  25.258  1.00  0.00    -0.269 OA
ATOM      7  H   UNL A   1      35.519  18.994  25.617  1.00  0.00     0.163 HD
BRANCH   5   8
ATOM      8  C   UNL A   1      33.456  21.395  24.466  1.00  0.00     0.040 A 
ATOM      9  C   UNL A   1      33.224  23.819  24.426  1.00  0.00    -0.024 A 
ATOM     10  C   UNL A   1      32.579  23.753  23.192  1.00  0.00     0.008 A 
ATOM     11  C   UNL A   1      33.571  22.635  25.089  1.00  0.00     0.022 A 
ATOM     12  C   UNL A   1      32.341  22.508  22.606  1.00  0.00     0.001 A 
ATOM     13  C   UNL A   1      32.802  21.343  23.226  1.00  0.00     0.014 A 
BRANCH   9  14
ATOM     14  C   UNL A   1      33.614  25.093  25.038  1.00  0.00     0.022 C 
ATOM     15  O   UNL A   1      30.730  24.474  26.002  1.00  0.00    -0.269 OA
ATOM     16  C   UNL A   1      31.354  25.498  26.184  1.00  0.00     0.256 C 
ATOM     17  N   UNL A   1      30.893  26.618  26.857  1.00  0.00    -0.321 N 
ATOM     18  C   UNL A   1      32.767  25.850  25.758  1.00  0.00     0.050 C 
ATOM     19  C   UNL A   1      31.854  27.622  26.896  1.00  0.00     0.049 A 
ATOM     20  H   UNL A   1      29.997  26.694  27.259  1.00  0.00     0.170 HD
ATOM     21  C   UNL A   1      33.024  27.211  26.245  1.00  0.00     0.011 A 
ATOM     22  C   UNL A   1      31.710  28.874  27.458  1.00  0.00     0.027 A 
ATOM     23  C   UNL A   1      34.091  28.081  26.120  1.00  0.00     0.011 A 
ATOM     24  C   UNL A   1      32.789  29.752  27.343  1.00  0.00     0.002 A 
ATOM     25  C   UNL A   1      33.967  29.360  26.677  1.00  0.00     0.001 A 
ENDBRANCH   9  14
ENDBRANCH   5   8
ENDBRANCH   3   4
ENDBRANCH   2   3
ENDBRANCH   1   2
BRANCH   1  26
ATOM     26  N   UNL A   1      40.020  19.448  25.951  1.00  0.00    -0.352 N 
ATOM     27  C   UNL A   1      41.362  19.615  26.171  1.00  0.00     0.251 C 
ATOM     28  H   UNL A   1      39.705  18.516  25.997  1.00  0.00     0.163 HD
ATOM     29  O   UNL A   1      42.104  18.636  26.137  1.00  0.00    -0.269 OA
BRANCH  27  30
ATOM     30  C   UNL A   1      41.917  20.955  26.451  1.00  0.00     0.039 A 
ATOM     31  C   UNL A   1      42.152  21.827  25.385  1.00  0.00     0.014 A 
ATOM     32  C   UNL A   1      42.248  21.339  27.753  1.00  0.00     0.014 A 
ATOM     33  C   UNL A   1      42.673  23.099  25.631  1.00  0.00     0.010 A 
ATOM     34  C   UNL A   1      42.683  22.634  28.006  1.00  0.00     0.010 A 
ATOM     35  C   UNL A   1      42.914  23.524  26.947  1.00  0.00    -0.014 A 
BRANCH  35  36
ATOM     36  C   UNL A   1      43.403  24.895  27.238  1.00  0.00     0.031 A 
ATOM     37  C   UNL A   1      42.462  25.942  27.767  1.00  0.00     0.074 A 
ATOM     38  C   UNL A   1      44.678  25.217  26.943  1.00  0.00     0.049 A 
ATOM     39  N   UNL A   1      42.695  27.202  28.032  1.00  0.00    -0.248 NA
ATOM     40  C   UNL A   1      41.070  25.529  28.006  1.00  0.00     0.031 C 
ATOM     41  C   UNL A   1      45.665  24.308  26.356  1.00  0.00     0.029 A 
ATOM     42  N   UNL A   1      45.357  26.402  27.075  1.00  0.00    -0.354 N 
ATOM     43  C   UNL A   1      41.476  27.738  28.429  1.00  0.00     0.074 A 
ATOM     44  C   UNL A   1      40.497  26.678  28.333  1.00  0.00     0.031 C 
ATOM     45  C   UNL A   1      46.825  24.962  26.193  1.00  0.00     0.029 A 
ATOM     46  C   UNL A   1      46.655  26.345  26.625  1.00  0.00     0.049 A 
ATOM     47  H   UNL A   1      44.953  27.215  27.456  1.00  0.00     0.167 HD
ATOM     48  C   UNL A   1      41.200  28.991  28.864  1.00  0.00     0.034 A 
ATOM     49  C   UNL A   1      47.600  27.303  26.560  1.00  0.00     0.034 A 
ATOM     50  C   UNL A   1      42.184  30.033  28.982  1.00  0.00     0.049 A 
ATOM     51  C   UNL A   1      47.275  28.682  27.064  1.00  0.00     0.074 A 
ATOM     52  C   UNL A   1      42.028  31.312  29.486  1.00  0.00     0.029 A 
ATOM     53  N   UNL A   1      43.506  29.922  28.576  1.00  0.00    -0.354 N 
ATOM     54  N   UNL A   1      46.155  29.130  27.578  1.00  0.00    -0.248 NA
ATOM     55  C   UNL A   1      48.355  29.678  27.013  1.00  0.00     0.031 C 
ATOM     56  C   UNL A   1      43.247  31.986  29.348  1.00  0.00     0.029 A 
ATOM     57  C   UNL A   1      44.173  31.113  28.802  1.00  0.00     0.049 A 
ATOM     58  H   UNL A   1      43.910  29.113  28.185  1.00  0.00     0.167 HD
ATOM     59  C   UNL A   1      46.405  30.447  27.947  1.00  0.00     0.074 A 
ATOM     60  C   UNL A   1      47.789  30.716  27.613  1.00  0.00     0.031 C 
ATOM     61  C   UNL A   1      45.563  31.354  28.503  1.00  0.00     0.034 A 
BRANCH  48  62
ATOM     62  C   UNL A   1      39.779  29.290  29.275  1.00  0.00     0.023 A 
ATOM     63  C   UNL A   1      38.788  29.476  28.287  1.00  0.00     0.012 A 
ATOM     64  C   UNL A   1      39.415  29.354  30.634  1.00  0.00     0.148 A 
ATOM     65  C   UNL A   1      37.472  29.771  28.645  1.00  0.00     0.002 A 
ATOM     66  C   UNL A   1      38.091  29.597  30.983  1.00  0.00     0.091 A 
ATOM     67  F   UNL A   1      40.370  29.194  31.561  1.00  0.00    -0.205 F 
ATOM     68  C   UNL A   1      37.122  29.822  29.990  1.00  0.00     0.022 A 
BRANCH  66  69
ATOM     69  S   UNL A   1      37.522  29.598  32.686  1.00  0.00     0.127 S 
ATOM     70  O   UNL A   1      38.588  30.346  33.352  1.00  0.00    -0.237 OA
ATOM     71  O   UNL A   1      36.250  30.314  32.583  1.00  0.00    -0.237 OA
ATOM     72  O   UNL A   1      37.403  28.200  33.072  1.00  0.00    -0.744 OA
ENDBRANCH  66  69
ENDBRANCH  48  62
BRANCH  49  73
ATOM     73  C   UNL A   1      48.963  26.968  26.058  1.00  0.00     0.023 A 
ATOM     74  C   UNL A   1      49.836  26.226  26.876  1.00  0.00     0.012 A 
ATOM     75  C   UNL A   1      49.384  27.345  24.768  1.00  0.00     0.148 A 
ATOM     76  C   UNL A   1      51.117  25.891  26.431  1.00  0.00     0.002 A 
ATOM     77  C   UNL A   1      50.638  26.960  24.309  1.00  0.00     0.091 A 
ATOM     78  F   UNL A   1      48.538  28.055  24.007  1.00  0.00    -0.205 F 
ATOM     79  C   UNL A   1      51.513  26.249  25.146  1.00  0.00     0.022 A 
BRANCH  77  80
ATOM     80  S   UNL A   1      51.187  27.260  22.625  1.00  0.00     0.127 S 
ATOM     81  O   UNL A   1      51.265  28.718  22.592  1.00  0.00    -0.237 OA
ATOM     82  O   UNL A   1      52.478  26.572  22.605  1.00  0.00    -0.237 OA
ATOM     83  O   UNL A   1      50.174  26.665  21.765  1.00  0.00    -0.744 OA
ENDBRANCH  77  80
ENDBRANCH  49  73
BRANCH  61  84
ATOM     84  C   UNL A   1      46.121  32.714  28.831  1.00  0.00     0.023 A 
ATOM     85  C   UNL A   1      46.860  32.910  30.015  1.00  0.00     0.012 A 
ATOM     86  C   UNL A   1      45.971  33.785  27.926  1.00  0.00     0.148 A 
ATOM     87  C   UNL A   1      47.407  34.157  30.311  1.00  0.00     0.002 A 
ATOM     88  C   UNL A   1      46.565  35.009  28.201  1.00  0.00     0.091 A 
ATOM     89  F   UNL A   1      45.250  33.583  26.813  1.00  0.00    -0.205 F 
ATOM     90  C   UNL A   1      47.270  35.202  29.399  1.00  0.00     0.022 A 
BRANCH  88  91
ATOM     91  S   UNL A   1      46.529  36.380  27.041  1.00  0.00     0.127 S 
ATOM     92  O   UNL A   1      47.099  35.768  25.842  1.00  0.00    -0.237 OA
ATOM     93  O   UNL A   1      45.099  36.674  26.955  1.00  0.00    -0.237 OA
ATOM     94  O   UNL A   1      47.331  37.437  27.640  1.00  0.00    -0.744 OA
ENDBRANCH  88  91
ENDBRANCH  61  84
ENDBRANCH  35  36
ENDBRANCH  27  30
ENDBRANCH   1  26
TORSDOF 14
ENDMDL
