MODEL 1
REMARK VINA RESULT:     -12.1      0.000      0.000
REMARK SMILES CCCN1CCC[C@@]2(CCN(c3ccc(C(=O)NCCCNC(=O)c4ccc(-c5c6nc(c(-c7cccc(S(=O)(=O)[O-])c7F)c7ccc([nH]7)c(-c7cccc(S(=O)(=O)[O-])c7F)c7nc(c(-c8cccc(S(=O)(=O)[O-])c8F)c8ccc5[nH]8)C=C7)C=C6)cc4)cn3)C2)C1=O
REMARK SMILES IDX 20 1 19 2 18 3 16 4 17 5 15 7 12 8 13 9 89 10 14 11 88 12
REMARK SMILES IDX 11 13 4 14 5 15 91 16 6 17 8 18 92 19 7 20 9 21 90 22 10 23
REMARK SMILES IDX 3 24 2 25 1 26 21 27 22 28 23 29 24 31 25 32 26 33 87 34
REMARK SMILES IDX 27 35 86 36 28 37 29 38 30 39 80 40 31 41 85 42 79 43 81 44
REMARK SMILES IDX 32 45 84 46 78 47 77 48 33 50 65 51 45 52 64 53 46 54 49 55
REMARK SMILES IDX 63 56 82 57 47 58 48 59 62 61 83 62 50 63 34 64 35 65 43 66
REMARK SMILES IDX 36 67 38 68 44 69 37 70 39 71 40 72 41 73 42 74 66 75 67 76
REMARK SMILES IDX 75 77 68 78 70 79 76 80 69 81 71 82 72 83 73 84 74 85 51 86
REMARK SMILES IDX 52 87 60 88 53 89 55 90 61 91 54 92 56 93 57 94 58 95 59 96
REMARK H PARENT 18 6 22 30 81 49 49 60
REMARK Flexibility Score: inf
ROOT
ATOM      1  C   UNL A   1      31.361  32.207  26.598  1.00  0.00     0.042 C 
ENDROOT
BRANCH   1   2
ATOM      2  C   UNL A   1      31.469  30.872  25.860  1.00  0.00     0.118 C 
BRANCH   2   3
ATOM      3  N   UNL A   1      30.501  30.769  24.781  1.00  0.00    -0.352 N 
ATOM      4  C   UNL A   1      30.240  29.784  23.861  1.00  0.00     0.252 C 
ATOM      5  O   UNL A   1      29.262  29.938  23.129  1.00  0.00    -0.269 OA
ATOM      6  H   UNL A   1      29.920  31.559  24.693  1.00  0.00     0.163 HD
BRANCH   4   7
ATOM      7  C   UNL A   1      31.042  28.542  23.733  1.00  0.00     0.058 A 
ATOM      8  C   UNL A   1      32.664  26.328  23.270  1.00  0.00     0.128 A 
ATOM      9  C   UNL A   1      31.639  26.263  24.206  1.00  0.00     0.048 A 
ATOM     10  N   UNL A   1      32.923  27.467  22.601  1.00  0.00    -0.239 NA
ATOM     11  C   UNL A   1      30.853  27.381  24.467  1.00  0.00     0.019 A 
ATOM     12  C   UNL A   1      32.106  28.534  22.835  1.00  0.00     0.127 A 
BRANCH   8  13
ATOM     13  N   UNL A   1      33.408  25.202  23.046  1.00  0.00    -0.356 N 
ATOM     14  N   UNL A   1      34.360  22.041  25.737  1.00  0.00    -0.342 N 
ATOM     15  C   UNL A   1      35.788  21.996  26.016  1.00  0.00     0.119 C 
ATOM     16  C   UNL A   1      33.898  22.234  24.438  1.00  0.00     0.230 C 
ATOM     17  C   UNL A   1      36.573  23.064  25.276  1.00  0.00     0.023 C 
ATOM     18  C   UNL A   1      34.683  23.274  23.626  1.00  0.00     0.069 C 
ATOM     19  O   UNL A   1      32.866  21.710  24.025  1.00  0.00    -0.274 OA
ATOM     20  C   UNL A   1      36.193  23.066  23.797  1.00  0.00     0.021 C 
ATOM     21  C   UNL A   1      34.254  23.266  22.144  1.00  0.00     0.040 C 
ATOM     22  C   UNL A   1      34.251  24.682  24.113  1.00  0.00     0.135 C 
ATOM     23  C   UNL A   1      33.013  24.166  22.119  1.00  0.00     0.119 C 
BRANCH  14  24
ATOM     24  C   UNL A   1      33.411  21.604  26.759  1.00  0.00     0.119 C 
BRANCH  24  25
ATOM     25  C   UNL A   1      32.848  22.698  27.664  1.00  0.00     0.018 C 
ATOM     26  C   UNL A   1      31.941  23.680  26.939  1.00  0.00     0.006 C 
ENDBRANCH  24  25
ENDBRANCH  14  24
ENDBRANCH   8  13
ENDBRANCH   4   7
ENDBRANCH   2   3
ENDBRANCH   1   2
BRANCH   1  27
ATOM     27  C   UNL A   1      32.692  32.713  27.150  1.00  0.00     0.118 C 
BRANCH  27  28
ATOM     28  N   UNL A   1      32.587  34.078  27.645  1.00  0.00    -0.352 N 
ATOM     29  C   UNL A   1      33.178  34.680  28.726  1.00  0.00     0.251 C 
ATOM     30  H   UNL A   1      31.998  34.663  27.118  1.00  0.00     0.163 HD
ATOM     31  O   UNL A   1      32.763  35.779  29.087  1.00  0.00    -0.269 OA
BRANCH  29  32
ATOM     32  C   UNL A   1      34.295  34.037  29.454  1.00  0.00     0.039 A 
ATOM     33  C   UNL A   1      35.604  34.372  29.094  1.00  0.00     0.014 A 
ATOM     34  C   UNL A   1      34.074  33.060  30.430  1.00  0.00     0.014 A 
ATOM     35  C   UNL A   1      36.684  33.753  29.727  1.00  0.00     0.010 A 
ATOM     36  C   UNL A   1      35.151  32.497  31.112  1.00  0.00     0.010 A 
ATOM     37  C   UNL A   1      36.467  32.823  30.756  1.00  0.00    -0.014 A 
BRANCH  37  38
ATOM     38  C   UNL A   1      37.611  32.191  31.462  1.00  0.00     0.031 A 
ATOM     39  C   UNL A   1      38.385  31.069  30.824  1.00  0.00     0.074 A 
ATOM     40  C   UNL A   1      37.916  32.593  32.713  1.00  0.00     0.049 A 
ATOM     41  N   UNL A   1      39.417  30.414  31.287  1.00  0.00    -0.248 NA
ATOM     42  C   UNL A   1      37.926  30.606  29.505  1.00  0.00     0.031 C 
ATOM     43  C   UNL A   1      37.185  33.609  33.473  1.00  0.00     0.029 A 
ATOM     44  N   UNL A   1      38.908  32.186  33.569  1.00  0.00    -0.354 N 
ATOM     45  C   UNL A   1      39.710  29.443  30.337  1.00  0.00     0.074 A 
ATOM     46  C   UNL A   1      38.724  29.570  29.287  1.00  0.00     0.031 C 
ATOM     47  C   UNL A   1      37.762  33.758  34.676  1.00  0.00     0.029 A 
ATOM     48  C   UNL A   1      38.889  32.836  34.781  1.00  0.00     0.049 A 
ATOM     49  H   UNL A   1      39.570  31.496  33.338  1.00  0.00     0.167 HD
ATOM     50  C   UNL A   1      40.727  28.547  30.322  1.00  0.00     0.034 A 
ATOM     51  C   UNL A   1      39.695  32.711  35.854  1.00  0.00     0.034 A 
ATOM     52  C   UNL A   1      41.732  28.454  31.348  1.00  0.00     0.049 A 
ATOM     53  C   UNL A   1      40.855  31.757  35.786  1.00  0.00     0.074 A 
ATOM     54  C   UNL A   1      42.853  27.645  31.385  1.00  0.00     0.029 A 
ATOM     55  N   UNL A   1      41.734  29.194  32.520  1.00  0.00    -0.354 N 
ATOM     56  N   UNL A   1      41.217  30.966  34.804  1.00  0.00    -0.248 NA
ATOM     57  C   UNL A   1      41.745  31.709  36.954  1.00  0.00     0.031 C 
ATOM     58  C   UNL A   1      43.525  27.885  32.588  1.00  0.00     0.029 A 
ATOM     59  C   UNL A   1      42.834  28.859  33.292  1.00  0.00     0.049 A 
ATOM     60  H   UNL A   1      41.053  29.860  32.768  1.00  0.00     0.167 HD
ATOM     61  C   UNL A   1      42.394  30.356  35.219  1.00  0.00     0.074 A 
ATOM     62  C   UNL A   1      42.695  30.883  36.534  1.00  0.00     0.031 C 
ATOM     63  C   UNL A   1      43.150  29.432  34.574  1.00  0.00     0.034 A 
BRANCH  50  64
ATOM     64  C   UNL A   1      40.837  27.634  29.126  1.00  0.00     0.023 A 
ATOM     65  C   UNL A   1      40.038  26.473  29.064  1.00  0.00     0.012 A 
ATOM     66  C   UNL A   1      41.687  27.942  28.046  1.00  0.00     0.148 A 
ATOM     67  C   UNL A   1      40.112  25.615  27.969  1.00  0.00     0.002 A 
ATOM     68  C   UNL A   1      41.722  27.104  26.936  1.00  0.00     0.091 A 
ATOM     69  F   UNL A   1      42.457  29.036  28.128  1.00  0.00    -0.205 F 
ATOM     70  C   UNL A   1      40.945  25.935  26.901  1.00  0.00     0.022 A 
BRANCH  68  71
ATOM     71  S   UNL A   1      42.705  27.472  25.478  1.00  0.00     0.127 S 
ATOM     72  O   UNL A   1      42.584  26.230  24.719  1.00  0.00    -0.237 OA
ATOM     73  O   UNL A   1      41.989  28.611  24.900  1.00  0.00    -0.237 OA
ATOM     74  O   UNL A   1      44.041  27.785  25.967  1.00  0.00    -0.744 OA
ENDBRANCH  68  71
ENDBRANCH  50  64
BRANCH  51  75
ATOM     75  C   UNL A   1      39.484  33.588  37.039  1.00  0.00     0.023 A 
ATOM     76  C   UNL A   1      39.927  34.925  36.993  1.00  0.00     0.012 A 
ATOM     77  C   UNL A   1      38.803  33.130  38.183  1.00  0.00     0.148 A 
ATOM     78  C   UNL A   1      39.719  35.781  38.075  1.00  0.00     0.002 A 
ATOM     79  C   UNL A   1      38.550  34.004  39.234  1.00  0.00     0.091 A 
ATOM     80  F   UNL A   1      38.397  31.852  38.210  1.00  0.00    -0.205 F 
ATOM     81  C   UNL A   1      39.020  35.325  39.188  1.00  0.00     0.022 A 
BRANCH  79  82
ATOM     82  S   UNL A   1      37.539  33.545  40.647  1.00  0.00     0.127 S 
ATOM     83  O   UNL A   1      36.331  33.042  40.001  1.00  0.00    -0.237 OA
ATOM     84  O   UNL A   1      38.366  32.525  41.292  1.00  0.00    -0.237 OA
ATOM     85  O   UNL A   1      37.380  34.767  41.428  1.00  0.00    -0.744 OA
ENDBRANCH  79  82
ENDBRANCH  51  75
BRANCH  63  86
ATOM     86  C   UNL A   1      44.400  28.953  35.262  1.00  0.00     0.023 A 
ATOM     87  C   UNL A   1      45.638  29.557  34.967  1.00  0.00     0.012 A 
ATOM     88  C   UNL A   1      44.337  27.955  36.256  1.00  0.00     0.148 A 
ATOM     89  C   UNL A   1      46.799  29.153  35.627  1.00  0.00     0.002 A 
ATOM     90  C   UNL A   1      45.489  27.592  36.942  1.00  0.00     0.091 A 
ATOM     91  F   UNL A   1      43.153  27.378  36.508  1.00  0.00    -0.205 F 
ATOM     92  C   UNL A   1      46.723  28.181  36.622  1.00  0.00     0.022 A 
BRANCH  90  93
ATOM     93  S   UNL A   1      45.464  26.418  38.302  1.00  0.00     0.127 S 
ATOM     94  O   UNL A   1      45.057  25.187  37.626  1.00  0.00    -0.237 OA
ATOM     95  O   UNL A   1      46.855  26.433  38.755  1.00  0.00    -0.237 OA
ATOM     96  O   UNL A   1      44.510  26.949  39.269  1.00  0.00    -0.744 OA
ENDBRANCH  90  93
ENDBRANCH  63  86
ENDBRANCH  37  38
ENDBRANCH  29  32
ENDBRANCH  27  28
ENDBRANCH   1  27
TORSDOF 16
ENDMDL
MODEL 2
REMARK VINA RESULT:     -11.7      5.535     10.875
REMARK SMILES CCCN1CCC[C@@]2(CCN(c3ccc(C(=O)NCCCNC(=O)c4ccc(-c5c6nc(c(-c7cccc(S(=O)(=O)[O-])c7F)c7ccc([nH]7)c(-c7cccc(S(=O)(=O)[O-])c7F)c7nc(c(-c8cccc(S(=O)(=O)[O-])c8F)c8ccc5[nH]8)C=C7)C=C6)cc4)cn3)C2)C1=O
REMARK SMILES IDX 20 1 19 2 18 3 16 4 17 5 15 7 12 8 13 9 89 10 14 11 88 12
REMARK SMILES IDX 11 13 4 14 5 15 91 16 6 17 8 18 92 19 7 20 9 21 90 22 10 23
REMARK SMILES IDX 3 24 2 25 1 26 21 27 22 28 23 29 24 31 25 32 26 33 87 34
REMARK SMILES IDX 27 35 86 36 28 37 29 38 30 39 80 40 31 41 85 42 79 43 81 44
REMARK SMILES IDX 32 45 84 46 78 47 77 48 33 50 65 51 45 52 64 53 46 54 49 55
REMARK SMILES IDX 63 56 82 57 47 58 48 59 62 61 83 62 50 63 34 64 35 65 43 66
REMARK SMILES IDX 36 67 38 68 44 69 37 70 39 71 40 72 41 73 42 74 66 75 67 76
REMARK SMILES IDX 75 77 68 78 70 79 76 80 69 81 71 82 72 83 73 84 74 85 51 86
REMARK SMILES IDX 52 87 60 88 53 89 55 90 61 91 54 92 56 93 57 94 58 95 59 96
REMARK H PARENT 18 6 22 30 81 49 49 60
REMARK Flexibility Score: inf
ROOT
ATOM      1  C   UNL A   1      41.625  20.305  26.397  1.00  0.00     0.042 C 
ENDROOT
BRANCH   1   2
ATOM      2  C   UNL A   1      43.032  20.837  26.122  1.00  0.00     0.118 C 
BRANCH   2   3
ATOM      3  N   UNL A   1      43.004  22.144  25.486  1.00  0.00    -0.352 N 
ATOM      4  C   UNL A   1      43.265  23.408  25.955  1.00  0.00     0.252 C 
ATOM      5  O   UNL A   1      43.268  24.326  25.133  1.00  0.00    -0.269 OA
ATOM      6  H   UNL A   1      42.746  22.117  24.536  1.00  0.00     0.163 HD
BRANCH   4   7
ATOM      7  C   UNL A   1      43.579  23.714  27.372  1.00  0.00     0.058 A 
ATOM      8  C   UNL A   1      44.436  24.253  29.965  1.00  0.00     0.128 A 
ATOM      9  C   UNL A   1      43.086  24.066  29.697  1.00  0.00     0.048 A 
ATOM     10  N   UNL A   1      45.351  24.222  28.978  1.00  0.00    -0.239 NA
ATOM     11  C   UNL A   1      42.652  23.835  28.396  1.00  0.00     0.019 A 
ATOM     12  C   UNL A   1      44.909  23.942  27.718  1.00  0.00     0.127 A 
BRANCH   8  13
ATOM     13  N   UNL A   1      44.814  24.475  31.261  1.00  0.00    -0.356 N 
ATOM     14  N   UNL A   1      43.147  27.158  34.118  1.00  0.00    -0.342 N 
ATOM     15  C   UNL A   1      44.092  28.205  34.473  1.00  0.00     0.119 C 
ATOM     16  C   UNL A   1      43.564  25.834  34.013  1.00  0.00     0.230 C 
ATOM     17  C   UNL A   1      45.425  28.074  33.758  1.00  0.00     0.023 C 
ATOM     18  C   UNL A   1      44.928  25.642  33.335  1.00  0.00     0.069 C 
ATOM     19  O   UNL A   1      42.836  24.891  34.320  1.00  0.00    -0.274 OA
ATOM     20  C   UNL A   1      45.950  26.646  33.883  1.00  0.00     0.021 C 
ATOM     21  C   UNL A   1      45.414  24.183  33.459  1.00  0.00     0.040 C 
ATOM     22  C   UNL A   1      44.728  25.821  31.807  1.00  0.00     0.135 C 
ATOM     23  C   UNL A   1      44.720  23.468  32.293  1.00  0.00     0.119 C 
BRANCH  14  24
ATOM     24  C   UNL A   1      41.713  27.439  34.146  1.00  0.00     0.119 C 
BRANCH  24  25
ATOM     25  C   UNL A   1      41.201  28.423  33.096  1.00  0.00     0.018 C 
ATOM     26  C   UNL A   1      41.756  28.170  31.703  1.00  0.00     0.006 C 
ENDBRANCH  24  25
ENDBRANCH  14  24
ENDBRANCH   8  13
ENDBRANCH   4   7
ENDBRANCH   2   3
ENDBRANCH   1   2
BRANCH   1  27
ATOM     27  C   UNL A   1      40.721  21.306  27.113  1.00  0.00     0.118 C 
BRANCH  27  28
ATOM     28  N   UNL A   1      39.492  21.550  26.371  1.00  0.00    -0.352 N 
ATOM     29  C   UNL A   1      38.728  22.683  26.262  1.00  0.00     0.251 C 
ATOM     30  H   UNL A   1      39.156  20.775  25.865  1.00  0.00     0.163 HD
ATOM     31  O   UNL A   1      37.606  22.591  25.767  1.00  0.00    -0.269 OA
BRANCH  29  32
ATOM     32  C   UNL A   1      39.228  23.998  26.720  1.00  0.00     0.039 A 
ATOM     33  C   UNL A   1      38.929  24.405  28.026  1.00  0.00     0.014 A 
ATOM     34  C   UNL A   1      39.917  24.865  25.866  1.00  0.00     0.014 A 
ATOM     35  C   UNL A   1      39.345  25.658  28.480  1.00  0.00     0.010 A 
ATOM     36  C   UNL A   1      40.394  26.084  26.343  1.00  0.00     0.010 A 
ATOM     37  C   UNL A   1      40.098  26.503  27.648  1.00  0.00    -0.014 A 
BRANCH  37  38
ATOM     38  C   UNL A   1      40.578  27.820  28.138  1.00  0.00     0.031 A 
ATOM     39  C   UNL A   1      42.046  28.154  28.134  1.00  0.00     0.074 A 
ATOM     40  C   UNL A   1      39.689  28.697  28.646  1.00  0.00     0.049 A 
ATOM     41  N   UNL A   1      42.640  29.256  28.510  1.00  0.00    -0.248 NA
ATOM     42  C   UNL A   1      42.969  27.105  27.671  1.00  0.00     0.031 C 
ATOM     43  C   UNL A   1      38.252  28.454  28.787  1.00  0.00     0.029 A 
ATOM     44  N   UNL A   1      39.865  29.961  29.152  1.00  0.00    -0.354 N 
ATOM     45  C   UNL A   1      44.003  29.025  28.362  1.00  0.00     0.074 A 
ATOM     46  C   UNL A   1      44.150  27.664  27.896  1.00  0.00     0.031 C 
ATOM     47  C   UNL A   1      37.674  29.539  29.327  1.00  0.00     0.029 A 
ATOM     48  C   UNL A   1      38.699  30.545  29.589  1.00  0.00     0.049 A 
ATOM     49  H   UNL A   1      40.741  30.407  29.197  1.00  0.00     0.167 HD
ATOM     50  C   UNL A   1      45.037  29.878  28.563  1.00  0.00     0.034 A 
ATOM     51  C   UNL A   1      38.478  31.758  30.132  1.00  0.00     0.034 A 
ATOM     52  C   UNL A   1      44.880  31.245  28.983  1.00  0.00     0.049 A 
ATOM     53  C   UNL A   1      39.633  32.709  30.283  1.00  0.00     0.074 A 
ATOM     54  C   UNL A   1      45.853  32.218  29.130  1.00  0.00     0.029 A 
ATOM     55  N   UNL A   1      43.673  31.832  29.329  1.00  0.00    -0.354 N 
ATOM     56  N   UNL A   1      40.895  32.531  29.975  1.00  0.00    -0.248 NA
ATOM     57  C   UNL A   1      39.328  34.046  30.814  1.00  0.00     0.031 C 
ATOM     58  C   UNL A   1      45.235  33.390  29.579  1.00  0.00     0.029 A 
ATOM     59  C   UNL A   1      43.874  33.153  29.693  1.00  0.00     0.049 A 
ATOM     60  H   UNL A   1      42.801  31.377  29.318  1.00  0.00     0.167 HD
ATOM     61  C   UNL A   1      41.527  33.739  30.238  1.00  0.00     0.074 A 
ATOM     62  C   UNL A   1      40.505  34.649  30.714  1.00  0.00     0.031 C 
ATOM     63  C   UNL A   1      42.839  34.062  30.111  1.00  0.00     0.034 A 
BRANCH  50  64
ATOM     64  C   UNL A   1      46.427  29.372  28.271  1.00  0.00     0.023 A 
ATOM     65  C   UNL A   1      46.981  29.567  26.988  1.00  0.00     0.012 A 
ATOM     66  C   UNL A   1      47.204  28.752  29.269  1.00  0.00     0.148 A 
ATOM     67  C   UNL A   1      48.266  29.117  26.691  1.00  0.00     0.002 A 
ATOM     68  C   UNL A   1      48.502  28.346  28.977  1.00  0.00     0.091 A 
ATOM     69  F   UNL A   1      46.657  28.554  30.477  1.00  0.00    -0.205 F 
ATOM     70  C   UNL A   1      49.030  28.517  27.688  1.00  0.00     0.022 A 
BRANCH  68  71
ATOM     71  S   UNL A   1      49.593  27.634  30.215  1.00  0.00     0.127 S 
ATOM     72  O   UNL A   1      48.896  26.392  30.544  1.00  0.00    -0.237 OA
ATOM     73  O   UNL A   1      50.837  27.454  29.466  1.00  0.00    -0.237 OA
ATOM     74  O   UNL A   1      49.671  28.616  31.289  1.00  0.00    -0.744 OA
ENDBRANCH  68  71
ENDBRANCH  50  64
BRANCH  51  75
ATOM     75  C   UNL A   1      37.088  32.170  30.474  1.00  0.00     0.023 A 
ATOM     76  C   UNL A   1      36.629  32.011  31.796  1.00  0.00     0.012 A 
ATOM     77  C   UNL A   1      36.241  32.767  29.520  1.00  0.00     0.148 A 
ATOM     78  C   UNL A   1      35.343  32.414  32.157  1.00  0.00     0.002 A 
ATOM     79  C   UNL A   1      34.982  33.216  29.899  1.00  0.00     0.091 A 
ATOM     80  F   UNL A   1      36.693  32.902  28.265  1.00  0.00    -0.205 F 
ATOM     81  C   UNL A   1      34.524  33.027  31.213  1.00  0.00     0.022 A 
BRANCH  79  82
ATOM     82  S   UNL A   1      33.913  34.141  28.789  1.00  0.00     0.127 S 
ATOM     83  O   UNL A   1      32.853  34.582  29.690  1.00  0.00    -0.237 OA
ATOM     84  O   UNL A   1      34.807  35.201  28.321  1.00  0.00    -0.237 OA
ATOM     85  O   UNL A   1      33.513  33.196  27.753  1.00  0.00    -0.744 OA
ENDBRANCH  79  82
ENDBRANCH  51  75
BRANCH  63  86
ATOM     86  C   UNL A   1      43.246  35.471  30.456  1.00  0.00     0.023 A 
ATOM     87  C   UNL A   1      43.717  35.766  31.750  1.00  0.00     0.012 A 
ATOM     88  C   UNL A   1      43.231  36.484  29.477  1.00  0.00     0.148 A 
ATOM     89  C   UNL A   1      44.137  37.056  32.074  1.00  0.00     0.002 A 
ATOM     90  C   UNL A   1      43.696  37.754  29.794  1.00  0.00     0.091 A 
ATOM     91  F   UNL A   1      42.760  36.188  28.257  1.00  0.00    -0.205 F 
ATOM     92  C   UNL A   1      44.139  38.046  31.094  1.00  0.00     0.022 A 
BRANCH  90  93
ATOM     93  S   UNL A   1      43.822  39.062  28.568  1.00  0.00     0.127 S 
ATOM     94  O   UNL A   1      44.414  40.147  29.349  1.00  0.00    -0.237 OA
ATOM     95  O   UNL A   1      44.715  38.471  27.570  1.00  0.00    -0.237 OA
ATOM     96  O   UNL A   1      42.463  39.297  28.095  1.00  0.00    -0.744 OA
ENDBRANCH  90  93
ENDBRANCH  63  86
ENDBRANCH  37  38
ENDBRANCH  29  32
ENDBRANCH  27  28
ENDBRANCH   1  27
TORSDOF 16
ENDMDL
MODEL 3
REMARK VINA RESULT:     -11.6      1.782      7.776
REMARK SMILES CCCN1CCC[C@@]2(CCN(c3ccc(C(=O)NCCCNC(=O)c4ccc(-c5c6nc(c(-c7cccc(S(=O)(=O)[O-])c7F)c7ccc([nH]7)c(-c7cccc(S(=O)(=O)[O-])c7F)c7nc(c(-c8cccc(S(=O)(=O)[O-])c8F)c8ccc5[nH]8)C=C7)C=C6)cc4)cn3)C2)C1=O
REMARK SMILES IDX 20 1 19 2 18 3 16 4 17 5 15 7 12 8 13 9 89 10 14 11 88 12
REMARK SMILES IDX 11 13 4 14 5 15 91 16 6 17 8 18 92 19 7 20 9 21 90 22 10 23
REMARK SMILES IDX 3 24 2 25 1 26 21 27 22 28 23 29 24 31 25 32 26 33 87 34
REMARK SMILES IDX 27 35 86 36 28 37 29 38 30 39 80 40 31 41 85 42 79 43 81 44
REMARK SMILES IDX 32 45 84 46 78 47 77 48 33 50 65 51 45 52 64 53 46 54 49 55
REMARK SMILES IDX 63 56 82 57 47 58 48 59 62 61 83 62 50 63 34 64 35 65 43 66
REMARK SMILES IDX 36 67 38 68 44 69 37 70 39 71 40 72 41 73 42 74 66 75 67 76
REMARK SMILES IDX 75 77 68 78 70 79 76 80 69 81 71 82 72 83 73 84 74 85 51 86
REMARK SMILES IDX 52 87 60 88 53 89 55 90 61 91 54 92 56 93 57 94 58 95 59 96
REMARK H PARENT 18 6 22 30 81 49 49 60
REMARK Flexibility Score: inf
ROOT
ATOM      1  C   UNL A   1      31.274  31.959  26.256  1.00  0.00     0.042 C 
ENDROOT
BRANCH   1   2
ATOM      2  C   UNL A   1      31.201  30.510  25.773  1.00  0.00     0.118 C 
BRANCH   2   3
ATOM      3  N   UNL A   1      30.877  30.425  24.359  1.00  0.00    -0.352 N 
ATOM      4  C   UNL A   1      30.551  29.368  23.544  1.00  0.00     0.252 C 
ATOM      5  O   UNL A   1      30.210  29.629  22.390  1.00  0.00    -0.269 OA
ATOM      6  H   UNL A   1      30.895  31.293  23.895  1.00  0.00     0.163 HD
BRANCH   4   7
ATOM      7  C   UNL A   1      30.551  27.954  23.990  1.00  0.00     0.058 A 
ATOM      8  C   UNL A   1      30.826  25.320  24.849  1.00  0.00     0.128 A 
ATOM      9  C   UNL A   1      29.610  25.771  24.350  1.00  0.00     0.048 A 
ATOM     10  N   UNL A   1      31.879  26.150  24.968  1.00  0.00    -0.239 NA
ATOM     11  C   UNL A   1      29.460  27.098  23.958  1.00  0.00     0.019 A 
ATOM     12  C   UNL A   1      31.725  27.432  24.528  1.00  0.00     0.127 A 
BRANCH   8  13
ATOM     13  N   UNL A   1      30.926  24.007  25.220  1.00  0.00    -0.356 N 
ATOM     14  N   UNL A   1      34.422  21.662  25.867  1.00  0.00    -0.342 N 
ATOM     15  C   UNL A   1      34.530  20.593  24.885  1.00  0.00     0.119 C 
ATOM     16  C   UNL A   1      33.200  21.947  26.471  1.00  0.00     0.230 C 
ATOM     17  C   UNL A   1      33.376  20.571  23.898  1.00  0.00     0.023 C 
ATOM     18  C   UNL A   1      31.990  21.898  25.529  1.00  0.00     0.069 C 
ATOM     19  O   UNL A   1      33.121  22.335  27.635  1.00  0.00    -0.274 OA
ATOM     20  C   UNL A   1      32.046  20.647  24.643  1.00  0.00     0.021 C 
ATOM     21  C   UNL A   1      30.665  22.003  26.312  1.00  0.00     0.040 C 
ATOM     22  C   UNL A   1      32.001  23.192  24.674  1.00  0.00     0.135 C 
ATOM     23  C   UNL A   1      30.473  23.513  26.501  1.00  0.00     0.119 C 
BRANCH  14  24
ATOM     24  C   UNL A   1      35.635  22.250  26.429  1.00  0.00     0.119 C 
BRANCH  24  25
ATOM     25  C   UNL A   1      36.011  23.637  25.914  1.00  0.00     0.018 C 
ATOM     26  C   UNL A   1      35.635  23.867  24.458  1.00  0.00     0.006 C 
ENDBRANCH  24  25
ENDBRANCH  14  24
ENDBRANCH   8  13
ENDBRANCH   4   7
ENDBRANCH   2   3
ENDBRANCH   1   2
BRANCH   1  27
ATOM     27  C   UNL A   1      32.505  32.260  27.107  1.00  0.00     0.118 C 
BRANCH  27  28
ATOM     28  N   UNL A   1      32.538  33.650  27.537  1.00  0.00    -0.352 N 
ATOM     29  C   UNL A   1      33.338  34.280  28.455  1.00  0.00     0.251 C 
ATOM     30  H   UNL A   1      31.879  34.234  27.095  1.00  0.00     0.163 HD
ATOM     31  O   UNL A   1      33.033  35.412  28.825  1.00  0.00    -0.269 OA
BRANCH  29  32
ATOM     32  C   UNL A   1      34.550  33.628  28.999  1.00  0.00     0.039 A 
ATOM     33  C   UNL A   1      34.391  32.628  29.965  1.00  0.00     0.014 A 
ATOM     34  C   UNL A   1      35.836  34.035  28.629  1.00  0.00     0.014 A 
ATOM     35  C   UNL A   1      35.513  32.022  30.535  1.00  0.00     0.010 A 
ATOM     36  C   UNL A   1      36.952  33.378  29.144  1.00  0.00     0.010 A 
ATOM     37  C   UNL A   1      36.805  32.378  30.115  1.00  0.00    -0.014 A 
BRANCH  37  38
ATOM     38  C   UNL A   1      38.000  31.708  30.686  1.00  0.00     0.031 A 
ATOM     39  C   UNL A   1      38.542  32.115  32.030  1.00  0.00     0.074 A 
ATOM     40  C   UNL A   1      38.637  30.766  29.961  1.00  0.00     0.049 A 
ATOM     41  N   UNL A   1      39.564  31.631  32.687  1.00  0.00    -0.248 NA
ATOM     42  C   UNL A   1      37.864  33.227  32.716  1.00  0.00     0.031 C 
ATOM     43  C   UNL A   1      38.262  30.348  28.609  1.00  0.00     0.029 A 
ATOM     44  N   UNL A   1      39.740  30.004  30.252  1.00  0.00    -0.354 N 
ATOM     45  C   UNL A   1      39.673  32.396  33.842  1.00  0.00     0.074 A 
ATOM     46  C   UNL A   1      38.635  33.401  33.780  1.00  0.00     0.031 C 
ATOM     47  C   UNL A   1      39.110  29.394  28.193  1.00  0.00     0.029 A 
ATOM     48  C   UNL A   1      40.099  29.147  29.238  1.00  0.00     0.049 A 
ATOM     49  H   UNL A   1      40.229  30.064  31.104  1.00  0.00     0.167 HD
ATOM     50  C   UNL A   1      40.536  32.255  34.878  1.00  0.00     0.034 A 
ATOM     51  C   UNL A   1      41.106  28.254  29.161  1.00  0.00     0.034 A 
ATOM     52  C   UNL A   1      41.538  31.225  34.954  1.00  0.00     0.049 A 
ATOM     53  C   UNL A   1      42.009  28.072  30.349  1.00  0.00     0.074 A 
ATOM     54  C   UNL A   1      42.402  30.939  35.996  1.00  0.00     0.029 A 
ATOM     55  N   UNL A   1      41.811  30.314  33.947  1.00  0.00    -0.354 N 
ATOM     56  N   UNL A   1      41.988  28.692  31.505  1.00  0.00    -0.248 NA
ATOM     57  C   UNL A   1      43.048  27.038  30.242  1.00  0.00     0.031 C 
ATOM     58  C   UNL A   1      43.209  29.864  35.612  1.00  0.00     0.029 A 
ATOM     59  C   UNL A   1      42.834  29.466  34.338  1.00  0.00     0.049 A 
ATOM     60  H   UNL A   1      41.348  30.275  33.080  1.00  0.00     0.167 HD
ATOM     61  C   UNL A   1      42.981  28.098  32.274  1.00  0.00     0.074 A 
ATOM     62  C   UNL A   1      43.573  27.057  31.459  1.00  0.00     0.031 C 
ATOM     63  C   UNL A   1      43.376  28.398  33.537  1.00  0.00     0.034 A 
BRANCH  50  64
ATOM     64  C   UNL A   1      40.394  33.205  36.040  1.00  0.00     0.023 A 
ATOM     65  C   UNL A   1      41.047  34.455  35.998  1.00  0.00     0.012 A 
ATOM     66  C   UNL A   1      39.583  32.891  37.148  1.00  0.00     0.148 A 
ATOM     67  C   UNL A   1      40.929  35.358  37.054  1.00  0.00     0.002 A 
ATOM     68  C   UNL A   1      39.433  33.815  38.176  1.00  0.00     0.091 A 
ATOM     69  F   UNL A   1      38.986  31.691  37.184  1.00  0.00    -0.205 F 
ATOM     70  C   UNL A   1      40.114  35.042  38.137  1.00  0.00     0.022 A 
BRANCH  68  71
ATOM     71  S   UNL A   1      38.344  33.533  39.577  1.00  0.00     0.127 S 
ATOM     72  O   UNL A   1      38.454  34.800  40.297  1.00  0.00    -0.237 OA
ATOM     73  O   UNL A   1      37.052  33.312  38.926  1.00  0.00    -0.237 OA
ATOM     74  O   UNL A   1      38.878  32.367  40.268  1.00  0.00    -0.744 OA
ENDBRANCH  68  71
ENDBRANCH  50  64
BRANCH  51  75
ATOM     75  C   UNL A   1      41.241  27.399  27.949  1.00  0.00     0.023 A 
ATOM     76  C   UNL A   1      41.816  27.943  26.783  1.00  0.00     0.012 A 
ATOM     77  C   UNL A   1      40.861  26.044  27.958  1.00  0.00     0.148 A 
ATOM     78  C   UNL A   1      41.985  27.161  25.641  1.00  0.00     0.002 A 
ATOM     79  C   UNL A   1      41.082  25.256  26.834  1.00  0.00     0.091 A 
ATOM     80  F   UNL A   1      40.308  25.547  29.074  1.00  0.00    -0.205 F 
ATOM     81  C   UNL A   1      41.630  25.816  25.670  1.00  0.00     0.022 A 
BRANCH  79  82
ATOM     82  S   UNL A   1      40.785  23.484  26.826  1.00  0.00     0.127 S 
ATOM     83  O   UNL A   1      41.474  23.058  28.040  1.00  0.00    -0.237 OA
ATOM     84  O   UNL A   1      39.324  23.421  26.890  1.00  0.00    -0.237 OA
ATOM     85  O   UNL A   1      41.350  22.997  25.572  1.00  0.00    -0.744 OA
ENDBRANCH  79  82
ENDBRANCH  51  75
BRANCH  63  86
ATOM     86  C   UNL A   1      44.480  27.569  34.137  1.00  0.00     0.023 A 
ATOM     87  C   UNL A   1      45.822  27.960  33.965  1.00  0.00     0.012 A 
ATOM     88  C   UNL A   1      44.183  26.444  34.933  1.00  0.00     0.148 A 
ATOM     89  C   UNL A   1      46.854  27.226  34.549  1.00  0.00     0.002 A 
ATOM     90  C   UNL A   1      45.214  25.746  35.550  1.00  0.00     0.091 A 
ATOM     91  F   UNL A   1      42.901  26.075  35.068  1.00  0.00    -0.205 F 
ATOM     92  C   UNL A   1      46.551  26.128  35.351  1.00  0.00     0.022 A 
BRANCH  90  93
ATOM     93  S   UNL A   1      44.906  24.380  36.675  1.00  0.00     0.127 S 
ATOM     94  O   UNL A   1      44.221  23.425  35.805  1.00  0.00    -0.237 OA
ATOM     95  O   UNL A   1      46.259  23.985  37.067  1.00  0.00    -0.237 OA
ATOM     96  O   UNL A   1      44.102  24.930  37.760  1.00  0.00    -0.744 OA
ENDBRANCH  90  93
ENDBRANCH  63  86
ENDBRANCH  37  38
ENDBRANCH  29  32
ENDBRANCH  27  28
ENDBRANCH   1  27
TORSDOF 16
ENDMDL
