MODEL 1
REMARK VINA RESULT:     -12.6      0.000      0.000
REMARK SMILES COc1ccc2c(c1)c(CC(=O)NCCCNC(=O)c1ccc(-c3c4nc(c(-c5cccc(S(=O)(=O)[O-])c5F)c5ccc([nH]5)c(-c5cccc(S(=O)(=O)[O-])c5F)c5nc(c(-c6cccc(S(=O)(=O)[O-])c6F)c6ccc3[nH]6)C=C5)C=C4)cc1)c(C)n2Cc1ccn(C(F)F)c(=O)c1
REMARK SMILES IDX 14 1 13 2 11 3 12 4 10 6 9 7 3 8 4 9 8 10 5 11 7 12 6 13
REMARK SMILES IDX 85 14 83 15 84 16 2 17 1 18 86 19 87 20 88 21 96 22 89 23
REMARK SMILES IDX 94 24 90 25 95 26 91 27 92 28 93 29 15 30 16 31 17 32 18 33
REMARK SMILES IDX 19 35 20 36 21 37 82 38 22 39 81 40 23 41 24 42 25 43 75 44
REMARK SMILES IDX 26 45 80 46 74 47 76 48 27 49 79 50 73 51 72 52 28 54 60 55
REMARK SMILES IDX 40 56 59 57 41 58 44 59 58 60 77 61 42 62 43 63 57 65 78 66
REMARK SMILES IDX 45 67 29 68 30 69 38 70 31 71 33 72 39 73 32 74 34 75 35 76
REMARK SMILES IDX 36 77 37 78 61 79 62 80 70 81 63 82 65 83 71 84 64 85 66 86
REMARK SMILES IDX 67 87 68 88 69 89 46 90 47 91 55 92 48 93 50 94 56 95 49 96
REMARK SMILES IDX 51 97 52 98 53 99 54 100
REMARK H PARENT 13 5 17 34 76 53 44 64
REMARK Flexibility Score: inf
ROOT
ATOM      1  C   UNL A   1      34.072  30.714  27.712  1.00  0.00     0.117 C 
ENDROOT
BRANCH   1   2
ATOM      2  N   UNL A   1      34.210  29.989  26.455  1.00  0.00    -0.356 N 
ATOM      3  C   UNL A   1      33.284  29.719  25.487  1.00  0.00     0.224 C 
ATOM      4  O   UNL A   1      33.666  29.130  24.470  1.00  0.00    -0.275 OA
ATOM      5  H   UNL A   1      35.113  29.641  26.275  1.00  0.00     0.163 HD
BRANCH   3   6
ATOM      6  C   UNL A   1      31.846  30.194  25.616  1.00  0.00     0.138 C 
BRANCH   6   7
ATOM      7  C   UNL A   1      30.866  29.348  24.865  1.00  0.00    -0.010 A 
ATOM      8  C   UNL A   1      28.676  31.162  22.322  1.00  0.00     0.119 A 
ATOM      9  C   UNL A   1      28.082  30.021  21.796  1.00  0.00     0.048 A 
ATOM     10  C   UNL A   1      29.646  31.046  23.318  1.00  0.00     0.057 A 
ATOM     11  C   UNL A   1      28.406  28.744  22.284  1.00  0.00     0.031 A 
ATOM     12  C   UNL A   1      29.967  29.779  23.849  1.00  0.00     0.007 A 
ATOM     13  C   UNL A   1      29.335  28.643  23.335  1.00  0.00     0.049 A 
ATOM     14  N   UNL A   1      29.827  27.550  24.040  1.00  0.00    -0.340 N 
ATOM     15  C   UNL A   1      30.606  28.005  25.091  1.00  0.00     0.020 A 
ATOM     16  C   UNL A   1      31.107  27.172  26.219  1.00  0.00     0.065 C 
BRANCH   8  17
ATOM     17  O   UNL A   1      28.429  32.438  21.888  1.00  0.00    -0.497 OA
ATOM     18  C   UNL A   1      27.869  32.523  20.582  1.00  0.00     0.278 C 
ENDBRANCH   8  17
BRANCH  14  19
ATOM     19  C   UNL A   1      29.527  26.142  23.726  1.00  0.00     0.158 C 
BRANCH  19  20
ATOM     20  C   UNL A   1      30.763  25.344  23.385  1.00  0.00    -0.021 A 
ATOM     21  C   UNL A   1      31.000  24.101  24.089  1.00  0.00     0.024 A 
ATOM     22  C   UNL A   1      31.640  25.722  22.442  1.00  0.00     0.077 A 
ATOM     23  C   UNL A   1      32.142  23.430  23.932  1.00  0.00     0.095 A 
ATOM     24  C   UNL A   1      32.919  24.977  22.235  1.00  0.00     0.255 A 
ATOM     25  N   UNL A   1      33.083  23.843  23.021  1.00  0.00    -0.258 N 
ATOM     26  O   UNL A   1      33.719  25.449  21.447  1.00  0.00    -0.269 OA
BRANCH  25  27
ATOM     27  C   UNL A   1      34.322  23.115  22.945  1.00  0.00     0.451 C 
ATOM     28  F   UNL A   1      35.355  23.828  23.419  1.00  0.00    -0.185 F 
ATOM     29  F   UNL A   1      34.199  21.963  23.644  1.00  0.00    -0.185 F 
ENDBRANCH  25  27
ENDBRANCH  19  20
ENDBRANCH  14  19
ENDBRANCH   6   7
ENDBRANCH   3   6
ENDBRANCH   1   2
BRANCH   1  30
ATOM     30  C   UNL A   1      34.830  32.048  27.733  1.00  0.00     0.042 C 
BRANCH  30  31
ATOM     31  C   UNL A   1      34.308  33.065  28.751  1.00  0.00     0.118 C 
BRANCH  31  32
ATOM     32  N   UNL A   1      34.471  32.667  30.139  1.00  0.00    -0.352 N 
ATOM     33  C   UNL A   1      35.389  31.977  30.884  1.00  0.00     0.251 C 
ATOM     34  H   UNL A   1      33.717  32.976  30.693  1.00  0.00     0.163 HD
ATOM     35  O   UNL A   1      35.196  32.018  32.104  1.00  0.00    -0.269 OA
BRANCH  33  36
ATOM     36  C   UNL A   1      36.505  31.137  30.369  1.00  0.00     0.039 A 
ATOM     37  C   UNL A   1      36.500  29.754  30.251  1.00  0.00     0.014 A 
ATOM     38  C   UNL A   1      37.701  31.830  30.068  1.00  0.00     0.014 A 
ATOM     39  C   UNL A   1      37.700  29.083  30.007  1.00  0.00     0.010 A 
ATOM     40  C   UNL A   1      38.900  31.161  29.831  1.00  0.00     0.010 A 
ATOM     41  C   UNL A   1      38.918  29.778  29.897  1.00  0.00    -0.014 A 
BRANCH  41  42
ATOM     42  C   UNL A   1      40.157  28.991  29.798  1.00  0.00     0.031 A 
ATOM     43  C   UNL A   1      40.851  28.852  31.106  1.00  0.00     0.074 A 
ATOM     44  C   UNL A   1      40.654  28.448  28.659  1.00  0.00     0.049 A 
ATOM     45  N   UNL A   1      41.992  29.348  31.459  1.00  0.00    -0.248 NA
ATOM     46  C   UNL A   1      40.088  28.244  32.207  1.00  0.00     0.031 C 
ATOM     47  C   UNL A   1      40.003  28.343  27.348  1.00  0.00     0.029 A 
ATOM     48  N   UNL A   1      41.842  27.797  28.447  1.00  0.00    -0.354 N 
ATOM     49  C   UNL A   1      42.181  28.935  32.772  1.00  0.00     0.074 A 
ATOM     50  C   UNL A   1      40.922  28.409  33.233  1.00  0.00     0.031 C 
ATOM     51  C   UNL A   1      40.686  27.469  26.571  1.00  0.00     0.029 A 
ATOM     52  C   UNL A   1      41.888  27.050  27.265  1.00  0.00     0.049 A 
ATOM     53  H   UNL A   1      42.600  27.851  29.073  1.00  0.00     0.167 HD
ATOM     54  C   UNL A   1      43.423  28.805  33.303  1.00  0.00     0.034 A 
ATOM     55  C   UNL A   1      42.815  26.114  26.922  1.00  0.00     0.034 A 
ATOM     56  C   UNL A   1      44.410  29.551  32.580  1.00  0.00     0.049 A 
ATOM     57  C   UNL A   1      44.018  26.400  27.730  1.00  0.00     0.074 A 
ATOM     58  C   UNL A   1      44.640  30.886  32.322  1.00  0.00     0.029 A 
ATOM     59  N   UNL A   1      45.147  28.841  31.668  1.00  0.00    -0.354 N 
ATOM     60  N   UNL A   1      44.768  27.452  27.576  1.00  0.00    -0.248 NA
ATOM     61  C   UNL A   1      44.185  25.674  28.977  1.00  0.00     0.031 C 
ATOM     62  C   UNL A   1      45.186  30.923  31.007  1.00  0.00     0.029 A 
ATOM     63  C   UNL A   1      45.305  29.609  30.549  1.00  0.00     0.049 A 
ATOM     64  H   UNL A   1      45.500  27.931  31.797  1.00  0.00     0.167 HD
ATOM     65  C   UNL A   1      45.161  27.774  28.866  1.00  0.00     0.074 A 
ATOM     66  C   UNL A   1      44.873  26.586  29.663  1.00  0.00     0.031 C 
ATOM     67  C   UNL A   1      45.413  29.067  29.213  1.00  0.00     0.034 A 
BRANCH  54  68
ATOM     68  C   UNL A   1      43.792  27.656  34.204  1.00  0.00     0.023 A 
ATOM     69  C   UNL A   1      44.361  27.942  35.461  1.00  0.00     0.012 A 
ATOM     70  C   UNL A   1      43.861  26.318  33.749  1.00  0.00     0.148 A 
ATOM     71  C   UNL A   1      44.965  26.938  36.228  1.00  0.00     0.002 A 
ATOM     72  C   UNL A   1      44.387  25.313  34.546  1.00  0.00     0.091 A 
ATOM     73  F   UNL A   1      43.547  26.031  32.481  1.00  0.00    -0.205 F 
ATOM     74  C   UNL A   1      44.961  25.621  35.780  1.00  0.00     0.022 A 
BRANCH  72  75
ATOM     75  S   UNL A   1      44.382  23.597  34.016  1.00  0.00     0.127 S 
ATOM     76  O   UNL A   1      44.665  23.731  32.590  1.00  0.00    -0.237 OA
ATOM     77  O   UNL A   1      45.471  23.036  34.816  1.00  0.00    -0.237 OA
ATOM     78  O   UNL A   1      43.062  23.085  34.364  1.00  0.00    -0.744 OA
ENDBRANCH  72  75
ENDBRANCH  54  68
BRANCH  55  79
ATOM     79  C   UNL A   1      42.696  24.823  26.180  1.00  0.00     0.023 A 
ATOM     80  C   UNL A   1      43.761  24.411  25.340  1.00  0.00     0.012 A 
ATOM     81  C   UNL A   1      41.732  23.854  26.527  1.00  0.00     0.148 A 
ATOM     82  C   UNL A   1      43.904  23.077  24.937  1.00  0.00     0.002 A 
ATOM     83  C   UNL A   1      41.873  22.528  26.115  1.00  0.00     0.091 A 
ATOM     84  F   UNL A   1      40.727  24.201  27.340  1.00  0.00    -0.205 F 
ATOM     85  C   UNL A   1      42.969  22.131  25.339  1.00  0.00     0.022 A 
BRANCH  83  86
ATOM     86  S   UNL A   1      40.705  21.248  26.597  1.00  0.00     0.127 S 
ATOM     87  O   UNL A   1      39.475  21.694  25.943  1.00  0.00    -0.237 OA
ATOM     88  O   UNL A   1      41.308  20.052  26.016  1.00  0.00    -0.237 OA
ATOM     89  O   UNL A   1      40.654  21.291  28.054  1.00  0.00    -0.744 OA
ENDBRANCH  83  86
ENDBRANCH  55  79
BRANCH  67  90
ATOM     90  C   UNL A   1      45.591  30.077  28.114  1.00  0.00     0.023 A 
ATOM     91  C   UNL A   1      44.501  30.741  27.514  1.00  0.00     0.012 A 
ATOM     92  C   UNL A   1      46.897  30.528  27.865  1.00  0.00     0.148 A 
ATOM     93  C   UNL A   1      44.717  31.848  26.688  1.00  0.00     0.002 A 
ATOM     94  C   UNL A   1      47.103  31.654  27.084  1.00  0.00     0.091 A 
ATOM     95  F   UNL A   1      47.911  29.878  28.458  1.00  0.00    -0.205 F 
ATOM     96  C   UNL A   1      46.016  32.317  26.490  1.00  0.00     0.022 A 
BRANCH  94  97
ATOM     97  S   UNL A   1      48.727  32.391  26.896  1.00  0.00     0.127 S 
ATOM     98  O   UNL A   1      49.528  31.255  26.444  1.00  0.00    -0.237 OA
ATOM     99  O   UNL A   1      48.482  33.410  25.872  1.00  0.00    -0.237 OA
ATOM    100  O   UNL A   1      49.092  32.923  28.203  1.00  0.00    -0.744 OA
ENDBRANCH  94  97
ENDBRANCH  67  90
ENDBRANCH  41  42
ENDBRANCH  33  36
ENDBRANCH  31  32
ENDBRANCH  30  31
ENDBRANCH   1  30
TORSDOF 18
ENDMDL
MODEL 2
REMARK VINA RESULT:     -11.8      1.618      2.127
REMARK SMILES COc1ccc2c(c1)c(CC(=O)NCCCNC(=O)c1ccc(-c3c4nc(c(-c5cccc(S(=O)(=O)[O-])c5F)c5ccc([nH]5)c(-c5cccc(S(=O)(=O)[O-])c5F)c5nc(c(-c6cccc(S(=O)(=O)[O-])c6F)c6ccc3[nH]6)C=C5)C=C4)cc1)c(C)n2Cc1ccn(C(F)F)c(=O)c1
REMARK SMILES IDX 14 1 13 2 11 3 12 4 10 6 9 7 3 8 4 9 8 10 5 11 7 12 6 13
REMARK SMILES IDX 85 14 83 15 84 16 2 17 1 18 86 19 87 20 88 21 96 22 89 23
REMARK SMILES IDX 94 24 90 25 95 26 91 27 92 28 93 29 15 30 16 31 17 32 18 33
REMARK SMILES IDX 19 35 20 36 21 37 82 38 22 39 81 40 23 41 24 42 25 43 75 44
REMARK SMILES IDX 26 45 80 46 74 47 76 48 27 49 79 50 73 51 72 52 28 54 60 55
REMARK SMILES IDX 40 56 59 57 41 58 44 59 58 60 77 61 42 62 43 63 57 65 78 66
REMARK SMILES IDX 45 67 29 68 30 69 38 70 31 71 33 72 39 73 32 74 34 75 35 76
REMARK SMILES IDX 36 77 37 78 61 79 62 80 70 81 63 82 65 83 71 84 64 85 66 86
REMARK SMILES IDX 67 87 68 88 69 89 46 90 47 91 55 92 48 93 50 94 56 95 49 96
REMARK SMILES IDX 51 97 52 98 53 99 54 100
REMARK H PARENT 13 5 17 34 76 53 44 64
REMARK Flexibility Score: inf
ROOT
ATOM      1  C   UNL A   1      33.919  30.776  27.703  1.00  0.00     0.117 C 
ENDROOT
BRANCH   1   2
ATOM      2  N   UNL A   1      34.355  30.027  26.530  1.00  0.00    -0.356 N 
ATOM      3  C   UNL A   1      33.918  28.832  26.034  1.00  0.00     0.224 C 
ATOM      4  O   UNL A   1      34.413  28.429  24.977  1.00  0.00    -0.275 OA
ATOM      5  H   UNL A   1      35.079  30.451  26.015  1.00  0.00     0.163 HD
BRANCH   3   6
ATOM      6  C   UNL A   1      32.802  28.056  26.715  1.00  0.00     0.138 C 
BRANCH   6   7
ATOM      7  C   UNL A   1      31.903  27.336  25.759  1.00  0.00    -0.010 A 
ATOM      8  C   UNL A   1      29.784  29.528  23.465  1.00  0.00     0.119 A 
ATOM      9  C   UNL A   1      29.270  28.488  22.698  1.00  0.00     0.048 A 
ATOM     10  C   UNL A   1      30.700  29.257  24.482  1.00  0.00     0.057 A 
ATOM     11  C   UNL A   1      29.621  27.153  22.959  1.00  0.00     0.031 A 
ATOM     12  C   UNL A   1      31.045  27.923  24.785  1.00  0.00     0.007 A 
ATOM     13  C   UNL A   1      30.493  26.884  24.030  1.00  0.00     0.049 A 
ATOM     14  N   UNL A   1      30.991  25.695  24.547  1.00  0.00    -0.340 N 
ATOM     15  C   UNL A   1      31.689  25.967  25.713  1.00  0.00     0.020 A 
ATOM     16  C   UNL A   1      32.162  24.952  26.694  1.00  0.00     0.065 C 
BRANCH   8  17
ATOM     17  O   UNL A   1      29.507  30.854  23.262  1.00  0.00    -0.497 OA
ATOM     18  C   UNL A   1      28.148  31.218  23.483  1.00  0.00     0.278 C 
ENDBRANCH   8  17
BRANCH  14  19
ATOM     19  C   UNL A   1      30.770  24.363  23.958  1.00  0.00     0.158 C 
BRANCH  19  20
ATOM     20  C   UNL A   1      32.004  23.492  24.002  1.00  0.00    -0.021 A 
ATOM     21  C   UNL A   1      31.981  22.300  24.822  1.00  0.00     0.024 A 
ATOM     22  C   UNL A   1      33.115  23.763  23.297  1.00  0.00     0.077 A 
ATOM     23  C   UNL A   1      33.084  21.574  25.011  1.00  0.00     0.095 A 
ATOM     24  C   UNL A   1      34.358  22.954  23.478  1.00  0.00     0.255 A 
ATOM     25  N   UNL A   1      34.250  21.878  24.351  1.00  0.00    -0.258 N 
ATOM     26  O   UNL A   1      35.360  23.333  22.897  1.00  0.00    -0.269 OA
BRANCH  25  27
ATOM     27  C   UNL A   1      35.422  21.099  24.647  1.00  0.00     0.451 C 
ATOM     28  F   UNL A   1      35.983  21.456  25.813  1.00  0.00    -0.185 F 
ATOM     29  F   UNL A   1      35.084  19.790  24.682  1.00  0.00    -0.185 F 
ENDBRANCH  25  27
ENDBRANCH  19  20
ENDBRANCH  14  19
ENDBRANCH   6   7
ENDBRANCH   3   6
ENDBRANCH   1   2
BRANCH   1  30
ATOM     30  C   UNL A   1      34.211  32.279  27.610  1.00  0.00     0.042 C 
BRANCH  30  31
ATOM     31  C   UNL A   1      35.181  32.809  28.669  1.00  0.00     0.118 C 
BRANCH  31  32
ATOM     32  N   UNL A   1      34.737  32.622  30.041  1.00  0.00    -0.352 N 
ATOM     33  C   UNL A   1      35.252  32.107  31.200  1.00  0.00     0.251 C 
ATOM     34  H   UNL A   1      33.819  32.956  30.171  1.00  0.00     0.163 HD
ATOM     35  O   UNL A   1      34.558  32.307  32.203  1.00  0.00    -0.269 OA
BRANCH  33  36
ATOM     36  C   UNL A   1      36.480  31.279  31.340  1.00  0.00     0.039 A 
ATOM     37  C   UNL A   1      37.725  31.728  31.760  1.00  0.00     0.014 A 
ATOM     38  C   UNL A   1      36.364  29.937  30.908  1.00  0.00     0.014 A 
ATOM     39  C   UNL A   1      38.842  30.907  31.589  1.00  0.00     0.010 A 
ATOM     40  C   UNL A   1      37.479  29.121  30.731  1.00  0.00     0.010 A 
ATOM     41  C   UNL A   1      38.736  29.642  30.982  1.00  0.00    -0.014 A 
BRANCH  41  42
ATOM     42  C   UNL A   1      39.977  28.907  30.695  1.00  0.00     0.031 A 
ATOM     43  C   UNL A   1      40.792  28.665  31.916  1.00  0.00     0.074 A 
ATOM     44  C   UNL A   1      40.380  28.492  29.469  1.00  0.00     0.049 A 
ATOM     45  N   UNL A   1      41.949  29.160  32.213  1.00  0.00    -0.248 NA
ATOM     46  C   UNL A   1      40.147  27.930  33.016  1.00  0.00     0.031 C 
ATOM     47  C   UNL A   1      39.613  28.493  28.217  1.00  0.00     0.029 A 
ATOM     48  N   UNL A   1      41.558  27.902  29.088  1.00  0.00    -0.354 N 
ATOM     49  C   UNL A   1      42.267  28.629  33.457  1.00  0.00     0.074 A 
ATOM     50  C   UNL A   1      41.068  28.022  33.974  1.00  0.00     0.031 C 
ATOM     51  C   UNL A   1      40.241  27.721  27.300  1.00  0.00     0.029 A 
ATOM     52  C   UNL A   1      41.511  27.274  27.839  1.00  0.00     0.049 A 
ATOM     53  H   UNL A   1      42.368  27.920  29.647  1.00  0.00     0.167 HD
ATOM     54  C   UNL A   1      43.556  28.488  33.859  1.00  0.00     0.034 A 
ATOM     55  C   UNL A   1      42.423  26.405  27.324  1.00  0.00     0.034 A 
ATOM     56  C   UNL A   1      44.455  29.330  33.128  1.00  0.00     0.049 A 
ATOM     57  C   UNL A   1      43.689  26.650  28.045  1.00  0.00     0.074 A 
ATOM     58  C   UNL A   1      44.630  30.690  32.983  1.00  0.00     0.029 A 
ATOM     59  N   UNL A   1      45.120  28.734  32.088  1.00  0.00    -0.354 N 
ATOM     60  N   UNL A   1      44.398  27.735  27.929  1.00  0.00    -0.248 NA
ATOM     61  C   UNL A   1      43.987  25.812  29.194  1.00  0.00     0.031 C 
ATOM     62  C   UNL A   1      45.052  30.870  31.635  1.00  0.00     0.029 A 
ATOM     63  C   UNL A   1      45.158  29.611  31.041  1.00  0.00     0.049 A 
ATOM     64  H   UNL A   1      45.504  27.828  32.094  1.00  0.00     0.167 HD
ATOM     65  C   UNL A   1      44.900  27.944  29.205  1.00  0.00     0.074 A 
ATOM     66  C   UNL A   1      44.714  26.675  29.903  1.00  0.00     0.031 C 
ATOM     67  C   UNL A   1      45.154  29.204  29.654  1.00  0.00     0.034 A 
BRANCH  54  68
ATOM     68  C   UNL A   1      44.032  27.269  34.606  1.00  0.00     0.023 A 
ATOM     69  C   UNL A   1      43.919  26.011  33.982  1.00  0.00     0.012 A 
ATOM     70  C   UNL A   1      44.318  27.283  35.992  1.00  0.00     0.148 A 
ATOM     71  C   UNL A   1      44.089  24.825  34.706  1.00  0.00     0.002 A 
ATOM     72  C   UNL A   1      44.565  26.110  36.688  1.00  0.00     0.091 A 
ATOM     73  F   UNL A   1      44.212  28.425  36.679  1.00  0.00    -0.205 F 
ATOM     74  C   UNL A   1      44.431  24.874  36.054  1.00  0.00     0.022 A 
BRANCH  72  75
ATOM     75  S   UNL A   1      45.032  26.129  38.422  1.00  0.00     0.127 S 
ATOM     76  O   UNL A   1      43.776  26.517  39.057  1.00  0.00    -0.237 OA
ATOM     77  O   UNL A   1      45.434  24.738  38.636  1.00  0.00    -0.237 OA
ATOM     78  O   UNL A   1      46.125  27.088  38.522  1.00  0.00    -0.744 OA
ENDBRANCH  72  75
ENDBRANCH  54  68
BRANCH  55  79
ATOM     79  C   UNL A   1      42.265  25.189  26.471  1.00  0.00     0.023 A 
ATOM     80  C   UNL A   1      43.225  24.926  25.461  1.00  0.00     0.012 A 
ATOM     81  C   UNL A   1      41.404  24.133  26.837  1.00  0.00     0.148 A 
ATOM     82  C   UNL A   1      43.374  23.649  24.904  1.00  0.00     0.002 A 
ATOM     83  C   UNL A   1      41.550  22.865  26.272  1.00  0.00     0.091 A 
ATOM     84  F   UNL A   1      40.503  24.338  27.805  1.00  0.00    -0.205 F 
ATOM     85  C   UNL A   1      42.548  22.614  25.323  1.00  0.00     0.022 A 
BRANCH  83  86
ATOM     86  S   UNL A   1      40.520  21.476  26.765  1.00  0.00     0.127 S 
ATOM     87  O   UNL A   1      41.177  20.354  26.093  1.00  0.00    -0.237 OA
ATOM     88  O   UNL A   1      40.666  21.489  28.218  1.00  0.00    -0.237 OA
ATOM     89  O   UNL A   1      39.186  21.775  26.258  1.00  0.00    -0.744 OA
ENDBRANCH  83  86
ENDBRANCH  55  79
BRANCH  67  90
ATOM     90  C   UNL A   1      45.207  30.320  28.648  1.00  0.00     0.023 A 
ATOM     91  C   UNL A   1      44.065  31.059  28.278  1.00  0.00     0.012 A 
ATOM     92  C   UNL A   1      46.479  30.775  28.264  1.00  0.00     0.148 A 
ATOM     93  C   UNL A   1      44.197  32.243  27.546  1.00  0.00     0.002 A 
ATOM     94  C   UNL A   1      46.608  31.973  27.580  1.00  0.00     0.091 A 
ATOM     95  F   UNL A   1      47.546  30.052  28.639  1.00  0.00    -0.205 F 
ATOM     96  C   UNL A   1      45.469  32.710  27.215  1.00  0.00     0.022 A 
BRANCH  94  97
ATOM     97  S   UNL A   1      48.211  32.702  27.240  1.00  0.00     0.127 S 
ATOM     98  O   UNL A   1      47.850  33.895  26.477  1.00  0.00    -0.237 OA
ATOM     99  O   UNL A   1      48.716  32.970  28.588  1.00  0.00    -0.237 OA
ATOM    100  O   UNL A   1      48.969  31.701  26.499  1.00  0.00    -0.744 OA
ENDBRANCH  94  97
ENDBRANCH  67  90
ENDBRANCH  41  42
ENDBRANCH  33  36
ENDBRANCH  31  32
ENDBRANCH  30  31
ENDBRANCH   1  30
TORSDOF 18
ENDMDL
MODEL 3
REMARK VINA RESULT:     -11.5      7.499     12.595
REMARK SMILES COc1ccc2c(c1)c(CC(=O)NCCCNC(=O)c1ccc(-c3c4nc(c(-c5cccc(S(=O)(=O)[O-])c5F)c5ccc([nH]5)c(-c5cccc(S(=O)(=O)[O-])c5F)c5nc(c(-c6cccc(S(=O)(=O)[O-])c6F)c6ccc3[nH]6)C=C5)C=C4)cc1)c(C)n2Cc1ccn(C(F)F)c(=O)c1
REMARK SMILES IDX 14 1 13 2 11 3 12 4 10 6 9 7 3 8 4 9 8 10 5 11 7 12 6 13
REMARK SMILES IDX 85 14 83 15 84 16 2 17 1 18 86 19 87 20 88 21 96 22 89 23
REMARK SMILES IDX 94 24 90 25 95 26 91 27 92 28 93 29 15 30 16 31 17 32 18 33
REMARK SMILES IDX 19 35 20 36 21 37 82 38 22 39 81 40 23 41 24 42 25 43 75 44
REMARK SMILES IDX 26 45 80 46 74 47 76 48 27 49 79 50 73 51 72 52 28 54 60 55
REMARK SMILES IDX 40 56 59 57 41 58 44 59 58 60 77 61 42 62 43 63 57 65 78 66
REMARK SMILES IDX 45 67 29 68 30 69 38 70 31 71 33 72 39 73 32 74 34 75 35 76
REMARK SMILES IDX 36 77 37 78 61 79 62 80 70 81 63 82 65 83 71 84 64 85 66 86
REMARK SMILES IDX 67 87 68 88 69 89 46 90 47 91 55 92 48 93 50 94 56 95 49 96
REMARK SMILES IDX 51 97 52 98 53 99 54 100
REMARK H PARENT 13 5 17 34 76 53 44 64
REMARK Flexibility Score: inf
ROOT
ATOM      1  C   UNL A   1      40.276  32.326  33.728  1.00  0.00     0.117 C 
ENDROOT
BRANCH   1   2
ATOM      2  N   UNL A   1      40.784  31.870  32.439  1.00  0.00    -0.356 N 
ATOM      3  C   UNL A   1      40.277  30.948  31.568  1.00  0.00     0.224 C 
ATOM      4  O   UNL A   1      40.870  30.778  30.497  1.00  0.00    -0.275 OA
ATOM      5  H   UNL A   1      41.624  32.294  32.153  1.00  0.00     0.163 HD
BRANCH   3   6
ATOM      6  C   UNL A   1      38.982  30.209  31.866  1.00  0.00     0.138 C 
BRANCH   6   7
ATOM      7  C   UNL A   1      37.812  30.710  31.080  1.00  0.00    -0.010 A 
ATOM      8  C   UNL A   1      35.233  32.750  33.014  1.00  0.00     0.119 A 
ATOM      9  C   UNL A   1      34.469  33.111  31.910  1.00  0.00     0.048 A 
ATOM     10  C   UNL A   1      36.388  31.987  32.842  1.00  0.00     0.057 A 
ATOM     11  C   UNL A   1      34.814  32.681  30.618  1.00  0.00     0.031 A 
ATOM     12  C   UNL A   1      36.740  31.515  31.560  1.00  0.00     0.007 A 
ATOM     13  C   UNL A   1      35.943  31.855  30.464  1.00  0.00     0.049 A 
ATOM     14  N   UNL A   1      36.510  31.254  29.346  1.00  0.00    -0.340 N 
ATOM     15  C   UNL A   1      37.527  30.407  29.757  1.00  0.00     0.020 A 
ATOM     16  C   UNL A   1      38.211  29.400  28.900  1.00  0.00     0.065 C 
BRANCH   8  17
ATOM     17  O   UNL A   1      34.975  33.145  34.300  1.00  0.00    -0.497 OA
ATOM     18  C   UNL A   1      35.973  33.980  34.877  1.00  0.00     0.278 C 
ENDBRANCH   8  17
BRANCH  14  19
ATOM     19  C   UNL A   1      36.064  31.467  27.958  1.00  0.00     0.158 C 
BRANCH  19  20
ATOM     20  C   UNL A   1      34.884  30.600  27.584  1.00  0.00    -0.021 A 
ATOM     21  C   UNL A   1      35.110  29.191  27.341  1.00  0.00     0.024 A 
ATOM     22  C   UNL A   1      33.631  31.073  27.489  1.00  0.00     0.077 A 
ATOM     23  C   UNL A   1      34.137  28.410  26.870  1.00  0.00     0.095 A 
ATOM     24  C   UNL A   1      32.520  30.213  26.981  1.00  0.00     0.255 A 
ATOM     25  N   UNL A   1      32.863  28.896  26.700  1.00  0.00    -0.258 N 
ATOM     26  O   UNL A   1      31.438  30.744  26.808  1.00  0.00    -0.269 OA
BRANCH  25  27
ATOM     27  C   UNL A   1      31.874  28.024  26.127  1.00  0.00     0.451 C 
ATOM     28  F   UNL A   1      32.412  26.883  25.669  1.00  0.00    -0.185 F 
ATOM     29  F   UNL A   1      30.935  27.747  27.062  1.00  0.00    -0.185 F 
ENDBRANCH  25  27
ENDBRANCH  19  20
ENDBRANCH  14  19
ENDBRANCH   6   7
ENDBRANCH   3   6
ENDBRANCH   1   2
BRANCH   1  30
ATOM     30  C   UNL A   1      39.258  33.468  33.612  1.00  0.00     0.042 C 
BRANCH  30  31
ATOM     31  C   UNL A   1      39.587  34.513  32.542  1.00  0.00     0.118 C 
BRANCH  31  32
ATOM     32  N   UNL A   1      38.991  34.253  31.242  1.00  0.00    -0.352 N 
ATOM     33  C   UNL A   1      39.390  34.278  29.933  1.00  0.00     0.251 C 
ATOM     34  H   UNL A   1      38.046  33.987  31.326  1.00  0.00     0.163 HD
ATOM     35  O   UNL A   1      38.568  33.810  29.137  1.00  0.00    -0.269 OA
BRANCH  33  36
ATOM     36  C   UNL A   1      40.639  34.880  29.393  1.00  0.00     0.039 A 
ATOM     37  C   UNL A   1      41.843  35.012  30.072  1.00  0.00     0.014 A 
ATOM     38  C   UNL A   1      40.534  35.447  28.101  1.00  0.00     0.014 A 
ATOM     39  C   UNL A   1      42.843  35.830  29.541  1.00  0.00     0.010 A 
ATOM     40  C   UNL A   1      41.529  36.268  27.574  1.00  0.00     0.010 A 
ATOM     41  C   UNL A   1      42.648  36.539  28.341  1.00  0.00    -0.014 A 
BRANCH  41  42
ATOM     42  C   UNL A   1      43.684  37.500  27.930  1.00  0.00     0.031 A 
ATOM     43  C   UNL A   1      45.001  36.852  27.694  1.00  0.00     0.074 A 
ATOM     44  C   UNL A   1      43.504  38.836  27.787  1.00  0.00     0.049 A 
ATOM     45  N   UNL A   1      46.092  36.994  28.374  1.00  0.00    -0.248 NA
ATOM     46  C   UNL A   1      45.048  35.774  26.693  1.00  0.00     0.031 C 
ATOM     47  C   UNL A   1      42.243  39.586  27.804  1.00  0.00     0.029 A 
ATOM     48  N   UNL A   1      44.423  39.818  27.517  1.00  0.00    -0.354 N 
ATOM     49  C   UNL A   1      47.023  36.170  27.752  1.00  0.00     0.074 A 
ATOM     50  C   UNL A   1      46.294  35.327  26.840  1.00  0.00     0.031 C 
ATOM     51  C   UNL A   1      42.449  40.832  27.318  1.00  0.00     0.029 A 
ATOM     52  C   UNL A   1      43.866  41.023  27.076  1.00  0.00     0.049 A 
ATOM     53  H   UNL A   1      45.392  39.686  27.625  1.00  0.00     0.167 HD
ATOM     54  C   UNL A   1      48.355  36.421  27.828  1.00  0.00     0.034 A 
ATOM     55  C   UNL A   1      44.522  42.067  26.499  1.00  0.00     0.034 A 
ATOM     56  C   UNL A   1      48.692  37.266  28.935  1.00  0.00     0.049 A 
ATOM     57  C   UNL A   1      45.938  41.944  26.899  1.00  0.00     0.074 A 
ATOM     58  C   UNL A   1      48.613  37.166  30.308  1.00  0.00     0.029 A 
ATOM     59  N   UNL A   1      48.852  38.596  28.645  1.00  0.00    -0.354 N 
ATOM     60  N   UNL A   1      46.372  42.115  28.114  1.00  0.00    -0.248 NA
ATOM     61  C   UNL A   1      46.843  41.262  25.989  1.00  0.00     0.031 C 
ATOM     62  C   UNL A   1      48.321  38.484  30.761  1.00  0.00     0.029 A 
ATOM     63  C   UNL A   1      48.284  39.328  29.649  1.00  0.00     0.049 A 
ATOM     64  H   UNL A   1      49.298  38.961  27.848  1.00  0.00     0.167 HD
ATOM     65  C   UNL A   1      47.389  41.182  28.241  1.00  0.00     0.074 A 
ATOM     66  C   UNL A   1      47.710  40.775  26.876  1.00  0.00     0.031 C 
ATOM     67  C   UNL A   1      47.672  40.623  29.451  1.00  0.00     0.034 A 
BRANCH  54  68
ATOM     68  C   UNL A   1      49.270  36.253  26.643  1.00  0.00     0.023 A 
ATOM     69  C   UNL A   1      49.173  37.175  25.583  1.00  0.00     0.012 A 
ATOM     70  C   UNL A   1      50.012  35.070  26.411  1.00  0.00     0.148 A 
ATOM     71  C   UNL A   1      49.794  36.931  24.352  1.00  0.00     0.002 A 
ATOM     72  C   UNL A   1      50.691  34.870  25.218  1.00  0.00     0.091 A 
ATOM     73  F   UNL A   1      49.950  34.064  27.289  1.00  0.00    -0.205 F 
ATOM     74  C   UNL A   1      50.568  35.789  24.175  1.00  0.00     0.022 A 
BRANCH  72  75
ATOM     75  S   UNL A   1      51.720  33.422  24.958  1.00  0.00     0.127 S 
ATOM     76  O   UNL A   1      52.215  33.656  23.604  1.00  0.00    -0.237 OA
ATOM     77  O   UNL A   1      52.716  33.570  26.019  1.00  0.00    -0.237 OA
ATOM     78  O   UNL A   1      50.833  32.277  25.128  1.00  0.00    -0.744 OA
ENDBRANCH  72  75
ENDBRANCH  54  68
BRANCH  55  79
ATOM     79  C   UNL A   1      44.126  43.009  25.410  1.00  0.00     0.023 A 
ATOM     80  C   UNL A   1      44.838  44.226  25.260  1.00  0.00     0.012 A 
ATOM     81  C   UNL A   1      43.308  42.600  24.336  1.00  0.00     0.148 A 
ATOM     82  C   UNL A   1      44.802  44.955  24.064  1.00  0.00     0.002 A 
ATOM     83  C   UNL A   1      43.267  43.335  23.150  1.00  0.00     0.091 A 
ATOM     84  F   UNL A   1      42.642  41.444  24.433  1.00  0.00    -0.205 F 
ATOM     85  C   UNL A   1      44.030  44.501  23.002  1.00  0.00     0.022 A 
BRANCH  83  86
ATOM     86  S   UNL A   1      42.293  42.809  21.733  1.00  0.00     0.127 S 
ATOM     87  O   UNL A   1      40.926  42.918  22.244  1.00  0.00    -0.237 OA
ATOM     88  O   UNL A   1      42.653  43.806  20.730  1.00  0.00    -0.237 OA
ATOM     89  O   UNL A   1      42.715  41.442  21.452  1.00  0.00    -0.744 OA
ENDBRANCH  83  86
ENDBRANCH  55  79
BRANCH  67  90
ATOM     90  C   UNL A   1      47.109  41.272  30.684  1.00  0.00     0.023 A 
ATOM     91  C   UNL A   1      47.767  42.326  31.351  1.00  0.00     0.012 A 
ATOM     92  C   UNL A   1      45.780  40.964  31.019  1.00  0.00     0.148 A 
ATOM     93  C   UNL A   1      47.098  43.070  32.327  1.00  0.00     0.002 A 
ATOM     94  C   UNL A   1      45.107  41.735  31.953  1.00  0.00     0.091 A 
ATOM     95  F   UNL A   1      45.181  39.960  30.359  1.00  0.00    -0.205 F 
ATOM     96  C   UNL A   1      45.762  42.787  32.614  1.00  0.00     0.022 A 
BRANCH  94  97
ATOM     97  S   UNL A   1      43.355  41.517  32.274  1.00  0.00     0.127 S 
ATOM     98  O   UNL A   1      43.308  40.155  32.804  1.00  0.00    -0.237 OA
ATOM     99  O   UNL A   1      43.095  42.565  33.263  1.00  0.00    -0.237 OA
ATOM    100  O   UNL A   1      42.676  41.707  30.999  1.00  0.00    -0.744 OA
ENDBRANCH  94  97
ENDBRANCH  67  90
ENDBRANCH  41  42
ENDBRANCH  33  36
ENDBRANCH  31  32
ENDBRANCH  30  31
ENDBRANCH   1  30
TORSDOF 18
ENDMDL
