MODEL 1
REMARK VINA RESULT:     -11.5      0.000      0.000
REMARK SMILES CCC(CC)(NC(=O)Nc1cc(Cl)cc(Cl)c1)C(=O)NCCCNC(=O)c1ccc(-c2c3nc(c(-c4cccc(S(=O)(=O)[O-])c4F)c4ccc([nH]4)c(-c4cccc(S(=O)(=O)[O-])c4F)c4nc(c(-c5cccc(S(=O)(=O)[O-])c5F)c5ccc2[nH]5)C=C4)C=C3)cc1
REMARK SMILES IDX 22 1 21 2 20 3 18 4 19 5 3 7 2 8 1 9 4 10 5 11 6 12 7 13
REMARK SMILES IDX 8 15 9 16 10 18 11 19 17 20 12 21 15 22 13 23 14 24 16 25
REMARK SMILES IDX 23 26 24 27 25 28 26 30 27 31 28 32 89 33 29 34 88 35 30 36
REMARK SMILES IDX 31 37 32 38 82 39 33 40 87 41 81 42 83 43 34 44 86 45 80 46
REMARK SMILES IDX 79 47 35 49 67 50 47 51 66 52 48 53 51 54 65 55 84 56 49 57
REMARK SMILES IDX 50 58 64 60 85 61 52 62 36 63 37 64 45 65 38 66 40 67 46 68
REMARK SMILES IDX 39 69 41 70 42 71 43 72 44 73 68 74 69 75 77 76 70 77 72 78
REMARK SMILES IDX 78 79 71 80 73 81 74 82 75 83 76 84 53 85 54 86 62 87 55 88
REMARK SMILES IDX 57 89 63 90 56 91 58 92 59 93 60 94 61 95
REMARK H PARENT 20 6 6 14 9 17 24 29 83 48 51 59
REMARK Flexibility Score: inf
ROOT
ATOM      1  C   UNL A   1      33.183  28.901  23.513  1.00  0.00     0.042 C 
ENDROOT
BRANCH   1   2
ATOM      2  C   UNL A   1      33.422  27.461  23.027  1.00  0.00     0.117 C 
BRANCH   2   3
ATOM      3  N   UNL A   1      32.178  26.710  22.906  1.00  0.00    -0.354 N 
ATOM      4  C   UNL A   1      31.369  26.165  23.898  1.00  0.00     0.245 C 
ATOM      5  O   UNL A   1      30.272  26.638  24.177  1.00  0.00    -0.272 OA
ATOM      6  H   UNL A   1      31.863  26.569  21.984  1.00  0.00     0.163 HD
BRANCH   4   7
ATOM      7  C   UNL A   1      32.017  24.995  24.690  1.00  0.00     0.120 C 
BRANCH   7   8
ATOM      8  C   UNL A   1      33.413  25.093  25.340  1.00  0.00     0.035 C 
ATOM      9  C   UNL A   1      33.688  26.220  26.309  1.00  0.00     0.007 C 
ENDBRANCH   7   8
BRANCH   7  10
ATOM     10  C   UNL A   1      32.038  23.951  23.499  1.00  0.00     0.035 C 
ATOM     11  C   UNL A   1      33.320  23.419  22.892  1.00  0.00     0.007 C 
ENDBRANCH   7  10
BRANCH   7  12
ATOM     12  N   UNL A   1      31.083  24.708  25.811  1.00  0.00    -0.323 N 
ATOM     13  C   UNL A   1      30.778  23.602  26.526  1.00  0.00     0.320 C 
ATOM     14  H   UNL A   1      30.572  25.500  26.096  1.00  0.00     0.166 HD
ATOM     15  O   UNL A   1      29.762  23.679  27.224  1.00  0.00    -0.248 OA
ATOM     16  N   UNL A   1      31.473  22.438  26.623  1.00  0.00    -0.308 N 
ATOM     17  H   UNL A   1      31.143  21.905  27.382  1.00  0.00     0.171 HD
BRANCH  16  18
ATOM     18  C   UNL A   1      32.527  21.758  25.964  1.00  0.00     0.045 A 
ATOM     19  C   UNL A   1      33.889  21.911  26.251  1.00  0.00     0.046 A 
ATOM     20  C   UNL A   1      32.186  20.652  25.183  1.00  0.00     0.046 A 
ATOM     21  C   UNL A   1      34.875  21.227  25.530  1.00  0.00     0.044 A 
ATOM     22  C   UNL A   1      33.173  19.908  24.522  1.00  0.00     0.044 A 
ATOM     23  Cl  UNL A   1      36.538  21.603  25.775  1.00  0.00    -0.084 Cl
ATOM     24  C   UNL A   1      34.519  20.235  24.635  1.00  0.00     0.041 A 
ATOM     25  Cl  UNL A   1      32.720  18.552  23.566  1.00  0.00    -0.084 Cl
ENDBRANCH  16  18
ENDBRANCH   7  12
ENDBRANCH   4   7
ENDBRANCH   2   3
ENDBRANCH   1   2
BRANCH   1  26
ATOM     26  C   UNL A   1      33.583  29.218  24.953  1.00  0.00     0.118 C 
BRANCH  26  27
ATOM     27  N   UNL A   1      32.851  30.335  25.510  1.00  0.00    -0.352 N 
ATOM     28  C   UNL A   1      33.084  31.050  26.661  1.00  0.00     0.251 C 
ATOM     29  H   UNL A   1      32.070  30.628  24.987  1.00  0.00     0.163 HD
ATOM     30  O   UNL A   1      32.250  31.859  27.046  1.00  0.00    -0.269 OA
BRANCH  28  31
ATOM     31  C   UNL A   1      34.317  30.825  27.453  1.00  0.00     0.039 A 
ATOM     32  C   UNL A   1      34.521  29.559  28.005  1.00  0.00     0.014 A 
ATOM     33  C   UNL A   1      35.249  31.842  27.686  1.00  0.00     0.014 A 
ATOM     34  C   UNL A   1      35.675  29.302  28.749  1.00  0.00     0.010 A 
ATOM     35  C   UNL A   1      36.437  31.561  28.368  1.00  0.00     0.010 A 
ATOM     36  C   UNL A   1      36.661  30.290  28.916  1.00  0.00    -0.014 A 
BRANCH  36  37
ATOM     37  C   UNL A   1      37.926  29.966  29.634  1.00  0.00     0.031 A 
ATOM     38  C   UNL A   1      38.195  30.480  31.025  1.00  0.00     0.074 A 
ATOM     39  C   UNL A   1      38.859  29.211  29.016  1.00  0.00     0.049 A 
ATOM     40  N   UNL A   1      39.206  30.223  31.815  1.00  0.00    -0.248 NA
ATOM     41  C   UNL A   1      37.217  31.420  31.595  1.00  0.00     0.031 C 
ATOM     42  C   UNL A   1      38.772  28.723  27.639  1.00  0.00     0.029 A 
ATOM     43  N   UNL A   1      40.064  28.728  29.463  1.00  0.00    -0.354 N 
ATOM     44  C   UNL A   1      39.001  30.980  32.964  1.00  0.00     0.074 A 
ATOM     45  C   UNL A   1      37.787  31.738  32.750  1.00  0.00     0.031 C 
ATOM     46  C   UNL A   1      39.861  27.988  27.361  1.00  0.00     0.029 A 
ATOM     47  C   UNL A   1      40.736  27.973  28.528  1.00  0.00     0.049 A 
ATOM     48  H   UNL A   1      40.415  28.904  30.365  1.00  0.00     0.167 HD
ATOM     49  C   UNL A   1      39.735  31.021  34.103  1.00  0.00     0.034 A 
ATOM     50  C   UNL A   1      41.920  27.333  28.600  1.00  0.00     0.034 A 
ATOM     51  C   UNL A   1      40.931  30.250  34.326  1.00  0.00     0.049 A 
ATOM     52  C   UNL A   1      42.691  27.356  29.892  1.00  0.00     0.074 A 
ATOM     53  C   UNL A   1      41.697  30.163  35.476  1.00  0.00     0.029 A 
ATOM     54  N   UNL A   1      41.545  29.445  33.379  1.00  0.00    -0.354 N 
ATOM     55  N   UNL A   1      42.388  27.942  31.025  1.00  0.00    -0.248 NA
ATOM     56  C   UNL A   1      43.944  26.589  29.929  1.00  0.00     0.031 C 
ATOM     57  C   UNL A   1      42.793  29.333  35.215  1.00  0.00     0.029 A 
ATOM     58  C   UNL A   1      42.686  28.867  33.914  1.00  0.00     0.049 A 
ATOM     59  H   UNL A   1      41.219  29.303  32.462  1.00  0.00     0.167 HD
ATOM     60  C   UNL A   1      43.393  27.587  31.918  1.00  0.00     0.074 A 
ATOM     61  C   UNL A   1      44.295  26.709  31.201  1.00  0.00     0.031 C 
ATOM     62  C   UNL A   1      43.560  27.964  33.210  1.00  0.00     0.034 A 
BRANCH  49  63
ATOM     63  C   UNL A   1      39.242  31.904  35.225  1.00  0.00     0.023 A 
ATOM     64  C   UNL A   1      38.302  31.399  36.147  1.00  0.00     0.012 A 
ATOM     65  C   UNL A   1      39.756  33.203  35.407  1.00  0.00     0.148 A 
ATOM     66  C   UNL A   1      37.853  32.184  37.208  1.00  0.00     0.002 A 
ATOM     67  C   UNL A   1      39.339  33.963  36.495  1.00  0.00     0.091 A 
ATOM     68  F   UNL A   1      40.636  33.675  34.513  1.00  0.00    -0.205 F 
ATOM     69  C   UNL A   1      38.379  33.460  37.388  1.00  0.00     0.022 A 
BRANCH  67  70
ATOM     70  S   UNL A   1      40.016  35.585  36.864  1.00  0.00     0.127 S 
ATOM     71  O   UNL A   1      41.452  35.307  36.886  1.00  0.00    -0.237 OA
ATOM     72  O   UNL A   1      39.566  36.374  35.718  1.00  0.00    -0.237 OA
ATOM     73  O   UNL A   1      39.439  35.982  38.141  1.00  0.00    -0.744 OA
ENDBRANCH  67  70
ENDBRANCH  49  63
BRANCH  50  74
ATOM     74  C   UNL A   1      42.420  26.556  27.430  1.00  0.00     0.023 A 
ATOM     75  C   UNL A   1      43.182  27.203  26.436  1.00  0.00     0.012 A 
ATOM     76  C   UNL A   1      42.158  25.178  27.306  1.00  0.00     0.148 A 
ATOM     77  C   UNL A   1      43.638  26.499  25.320  1.00  0.00     0.002 A 
ATOM     78  C   UNL A   1      42.668  24.471  26.224  1.00  0.00     0.091 A 
ATOM     79  F   UNL A   1      41.424  24.584  28.257  1.00  0.00    -0.205 F 
ATOM     80  C   UNL A   1      43.391  25.134  25.220  1.00  0.00     0.022 A 
BRANCH  78  81
ATOM     81  S   UNL A   1      42.514  22.688  26.081  1.00  0.00     0.127 S 
ATOM     82  O   UNL A   1      41.066  22.508  26.116  1.00  0.00    -0.237 OA
ATOM     83  O   UNL A   1      43.137  22.437  24.781  1.00  0.00    -0.237 OA
ATOM     84  O   UNL A   1      43.248  22.137  27.213  1.00  0.00    -0.744 OA
ENDBRANCH  78  81
ENDBRANCH  50  74
BRANCH  62  85
ATOM     85  C   UNL A   1      44.743  27.394  33.952  1.00  0.00     0.023 A 
ATOM     86  C   UNL A   1      45.988  28.057  33.918  1.00  0.00     0.012 A 
ATOM     87  C   UNL A   1      44.616  26.212  34.708  1.00  0.00     0.148 A 
ATOM     88  C   UNL A   1      47.096  27.526  34.578  1.00  0.00     0.002 A 
ATOM     89  C   UNL A   1      45.710  25.717  35.409  1.00  0.00     0.091 A 
ATOM     90  F   UNL A   1      43.433  25.581  34.717  1.00  0.00    -0.205 F 
ATOM     91  C   UNL A   1      46.955  26.362  35.330  1.00  0.00     0.022 A 
BRANCH  89  92
ATOM     92  S   UNL A   1      45.594  24.281  36.482  1.00  0.00     0.127 S 
ATOM     93  O   UNL A   1      44.548  24.692  37.417  1.00  0.00    -0.237 OA
ATOM     94  O   UNL A   1      45.198  23.227  35.549  1.00  0.00    -0.237 OA
ATOM     95  O   UNL A   1      46.920  24.106  37.060  1.00  0.00    -0.744 OA
ENDBRANCH  89  92
ENDBRANCH  62  85
ENDBRANCH  36  37
ENDBRANCH  28  31
ENDBRANCH  26  27
ENDBRANCH   1  26
TORSDOF 17
ENDMDL
MODEL 2
REMARK VINA RESULT:     -11.5      1.979      2.801
REMARK SMILES CCC(CC)(NC(=O)Nc1cc(Cl)cc(Cl)c1)C(=O)NCCCNC(=O)c1ccc(-c2c3nc(c(-c4cccc(S(=O)(=O)[O-])c4F)c4ccc([nH]4)c(-c4cccc(S(=O)(=O)[O-])c4F)c4nc(c(-c5cccc(S(=O)(=O)[O-])c5F)c5ccc2[nH]5)C=C4)C=C3)cc1
REMARK SMILES IDX 22 1 21 2 20 3 18 4 19 5 3 7 2 8 1 9 4 10 5 11 6 12 7 13
REMARK SMILES IDX 8 15 9 16 10 18 11 19 17 20 12 21 15 22 13 23 14 24 16 25
REMARK SMILES IDX 23 26 24 27 25 28 26 30 27 31 28 32 89 33 29 34 88 35 30 36
REMARK SMILES IDX 31 37 32 38 82 39 33 40 87 41 81 42 83 43 34 44 86 45 80 46
REMARK SMILES IDX 79 47 35 49 67 50 47 51 66 52 48 53 51 54 65 55 84 56 49 57
REMARK SMILES IDX 50 58 64 60 85 61 52 62 36 63 37 64 45 65 38 66 40 67 46 68
REMARK SMILES IDX 39 69 41 70 42 71 43 72 44 73 68 74 69 75 77 76 70 77 72 78
REMARK SMILES IDX 78 79 71 80 73 81 74 82 75 83 76 84 53 85 54 86 62 87 55 88
REMARK SMILES IDX 57 89 63 90 56 91 58 92 59 93 60 94 61 95
REMARK H PARENT 20 6 6 14 9 17 24 29 83 48 51 59
REMARK Flexibility Score: inf
ROOT
ATOM      1  C   UNL A   1      31.655  30.515  26.426  1.00  0.00     0.042 C 
ENDROOT
BRANCH   1   2
ATOM      2  C   UNL A   1      31.552  29.669  25.145  1.00  0.00     0.117 C 
BRANCH   2   3
ATOM      3  N   UNL A   1      32.860  29.237  24.668  1.00  0.00    -0.354 N 
ATOM      4  C   UNL A   1      33.201  28.557  23.503  1.00  0.00     0.245 C 
ATOM      5  O   UNL A   1      33.791  29.107  22.578  1.00  0.00    -0.272 OA
ATOM      6  H   UNL A   1      33.615  29.461  25.259  1.00  0.00     0.163 HD
BRANCH   4   7
ATOM      7  C   UNL A   1      32.674  27.097  23.428  1.00  0.00     0.120 C 
BRANCH   7   8
ATOM      8  C   UNL A   1      31.297  26.673  23.981  1.00  0.00     0.035 C 
ATOM      9  C   UNL A   1      30.052  27.084  23.230  1.00  0.00     0.007 C 
ENDBRANCH   7   8
BRANCH   7  10
ATOM     10  C   UNL A   1      33.835  26.435  24.277  1.00  0.00     0.035 C 
ATOM     11  C   UNL A   1      33.633  25.917  25.686  1.00  0.00     0.007 C 
ENDBRANCH   7  10
BRANCH   7  12
ATOM     12  N   UNL A   1      32.634  26.762  21.979  1.00  0.00    -0.323 N 
ATOM     13  C   UNL A   1      32.809  25.627  21.269  1.00  0.00     0.320 C 
ATOM     14  H   UNL A   1      32.435  27.542  21.412  1.00  0.00     0.166 HD
ATOM     15  O   UNL A   1      32.949  25.774  20.050  1.00  0.00    -0.248 OA
ATOM     16  N   UNL A   1      32.793  24.341  21.709  1.00  0.00    -0.308 N 
ATOM     17  H   UNL A   1      32.718  23.720  20.949  1.00  0.00     0.171 HD
BRANCH  16  18
ATOM     18  C   UNL A   1      32.854  23.622  22.929  1.00  0.00     0.045 A 
ATOM     19  C   UNL A   1      31.754  23.316  23.739  1.00  0.00     0.046 A 
ATOM     20  C   UNL A   1      34.030  22.920  23.200  1.00  0.00     0.046 A 
ATOM     21  C   UNL A   1      31.900  22.630  24.950  1.00  0.00     0.044 A 
ATOM     22  C   UNL A   1      34.158  22.160  24.372  1.00  0.00     0.044 A 
ATOM     23  Cl  UNL A   1      30.554  22.460  26.012  1.00  0.00    -0.084 Cl
ATOM     24  C   UNL A   1      33.117  22.069  25.288  1.00  0.00     0.041 A 
ATOM     25  Cl  UNL A   1      35.620  21.308  24.679  1.00  0.00    -0.084 Cl
ENDBRANCH  16  18
ENDBRANCH   7  12
ENDBRANCH   4   7
ENDBRANCH   2   3
ENDBRANCH   1   2
BRANCH   1  26
ATOM     26  C   UNL A   1      33.052  30.970  26.842  1.00  0.00     0.118 C 
BRANCH  26  27
ATOM     27  N   UNL A   1      33.120  32.383  27.148  1.00  0.00    -0.352 N 
ATOM     28  C   UNL A   1      34.005  33.065  27.948  1.00  0.00     0.251 C 
ATOM     29  H   UNL A   1      32.429  32.938  26.721  1.00  0.00     0.163 HD
ATOM     30  O   UNL A   1      33.794  34.242  28.212  1.00  0.00    -0.269 OA
BRANCH  28  31
ATOM     31  C   UNL A   1      35.191  32.381  28.517  1.00  0.00     0.039 A 
ATOM     32  C   UNL A   1      36.438  32.987  28.358  1.00  0.00     0.014 A 
ATOM     33  C   UNL A   1      35.098  31.146  29.169  1.00  0.00     0.014 A 
ATOM     34  C   UNL A   1      37.580  32.382  28.888  1.00  0.00     0.010 A 
ATOM     35  C   UNL A   1      36.231  30.579  29.761  1.00  0.00     0.010 A 
ATOM     36  C   UNL A   1      37.488  31.185  29.621  1.00  0.00    -0.014 A 
BRANCH  36  37
ATOM     37  C   UNL A   1      38.704  30.606  30.257  1.00  0.00     0.031 A 
ATOM     38  C   UNL A   1      39.125  30.996  31.650  1.00  0.00     0.074 A 
ATOM     39  C   UNL A   1      39.456  29.726  29.561  1.00  0.00     0.049 A 
ATOM     40  N   UNL A   1      40.108  30.524  32.375  1.00  0.00    -0.248 NA
ATOM     41  C   UNL A   1      38.362  32.068  32.308  1.00  0.00     0.031 C 
ATOM     42  C   UNL A   1      39.218  29.327  28.173  1.00  0.00     0.029 A 
ATOM     43  N   UNL A   1      40.572  29.012  29.924  1.00  0.00    -0.354 N 
ATOM     44  C   UNL A   1      40.096  31.250  33.561  1.00  0.00     0.074 A 
ATOM     45  C   UNL A   1      39.032  32.224  33.442  1.00  0.00     0.031 C 
ATOM     46  C   UNL A   1      40.141  28.423  27.809  1.00  0.00     0.029 A 
ATOM     47  C   UNL A   1      41.051  28.195  28.926  1.00  0.00     0.049 A 
ATOM     48  H   UNL A   1      40.990  29.080  30.812  1.00  0.00     0.167 HD
ATOM     49  C   UNL A   1      40.877  31.104  34.660  1.00  0.00     0.034 A 
ATOM     50  C   UNL A   1      42.101  27.350  28.910  1.00  0.00     0.034 A 
ATOM     51  C   UNL A   1      41.922  30.121  34.789  1.00  0.00     0.049 A 
ATOM     52  C   UNL A   1      42.922  27.172  30.158  1.00  0.00     0.074 A 
ATOM     53  C   UNL A   1      42.711  29.843  35.892  1.00  0.00     0.029 A 
ATOM     54  N   UNL A   1      42.335  29.264  33.780  1.00  0.00    -0.354 N 
ATOM     55  N   UNL A   1      42.783  27.749  31.328  1.00  0.00    -0.248 NA
ATOM     56  C   UNL A   1      44.014  26.191  30.099  1.00  0.00     0.031 C 
ATOM     57  C   UNL A   1      43.624  28.843  35.540  1.00  0.00     0.029 A 
ATOM     58  C   UNL A   1      43.375  28.466  34.231  1.00  0.00     0.049 A 
ATOM     59  H   UNL A   1      41.947  29.228  32.877  1.00  0.00     0.167 HD
ATOM     60  C   UNL A   1      43.746  27.176  32.151  1.00  0.00     0.074 A 
ATOM     61  C   UNL A   1      44.439  26.186  31.354  1.00  0.00     0.031 C 
ATOM     62  C   UNL A   1      44.037  27.455  33.447  1.00  0.00     0.034 A 
BRANCH  49  63
ATOM     63  C   UNL A   1      40.605  32.007  35.839  1.00  0.00     0.023 A 
ATOM     64  C   UNL A   1      41.478  33.079  36.114  1.00  0.00     0.012 A 
ATOM     65  C   UNL A   1      39.452  31.837  36.633  1.00  0.00     0.148 A 
ATOM     66  C   UNL A   1      41.232  33.943  37.181  1.00  0.00     0.002 A 
ATOM     67  C   UNL A   1      39.188  32.732  37.665  1.00  0.00     0.091 A 
ATOM     68  F   UNL A   1      38.640  30.804  36.370  1.00  0.00    -0.205 F 
ATOM     69  C   UNL A   1      40.083  33.776  37.948  1.00  0.00     0.022 A 
BRANCH  67  70
ATOM     70  S   UNL A   1      37.694  32.655  38.659  1.00  0.00     0.127 S 
ATOM     71  O   UNL A   1      36.665  32.971  37.669  1.00  0.00    -0.237 OA
ATOM     72  O   UNL A   1      37.698  31.264  39.111  1.00  0.00    -0.237 OA
ATOM     73  O   UNL A   1      37.863  33.640  39.718  1.00  0.00    -0.744 OA
ENDBRANCH  67  70
ENDBRANCH  49  63
BRANCH  50  74
ATOM     74  C   UNL A   1      42.398  26.552  27.686  1.00  0.00     0.023 A 
ATOM     75  C   UNL A   1      43.102  27.145  26.619  1.00  0.00     0.012 A 
ATOM     76  C   UNL A   1      41.999  25.205  27.580  1.00  0.00     0.148 A 
ATOM     77  C   UNL A   1      43.368  26.424  25.454  1.00  0.00     0.002 A 
ATOM     78  C   UNL A   1      42.321  24.475  26.443  1.00  0.00     0.091 A 
ATOM     79  F   UNL A   1      41.322  24.663  28.602  1.00  0.00    -0.205 F 
ATOM     80  C   UNL A   1      42.988  25.088  25.370  1.00  0.00     0.022 A 
BRANCH  78  81
ATOM     81  S   UNL A   1      41.991  22.716  26.304  1.00  0.00     0.127 S 
ATOM     82  O   UNL A   1      42.684  22.187  27.475  1.00  0.00    -0.237 OA
ATOM     83  O   UNL A   1      40.530  22.678  26.380  1.00  0.00    -0.237 OA
ATOM     84  O   UNL A   1      42.534  22.314  25.012  1.00  0.00    -0.744 OA
ENDBRANCH  78  81
ENDBRANCH  50  74
BRANCH  62  85
ATOM     85  C   UNL A   1      45.130  26.647  34.101  1.00  0.00     0.023 A 
ATOM     86  C   UNL A   1      46.451  27.140  34.139  1.00  0.00     0.012 A 
ATOM     87  C   UNL A   1      44.843  25.407  34.707  1.00  0.00     0.148 A 
ATOM     88  C   UNL A   1      47.474  26.390  34.718  1.00  0.00     0.002 A 
ATOM     89  C   UNL A   1      45.857  24.690  35.331  1.00  0.00     0.091 A 
ATOM     90  F   UNL A   1      43.586  24.942  34.648  1.00  0.00    -0.205 F 
ATOM     91  C   UNL A   1      47.176  25.171  35.322  1.00  0.00     0.022 A 
BRANCH  89  92
ATOM     92  S   UNL A   1      45.545  23.160  36.219  1.00  0.00     0.127 S 
ATOM     93  O   UNL A   1      46.826  22.470  36.082  1.00  0.00    -0.237 OA
ATOM     94  O   UNL A   1      45.251  23.639  37.570  1.00  0.00    -0.237 OA
ATOM     95  O   UNL A   1      44.417  22.531  35.545  1.00  0.00    -0.744 OA
ENDBRANCH  89  92
ENDBRANCH  62  85
ENDBRANCH  36  37
ENDBRANCH  28  31
ENDBRANCH  26  27
ENDBRANCH   1  26
TORSDOF 17
ENDMDL
MODEL 3
REMARK VINA RESULT:     -11.4      5.076      9.979
REMARK SMILES CCC(CC)(NC(=O)Nc1cc(Cl)cc(Cl)c1)C(=O)NCCCNC(=O)c1ccc(-c2c3nc(c(-c4cccc(S(=O)(=O)[O-])c4F)c4ccc([nH]4)c(-c4cccc(S(=O)(=O)[O-])c4F)c4nc(c(-c5cccc(S(=O)(=O)[O-])c5F)c5ccc2[nH]5)C=C4)C=C3)cc1
REMARK SMILES IDX 22 1 21 2 20 3 18 4 19 5 3 7 2 8 1 9 4 10 5 11 6 12 7 13
REMARK SMILES IDX 8 15 9 16 10 18 11 19 17 20 12 21 15 22 13 23 14 24 16 25
REMARK SMILES IDX 23 26 24 27 25 28 26 30 27 31 28 32 89 33 29 34 88 35 30 36
REMARK SMILES IDX 31 37 32 38 82 39 33 40 87 41 81 42 83 43 34 44 86 45 80 46
REMARK SMILES IDX 79 47 35 49 67 50 47 51 66 52 48 53 51 54 65 55 84 56 49 57
REMARK SMILES IDX 50 58 64 60 85 61 52 62 36 63 37 64 45 65 38 66 40 67 46 68
REMARK SMILES IDX 39 69 41 70 42 71 43 72 44 73 68 74 69 75 77 76 70 77 72 78
REMARK SMILES IDX 78 79 71 80 73 81 74 82 75 83 76 84 53 85 54 86 62 87 55 88
REMARK SMILES IDX 57 89 63 90 56 91 58 92 59 93 60 94 61 95
REMARK H PARENT 20 6 6 14 9 17 24 29 83 48 51 59
REMARK Flexibility Score: inf
ROOT
ATOM      1  C   UNL A   1      36.522  22.838  24.345  1.00  0.00     0.042 C 
ENDROOT
BRANCH   1   2
ATOM      2  C   UNL A   1      35.217  22.039  24.186  1.00  0.00     0.117 C 
BRANCH   2   3
ATOM      3  N   UNL A   1      34.600  21.737  25.472  1.00  0.00    -0.354 N 
ATOM      4  C   UNL A   1      33.260  21.538  25.790  1.00  0.00     0.245 C 
ATOM      5  O   UNL A   1      32.817  20.430  26.077  1.00  0.00    -0.272 OA
ATOM      6  H   UNL A   1      35.226  21.665  26.228  1.00  0.00     0.163 HD
BRANCH   4   7
ATOM      7  C   UNL A   1      32.364  22.799  25.637  1.00  0.00     0.120 C 
BRANCH   7   8
ATOM      8  C   UNL A   1      31.926  23.356  24.266  1.00  0.00     0.035 C 
ATOM      9  C   UNL A   1      31.776  22.400  23.105  1.00  0.00     0.007 C 
ENDBRANCH   7   8
BRANCH   7  10
ATOM     10  C   UNL A   1      33.345  23.814  26.355  1.00  0.00     0.035 C 
ATOM     11  C   UNL A   1      33.883  25.057  25.678  1.00  0.00     0.007 C 
ENDBRANCH   7  10
BRANCH   7  12
ATOM     12  N   UNL A   1      31.099  22.477  26.350  1.00  0.00    -0.323 N 
ATOM     13  C   UNL A   1      30.074  23.214  26.832  1.00  0.00     0.320 C 
ATOM     14  H   UNL A   1      30.983  21.512  26.507  1.00  0.00     0.166 HD
ATOM     15  O   UNL A   1      29.302  22.623  27.596  1.00  0.00    -0.248 OA
ATOM     16  N   UNL A   1      29.746  24.500  26.543  1.00  0.00    -0.308 N 
ATOM     17  H   UNL A   1      28.834  24.700  26.855  1.00  0.00     0.171 HD
BRANCH  16  18
ATOM     18  C   UNL A   1      30.319  25.643  25.929  1.00  0.00     0.045 A 
ATOM     19  C   UNL A   1      30.088  26.049  24.609  1.00  0.00     0.046 A 
ATOM     20  C   UNL A   1      30.916  26.588  26.767  1.00  0.00     0.046 A 
ATOM     21  C   UNL A   1      30.719  27.174  24.065  1.00  0.00     0.044 A 
ATOM     22  C   UNL A   1      31.478  27.759  26.240  1.00  0.00     0.044 A 
ATOM     23  Cl  UNL A   1      30.570  27.514  22.382  1.00  0.00    -0.084 Cl
ATOM     24  C   UNL A   1      31.445  28.025  24.877  1.00  0.00     0.041 A 
ATOM     25  Cl  UNL A   1      32.208  28.903  27.298  1.00  0.00    -0.084 Cl
ENDBRANCH  16  18
ENDBRANCH   7  12
ENDBRANCH   4   7
ENDBRANCH   2   3
ENDBRANCH   1   2
BRANCH   1  26
ATOM     26  C   UNL A   1      37.149  22.865  25.737  1.00  0.00     0.118 C 
BRANCH  26  27
ATOM     27  N   UNL A   1      38.040  21.750  25.978  1.00  0.00    -0.352 N 
ATOM     28  C   UNL A   1      39.352  21.749  26.391  1.00  0.00     0.251 C 
ATOM     29  H   UNL A   1      37.650  20.860  25.823  1.00  0.00     0.163 HD
ATOM     30  O   UNL A   1      39.986  20.703  26.377  1.00  0.00    -0.269 OA
BRANCH  28  31
ATOM     31  C   UNL A   1      40.009  23.007  26.819  1.00  0.00     0.039 A 
ATOM     32  C   UNL A   1      39.749  24.167  26.087  1.00  0.00     0.014 A 
ATOM     33  C   UNL A   1      40.897  23.053  27.900  1.00  0.00     0.014 A 
ATOM     34  C   UNL A   1      40.340  25.375  26.463  1.00  0.00     0.010 A 
ATOM     35  C   UNL A   1      41.428  24.277  28.318  1.00  0.00     0.010 A 
ATOM     36  C   UNL A   1      41.164  25.452  27.600  1.00  0.00    -0.014 A 
BRANCH  36  37
ATOM     37  C   UNL A   1      41.708  26.769  28.037  1.00  0.00     0.031 A 
ATOM     38  C   UNL A   1      43.135  27.162  27.756  1.00  0.00     0.074 A 
ATOM     39  C   UNL A   1      40.910  27.619  28.717  1.00  0.00     0.049 A 
ATOM     40  N   UNL A   1      43.737  28.300  27.996  1.00  0.00    -0.248 NA
ATOM     41  C   UNL A   1      44.006  26.144  27.147  1.00  0.00     0.031 C 
ATOM     42  C   UNL A   1      39.537  27.332  29.138  1.00  0.00     0.029 A 
ATOM     43  N   UNL A   1      41.137  28.892  29.178  1.00  0.00    -0.354 N 
ATOM     44  C   UNL A   1      45.057  28.131  27.590  1.00  0.00     0.074 A 
ATOM     45  C   UNL A   1      45.177  26.766  27.124  1.00  0.00     0.031 C 
ATOM     46  C   UNL A   1      39.036  28.405  29.770  1.00  0.00     0.029 A 
ATOM     47  C   UNL A   1      40.056  29.447  29.823  1.00  0.00     0.049 A 
ATOM     48  H   UNL A   1      41.993  29.364  29.058  1.00  0.00     0.167 HD
ATOM     49  C   UNL A   1      46.069  29.034  27.577  1.00  0.00     0.034 A 
ATOM     50  C   UNL A   1      39.896  30.659  30.391  1.00  0.00     0.034 A 
ATOM     51  C   UNL A   1      45.945  30.399  28.019  1.00  0.00     0.049 A 
ATOM     52  C   UNL A   1      41.019  31.657  30.320  1.00  0.00     0.074 A 
ATOM     53  C   UNL A   1      46.889  31.409  27.969  1.00  0.00     0.029 A 
ATOM     54  N   UNL A   1      44.813  30.944  28.606  1.00  0.00    -0.354 N 
ATOM     55  N   UNL A   1      42.205  31.531  29.775  1.00  0.00    -0.248 NA
ATOM     56  C   UNL A   1      40.764  32.983  30.900  1.00  0.00     0.031 C 
ATOM     57  C   UNL A   1      46.342  32.555  28.557  1.00  0.00     0.029 A 
ATOM     58  C   UNL A   1      45.040  32.272  28.933  1.00  0.00     0.049 A 
ATOM     59  H   UNL A   1      43.972  30.459  28.767  1.00  0.00     0.167 HD
ATOM     60  C   UNL A   1      42.823  32.768  29.916  1.00  0.00     0.074 A 
ATOM     61  C   UNL A   1      41.867  33.639  30.569  1.00  0.00     0.031 C 
ATOM     62  C   UNL A   1      44.073  33.145  29.548  1.00  0.00     0.034 A 
BRANCH  49  63
ATOM     63  C   UNL A   1      47.401  28.587  27.025  1.00  0.00     0.023 A 
ATOM     64  C   UNL A   1      48.506  28.454  27.890  1.00  0.00     0.012 A 
ATOM     65  C   UNL A   1      47.544  28.233  25.668  1.00  0.00     0.148 A 
ATOM     66  C   UNL A   1      49.740  28.016  27.410  1.00  0.00     0.002 A 
ATOM     67  C   UNL A   1      48.764  27.751  25.206  1.00  0.00     0.091 A 
ATOM     68  F   UNL A   1      46.489  28.379  24.854  1.00  0.00    -0.205 F 
ATOM     69  C   UNL A   1      49.865  27.654  26.072  1.00  0.00     0.022 A 
BRANCH  67  70
ATOM     70  S   UNL A   1      49.007  27.179  23.521  1.00  0.00     0.127 S 
ATOM     71  O   UNL A   1      50.443  26.900  23.508  1.00  0.00    -0.237 OA
ATOM     72  O   UNL A   1      48.155  25.991  23.474  1.00  0.00    -0.237 OA
ATOM     73  O   UNL A   1      48.577  28.270  22.658  1.00  0.00    -0.744 OA
ENDBRANCH  67  70
ENDBRANCH  49  63
BRANCH  50  74
ATOM     74  C   UNL A   1      38.594  31.023  31.018  1.00  0.00     0.023 A 
ATOM     75  C   UNL A   1      38.390  30.785  32.392  1.00  0.00     0.012 A 
ATOM     76  C   UNL A   1      37.563  31.617  30.264  1.00  0.00     0.148 A 
ATOM     77  C   UNL A   1      37.169  31.095  32.994  1.00  0.00     0.002 A 
ATOM     78  C   UNL A   1      36.374  31.980  30.883  1.00  0.00     0.091 A 
ATOM     79  F   UNL A   1      37.774  31.826  28.957  1.00  0.00    -0.205 F 
ATOM     80  C   UNL A   1      36.167  31.702  32.243  1.00  0.00     0.022 A 
BRANCH  78  81
ATOM     81  S   UNL A   1      35.081  32.886  30.027  1.00  0.00     0.127 S 
ATOM     82  O   UNL A   1      34.575  31.880  29.097  1.00  0.00    -0.237 OA
ATOM     83  O   UNL A   1      34.175  33.224  31.126  1.00  0.00    -0.237 OA
ATOM     84  O   UNL A   1      35.740  34.035  29.420  1.00  0.00    -0.744 OA
ENDBRANCH  78  81
ENDBRANCH  50  74
BRANCH  62  85
ATOM     85  C   UNL A   1      44.470  34.578  29.806  1.00  0.00     0.023 A 
ATOM     86  C   UNL A   1      45.018  34.949  31.051  1.00  0.00     0.012 A 
ATOM     87  C   UNL A   1      44.325  35.555  28.801  1.00  0.00     0.148 A 
ATOM     88  C   UNL A   1      45.364  36.275  31.310  1.00  0.00     0.002 A 
ATOM     89  C   UNL A   1      44.723  36.864  29.047  1.00  0.00     0.091 A 
ATOM     90  F   UNL A   1      43.785  35.193  27.628  1.00  0.00    -0.205 F 
ATOM     91  C   UNL A   1      45.225  37.230  30.306  1.00  0.00     0.022 A 
BRANCH  89  92
ATOM     92  S   UNL A   1      44.672  38.137  27.780  1.00  0.00     0.127 S 
ATOM     93  O   UNL A   1      43.242  38.214  27.492  1.00  0.00    -0.237 OA
ATOM     94  O   UNL A   1      45.216  39.299  28.484  1.00  0.00    -0.237 OA
ATOM     95  O   UNL A   1      45.507  37.649  26.690  1.00  0.00    -0.744 OA
ENDBRANCH  89  92
ENDBRANCH  62  85
ENDBRANCH  36  37
ENDBRANCH  28  31
ENDBRANCH  26  27
ENDBRANCH   1  26
TORSDOF 17
ENDMDL
