MODEL 1
REMARK VINA RESULT:     -12.5      0.000      0.000
REMARK SMILES COc1ccc(S(=O)(=O)N2C[C@H](C)C[C@H](C)C2)cc1C(=O)NCCCNC(=O)c1ccc(-c2c3nc(c(-c4cccc(S(=O)(=O)[O-])c4F)c4ccc([nH]4)c(-c4cccc(S(=O)(=O)[O-])c4F)c4nc(c(-c5cccc(S(=O)(=O)[O-])c5F)c5ccc2[nH]5)C=C4)C=C3)cc1
REMARK SMILES IDX 24 1 23 2 22 3 20 4 21 5 19 7 3 8 4 9 5 10 18 11 6 12 2 13
REMARK SMILES IDX 1 14 7 15 8 16 9 17 10 18 11 19 17 20 12 21 15 22 13 23
REMARK SMILES IDX 14 24 16 25 25 26 26 27 27 28 28 30 29 31 30 32 91 33 31 34
REMARK SMILES IDX 90 35 32 36 33 37 34 38 84 39 35 40 89 41 83 42 85 43 36 44
REMARK SMILES IDX 88 45 82 46 81 47 37 49 69 50 49 51 68 52 50 53 53 54 67 55
REMARK SMILES IDX 86 56 51 57 52 58 66 60 87 61 54 62 38 63 39 64 47 65 40 66
REMARK SMILES IDX 42 67 48 68 41 69 43 70 44 71 45 72 46 73 70 74 71 75 79 76
REMARK SMILES IDX 72 77 74 78 80 79 73 80 75 81 76 82 77 83 78 84 55 85 56 86
REMARK SMILES IDX 64 87 57 88 59 89 65 90 58 91 60 92 61 93 62 94 63 95
REMARK H PARENT 22 6 26 29 85 48 53 59
REMARK Flexibility Score: inf
ROOT
ATOM      1  C   UNL A   1      36.626  22.155  24.090  1.00  0.00     0.042 C 
ENDROOT
BRANCH   1   2
ATOM      2  C   UNL A   1      35.727  23.378  23.960  1.00  0.00     0.118 C 
BRANCH   2   3
ATOM      3  N   UNL A   1      34.990  23.397  22.713  1.00  0.00    -0.352 N 
ATOM      4  C   UNL A   1      33.655  23.321  22.465  1.00  0.00     0.255 C 
ATOM      5  O   UNL A   1      33.289  23.369  21.289  1.00  0.00    -0.269 OA
ATOM      6  H   UNL A   1      35.551  23.478  21.908  1.00  0.00     0.163 HD
BRANCH   4   7
ATOM      7  C   UNL A   1      32.630  23.169  23.523  1.00  0.00     0.083 A 
ATOM      8  C   UNL A   1      32.541  22.125  24.443  1.00  0.00     0.131 A 
ATOM      9  C   UNL A   1      31.574  22.177  25.456  1.00  0.00     0.048 A 
ATOM     10  C   UNL A   1      30.781  23.320  25.632  1.00  0.00     0.025 A 
ATOM     11  C   UNL A   1      31.790  24.281  23.683  1.00  0.00     0.039 A 
ATOM     12  C   UNL A   1      30.913  24.395  24.752  1.00  0.00     0.083 A 
BRANCH   8  13
ATOM     13  O   UNL A   1      33.323  21.006  24.402  1.00  0.00    -0.496 OA
ATOM     14  C   UNL A   1      32.601  19.867  23.931  1.00  0.00     0.278 C 
ENDBRANCH   8  13
BRANCH  12  15
ATOM     15  S   UNL A   1      30.041  25.918  25.088  1.00  0.00     0.243 S 
ATOM     16  O   UNL A   1      29.024  26.036  24.080  1.00  0.00    -0.207 OA
ATOM     17  O   UNL A   1      29.700  25.864  26.504  1.00  0.00    -0.207 OA
BRANCH  15  18
ATOM     18  N   UNL A   1      31.146  27.179  24.906  1.00  0.00    -0.197 NA
ATOM     19  C   UNL A   1      31.730  27.901  26.045  1.00  0.00     0.105 C 
ATOM     20  C   UNL A   1      31.658  27.590  23.589  1.00  0.00     0.105 C 
ATOM     21  C   UNL A   1      33.245  27.678  26.080  1.00  0.00     0.001 C 
ATOM     22  C   UNL A   1      33.161  27.324  23.504  1.00  0.00     0.001 C 
ATOM     23  C   UNL A   1      33.915  28.511  27.170  1.00  0.00     0.009 C 
ATOM     24  C   UNL A   1      33.915  27.922  24.711  1.00  0.00     0.009 C 
ATOM     25  C   UNL A   1      33.743  27.832  22.186  1.00  0.00     0.009 C 
ENDBRANCH  15  18
ENDBRANCH  12  15
ENDBRANCH   4   7
ENDBRANCH   2   3
ENDBRANCH   1   2
BRANCH   1  26
ATOM     26  C   UNL A   1      36.820  21.644  25.514  1.00  0.00     0.118 C 
BRANCH  26  27
ATOM     27  N   UNL A   1      37.942  20.724  25.668  1.00  0.00    -0.352 N 
ATOM     28  C   UNL A   1      39.233  20.936  26.093  1.00  0.00     0.251 C 
ATOM     29  H   UNL A   1      37.741  19.791  25.425  1.00  0.00     0.163 HD
ATOM     30  O   UNL A   1      40.054  20.025  26.018  1.00  0.00    -0.269 OA
BRANCH  28  31
ATOM     31  C   UNL A   1      39.645  22.263  26.600  1.00  0.00     0.039 A 
ATOM     32  C   UNL A   1      40.658  22.342  27.560  1.00  0.00     0.014 A 
ATOM     33  C   UNL A   1      39.055  23.429  26.118  1.00  0.00     0.014 A 
ATOM     34  C   UNL A   1      41.146  23.592  27.952  1.00  0.00     0.010 A 
ATOM     35  C   UNL A   1      39.623  24.662  26.414  1.00  0.00     0.010 A 
ATOM     36  C   UNL A   1      40.673  24.762  27.338  1.00  0.00    -0.014 A 
BRANCH  36  37
ATOM     37  C   UNL A   1      41.254  26.100  27.630  1.00  0.00     0.031 A 
ATOM     38  C   UNL A   1      42.666  26.420  27.205  1.00  0.00     0.074 A 
ATOM     39  C   UNL A   1      40.565  26.979  28.387  1.00  0.00     0.049 A 
ATOM     40  N   UNL A   1      43.397  27.466  27.489  1.00  0.00    -0.248 NA
ATOM     41  C   UNL A   1      43.365  25.406  26.396  1.00  0.00     0.031 C 
ATOM     42  C   UNL A   1      39.234  26.754  28.953  1.00  0.00     0.029 A 
ATOM     43  N   UNL A   1      40.906  28.231  28.837  1.00  0.00    -0.354 N 
ATOM     44  C   UNL A   1      44.654  27.206  26.956  1.00  0.00     0.074 A 
ATOM     45  C   UNL A   1      44.598  25.888  26.362  1.00  0.00     0.031 C 
ATOM     46  C   UNL A   1      38.863  27.835  29.658  1.00  0.00     0.029 A 
ATOM     47  C   UNL A   1      39.939  28.819  29.622  1.00  0.00     0.049 A 
ATOM     48  H   UNL A   1      41.760  28.668  28.618  1.00  0.00     0.167 HD
ATOM     49  C   UNL A   1      45.747  28.006  26.924  1.00  0.00     0.034 A 
ATOM     50  C   UNL A   1      39.921  30.016  30.240  1.00  0.00     0.034 A 
ATOM     51  C   UNL A   1      45.766  29.353  27.420  1.00  0.00     0.049 A 
ATOM     52  C   UNL A   1      41.103  30.934  30.085  1.00  0.00     0.074 A 
ATOM     53  C   UNL A   1      46.782  30.289  27.330  1.00  0.00     0.029 A 
ATOM     54  N   UNL A   1      44.714  29.965  28.082  1.00  0.00    -0.354 N 
ATOM     55  N   UNL A   1      42.226  30.729  29.440  1.00  0.00    -0.248 NA
ATOM     56  C   UNL A   1      41.002  32.262  30.709  1.00  0.00     0.031 C 
ATOM     57  C   UNL A   1      46.339  31.471  27.933  1.00  0.00     0.029 A 
ATOM     58  C   UNL A   1      45.048  31.271  28.396  1.00  0.00     0.049 A 
ATOM     59  H   UNL A   1      43.856  29.535  28.297  1.00  0.00     0.167 HD
ATOM     60  C   UNL A   1      42.950  31.911  29.550  1.00  0.00     0.074 A 
ATOM     61  C   UNL A   1      42.128  32.834  30.306  1.00  0.00     0.031 C 
ATOM     62  C   UNL A   1      44.191  32.198  29.088  1.00  0.00     0.034 A 
BRANCH  49  63
ATOM     63  C   UNL A   1      46.984  27.470  26.252  1.00  0.00     0.023 A 
ATOM     64  C   UNL A   1      47.184  27.715  24.877  1.00  0.00     0.012 A 
ATOM     65  C   UNL A   1      47.964  26.765  26.976  1.00  0.00     0.148 A 
ATOM     66  C   UNL A   1      48.317  27.234  24.225  1.00  0.00     0.002 A 
ATOM     67  C   UNL A   1      49.113  26.324  26.328  1.00  0.00     0.091 A 
ATOM     68  F   UNL A   1      47.749  26.519  28.277  1.00  0.00    -0.205 F 
ATOM     69  C   UNL A   1      49.286  26.547  24.952  1.00  0.00     0.022 A 
BRANCH  67  70
ATOM     70  S   UNL A   1      50.455  25.498  27.194  1.00  0.00     0.127 S 
ATOM     71  O   UNL A   1      50.806  26.490  28.209  1.00  0.00    -0.237 OA
ATOM     72  O   UNL A   1      49.797  24.299  27.715  1.00  0.00    -0.237 OA
ATOM     73  O   UNL A   1      51.475  25.238  26.187  1.00  0.00    -0.744 OA
ENDBRANCH  67  70
ENDBRANCH  49  63
BRANCH  50  74
ATOM     74  C   UNL A   1      38.701  30.455  30.974  1.00  0.00     0.023 A 
ATOM     75  C   UNL A   1      38.627  30.238  32.364  1.00  0.00     0.012 A 
ATOM     76  C   UNL A   1      37.640  31.115  30.326  1.00  0.00     0.148 A 
ATOM     77  C   UNL A   1      37.508  30.645  33.092  1.00  0.00     0.002 A 
ATOM     78  C   UNL A   1      36.549  31.563  31.065  1.00  0.00     0.091 A 
ATOM     79  F   UNL A   1      37.719  31.301  29.001  1.00  0.00    -0.205 F 
ATOM     80  C   UNL A   1      36.475  31.317  32.445  1.00  0.00     0.022 A 
BRANCH  78  81
ATOM     81  S   UNL A   1      35.239  32.552  30.334  1.00  0.00     0.127 S 
ATOM     82  O   UNL A   1      34.307  32.686  31.450  1.00  0.00    -0.237 OA
ATOM     83  O   UNL A   1      35.946  33.781  29.970  1.00  0.00    -0.237 OA
ATOM     84  O   UNL A   1      34.764  31.779  29.194  1.00  0.00    -0.744 OA
ENDBRANCH  78  81
ENDBRANCH  50  74
BRANCH  62  85
ATOM     85  C   UNL A   1      44.733  33.576  29.352  1.00  0.00     0.023 A 
ATOM     86  C   UNL A   1      45.414  33.834  30.557  1.00  0.00     0.012 A 
ATOM     87  C   UNL A   1      44.644  34.585  28.374  1.00  0.00     0.148 A 
ATOM     88  C   UNL A   1      45.980  35.086  30.795  1.00  0.00     0.002 A 
ATOM     89  C   UNL A   1      45.247  35.817  28.601  1.00  0.00     0.091 A 
ATOM     90  F   UNL A   1      43.971  34.326  27.243  1.00  0.00    -0.205 F 
ATOM     91  C   UNL A   1      45.907  36.072  29.813  1.00  0.00     0.022 A 
BRANCH  89  92
ATOM     92  S   UNL A   1      45.278  37.108  27.351  1.00  0.00     0.127 S 
ATOM     93  O   UNL A   1      46.038  36.467  26.280  1.00  0.00    -0.237 OA
ATOM     94  O   UNL A   1      43.857  37.299  27.060  1.00  0.00    -0.237 OA
ATOM     95  O   UNL A   1      45.920  38.253  27.983  1.00  0.00    -0.744 OA
ENDBRANCH  89  92
ENDBRANCH  62  85
ENDBRANCH  36  37
ENDBRANCH  28  31
ENDBRANCH  26  27
ENDBRANCH   1  26
TORSDOF 16
ENDMDL
MODEL 2
REMARK VINA RESULT:     -12.4      2.465      7.984
REMARK SMILES COc1ccc(S(=O)(=O)N2C[C@H](C)C[C@H](C)C2)cc1C(=O)NCCCNC(=O)c1ccc(-c2c3nc(c(-c4cccc(S(=O)(=O)[O-])c4F)c4ccc([nH]4)c(-c4cccc(S(=O)(=O)[O-])c4F)c4nc(c(-c5cccc(S(=O)(=O)[O-])c5F)c5ccc2[nH]5)C=C4)C=C3)cc1
REMARK SMILES IDX 24 1 23 2 22 3 20 4 21 5 19 7 3 8 4 9 5 10 18 11 6 12 2 13
REMARK SMILES IDX 1 14 7 15 8 16 9 17 10 18 11 19 17 20 12 21 15 22 13 23
REMARK SMILES IDX 14 24 16 25 25 26 26 27 27 28 28 30 29 31 30 32 91 33 31 34
REMARK SMILES IDX 90 35 32 36 33 37 34 38 84 39 35 40 89 41 83 42 85 43 36 44
REMARK SMILES IDX 88 45 82 46 81 47 37 49 69 50 49 51 68 52 50 53 53 54 67 55
REMARK SMILES IDX 86 56 51 57 52 58 66 60 87 61 54 62 38 63 39 64 47 65 40 66
REMARK SMILES IDX 42 67 48 68 41 69 43 70 44 71 45 72 46 73 70 74 71 75 79 76
REMARK SMILES IDX 72 77 74 78 80 79 73 80 75 81 76 82 77 83 78 84 55 85 56 86
REMARK SMILES IDX 64 87 57 88 59 89 65 90 58 91 60 92 61 93 62 94 63 95
REMARK H PARENT 22 6 26 29 85 48 53 59
REMARK Flexibility Score: inf
ROOT
ATOM      1  C   UNL A   1      37.826  20.109  24.975  1.00  0.00     0.042 C 
ENDROOT
BRANCH   1   2
ATOM      2  C   UNL A   1      36.731  21.167  25.013  1.00  0.00     0.118 C 
BRANCH   2   3
ATOM      3  N   UNL A   1      37.221  22.462  25.440  1.00  0.00    -0.352 N 
ATOM      4  C   UNL A   1      36.564  23.626  25.689  1.00  0.00     0.255 C 
ATOM      5  O   UNL A   1      37.235  24.594  26.054  1.00  0.00    -0.269 OA
ATOM      6  H   UNL A   1      38.196  22.507  25.572  1.00  0.00     0.163 HD
BRANCH   4   7
ATOM      7  C   UNL A   1      35.101  23.795  25.531  1.00  0.00     0.083 A 
ATOM      8  C   UNL A   1      34.126  23.488  26.479  1.00  0.00     0.131 A 
ATOM      9  C   UNL A   1      32.786  23.806  26.220  1.00  0.00     0.048 A 
ATOM     10  C   UNL A   1      32.431  24.541  25.080  1.00  0.00     0.025 A 
ATOM     11  C   UNL A   1      34.719  24.482  24.370  1.00  0.00     0.039 A 
ATOM     12  C   UNL A   1      33.414  24.908  24.160  1.00  0.00     0.083 A 
BRANCH   8  13
ATOM     13  O   UNL A   1      34.385  22.845  27.656  1.00  0.00    -0.496 OA
ATOM     14  C   UNL A   1      34.010  21.468  27.605  1.00  0.00     0.278 C 
ENDBRANCH   8  13
BRANCH  12  15
ATOM     15  S   UNL A   1      32.992  26.000  22.810  1.00  0.00     0.243 S 
ATOM     16  O   UNL A   1      34.077  25.924  21.871  1.00  0.00    -0.207 OA
ATOM     17  O   UNL A   1      31.634  25.635  22.429  1.00  0.00    -0.207 OA
BRANCH  15  18
ATOM     18  N   UNL A   1      32.914  27.564  23.437  1.00  0.00    -0.197 NA
ATOM     19  C   UNL A   1      31.910  28.548  23.006  1.00  0.00     0.105 C 
ATOM     20  C   UNL A   1      33.804  28.022  24.515  1.00  0.00     0.105 C 
ATOM     21  C   UNL A   1      31.007  28.917  24.187  1.00  0.00     0.001 C 
ATOM     22  C   UNL A   1      32.988  28.338  25.769  1.00  0.00     0.001 C 
ATOM     23  C   UNL A   1      30.028  30.032  23.824  1.00  0.00     0.009 C 
ATOM     24  C   UNL A   1      31.804  29.277  25.459  1.00  0.00     0.009 C 
ATOM     25  C   UNL A   1      33.870  28.912  26.877  1.00  0.00     0.009 C 
ENDBRANCH  15  18
ENDBRANCH  12  15
ENDBRANCH   4   7
ENDBRANCH   2   3
ENDBRANCH   1   2
BRANCH   1  26
ATOM     26  C   UNL A   1      39.103  20.472  25.726  1.00  0.00     0.118 C 
BRANCH  26  27
ATOM     27  N   UNL A   1      40.034  19.360  25.889  1.00  0.00    -0.352 N 
ATOM     28  C   UNL A   1      41.386  19.344  26.141  1.00  0.00     0.251 C 
ATOM     29  H   UNL A   1      39.624  18.469  25.804  1.00  0.00     0.163 HD
ATOM     30  O   UNL A   1      41.996  18.278  26.108  1.00  0.00    -0.269 OA
BRANCH  28  31
ATOM     31  C   UNL A   1      42.113  20.604  26.407  1.00  0.00     0.039 A 
ATOM     32  C   UNL A   1      42.490  21.414  25.332  1.00  0.00     0.014 A 
ATOM     33  C   UNL A   1      42.406  21.001  27.710  1.00  0.00     0.014 A 
ATOM     34  C   UNL A   1      43.063  22.666  25.574  1.00  0.00     0.010 A 
ATOM     35  C   UNL A   1      42.858  22.292  27.951  1.00  0.00     0.010 A 
ATOM     36  C   UNL A   1      43.198  23.142  26.889  1.00  0.00    -0.014 A 
BRANCH  36  37
ATOM     37  C   UNL A   1      43.680  24.517  27.188  1.00  0.00     0.031 A 
ATOM     38  C   UNL A   1      42.721  25.555  27.715  1.00  0.00     0.074 A 
ATOM     39  C   UNL A   1      44.941  24.869  26.865  1.00  0.00     0.049 A 
ATOM     40  N   UNL A   1      42.911  26.836  27.899  1.00  0.00    -0.248 NA
ATOM     41  C   UNL A   1      41.354  25.104  28.027  1.00  0.00     0.031 C 
ATOM     42  C   UNL A   1      45.940  23.992  26.251  1.00  0.00     0.029 A 
ATOM     43  N   UNL A   1      45.592  26.073  26.984  1.00  0.00    -0.354 N 
ATOM     44  C   UNL A   1      41.677  27.351  28.280  1.00  0.00     0.074 A 
ATOM     45  C   UNL A   1      40.737  26.252  28.266  1.00  0.00     0.031 C 
ATOM     46  C   UNL A   1      47.078  24.678  26.063  1.00  0.00     0.029 A 
ATOM     47  C   UNL A   1      46.885  26.052  26.513  1.00  0.00     0.049 A 
ATOM     48  H   UNL A   1      45.173  26.876  27.369  1.00  0.00     0.167 HD
ATOM     49  C   UNL A   1      41.359  28.615  28.649  1.00  0.00     0.034 A 
ATOM     50  C   UNL A   1      47.812  27.029  26.454  1.00  0.00     0.034 A 
ATOM     51  C   UNL A   1      42.317  29.679  28.764  1.00  0.00     0.049 A 
ATOM     52  C   UNL A   1      47.468  28.393  26.985  1.00  0.00     0.074 A 
ATOM     53  C   UNL A   1      42.124  30.962  29.244  1.00  0.00     0.029 A 
ATOM     54  N   UNL A   1      43.655  29.577  28.415  1.00  0.00    -0.354 N 
ATOM     55  N   UNL A   1      46.335  28.819  27.490  1.00  0.00    -0.248 NA
ATOM     56  C   UNL A   1      48.538  29.401  26.975  1.00  0.00     0.031 C 
ATOM     57  C   UNL A   1      43.350  31.636  29.189  1.00  0.00     0.029 A 
ATOM     58  C   UNL A   1      44.304  30.770  28.679  1.00  0.00     0.049 A 
ATOM     59  H   UNL A   1      44.079  28.775  28.035  1.00  0.00     0.167 HD
ATOM     60  C   UNL A   1      46.565  30.130  27.889  1.00  0.00     0.074 A 
ATOM     61  C   UNL A   1      47.951  30.422  27.587  1.00  0.00     0.031 C 
ATOM     62  C   UNL A   1      45.701  31.020  28.436  1.00  0.00     0.034 A 
BRANCH  49  63
ATOM     63  C   UNL A   1      39.931  28.889  29.041  1.00  0.00     0.023 A 
ATOM     64  C   UNL A   1      38.951  29.016  28.034  1.00  0.00     0.012 A 
ATOM     65  C   UNL A   1      39.547  28.980  30.393  1.00  0.00     0.148 A 
ATOM     66  C   UNL A   1      37.621  29.269  28.362  1.00  0.00     0.002 A 
ATOM     67  C   UNL A   1      38.210  29.191  30.714  1.00  0.00     0.091 A 
ATOM     68  F   UNL A   1      40.492  28.881  31.338  1.00  0.00    -0.205 F 
ATOM     69  C   UNL A   1      37.249  29.347  29.702  1.00  0.00     0.022 A 
BRANCH  67  70
ATOM     70  S   UNL A   1      37.618  29.230  32.411  1.00  0.00     0.127 S 
ATOM     71  O   UNL A   1      38.526  30.202  33.018  1.00  0.00    -0.237 OA
ATOM     72  O   UNL A   1      36.241  29.699  32.250  1.00  0.00    -0.237 OA
ATOM     73  O   UNL A   1      37.737  27.864  32.903  1.00  0.00    -0.744 OA
ENDBRANCH  67  70
ENDBRANCH  49  63
BRANCH  50  74
ATOM     74  C   UNL A   1      49.186  26.720  25.965  1.00  0.00     0.023 A 
ATOM     75  C   UNL A   1      50.031  25.926  26.766  1.00  0.00     0.012 A 
ATOM     76  C   UNL A   1      49.647  27.162  24.711  1.00  0.00     0.148 A 
ATOM     77  C   UNL A   1      51.320  25.602  26.340  1.00  0.00     0.002 A 
ATOM     78  C   UNL A   1      50.914  26.794  24.270  1.00  0.00     0.091 A 
ATOM     79  F   UNL A   1      48.835  27.928  23.968  1.00  0.00    -0.205 F 
ATOM     80  C   UNL A   1      51.757  26.026  25.089  1.00  0.00     0.022 A 
BRANCH  78  81
ATOM     81  S   UNL A   1      51.505  27.186  22.619  1.00  0.00     0.127 S 
ATOM     82  O   UNL A   1      51.734  28.625  22.716  1.00  0.00    -0.237 OA
ATOM     83  O   UNL A   1      52.718  26.373  22.524  1.00  0.00    -0.237 OA
ATOM     84  O   UNL A   1      50.437  26.768  21.719  1.00  0.00    -0.744 OA
ENDBRANCH  78  81
ENDBRANCH  50  74
BRANCH  62  85
ATOM     85  C   UNL A   1      46.229  32.386  28.777  1.00  0.00     0.023 A 
ATOM     86  C   UNL A   1      46.798  32.613  30.044  1.00  0.00     0.012 A 
ATOM     87  C   UNL A   1      46.241  33.415  27.815  1.00  0.00     0.148 A 
ATOM     88  C   UNL A   1      47.352  33.854  30.359  1.00  0.00     0.002 A 
ATOM     89  C   UNL A   1      46.832  34.636  28.122  1.00  0.00     0.091 A 
ATOM     90  F   UNL A   1      45.672  33.186  26.622  1.00  0.00    -0.205 F 
ATOM     91  C   UNL A   1      47.380  34.859  29.395  1.00  0.00     0.022 A 
BRANCH  89  92
ATOM     92  S   UNL A   1      46.991  35.950  26.907  1.00  0.00     0.127 S 
ATOM     93  O   UNL A   1      47.702  35.271  25.825  1.00  0.00    -0.237 OA
ATOM     94  O   UNL A   1      45.596  36.275  26.609  1.00  0.00    -0.237 OA
ATOM     95  O   UNL A   1      47.726  37.016  27.573  1.00  0.00    -0.744 OA
ENDBRANCH  89  92
ENDBRANCH  62  85
ENDBRANCH  36  37
ENDBRANCH  28  31
ENDBRANCH  26  27
ENDBRANCH   1  26
TORSDOF 16
ENDMDL
MODEL 3
REMARK VINA RESULT:     -12.3      1.629      2.279
REMARK SMILES COc1ccc(S(=O)(=O)N2C[C@H](C)C[C@H](C)C2)cc1C(=O)NCCCNC(=O)c1ccc(-c2c3nc(c(-c4cccc(S(=O)(=O)[O-])c4F)c4ccc([nH]4)c(-c4cccc(S(=O)(=O)[O-])c4F)c4nc(c(-c5cccc(S(=O)(=O)[O-])c5F)c5ccc2[nH]5)C=C4)C=C3)cc1
REMARK SMILES IDX 24 1 23 2 22 3 20 4 21 5 19 7 3 8 4 9 5 10 18 11 6 12 2 13
REMARK SMILES IDX 1 14 7 15 8 16 9 17 10 18 11 19 17 20 12 21 15 22 13 23
REMARK SMILES IDX 14 24 16 25 25 26 26 27 27 28 28 30 29 31 30 32 91 33 31 34
REMARK SMILES IDX 90 35 32 36 33 37 34 38 84 39 35 40 89 41 83 42 85 43 36 44
REMARK SMILES IDX 88 45 82 46 81 47 37 49 69 50 49 51 68 52 50 53 53 54 67 55
REMARK SMILES IDX 86 56 51 57 52 58 66 60 87 61 54 62 38 63 39 64 47 65 40 66
REMARK SMILES IDX 42 67 48 68 41 69 43 70 44 71 45 72 46 73 70 74 71 75 79 76
REMARK SMILES IDX 72 77 74 78 80 79 73 80 75 81 76 82 77 83 78 84 55 85 56 86
REMARK SMILES IDX 64 87 57 88 59 89 65 90 58 91 60 92 61 93 62 94 63 95
REMARK H PARENT 22 6 26 29 85 48 53 59
REMARK Flexibility Score: inf
ROOT
ATOM      1  C   UNL A   1      36.297  20.983  25.123  1.00  0.00     0.042 C 
ENDROOT
BRANCH   1   2
ATOM      2  C   UNL A   1      35.066  21.839  24.857  1.00  0.00     0.118 C 
BRANCH   2   3
ATOM      3  N   UNL A   1      33.999  21.099  24.216  1.00  0.00    -0.352 N 
ATOM      4  C   UNL A   1      32.735  21.468  23.876  1.00  0.00     0.255 C 
ATOM      5  O   UNL A   1      32.023  20.628  23.323  1.00  0.00    -0.269 OA
ATOM      6  H   UNL A   1      34.228  20.169  23.986  1.00  0.00     0.163 HD
BRANCH   4   7
ATOM      7  C   UNL A   1      32.169  22.809  24.150  1.00  0.00     0.083 A 
ATOM      8  C   UNL A   1      31.659  23.257  25.368  1.00  0.00     0.131 A 
ATOM      9  C   UNL A   1      31.256  24.594  25.499  1.00  0.00     0.048 A 
ATOM     10  C   UNL A   1      31.477  25.513  24.463  1.00  0.00     0.025 A 
ATOM     11  C   UNL A   1      32.331  23.732  23.107  1.00  0.00     0.039 A 
ATOM     12  C   UNL A   1      32.048  25.081  23.266  1.00  0.00     0.083 A 
BRANCH   8  13
ATOM     13  O   UNL A   1      31.481  22.456  26.460  1.00  0.00    -0.496 OA
ATOM     14  C   UNL A   1      32.497  22.659  27.442  1.00  0.00     0.278 C 
ENDBRANCH   8  13
BRANCH  12  15
ATOM     15  S   UNL A   1      32.499  26.284  22.023  1.00  0.00     0.243 S 
ATOM     16  O   UNL A   1      33.818  25.932  21.576  1.00  0.00    -0.207 OA
ATOM     17  O   UNL A   1      31.374  26.326  21.099  1.00  0.00    -0.207 OA
BRANCH  15  18
ATOM     18  N   UNL A   1      32.558  27.790  22.781  1.00  0.00    -0.197 NA
ATOM     19  C   UNL A   1      31.514  28.810  22.611  1.00  0.00     0.105 C 
ATOM     20  C   UNL A   1      33.626  28.152  23.726  1.00  0.00     0.105 C 
ATOM     21  C   UNL A   1      30.830  29.083  23.954  1.00  0.00     0.001 C 
ATOM     22  C   UNL A   1      33.040  28.363  25.123  1.00  0.00     0.001 C 
ATOM     23  C   UNL A   1      29.825  30.228  23.857  1.00  0.00     0.009 C 
ATOM     24  C   UNL A   1      31.838  29.331  25.097  1.00  0.00     0.009 C 
ATOM     25  C   UNL A   1      34.107  28.839  26.108  1.00  0.00     0.009 C 
ENDBRANCH  15  18
ENDBRANCH  12  15
ENDBRANCH   4   7
ENDBRANCH   2   3
ENDBRANCH   1   2
BRANCH   1  26
ATOM     26  C   UNL A   1      37.529  21.748  25.595  1.00  0.00     0.118 C 
BRANCH  26  27
ATOM     27  N   UNL A   1      38.681  20.901  25.884  1.00  0.00    -0.352 N 
ATOM     28  C   UNL A   1      39.916  21.205  26.407  1.00  0.00     0.251 C 
ATOM     29  H   UNL A   1      38.553  19.950  25.667  1.00  0.00     0.163 HD
ATOM     30  O   UNL A   1      40.789  20.341  26.442  1.00  0.00    -0.269 OA
BRANCH  28  31
ATOM     31  C   UNL A   1      40.211  22.573  26.886  1.00  0.00     0.039 A 
ATOM     32  C   UNL A   1      41.098  22.746  27.952  1.00  0.00     0.014 A 
ATOM     33  C   UNL A   1      39.635  23.685  26.278  1.00  0.00     0.014 A 
ATOM     34  C   UNL A   1      41.484  24.034  28.332  1.00  0.00     0.010 A 
ATOM     35  C   UNL A   1      40.112  24.956  26.571  1.00  0.00     0.010 A 
ATOM     36  C   UNL A   1      41.040  25.151  27.605  1.00  0.00    -0.014 A 
BRANCH  36  37
ATOM     37  C   UNL A   1      41.526  26.527  27.891  1.00  0.00     0.031 A 
ATOM     38  C   UNL A   1      42.940  26.917  27.536  1.00  0.00     0.074 A 
ATOM     39  C   UNL A   1      40.747  27.383  28.584  1.00  0.00     0.049 A 
ATOM     40  N   UNL A   1      43.593  28.011  27.831  1.00  0.00    -0.248 NA
ATOM     41  C   UNL A   1      43.740  25.926  26.796  1.00  0.00     0.031 C 
ATOM     42  C   UNL A   1      39.400  27.095  29.081  1.00  0.00     0.029 A 
ATOM     43  N   UNL A   1      40.990  28.664  29.016  1.00  0.00    -0.354 N 
ATOM     44  C   UNL A   1      44.891  27.812  27.376  1.00  0.00     0.074 A 
ATOM     45  C   UNL A   1      44.944  26.479  26.817  1.00  0.00     0.031 C 
ATOM     46  C   UNL A   1      38.929  28.170  29.733  1.00  0.00     0.029 A 
ATOM     47  C   UNL A   1      39.948  29.213  29.730  1.00  0.00     0.049 A 
ATOM     48  H   UNL A   1      41.829  29.143  28.833  1.00  0.00     0.167 HD
ATOM     49  C   UNL A   1      45.937  28.672  27.382  1.00  0.00     0.034 A 
ATOM     50  C   UNL A   1      39.827  30.423  30.312  1.00  0.00     0.034 A 
ATOM     51  C   UNL A   1      45.852  30.031  27.840  1.00  0.00     0.049 A 
ATOM     52  C   UNL A   1      40.962  31.403  30.197  1.00  0.00     0.074 A 
ATOM     53  C   UNL A   1      46.816  31.021  27.780  1.00  0.00     0.029 A 
ATOM     54  N   UNL A   1      44.730  30.597  28.425  1.00  0.00    -0.354 N 
ATOM     55  N   UNL A   1      42.130  31.248  29.621  1.00  0.00    -0.248 NA
ATOM     56  C   UNL A   1      40.750  32.738  30.776  1.00  0.00     0.031 C 
ATOM     57  C   UNL A   1      46.273  32.191  28.324  1.00  0.00     0.029 A 
ATOM     58  C   UNL A   1      44.971  31.927  28.720  1.00  0.00     0.049 A 
ATOM     59  H   UNL A   1      43.887  30.123  28.604  1.00  0.00     0.167 HD
ATOM     60  C   UNL A   1      42.778  32.472  29.738  1.00  0.00     0.074 A 
ATOM     61  C   UNL A   1      41.864  33.365  30.420  1.00  0.00     0.031 C 
ATOM     62  C   UNL A   1      44.025  32.820  29.337  1.00  0.00     0.034 A 
BRANCH  49  63
ATOM     63  C   UNL A   1      47.239  28.193  26.794  1.00  0.00     0.023 A 
ATOM     64  C   UNL A   1      48.310  27.877  27.657  1.00  0.00     0.012 A 
ATOM     65  C   UNL A   1      47.394  28.014  25.406  1.00  0.00     0.148 A 
ATOM     66  C   UNL A   1      49.527  27.430  27.146  1.00  0.00     0.002 A 
ATOM     67  C   UNL A   1      48.598  27.527  24.907  1.00  0.00     0.091 A 
ATOM     68  F   UNL A   1      46.375  28.341  24.598  1.00  0.00    -0.205 F 
ATOM     69  C   UNL A   1      49.668  27.247  25.772  1.00  0.00     0.022 A 
BRANCH  67  70
ATOM     70  S   UNL A   1      48.851  27.184  23.161  1.00  0.00     0.127 S 
ATOM     71  O   UNL A   1      50.306  27.059  23.093  1.00  0.00    -0.237 OA
ATOM     72  O   UNL A   1      48.123  25.927  22.982  1.00  0.00    -0.237 OA
ATOM     73  O   UNL A   1      48.282  28.319  22.447  1.00  0.00    -0.744 OA
ENDBRANCH  67  70
ENDBRANCH  49  63
BRANCH  50  74
ATOM     74  C   UNL A   1      38.544  30.807  30.964  1.00  0.00     0.023 A 
ATOM     75  C   UNL A   1      38.370  30.539  32.336  1.00  0.00     0.012 A 
ATOM     76  C   UNL A   1      37.519  31.468  30.260  1.00  0.00     0.148 A 
ATOM     77  C   UNL A   1      37.189  30.894  32.989  1.00  0.00     0.002 A 
ATOM     78  C   UNL A   1      36.365  31.865  30.927  1.00  0.00     0.091 A 
ATOM     79  F   UNL A   1      37.696  31.704  28.952  1.00  0.00    -0.205 F 
ATOM     80  C   UNL A   1      36.192  31.567  32.288  1.00  0.00     0.022 A 
BRANCH  78  81
ATOM     81  S   UNL A   1      35.091  32.852  30.133  1.00  0.00     0.127 S 
ATOM     82  O   UNL A   1      35.858  33.993  29.642  1.00  0.00    -0.237 OA
ATOM     83  O   UNL A   1      34.602  31.945  29.094  1.00  0.00    -0.237 OA
ATOM     84  O   UNL A   1      34.118  33.138  31.179  1.00  0.00    -0.744 OA
ENDBRANCH  78  81
ENDBRANCH  50  74
BRANCH  62  85
ATOM     85  C   UNL A   1      44.472  34.233  29.592  1.00  0.00     0.023 A 
ATOM     86  C   UNL A   1      45.076  34.558  30.821  1.00  0.00     0.012 A 
ATOM     87  C   UNL A   1      44.373  35.213  28.585  1.00  0.00     0.148 A 
ATOM     88  C   UNL A   1      45.556  35.847  31.054  1.00  0.00     0.002 A 
ATOM     89  C   UNL A   1      44.891  36.484  28.810  1.00  0.00     0.091 A 
ATOM     90  F   UNL A   1      43.772  34.889  27.430  1.00  0.00    -0.205 F 
ATOM     91  C   UNL A   1      45.475  36.804  30.046  1.00  0.00     0.022 A 
BRANCH  89  92
ATOM     92  S   UNL A   1      44.909  37.745  27.530  1.00  0.00     0.127 S 
ATOM     93  O   UNL A   1      43.510  37.761  27.107  1.00  0.00    -0.237 OA
ATOM     94  O   UNL A   1      45.335  38.935  28.268  1.00  0.00    -0.237 OA
ATOM     95  O   UNL A   1      45.865  37.283  26.534  1.00  0.00    -0.744 OA
ENDBRANCH  89  92
ENDBRANCH  62  85
ENDBRANCH  36  37
ENDBRANCH  28  31
ENDBRANCH  26  27
ENDBRANCH   1  26
TORSDOF 16
ENDMDL
