MODEL 1
REMARK VINA RESULT:     -12.7      0.000      0.000
REMARK SMILES CCc1ccc2c(CC(=O)NCCCNC(=O)c3ccc(-c4c5nc(c(-c6cccc(S(=O)(=O)[O-])c6F)c6ccc([nH]6)c(-c6cccc(S(=O)(=O)[O-])c6F)c6nc(c(-c7cccc(S(=O)(=O)[O-])c7F)c7ccc4[nH]7)C=C6)C=C5)cc3)c(C(=O)c3cc(C)ccn3)[nH]c2c1
REMARK SMILES IDX 13 1 12 2 11 3 9 4 10 5 8 7 7 8 3 9 4 10 93 11 5 12 92 13
REMARK SMILES IDX 6 14 91 15 81 16 2 18 1 19 82 20 83 21 84 22 85 23 90 24
REMARK SMILES IDX 86 25 89 26 87 27 88 28 14 29 15 30 16 31 17 33 18 34 19 35
REMARK SMILES IDX 80 36 20 37 79 38 21 39 22 40 23 41 73 42 24 43 78 44 72 45
REMARK SMILES IDX 74 46 25 47 77 48 71 49 70 50 26 52 58 53 38 54 57 55 39 56
REMARK SMILES IDX 42 57 56 58 75 59 40 60 41 61 55 63 76 64 43 65 27 66 28 67
REMARK SMILES IDX 36 68 29 69 31 70 37 71 30 72 32 73 33 74 34 75 35 76 59 77
REMARK SMILES IDX 60 78 68 79 61 80 63 81 69 82 62 83 64 84 65 85 66 86 67 87
REMARK SMILES IDX 44 88 45 89 53 90 46 91 48 92 54 93 47 94 49 95 50 96 51 97
REMARK SMILES IDX 52 98
REMARK H PARENT 11 6 91 17 15 32 74 51 42 62
REMARK Flexibility Score: inf
ROOT
ATOM      1  C   UNL A   1      32.976  28.075  26.955  1.00  0.00     0.042 C 
ENDROOT
BRANCH   1   2
ATOM      2  C   UNL A   1      31.683  27.649  26.268  1.00  0.00     0.117 C 
BRANCH   2   3
ATOM      3  N   UNL A   1      31.197  26.360  26.715  1.00  0.00    -0.356 N 
ATOM      4  C   UNL A   1      31.721  25.115  26.514  1.00  0.00     0.224 C 
ATOM      5  O   UNL A   1      31.245  24.196  27.189  1.00  0.00    -0.275 OA
ATOM      6  H   UNL A   1      30.365  26.385  27.241  1.00  0.00     0.163 HD
BRANCH   4   7
ATOM      7  C   UNL A   1      32.929  24.897  25.610  1.00  0.00     0.138 C 
BRANCH   7   8
ATOM      8  C   UNL A   1      32.691  23.988  24.434  1.00  0.00    -0.002 A 
ATOM      9  C   UNL A   1      32.462  19.787  23.910  1.00  0.00    -0.046 A 
ATOM     10  C   UNL A   1      32.633  20.239  25.226  1.00  0.00     0.004 A 
ATOM     11  C   UNL A   1      32.381  20.726  22.869  1.00  0.00     0.030 A 
ATOM     12  C   UNL A   1      32.718  21.604  25.528  1.00  0.00     0.011 A 
ATOM     13  C   UNL A   1      32.462  22.089  23.193  1.00  0.00     0.046 A 
ATOM     14  C   UNL A   1      32.629  22.553  24.491  1.00  0.00     0.004 A 
ATOM     15  N   UNL A   1      32.416  23.191  22.374  1.00  0.00    -0.352 N 
ATOM     16  C   UNL A   1      32.433  24.358  23.112  1.00  0.00     0.093 A 
ATOM     17  H   UNL A   1      32.374  23.155  21.391  1.00  0.00     0.167 HD
BRANCH   9  18
ATOM     18  C   UNL A   1      32.362  18.292  23.687  1.00  0.00     0.032 C 
ATOM     19  C   UNL A   1      32.382  17.401  24.922  1.00  0.00     0.009 C 
ENDBRANCH   9  18
BRANCH  16  20
ATOM     20  C   UNL A   1      32.228  25.695  22.568  1.00  0.00     0.227 C 
ATOM     21  O   UNL A   1      33.083  26.300  21.914  1.00  0.00    -0.285 OA
BRANCH  20  22
ATOM     22  C   UNL A   1      30.964  26.411  22.875  1.00  0.00     0.113 A 
ATOM     23  C   UNL A   1      30.798  27.723  22.438  1.00  0.00     0.036 A 
ATOM     24  N   UNL A   1      30.040  25.722  23.588  1.00  0.00    -0.253 NA
ATOM     25  C   UNL A   1      29.609  28.379  22.760  1.00  0.00    -0.047 A 
ATOM     26  C   UNL A   1      28.893  26.375  23.868  1.00  0.00     0.112 A 
ATOM     27  C   UNL A   1      29.369  29.800  22.348  1.00  0.00     0.044 C 
ATOM     28  C   UNL A   1      28.638  27.684  23.485  1.00  0.00     0.023 A 
ENDBRANCH  20  22
ENDBRANCH  16  20
ENDBRANCH   7   8
ENDBRANCH   4   7
ENDBRANCH   2   3
ENDBRANCH   1   2
BRANCH   1  29
ATOM     29  C   UNL A   1      33.828  29.050  26.146  1.00  0.00     0.118 C 
BRANCH  29  30
ATOM     30  N   UNL A   1      33.793  30.408  26.676  1.00  0.00    -0.352 N 
ATOM     31  C   UNL A   1      34.602  31.032  27.591  1.00  0.00     0.251 C 
ATOM     32  H   UNL A   1      33.069  30.970  26.318  1.00  0.00     0.163 HD
ATOM     33  O   UNL A   1      34.276  32.137  28.023  1.00  0.00    -0.269 OA
BRANCH  31  34
ATOM     34  C   UNL A   1      35.848  30.394  28.073  1.00  0.00     0.039 A 
ATOM     35  C   UNL A   1      36.987  30.449  27.262  1.00  0.00     0.014 A 
ATOM     36  C   UNL A   1      35.895  29.708  29.289  1.00  0.00     0.014 A 
ATOM     37  C   UNL A   1      38.184  29.876  27.699  1.00  0.00     0.010 A 
ATOM     38  C   UNL A   1      37.105  29.197  29.754  1.00  0.00     0.010 A 
ATOM     39  C   UNL A   1      38.262  29.274  28.966  1.00  0.00    -0.014 A 
BRANCH  39  40
ATOM     40  C   UNL A   1      39.552  28.754  29.494  1.00  0.00     0.031 A 
ATOM     41  C   UNL A   1      40.266  29.464  30.612  1.00  0.00     0.074 A 
ATOM     42  C   UNL A   1      40.129  27.693  28.895  1.00  0.00     0.049 A 
ATOM     43  N   UNL A   1      41.425  29.190  31.153  1.00  0.00    -0.248 NA
ATOM     44  C   UNL A   1      39.606  30.650  31.181  1.00  0.00     0.031 C 
ATOM     45  C   UNL A   1      39.580  26.970  27.746  1.00  0.00     0.029 A 
ATOM     46  N   UNL A   1      41.320  27.058  29.148  1.00  0.00    -0.354 N 
ATOM     47  C   UNL A   1      41.652  30.187  32.094  1.00  0.00     0.074 A 
ATOM     48  C   UNL A   1      40.521  31.088  32.035  1.00  0.00     0.031 C 
ATOM     49  C   UNL A   1      40.434  25.997  27.390  1.00  0.00     0.029 A 
ATOM     50  C   UNL A   1      41.602  26.043  28.263  1.00  0.00     0.049 A 
ATOM     51  H   UNL A   1      41.917  27.305  29.891  1.00  0.00     0.167 HD
ATOM     52  C   UNL A   1      42.694  30.327  32.949  1.00  0.00     0.034 A 
ATOM     53  C   UNL A   1      42.682  25.245  28.156  1.00  0.00     0.034 A 
ATOM     54  C   UNL A   1      43.795  29.403  33.040  1.00  0.00     0.049 A 
ATOM     55  C   UNL A   1      43.800  25.387  29.153  1.00  0.00     0.074 A 
ATOM     56  C   UNL A   1      44.843  29.402  33.943  1.00  0.00     0.029 A 
ATOM     57  N   UNL A   1      43.996  28.325  32.194  1.00  0.00    -0.354 N 
ATOM     58  N   UNL A   1      43.911  26.231  30.151  1.00  0.00    -0.248 NA
ATOM     59  C   UNL A   1      44.923  24.446  29.036  1.00  0.00     0.031 C 
ATOM     60  C   UNL A   1      45.690  28.335  33.628  1.00  0.00     0.029 A 
ATOM     61  C   UNL A   1      45.157  27.658  32.544  1.00  0.00     0.049 A 
ATOM     62  H   UNL A   1      43.399  28.070  31.452  1.00  0.00     0.167 HD
ATOM     63  C   UNL A   1      45.097  25.902  30.798  1.00  0.00     0.074 A 
ATOM     64  C   UNL A   1      45.655  24.766  30.094  1.00  0.00     0.031 C 
ATOM     65  C   UNL A   1      45.678  26.498  31.868  1.00  0.00     0.034 A 
BRANCH  52  66
ATOM     66  C   UNL A   1      42.675  31.497  33.899  1.00  0.00     0.023 A 
ATOM     67  C   UNL A   1      43.180  32.743  33.476  1.00  0.00     0.012 A 
ATOM     68  C   UNL A   1      42.091  31.384  35.176  1.00  0.00     0.148 A 
ATOM     69  C   UNL A   1      43.133  33.853  34.320  1.00  0.00     0.002 A 
ATOM     70  C   UNL A   1      42.007  32.506  35.995  1.00  0.00     0.091 A 
ATOM     71  F   UNL A   1      41.634  30.187  35.568  1.00  0.00    -0.205 F 
ATOM     72  C   UNL A   1      42.537  33.736  35.573  1.00  0.00     0.022 A 
BRANCH  70  73
ATOM     73  S   UNL A   1      41.188  32.480  37.593  1.00  0.00     0.127 S 
ATOM     74  O   UNL A   1      41.247  33.890  37.977  1.00  0.00    -0.237 OA
ATOM     75  O   UNL A   1      39.851  31.998  37.246  1.00  0.00    -0.237 OA
ATOM     76  O   UNL A   1      41.963  31.573  38.427  1.00  0.00    -0.744 OA
ENDBRANCH  70  73
ENDBRANCH  52  66
BRANCH  53  77
ATOM     77  C   UNL A   1      42.729  24.196  27.097  1.00  0.00     0.023 A 
ATOM     78  C   UNL A   1      43.468  24.433  25.922  1.00  0.00     0.012 A 
ATOM     79  C   UNL A   1      42.077  22.959  27.261  1.00  0.00     0.148 A 
ATOM     80  C   UNL A   1      43.531  23.468  24.916  1.00  0.00     0.002 A 
ATOM     81  C   UNL A   1      42.190  21.981  26.280  1.00  0.00     0.091 A 
ATOM     82  F   UNL A   1      41.367  22.757  28.380  1.00  0.00    -0.205 F 
ATOM     83  C   UNL A   1      42.901  22.240  25.099  1.00  0.00     0.022 A 
BRANCH  81  84
ATOM     84  S   UNL A   1      41.529  20.324  26.498  1.00  0.00     0.127 S 
ATOM     85  O   UNL A   1      42.080  19.626  25.340  1.00  0.00    -0.237 OA
ATOM     86  O   UNL A   1      42.105  19.932  27.786  1.00  0.00    -0.237 OA
ATOM     87  O   UNL A   1      40.080  20.478  26.517  1.00  0.00    -0.744 OA
ENDBRANCH  81  84
ENDBRANCH  53  77
BRANCH  65  88
ATOM     88  C   UNL A   1      46.977  25.922  32.369  1.00  0.00     0.023 A 
ATOM     89  C   UNL A   1      48.195  26.352  31.807  1.00  0.00     0.012 A 
ATOM     90  C   UNL A   1      46.994  25.011  33.445  1.00  0.00     0.148 A 
ATOM     91  C   UNL A   1      49.409  25.862  32.287  1.00  0.00     0.002 A 
ATOM     92  C   UNL A   1      48.209  24.564  33.950  1.00  0.00     0.091 A 
ATOM     93  F   UNL A   1      45.824  24.599  33.953  1.00  0.00    -0.205 F 
ATOM     94  C   UNL A   1      49.417  24.979  33.365  1.00  0.00     0.022 A 
BRANCH  92  95
ATOM     95  S   UNL A   1      48.319  23.502  35.394  1.00  0.00     0.127 S 
ATOM     96  O   UNL A   1      47.753  22.252  34.887  1.00  0.00    -0.237 OA
ATOM     97  O   UNL A   1      49.760  23.461  35.642  1.00  0.00    -0.237 OA
ATOM     98  O   UNL A   1      47.546  24.163  36.436  1.00  0.00    -0.744 OA
ENDBRANCH  92  95
ENDBRANCH  65  88
ENDBRANCH  39  40
ENDBRANCH  31  34
ENDBRANCH  29  30
ENDBRANCH   1  29
TORSDOF 17
ENDMDL
MODEL 2
REMARK VINA RESULT:     -12.5      1.536      1.877
REMARK SMILES CCc1ccc2c(CC(=O)NCCCNC(=O)c3ccc(-c4c5nc(c(-c6cccc(S(=O)(=O)[O-])c6F)c6ccc([nH]6)c(-c6cccc(S(=O)(=O)[O-])c6F)c6nc(c(-c7cccc(S(=O)(=O)[O-])c7F)c7ccc4[nH]7)C=C6)C=C5)cc3)c(C(=O)c3cc(C)ccn3)[nH]c2c1
REMARK SMILES IDX 13 1 12 2 11 3 9 4 10 5 8 7 7 8 3 9 4 10 93 11 5 12 92 13
REMARK SMILES IDX 6 14 91 15 81 16 2 18 1 19 82 20 83 21 84 22 85 23 90 24
REMARK SMILES IDX 86 25 89 26 87 27 88 28 14 29 15 30 16 31 17 33 18 34 19 35
REMARK SMILES IDX 80 36 20 37 79 38 21 39 22 40 23 41 73 42 24 43 78 44 72 45
REMARK SMILES IDX 74 46 25 47 77 48 71 49 70 50 26 52 58 53 38 54 57 55 39 56
REMARK SMILES IDX 42 57 56 58 75 59 40 60 41 61 55 63 76 64 43 65 27 66 28 67
REMARK SMILES IDX 36 68 29 69 31 70 37 71 30 72 32 73 33 74 34 75 35 76 59 77
REMARK SMILES IDX 60 78 68 79 61 80 63 81 69 82 62 83 64 84 65 85 66 86 67 87
REMARK SMILES IDX 44 88 45 89 53 90 46 91 48 92 54 93 47 94 49 95 50 96 51 97
REMARK SMILES IDX 52 98
REMARK H PARENT 11 6 91 17 15 32 74 51 42 62
REMARK Flexibility Score: inf
ROOT
ATOM      1  C   UNL A   1      32.432  28.600  26.874  1.00  0.00     0.042 C 
ENDROOT
BRANCH   1   2
ATOM      2  C   UNL A   1      31.425  27.813  26.042  1.00  0.00     0.117 C 
BRANCH   2   3
ATOM      3  N   UNL A   1      31.088  26.528  26.618  1.00  0.00    -0.356 N 
ATOM      4  C   UNL A   1      31.719  25.323  26.488  1.00  0.00     0.224 C 
ATOM      5  O   UNL A   1      31.368  24.426  27.261  1.00  0.00    -0.275 OA
ATOM      6  H   UNL A   1      30.285  26.521  27.187  1.00  0.00     0.163 HD
BRANCH   4   7
ATOM      7  C   UNL A   1      32.896  25.141  25.536  1.00  0.00     0.138 C 
BRANCH   7   8
ATOM      8  C   UNL A   1      32.605  24.315  24.312  1.00  0.00    -0.002 A 
ATOM      9  C   UNL A   1      32.373  20.160  23.502  1.00  0.00    -0.046 A 
ATOM     10  C   UNL A   1      32.606  20.518  24.837  1.00  0.00     0.004 A 
ATOM     11  C   UNL A   1      32.236  21.169  22.537  1.00  0.00     0.030 A 
ATOM     12  C   UNL A   1      32.699  21.860  25.231  1.00  0.00     0.011 A 
ATOM     13  C   UNL A   1      32.325  22.507  22.952  1.00  0.00     0.046 A 
ATOM     14  C   UNL A   1      32.553  22.879  24.270  1.00  0.00     0.004 A 
ATOM     15  N   UNL A   1      32.232  23.663  22.217  1.00  0.00    -0.352 N 
ATOM     16  C   UNL A   1      32.280  24.775  23.035  1.00  0.00     0.093 A 
ATOM     17  H   UNL A   1      32.141  23.696  21.237  1.00  0.00     0.167 HD
BRANCH   9  18
ATOM     18  C   UNL A   1      32.270  18.683  23.178  1.00  0.00     0.032 C 
ATOM     19  C   UNL A   1      32.944  17.712  24.139  1.00  0.00     0.009 C 
ENDBRANCH   9  18
BRANCH  16  20
ATOM     20  C   UNL A   1      32.040  26.146  22.597  1.00  0.00     0.227 C 
ATOM     21  O   UNL A   1      32.905  26.849  22.067  1.00  0.00    -0.285 OA
BRANCH  20  22
ATOM     22  C   UNL A   1      30.721  26.767  22.870  1.00  0.00     0.113 A 
ATOM     23  C   UNL A   1      30.478  28.071  22.444  1.00  0.00     0.036 A 
ATOM     24  N   UNL A   1      29.823  26.006  23.542  1.00  0.00    -0.253 NA
ATOM     25  C   UNL A   1      29.237  28.639  22.733  1.00  0.00    -0.047 A 
ATOM     26  C   UNL A   1      28.625  26.574  23.792  1.00  0.00     0.112 A 
ATOM     27  C   UNL A   1      28.912  30.046  22.331  1.00  0.00     0.044 C 
ATOM     28  C   UNL A   1      28.292  27.868  23.416  1.00  0.00     0.023 A 
ENDBRANCH  20  22
ENDBRANCH  16  20
ENDBRANCH   7   8
ENDBRANCH   4   7
ENDBRANCH   2   3
ENDBRANCH   1   2
BRANCH   1  29
ATOM     29  C   UNL A   1      33.261  29.604  26.078  1.00  0.00     0.118 C 
BRANCH  29  30
ATOM     30  N   UNL A   1      33.123  30.971  26.570  1.00  0.00    -0.352 N 
ATOM     31  C   UNL A   1      33.834  31.653  27.522  1.00  0.00     0.251 C 
ATOM     32  H   UNL A   1      32.399  31.488  26.148  1.00  0.00     0.163 HD
ATOM     33  O   UNL A   1      33.425  32.750  27.903  1.00  0.00    -0.269 OA
BRANCH  31  34
ATOM     34  C   UNL A   1      35.072  31.090  28.106  1.00  0.00     0.039 A 
ATOM     35  C   UNL A   1      36.249  31.844  28.040  1.00  0.00     0.014 A 
ATOM     36  C   UNL A   1      35.097  29.814  28.675  1.00  0.00     0.014 A 
ATOM     37  C   UNL A   1      37.429  31.348  28.601  1.00  0.00     0.010 A 
ATOM     38  C   UNL A   1      36.257  29.350  29.295  1.00  0.00     0.010 A 
ATOM     39  C   UNL A   1      37.434  30.111  29.265  1.00  0.00    -0.014 A 
BRANCH  39  40
ATOM     40  C   UNL A   1      38.652  29.616  29.961  1.00  0.00     0.031 A 
ATOM     41  C   UNL A   1      39.050  30.172  31.302  1.00  0.00     0.074 A 
ATOM     42  C   UNL A   1      39.454  28.731  29.336  1.00  0.00     0.049 A 
ATOM     43  N   UNL A   1      40.108  29.904  32.022  1.00  0.00    -0.248 NA
ATOM     44  C   UNL A   1      38.157  31.178  31.901  1.00  0.00     0.031 C 
ATOM     45  C   UNL A   1      39.225  28.180  27.999  1.00  0.00     0.029 A 
ATOM     46  N   UNL A   1      40.642  28.163  29.728  1.00  0.00    -0.354 N 
ATOM     47  C   UNL A   1      40.032  30.732  33.136  1.00  0.00     0.074 A 
ATOM     48  C   UNL A   1      38.834  31.531  32.985  1.00  0.00     0.031 C 
ATOM     49  C   UNL A   1      40.240  27.362  27.679  1.00  0.00     0.029 A 
ATOM     50  C   UNL A   1      41.205  27.349  28.773  1.00  0.00     0.049 A 
ATOM     51  H   UNL A   1      41.052  28.323  30.609  1.00  0.00     0.167 HD
ATOM     52  C   UNL A   1      40.867  30.805  34.199  1.00  0.00     0.034 A 
ATOM     53  C   UNL A   1      42.373  26.677  28.769  1.00  0.00     0.034 A 
ATOM     54  C   UNL A   1      42.031  29.976  34.371  1.00  0.00     0.049 A 
ATOM     55  C   UNL A   1      43.255  26.733  29.987  1.00  0.00     0.074 A 
ATOM     56  C   UNL A   1      42.880  29.902  35.461  1.00  0.00     0.029 A 
ATOM     57  N   UNL A   1      42.516  29.086  33.426  1.00  0.00    -0.354 N 
ATOM     58  N   UNL A   1      43.072  27.391  31.106  1.00  0.00    -0.248 NA
ATOM     59  C   UNL A   1      44.483  25.925  29.959  1.00  0.00     0.031 C 
ATOM     60  C   UNL A   1      43.892  28.983  35.166  1.00  0.00     0.029 A 
ATOM     61  C   UNL A   1      43.660  28.467  33.901  1.00  0.00     0.049 A 
ATOM     62  H   UNL A   1      42.107  28.919  32.546  1.00  0.00     0.167 HD
ATOM     63  C   UNL A   1      44.143  27.053  31.926  1.00  0.00     0.074 A 
ATOM     64  C   UNL A   1      44.956  26.112  31.184  1.00  0.00     0.031 C 
ATOM     65  C   UNL A   1      44.434  27.495  33.174  1.00  0.00     0.034 A 
BRANCH  52  66
ATOM     66  C   UNL A   1      40.528  31.781  35.297  1.00  0.00     0.023 A 
ATOM     67  C   UNL A   1      41.273  32.971  35.423  1.00  0.00     0.012 A 
ATOM     68  C   UNL A   1      39.430  31.558  36.152  1.00  0.00     0.148 A 
ATOM     69  C   UNL A   1      40.951  33.911  36.401  1.00  0.00     0.002 A 
ATOM     70  C   UNL A   1      39.088  32.521  37.096  1.00  0.00     0.091 A 
ATOM     71  F   UNL A   1      38.746  30.413  36.030  1.00  0.00    -0.205 F 
ATOM     72  C   UNL A   1      39.853  33.691  37.229  1.00  0.00     0.022 A 
BRANCH  70  73
ATOM     73  S   UNL A   1      37.645  32.370  38.155  1.00  0.00     0.127 S 
ATOM     74  O   UNL A   1      38.114  33.004  39.386  1.00  0.00    -0.237 OA
ATOM     75  O   UNL A   1      36.640  33.136  37.418  1.00  0.00    -0.237 OA
ATOM     76  O   UNL A   1      37.367  30.944  38.254  1.00  0.00    -0.744 OA
ENDBRANCH  70  73
ENDBRANCH  52  66
BRANCH  53  77
ATOM     77  C   UNL A   1      42.745  25.843  27.591  1.00  0.00     0.023 A 
ATOM     78  C   UNL A   1      43.632  26.362  26.628  1.00  0.00     0.012 A 
ATOM     79  C   UNL A   1      42.256  24.531  27.438  1.00  0.00     0.148 A 
ATOM     80  C   UNL A   1      43.998  25.601  25.517  1.00  0.00     0.002 A 
ATOM     81  C   UNL A   1      42.670  23.758  26.359  1.00  0.00     0.091 A 
ATOM     82  F   UNL A   1      41.403  24.059  28.358  1.00  0.00    -0.205 F 
ATOM     83  C   UNL A   1      43.526  24.298  25.387  1.00  0.00     0.022 A 
BRANCH  81  84
ATOM     84  S   UNL A   1      42.221  22.026  26.193  1.00  0.00     0.127 S 
ATOM     85  O   UNL A   1      43.030  21.615  25.049  1.00  0.00    -0.237 OA
ATOM     86  O   UNL A   1      42.649  21.475  27.480  1.00  0.00    -0.237 OA
ATOM     87  O   UNL A   1      40.778  22.011  25.989  1.00  0.00    -0.744 OA
ENDBRANCH  81  84
ENDBRANCH  53  77
BRANCH  65  88
ATOM     88  C   UNL A   1      45.672  26.950  33.838  1.00  0.00     0.023 A 
ATOM     89  C   UNL A   1      46.886  27.660  33.744  1.00  0.00     0.012 A 
ATOM     90  C   UNL A   1      45.616  25.776  34.615  1.00  0.00     0.148 A 
ATOM     91  C   UNL A   1      48.032  27.193  34.386  1.00  0.00     0.002 A 
ATOM     92  C   UNL A   1      46.750  25.343  35.293  1.00  0.00     0.091 A 
ATOM     93  F   UNL A   1      44.458  25.104  34.677  1.00  0.00    -0.205 F 
ATOM     94  C   UNL A   1      47.961  26.044  35.170  1.00  0.00     0.022 A 
BRANCH  92  95
ATOM     95  S   UNL A   1      46.728  23.928  36.399  1.00  0.00     0.127 S 
ATOM     96  O   UNL A   1      45.571  24.227  37.241  1.00  0.00    -0.237 OA
ATOM     97  O   UNL A   1      46.536  22.812  35.473  1.00  0.00    -0.237 OA
ATOM     98  O   UNL A   1      48.016  23.933  37.079  1.00  0.00    -0.744 OA
ENDBRANCH  92  95
ENDBRANCH  65  88
ENDBRANCH  39  40
ENDBRANCH  31  34
ENDBRANCH  29  30
ENDBRANCH   1  29
TORSDOF 17
ENDMDL
MODEL 3
REMARK VINA RESULT:     -12.4      2.098      7.839
REMARK SMILES CCc1ccc2c(CC(=O)NCCCNC(=O)c3ccc(-c4c5nc(c(-c6cccc(S(=O)(=O)[O-])c6F)c6ccc([nH]6)c(-c6cccc(S(=O)(=O)[O-])c6F)c6nc(c(-c7cccc(S(=O)(=O)[O-])c7F)c7ccc4[nH]7)C=C6)C=C5)cc3)c(C(=O)c3cc(C)ccn3)[nH]c2c1
REMARK SMILES IDX 13 1 12 2 11 3 9 4 10 5 8 7 7 8 3 9 4 10 93 11 5 12 92 13
REMARK SMILES IDX 6 14 91 15 81 16 2 18 1 19 82 20 83 21 84 22 85 23 90 24
REMARK SMILES IDX 86 25 89 26 87 27 88 28 14 29 15 30 16 31 17 33 18 34 19 35
REMARK SMILES IDX 80 36 20 37 79 38 21 39 22 40 23 41 73 42 24 43 78 44 72 45
REMARK SMILES IDX 74 46 25 47 77 48 71 49 70 50 26 52 58 53 38 54 57 55 39 56
REMARK SMILES IDX 42 57 56 58 75 59 40 60 41 61 55 63 76 64 43 65 27 66 28 67
REMARK SMILES IDX 36 68 29 69 31 70 37 71 30 72 32 73 33 74 34 75 35 76 59 77
REMARK SMILES IDX 60 78 68 79 61 80 63 81 69 82 62 83 64 84 65 85 66 86 67 87
REMARK SMILES IDX 44 88 45 89 53 90 46 91 48 92 54 93 47 94 49 95 50 96 51 97
REMARK SMILES IDX 52 98
REMARK H PARENT 11 6 91 17 15 32 74 51 42 62
REMARK Flexibility Score: inf
ROOT
ATOM      1  C   UNL A   1      33.259  27.773  25.648  1.00  0.00     0.042 C 
ENDROOT
BRANCH   1   2
ATOM      2  C   UNL A   1      33.699  26.554  24.845  1.00  0.00     0.117 C 
BRANCH   2   3
ATOM      3  N   UNL A   1      34.375  25.555  25.647  1.00  0.00    -0.356 N 
ATOM      4  C   UNL A   1      35.063  24.443  25.254  1.00  0.00     0.224 C 
ATOM      5  O   UNL A   1      35.741  23.875  26.116  1.00  0.00    -0.275 OA
ATOM      6  H   UNL A   1      34.331  25.699  26.619  1.00  0.00     0.163 HD
BRANCH   4   7
ATOM      7  C   UNL A   1      35.107  24.010  23.793  1.00  0.00     0.138 C 
BRANCH   7   8
ATOM      8  C   UNL A   1      33.975  23.119  23.356  1.00  0.00    -0.002 A 
ATOM      9  C   UNL A   1      32.794  19.145  24.245  1.00  0.00    -0.046 A 
ATOM     10  C   UNL A   1      33.907  19.632  24.946  1.00  0.00     0.004 A 
ATOM     11  C   UNL A   1      32.155  19.977  23.313  1.00  0.00     0.030 A 
ATOM     12  C   UNL A   1      34.390  20.932  24.743  1.00  0.00     0.011 A 
ATOM     13  C   UNL A   1      32.650  21.278  23.129  1.00  0.00     0.046 A 
ATOM     14  C   UNL A   1      33.748  21.776  23.817  1.00  0.00     0.004 A 
ATOM     15  N   UNL A   1      32.215  22.273  22.289  1.00  0.00    -0.352 N 
ATOM     16  C   UNL A   1      32.927  23.439  22.491  1.00  0.00     0.093 A 
ATOM     17  H   UNL A   1      31.491  22.170  21.630  1.00  0.00     0.167 HD
BRANCH   9  18
ATOM     18  C   UNL A   1      32.335  17.733  24.548  1.00  0.00     0.032 C 
ATOM     19  C   UNL A   1      33.279  16.599  24.169  1.00  0.00     0.009 C 
ENDBRANCH   9  18
BRANCH  16  20
ATOM     20  C   UNL A   1      32.610  24.728  21.887  1.00  0.00     0.227 C 
ATOM     21  O   UNL A   1      33.219  25.190  20.918  1.00  0.00    -0.285 OA
BRANCH  20  22
ATOM     22  C   UNL A   1      31.561  25.575  22.507  1.00  0.00     0.113 A 
ATOM     23  C   UNL A   1      31.435  26.905  22.114  1.00  0.00     0.036 A 
ATOM     24  N   UNL A   1      30.784  24.981  23.445  1.00  0.00    -0.253 NA
ATOM     25  C   UNL A   1      30.455  27.685  22.729  1.00  0.00    -0.047 A 
ATOM     26  C   UNL A   1      29.832  25.753  24.010  1.00  0.00     0.112 A 
ATOM     27  C   UNL A   1      30.278  29.131  22.379  1.00  0.00     0.044 C 
ATOM     28  C   UNL A   1      29.635  27.089  23.692  1.00  0.00     0.023 A 
ENDBRANCH  20  22
ENDBRANCH  16  20
ENDBRANCH   7   8
ENDBRANCH   4   7
ENDBRANCH   2   3
ENDBRANCH   1   2
BRANCH   1  29
ATOM     29  C   UNL A   1      33.652  29.112  25.028  1.00  0.00     0.118 C 
BRANCH  29  30
ATOM     30  N   UNL A   1      32.919  30.237  25.596  1.00  0.00    -0.352 N 
ATOM     31  C   UNL A   1      33.131  30.951  26.748  1.00  0.00     0.251 C 
ATOM     32  H   UNL A   1      32.144  30.533  25.066  1.00  0.00     0.163 HD
ATOM     33  O   UNL A   1      32.275  31.753  27.121  1.00  0.00    -0.269 OA
BRANCH  31  34
ATOM     34  C   UNL A   1      34.360  30.765  27.550  1.00  0.00     0.039 A 
ATOM     35  C   UNL A   1      34.512  29.581  28.282  1.00  0.00     0.014 A 
ATOM     36  C   UNL A   1      35.341  31.757  27.627  1.00  0.00     0.014 A 
ATOM     37  C   UNL A   1      35.670  29.367  29.032  1.00  0.00     0.010 A 
ATOM     38  C   UNL A   1      36.526  31.513  28.319  1.00  0.00     0.010 A 
ATOM     39  C   UNL A   1      36.704  30.316  29.029  1.00  0.00    -0.014 A 
BRANCH  39  40
ATOM     40  C   UNL A   1      37.989  30.060  29.733  1.00  0.00     0.031 A 
ATOM     41  C   UNL A   1      39.009  29.119  29.150  1.00  0.00     0.074 A 
ATOM     42  C   UNL A   1      38.193  30.601  30.951  1.00  0.00     0.049 A 
ATOM     43  N   UNL A   1      40.152  28.730  29.655  1.00  0.00    -0.248 NA
ATOM     44  C   UNL A   1      38.696  28.518  27.843  1.00  0.00     0.031 C 
ATOM     45  C   UNL A   1      37.244  31.461  31.663  1.00  0.00     0.029 A 
ATOM     46  N   UNL A   1      39.250  30.483  31.820  1.00  0.00    -0.354 N 
ATOM     47  C   UNL A   1      40.675  27.812  28.751  1.00  0.00     0.074 A 
ATOM     48  C   UNL A   1      39.713  27.683  27.677  1.00  0.00     0.031 C 
ATOM     49  C   UNL A   1      37.758  31.786  32.859  1.00  0.00     0.029 A 
ATOM     50  C   UNL A   1      39.056  31.139  33.014  1.00  0.00     0.049 A 
ATOM     51  H   UNL A   1      40.068  29.978  31.610  1.00  0.00     0.167 HD
ATOM     52  C   UNL A   1      41.858  27.155  28.797  1.00  0.00     0.034 A 
ATOM     53  C   UNL A   1      39.829  31.203  34.116  1.00  0.00     0.034 A 
ATOM     54  C   UNL A   1      42.835  27.321  29.841  1.00  0.00     0.049 A 
ATOM     55  C   UNL A   1      41.163  30.508  34.117  1.00  0.00     0.074 A 
ATOM     56  C   UNL A   1      44.106  26.780  29.923  1.00  0.00     0.029 A 
ATOM     57  N   UNL A   1      42.648  28.075  30.989  1.00  0.00    -0.354 N 
ATOM     58  N   UNL A   1      41.715  29.784  33.174  1.00  0.00    -0.248 NA
ATOM     59  C   UNL A   1      41.998  30.668  35.317  1.00  0.00     0.031 C 
ATOM     60  C   UNL A   1      44.679  27.189  31.131  1.00  0.00     0.029 A 
ATOM     61  C   UNL A   1      43.774  28.004  31.791  1.00  0.00     0.049 A 
ATOM     62  H   UNL A   1      41.833  28.586  31.202  1.00  0.00     0.167 HD
ATOM     63  C   UNL A   1      42.972  29.430  33.651  1.00  0.00     0.074 A 
ATOM     64  C   UNL A   1      43.109  30.040  34.958  1.00  0.00     0.031 C 
ATOM     65  C   UNL A   1      43.919  28.656  33.067  1.00  0.00     0.034 A 
BRANCH  52  66
ATOM     66  C   UNL A   1      42.195  26.228  27.657  1.00  0.00     0.023 A 
ATOM     67  C   UNL A   1      43.001  26.695  26.599  1.00  0.00     0.012 A 
ATOM     68  C   UNL A   1      41.781  24.881  27.670  1.00  0.00     0.148 A 
ATOM     69  C   UNL A   1      43.365  25.845  25.554  1.00  0.00     0.002 A 
ATOM     70  C   UNL A   1      42.184  24.029  26.647  1.00  0.00     0.091 A 
ATOM     71  F   UNL A   1      40.999  24.462  28.674  1.00  0.00    -0.205 F 
ATOM     72  C   UNL A   1      42.965  24.511  25.585  1.00  0.00     0.022 A 
BRANCH  70  73
ATOM     73  S   UNL A   1      41.791  22.276  26.636  1.00  0.00     0.127 S 
ATOM     74  O   UNL A   1      40.329  22.301  26.640  1.00  0.00    -0.237 OA
ATOM     75  O   UNL A   1      42.390  21.834  25.377  1.00  0.00    -0.237 OA
ATOM     76  O   UNL A   1      42.409  21.718  27.831  1.00  0.00    -0.744 OA
ENDBRANCH  70  73
ENDBRANCH  52  66
BRANCH  53  77
ATOM     77  C   UNL A   1      39.383  32.008  35.290  1.00  0.00     0.023 A 
ATOM     78  C   UNL A   1      38.527  31.425  36.244  1.00  0.00     0.012 A 
ATOM     79  C   UNL A   1      39.827  33.330  35.482  1.00  0.00     0.148 A 
ATOM     80  C   UNL A   1      38.096  32.154  37.352  1.00  0.00     0.002 A 
ATOM     81  C   UNL A   1      39.441  34.032  36.618  1.00  0.00     0.091 A 
ATOM     82  F   UNL A   1      40.631  33.873  34.557  1.00  0.00    -0.205 F 
ATOM     83  C   UNL A   1      38.560  33.453  37.545  1.00  0.00     0.022 A 
BRANCH  81  84
ATOM     84  S   UNL A   1      40.102  35.655  37.013  1.00  0.00     0.127 S 
ATOM     85  O   UNL A   1      39.653  36.449  35.873  1.00  0.00    -0.237 OA
ATOM     86  O   UNL A   1      39.432  35.959  38.279  1.00  0.00    -0.237 OA
ATOM     87  O   UNL A   1      41.543  35.475  37.132  1.00  0.00    -0.744 OA
ENDBRANCH  81  84
ENDBRANCH  53  77
BRANCH  65  88
ATOM     88  C   UNL A   1      45.207  28.439  33.819  1.00  0.00     0.023 A 
ATOM     89  C   UNL A   1      46.275  29.343  33.651  1.00  0.00     0.012 A 
ATOM     90  C   UNL A   1      45.333  27.384  34.744  1.00  0.00     0.148 A 
ATOM     91  C   UNL A   1      47.459  29.184  34.370  1.00  0.00     0.002 A 
ATOM     92  C   UNL A   1      46.497  27.259  35.493  1.00  0.00     0.091 A 
ATOM     93  F   UNL A   1      44.314  26.523  34.876  1.00  0.00    -0.205 F 
ATOM     94  C   UNL A   1      47.565  28.151  35.299  1.00  0.00     0.022 A 
BRANCH  92  95
ATOM     95  S   UNL A   1      46.687  26.019  36.778  1.00  0.00     0.127 S 
ATOM     96  O   UNL A   1      48.120  26.096  37.057  1.00  0.00    -0.237 OA
ATOM     97  O   UNL A   1      45.830  26.539  37.843  1.00  0.00    -0.237 OA
ATOM     98  O   UNL A   1      46.230  24.765  36.194  1.00  0.00    -0.744 OA
ENDBRANCH  92  95
ENDBRANCH  65  88
ENDBRANCH  39  40
ENDBRANCH  31  34
ENDBRANCH  29  30
ENDBRANCH   1  29
TORSDOF 17
ENDMDL
