MODEL 1
REMARK VINA RESULT:     -11.9      0.000      0.000
REMARK SMILES Cc1ccc(C)c(S(=O)(=O)[C@H](C)C(=O)NCCCNC(=O)c2ccc(-c3c4nc(c(-c5cccc(S(=O)(=O)[O-])c5F)c5ccc([nH]5)c(-c5cccc(S(=O)(=O)[O-])c5F)c5nc(c(-c6cccc(S(=O)(=O)[O-])c6F)c6ccc3[nH]6)C=C5)C=C4)cc2)c1
REMARK SMILES IDX 17 1 16 2 15 3 13 4 14 5 11 7 12 8 8 9 9 10 10 11 7 12 1 13
REMARK SMILES IDX 2 14 3 15 85 16 4 17 5 18 6 19 18 20 19 21 20 22 21 24 22 25
REMARK SMILES IDX 23 26 84 27 24 28 83 29 25 30 26 31 27 32 77 33 28 34 82 35
REMARK SMILES IDX 76 36 78 37 29 38 81 39 75 40 74 41 30 43 62 44 42 45 61 46
REMARK SMILES IDX 43 47 46 48 60 49 79 50 44 51 45 52 59 54 80 55 47 56 31 57
REMARK SMILES IDX 32 58 40 59 33 60 35 61 41 62 34 63 36 64 37 65 38 66 39 67
REMARK SMILES IDX 63 68 64 69 72 70 65 71 67 72 73 73 66 74 68 75 69 76 70 77
REMARK SMILES IDX 71 78 48 79 49 80 57 81 50 82 52 83 58 84 51 85 53 86 54 87
REMARK SMILES IDX 55 88 56 89
REMARK H PARENT 15 6 19 23 78 42 46 53
REMARK Flexibility Score: inf
ROOT
ATOM      1  C   UNL A   1      37.334  19.405  24.993  1.00  0.00     0.042 C 
ENDROOT
BRANCH   1   2
ATOM      2  C   UNL A   1      36.064  20.250  24.960  1.00  0.00     0.117 C 
BRANCH   2   3
ATOM      3  N   UNL A   1      35.778  21.075  26.133  1.00  0.00    -0.355 N 
ATOM      4  C   UNL A   1      34.667  21.835  26.382  1.00  0.00     0.238 C 
ATOM      5  O   UNL A   1      34.324  21.988  27.558  1.00  0.00    -0.274 OA
ATOM      6  H   UNL A   1      36.473  21.084  26.830  1.00  0.00     0.163 HD
BRANCH   4   7
ATOM      7  C   UNL A   1      33.901  22.523  25.284  1.00  0.00     0.199 C 
ATOM      8  C   UNL A   1      32.548  23.033  25.774  1.00  0.00     0.036 C 
BRANCH   7   9
ATOM      9  S   UNL A   1      34.905  23.751  24.491  1.00  0.00     0.190 S 
ATOM     10  O   UNL A   1      35.663  23.136  23.414  1.00  0.00    -0.223 OA
ATOM     11  O   UNL A   1      35.617  24.465  25.541  1.00  0.00    -0.223 OA
BRANCH   9  12
ATOM     12  C   UNL A   1      33.938  25.005  23.669  1.00  0.00     0.071 A 
ATOM     13  C   UNL A   1      33.088  28.709  23.956  1.00  0.00     0.044 C 
ATOM     14  C   UNL A   1      33.133  27.290  23.471  1.00  0.00    -0.050 A 
ATOM     15  C   UNL A   1      32.410  26.928  22.331  1.00  0.00     0.004 A 
ATOM     16  C   UNL A   1      33.892  26.321  24.144  1.00  0.00     0.024 A 
ATOM     17  C   UNL A   1      32.440  25.616  21.864  1.00  0.00     0.005 A 
ATOM     18  C   UNL A   1      33.207  24.637  22.513  1.00  0.00    -0.032 A 
ATOM     19  C   UNL A   1      33.139  23.241  21.945  1.00  0.00     0.046 C 
ENDBRANCH   9  12
ENDBRANCH   7   9
ENDBRANCH   4   7
ENDBRANCH   2   3
ENDBRANCH   1   2
BRANCH   1  20
ATOM     20  C   UNL A   1      38.630  20.125  25.343  1.00  0.00     0.118 C 
BRANCH  20  21
ATOM     21  N   UNL A   1      39.761  19.220  25.626  1.00  0.00    -0.352 N 
ATOM     22  C   UNL A   1      41.107  19.450  25.920  1.00  0.00     0.251 C 
ATOM     23  H   UNL A   1      39.518  18.266  25.604  1.00  0.00     0.163 HD
ATOM     24  O   UNL A   1      41.914  18.550  25.807  1.00  0.00    -0.269 OA
BRANCH  22  25
ATOM     25  C   UNL A   1      41.546  20.786  26.388  1.00  0.00     0.039 A 
ATOM     26  C   UNL A   1      42.456  21.623  25.738  1.00  0.00     0.014 A 
ATOM     27  C   UNL A   1      41.062  21.199  27.596  1.00  0.00     0.014 A 
ATOM     28  C   UNL A   1      42.825  22.822  26.371  1.00  0.00     0.010 A 
ATOM     29  C   UNL A   1      40.988  22.524  27.831  1.00  0.00     0.010 A 
ATOM     30  C   UNL A   1      42.091  23.241  27.480  1.00  0.00    -0.014 A 
BRANCH  30  31
ATOM     31  C   UNL A   1      42.286  24.446  28.257  1.00  0.00     0.031 A 
ATOM     32  C   UNL A   1      41.159  25.385  28.166  1.00  0.00     0.074 A 
ATOM     33  C   UNL A   1      43.192  24.556  29.255  1.00  0.00     0.049 A 
ATOM     34  N   UNL A   1      41.051  26.379  27.353  1.00  0.00    -0.248 NA
ATOM     35  C   UNL A   1      39.924  25.056  28.893  1.00  0.00     0.031 C 
ATOM     36  C   UNL A   1      44.077  23.530  29.826  1.00  0.00     0.029 A 
ATOM     37  N   UNL A   1      43.418  25.627  30.062  1.00  0.00    -0.354 N 
ATOM     38  C   UNL A   1      39.844  26.970  27.692  1.00  0.00     0.074 A 
ATOM     39  C   UNL A   1      39.086  25.954  28.371  1.00  0.00     0.031 C 
ATOM     40  C   UNL A   1      44.594  23.979  30.996  1.00  0.00     0.029 A 
ATOM     41  C   UNL A   1      44.205  25.365  31.177  1.00  0.00     0.049 A 
ATOM     42  H   UNL A   1      43.052  26.521  29.871  1.00  0.00     0.167 HD
ATOM     43  C   UNL A   1      39.706  28.323  27.699  1.00  0.00     0.034 A 
ATOM     44  C   UNL A   1      44.472  26.233  32.182  1.00  0.00     0.034 A 
ATOM     45  C   UNL A   1      40.875  28.963  27.132  1.00  0.00     0.049 A 
ATOM     46  C   UNL A   1      44.194  27.595  31.660  1.00  0.00     0.074 A 
ATOM     47  C   UNL A   1      41.565  28.872  25.938  1.00  0.00     0.029 A 
ATOM     48  N   UNL A   1      41.743  29.546  28.027  1.00  0.00    -0.354 N 
ATOM     49  N   UNL A   1      44.888  28.168  30.716  1.00  0.00    -0.248 NA
ATOM     50  C   UNL A   1      42.886  28.179  31.911  1.00  0.00     0.031 C 
ATOM     51  C   UNL A   1      42.942  28.991  26.294  1.00  0.00     0.029 A 
ATOM     52  C   UNL A   1      43.022  29.211  27.671  1.00  0.00     0.049 A 
ATOM     53  H   UNL A   1      41.488  30.110  28.793  1.00  0.00     0.167 HD
ATOM     54  C   UNL A   1      43.948  28.862  29.964  1.00  0.00     0.074 A 
ATOM     55  C   UNL A   1      42.772  28.949  30.824  1.00  0.00     0.031 C 
ATOM     56  C   UNL A   1      44.109  29.030  28.616  1.00  0.00     0.034 A 
BRANCH  43  57
ATOM     57  C   UNL A   1      38.730  29.107  28.548  1.00  0.00     0.023 A 
ATOM     58  C   UNL A   1      37.993  30.116  27.887  1.00  0.00     0.012 A 
ATOM     59  C   UNL A   1      38.652  29.088  29.959  1.00  0.00     0.148 A 
ATOM     60  C   UNL A   1      37.270  31.083  28.590  1.00  0.00     0.002 A 
ATOM     61  C   UNL A   1      37.858  29.995  30.651  1.00  0.00     0.091 A 
ATOM     62  F   UNL A   1      39.448  28.290  30.674  1.00  0.00    -0.205 F 
ATOM     63  C   UNL A   1      37.192  31.018  29.974  1.00  0.00     0.022 A 
BRANCH  61  64
ATOM     64  S   UNL A   1      37.674  29.904  32.437  1.00  0.00     0.127 S 
ATOM     65  O   UNL A   1      36.661  30.927  32.678  1.00  0.00    -0.237 OA
ATOM     66  O   UNL A   1      37.221  28.526  32.624  1.00  0.00    -0.237 OA
ATOM     67  O   UNL A   1      39.003  30.171  32.976  1.00  0.00    -0.744 OA
ENDBRANCH  61  64
ENDBRANCH  43  57
BRANCH  44  68
ATOM     68  C   UNL A   1      44.781  26.000  33.612  1.00  0.00     0.023 A 
ATOM     69  C   UNL A   1      46.123  26.035  34.043  1.00  0.00     0.012 A 
ATOM     70  C   UNL A   1      43.764  26.032  34.592  1.00  0.00     0.148 A 
ATOM     71  C   UNL A   1      46.443  26.148  35.401  1.00  0.00     0.002 A 
ATOM     72  C   UNL A   1      44.087  26.138  35.942  1.00  0.00     0.091 A 
ATOM     73  F   UNL A   1      42.486  26.054  34.193  1.00  0.00    -0.205 F 
ATOM     74  C   UNL A   1      45.426  26.212  36.349  1.00  0.00     0.022 A 
BRANCH  72  75
ATOM     75  S   UNL A   1      42.833  26.256  37.226  1.00  0.00     0.127 S 
ATOM     76  O   UNL A   1      42.131  27.486  36.857  1.00  0.00    -0.237 OA
ATOM     77  O   UNL A   1      42.068  25.030  37.015  1.00  0.00    -0.237 OA
ATOM     78  O   UNL A   1      43.559  26.339  38.488  1.00  0.00    -0.744 OA
ENDBRANCH  72  75
ENDBRANCH  44  68
BRANCH  56  79
ATOM     79  C   UNL A   1      45.468  28.739  28.021  1.00  0.00     0.023 A 
ATOM     80  C   UNL A   1      46.529  29.669  28.066  1.00  0.00     0.012 A 
ATOM     81  C   UNL A   1      45.732  27.439  27.555  1.00  0.00     0.148 A 
ATOM     82  C   UNL A   1      47.811  29.320  27.633  1.00  0.00     0.002 A 
ATOM     83  C   UNL A   1      47.020  27.079  27.172  1.00  0.00     0.091 A 
ATOM     84  F   UNL A   1      44.717  26.560  27.516  1.00  0.00    -0.205 F 
ATOM     85  C   UNL A   1      48.060  28.019  27.201  1.00  0.00     0.022 A 
BRANCH  83  86
ATOM     86  S   UNL A   1      47.429  25.388  26.733  1.00  0.00     0.127 S 
ATOM     87  O   UNL A   1      48.865  25.475  26.479  1.00  0.00    -0.237 OA
ATOM     88  O   UNL A   1      47.065  24.647  27.943  1.00  0.00    -0.237 OA
ATOM     89  O   UNL A   1      46.603  25.068  25.575  1.00  0.00    -0.744 OA
ENDBRANCH  83  86
ENDBRANCH  56  79
ENDBRANCH  30  31
ENDBRANCH  22  25
ENDBRANCH  20  21
ENDBRANCH   1  20
TORSDOF 15
ENDMDL
MODEL 2
REMARK VINA RESULT:     -11.6      2.093      2.619
REMARK SMILES Cc1ccc(C)c(S(=O)(=O)[C@H](C)C(=O)NCCCNC(=O)c2ccc(-c3c4nc(c(-c5cccc(S(=O)(=O)[O-])c5F)c5ccc([nH]5)c(-c5cccc(S(=O)(=O)[O-])c5F)c5nc(c(-c6cccc(S(=O)(=O)[O-])c6F)c6ccc3[nH]6)C=C5)C=C4)cc2)c1
REMARK SMILES IDX 17 1 16 2 15 3 13 4 14 5 11 7 12 8 8 9 9 10 10 11 7 12 1 13
REMARK SMILES IDX 2 14 3 15 85 16 4 17 5 18 6 19 18 20 19 21 20 22 21 24 22 25
REMARK SMILES IDX 23 26 84 27 24 28 83 29 25 30 26 31 27 32 77 33 28 34 82 35
REMARK SMILES IDX 76 36 78 37 29 38 81 39 75 40 74 41 30 43 62 44 42 45 61 46
REMARK SMILES IDX 43 47 46 48 60 49 79 50 44 51 45 52 59 54 80 55 47 56 31 57
REMARK SMILES IDX 32 58 40 59 33 60 35 61 41 62 34 63 36 64 37 65 38 66 39 67
REMARK SMILES IDX 63 68 64 69 72 70 65 71 67 72 73 73 66 74 68 75 69 76 70 77
REMARK SMILES IDX 71 78 48 79 49 80 57 81 50 82 52 83 58 84 51 85 53 86 54 87
REMARK SMILES IDX 55 88 56 89
REMARK H PARENT 15 6 19 23 78 42 46 53
REMARK Flexibility Score: inf
ROOT
ATOM      1  C   UNL A   1      34.990  20.190  25.012  1.00  0.00     0.042 C 
ENDROOT
BRANCH   1   2
ATOM      2  C   UNL A   1      33.885  21.228  25.181  1.00  0.00     0.117 C 
BRANCH   2   3
ATOM      3  N   UNL A   1      33.780  21.888  26.481  1.00  0.00    -0.355 N 
ATOM      4  C   UNL A   1      32.704  22.550  27.010  1.00  0.00     0.238 C 
ATOM      5  O   UNL A   1      32.566  22.541  28.236  1.00  0.00    -0.274 OA
ATOM      6  H   UNL A   1      34.584  21.851  27.048  1.00  0.00     0.163 HD
BRANCH   4   7
ATOM      7  C   UNL A   1      31.737  23.323  26.155  1.00  0.00     0.199 C 
ATOM      8  C   UNL A   1      30.288  23.049  26.553  1.00  0.00     0.036 C 
BRANCH   7   9
ATOM      9  S   UNL A   1      32.173  25.041  26.107  1.00  0.00     0.190 S 
ATOM     10  O   UNL A   1      33.619  25.176  26.160  1.00  0.00    -0.223 OA
ATOM     11  O   UNL A   1      31.360  25.717  27.109  1.00  0.00    -0.223 OA
BRANCH   9  12
ATOM     12  C   UNL A   1      31.728  25.823  24.566  1.00  0.00     0.071 A 
ATOM     13  C   UNL A   1      29.349  28.467  23.198  1.00  0.00     0.044 C 
ATOM     14  C   UNL A   1      30.406  27.405  23.278  1.00  0.00    -0.050 A 
ATOM     15  C   UNL A   1      31.083  27.016  22.119  1.00  0.00     0.004 A 
ATOM     16  C   UNL A   1      30.727  26.799  24.502  1.00  0.00     0.024 A 
ATOM     17  C   UNL A   1      32.068  26.033  22.175  1.00  0.00     0.005 A 
ATOM     18  C   UNL A   1      32.416  25.428  23.392  1.00  0.00    -0.032 A 
ATOM     19  C   UNL A   1      33.470  24.350  23.331  1.00  0.00     0.046 C 
ENDBRANCH   9  12
ENDBRANCH   7   9
ENDBRANCH   4   7
ENDBRANCH   2   3
ENDBRANCH   1   2
BRANCH   1  20
ATOM     20  C   UNL A   1      36.403  20.718  24.800  1.00  0.00     0.118 C 
BRANCH  20  21
ATOM     21  N   UNL A   1      37.462  19.742  25.122  1.00  0.00    -0.352 N 
ATOM     22  C   UNL A   1      38.794  19.886  25.517  1.00  0.00     0.251 C 
ATOM     23  H   UNL A   1      37.172  18.804  25.042  1.00  0.00     0.163 HD
ATOM     24  O   UNL A   1      39.559  18.948  25.421  1.00  0.00    -0.269 OA
BRANCH  22  25
ATOM     25  C   UNL A   1      39.268  21.177  26.069  1.00  0.00     0.039 A 
ATOM     26  C   UNL A   1      38.566  22.384  26.046  1.00  0.00     0.014 A 
ATOM     27  C   UNL A   1      40.532  21.192  26.586  1.00  0.00     0.014 A 
ATOM     28  C   UNL A   1      39.207  23.534  26.539  1.00  0.00     0.010 A 
ATOM     29  C   UNL A   1      40.823  22.115  27.524  1.00  0.00     0.010 A 
ATOM     30  C   UNL A   1      40.396  23.379  27.251  1.00  0.00    -0.014 A 
BRANCH  30  31
ATOM     31  C   UNL A   1      41.195  24.419  27.861  1.00  0.00     0.031 A 
ATOM     32  C   UNL A   1      40.456  25.670  28.077  1.00  0.00     0.074 A 
ATOM     33  C   UNL A   1      42.354  24.185  28.518  1.00  0.00     0.049 A 
ATOM     34  N   UNL A   1      40.419  26.688  27.287  1.00  0.00    -0.248 NA
ATOM     35  C   UNL A   1      39.474  25.714  29.170  1.00  0.00     0.031 C 
ATOM     36  C   UNL A   1      43.000  22.903  28.838  1.00  0.00     0.029 A 
ATOM     37  N   UNL A   1      43.149  25.086  29.155  1.00  0.00    -0.354 N 
ATOM     38  C   UNL A   1      39.632  27.612  27.954  1.00  0.00     0.074 A 
ATOM     39  C   UNL A   1      38.844  26.857  28.889  1.00  0.00     0.031 C 
ATOM     40  C   UNL A   1      43.972  23.105  29.761  1.00  0.00     0.029 A 
ATOM     41  C   UNL A   1      44.119  24.531  29.980  1.00  0.00     0.049 A 
ATOM     42  H   UNL A   1      43.044  26.058  29.040  1.00  0.00     0.167 HD
ATOM     43  C   UNL A   1      39.939  28.937  27.930  1.00  0.00     0.034 A 
ATOM     44  C   UNL A   1      44.949  25.218  30.803  1.00  0.00     0.034 A 
ATOM     45  C   UNL A   1      41.011  29.201  26.992  1.00  0.00     0.049 A 
ATOM     46  C   UNL A   1      44.968  26.623  30.321  1.00  0.00     0.074 A 
ATOM     47  C   UNL A   1      41.225  28.957  25.649  1.00  0.00     0.029 A 
ATOM     48  N   UNL A   1      42.253  29.433  27.538  1.00  0.00    -0.354 N 
ATOM     49  N   UNL A   1      45.474  26.993  29.178  1.00  0.00    -0.248 NA
ATOM     50  C   UNL A   1      44.060  27.578  30.937  1.00  0.00     0.031 C 
ATOM     51  C   UNL A   1      42.607  28.615  25.549  1.00  0.00     0.029 A 
ATOM     52  C   UNL A   1      43.180  28.727  26.818  1.00  0.00     0.049 A 
ATOM     53  H   UNL A   1      42.443  30.008  28.314  1.00  0.00     0.167 HD
ATOM     54  C   UNL A   1      44.617  27.986  28.721  1.00  0.00     0.074 A 
ATOM     55  C   UNL A   1      43.861  28.398  29.901  1.00  0.00     0.031 C 
ATOM     56  C   UNL A   1      44.392  28.163  27.384  1.00  0.00     0.034 A 
BRANCH  43  57
ATOM     57  C   UNL A   1      39.580  29.946  28.998  1.00  0.00     0.023 A 
ATOM     58  C   UNL A   1      40.370  29.927  30.171  1.00  0.00     0.012 A 
ATOM     59  C   UNL A   1      38.409  30.736  29.037  1.00  0.00     0.148 A 
ATOM     60  C   UNL A   1      39.985  30.604  31.331  1.00  0.00     0.002 A 
ATOM     61  C   UNL A   1      38.078  31.483  30.162  1.00  0.00     0.091 A 
ATOM     62  F   UNL A   1      37.515  30.677  28.048  1.00  0.00    -0.205 F 
ATOM     63  C   UNL A   1      38.843  31.393  31.325  1.00  0.00     0.022 A 
BRANCH  61  64
ATOM     64  S   UNL A   1      36.647  32.570  30.175  1.00  0.00     0.127 S 
ATOM     65  O   UNL A   1      35.564  31.624  30.429  1.00  0.00    -0.237 OA
ATOM     66  O   UNL A   1      36.960  33.469  31.286  1.00  0.00    -0.237 OA
ATOM     67  O   UNL A   1      36.644  33.220  28.869  1.00  0.00    -0.744 OA
ENDBRANCH  61  64
ENDBRANCH  43  57
BRANCH  44  68
ATOM     68  C   UNL A   1      45.600  24.827  32.074  1.00  0.00     0.023 A 
ATOM     69  C   UNL A   1      46.772  25.493  32.484  1.00  0.00     0.012 A 
ATOM     70  C   UNL A   1      44.929  24.016  33.016  1.00  0.00     0.148 A 
ATOM     71  C   UNL A   1      47.236  25.397  33.801  1.00  0.00     0.002 A 
ATOM     72  C   UNL A   1      45.397  23.919  34.325  1.00  0.00     0.091 A 
ATOM     73  F   UNL A   1      43.785  23.421  32.656  1.00  0.00    -0.205 F 
ATOM     74  C   UNL A   1      46.542  24.620  34.724  1.00  0.00     0.022 A 
BRANCH  72  75
ATOM     75  S   UNL A   1      44.542  22.960  35.584  1.00  0.00     0.127 S 
ATOM     76  O   UNL A   1      45.318  23.272  36.785  1.00  0.00    -0.237 OA
ATOM     77  O   UNL A   1      43.204  23.543  35.552  1.00  0.00    -0.237 OA
ATOM     78  O   UNL A   1      44.635  21.568  35.159  1.00  0.00    -0.744 OA
ENDBRANCH  72  75
ENDBRANCH  44  68
BRANCH  56  79
ATOM     79  C   UNL A   1      45.330  27.486  26.410  1.00  0.00     0.023 A 
ATOM     80  C   UNL A   1      46.554  28.065  26.011  1.00  0.00     0.012 A 
ATOM     81  C   UNL A   1      45.051  26.165  26.018  1.00  0.00     0.148 A 
ATOM     82  C   UNL A   1      47.462  27.356  25.221  1.00  0.00     0.002 A 
ATOM     83  C   UNL A   1      45.979  25.444  25.274  1.00  0.00     0.091 A 
ATOM     84  F   UNL A   1      43.885  25.622  26.401  1.00  0.00    -0.205 F 
ATOM     85  C   UNL A   1      47.182  26.039  24.865  1.00  0.00     0.022 A 
BRANCH  83  86
ATOM     86  S   UNL A   1      45.732  23.707  24.898  1.00  0.00     0.127 S 
ATOM     87  O   UNL A   1      46.767  23.459  23.897  1.00  0.00    -0.237 OA
ATOM     88  O   UNL A   1      45.967  23.065  26.193  1.00  0.00    -0.237 OA
ATOM     89  O   UNL A   1      44.357  23.594  24.425  1.00  0.00    -0.744 OA
ENDBRANCH  83  86
ENDBRANCH  56  79
ENDBRANCH  30  31
ENDBRANCH  22  25
ENDBRANCH  20  21
ENDBRANCH   1  20
TORSDOF 15
ENDMDL
MODEL 3
REMARK VINA RESULT:     -11.6      3.922      8.728
REMARK SMILES Cc1ccc(C)c(S(=O)(=O)[C@H](C)C(=O)NCCCNC(=O)c2ccc(-c3c4nc(c(-c5cccc(S(=O)(=O)[O-])c5F)c5ccc([nH]5)c(-c5cccc(S(=O)(=O)[O-])c5F)c5nc(c(-c6cccc(S(=O)(=O)[O-])c6F)c6ccc3[nH]6)C=C5)C=C4)cc2)c1
REMARK SMILES IDX 17 1 16 2 15 3 13 4 14 5 11 7 12 8 8 9 9 10 10 11 7 12 1 13
REMARK SMILES IDX 2 14 3 15 85 16 4 17 5 18 6 19 18 20 19 21 20 22 21 24 22 25
REMARK SMILES IDX 23 26 84 27 24 28 83 29 25 30 26 31 27 32 77 33 28 34 82 35
REMARK SMILES IDX 76 36 78 37 29 38 81 39 75 40 74 41 30 43 62 44 42 45 61 46
REMARK SMILES IDX 43 47 46 48 60 49 79 50 44 51 45 52 59 54 80 55 47 56 31 57
REMARK SMILES IDX 32 58 40 59 33 60 35 61 41 62 34 63 36 64 37 65 38 66 39 67
REMARK SMILES IDX 63 68 64 69 72 70 65 71 67 72 73 73 66 74 68 75 69 76 70 77
REMARK SMILES IDX 71 78 48 79 49 80 57 81 50 82 52 83 58 84 51 85 53 86 54 87
REMARK SMILES IDX 55 88 56 89
REMARK H PARENT 15 6 19 23 78 42 46 53
REMARK Flexibility Score: inf
ROOT
ATOM      1  C   UNL A   1      41.409  19.351  27.156  1.00  0.00     0.042 C 
ENDROOT
BRANCH   1   2
ATOM      2  C   UNL A   1      42.835  19.084  26.683  1.00  0.00     0.117 C 
BRANCH   2   3
ATOM      3  N   UNL A   1      43.076  19.100  25.241  1.00  0.00    -0.355 N 
ATOM      4  C   UNL A   1      44.175  19.569  24.572  1.00  0.00     0.238 C 
ATOM      5  O   UNL A   1      44.475  19.027  23.504  1.00  0.00    -0.274 OA
ATOM      6  H   UNL A   1      42.358  18.726  24.681  1.00  0.00     0.163 HD
BRANCH   4   7
ATOM      7  C   UNL A   1      44.976  20.743  25.066  1.00  0.00     0.199 C 
ATOM      8  C   UNL A   1      46.436  20.655  24.625  1.00  0.00     0.036 C 
BRANCH   7   9
ATOM      9  S   UNL A   1      44.176  22.270  24.652  1.00  0.00     0.190 S 
ATOM     10  O   UNL A   1      42.775  22.203  25.036  1.00  0.00    -0.223 OA
ATOM     11  O   UNL A   1      44.518  22.572  23.269  1.00  0.00    -0.223 OA
BRANCH   9  12
ATOM     12  C   UNL A   1      44.807  23.654  25.585  1.00  0.00     0.071 A 
ATOM     13  C   UNL A   1      47.830  24.640  27.685  1.00  0.00     0.044 C 
ATOM     14  C   UNL A   1      46.510  24.692  26.974  1.00  0.00    -0.050 A 
ATOM     15  C   UNL A   1      45.745  25.861  27.024  1.00  0.00     0.004 A 
ATOM     16  C   UNL A   1      46.032  23.585  26.258  1.00  0.00     0.024 A 
ATOM     17  C   UNL A   1      44.518  25.929  26.370  1.00  0.00     0.005 A 
ATOM     18  C   UNL A   1      44.031  24.838  25.634  1.00  0.00    -0.032 A 
ATOM     19  C   UNL A   1      42.674  25.007  24.996  1.00  0.00     0.046 C 
ENDBRANCH   9  12
ENDBRANCH   7   9
ENDBRANCH   4   7
ENDBRANCH   2   3
ENDBRANCH   1   2
BRANCH   1  20
ATOM     20  C   UNL A   1      41.031  20.804  27.413  1.00  0.00     0.118 C 
BRANCH  20  21
ATOM     21  N   UNL A   1      39.982  21.319  26.512  1.00  0.00    -0.352 N 
ATOM     22  C   UNL A   1      39.310  22.542  26.442  1.00  0.00     0.251 C 
ATOM     23  H   UNL A   1      39.700  20.673  25.825  1.00  0.00     0.163 HD
ATOM     24  O   UNL A   1      38.272  22.628  25.820  1.00  0.00    -0.269 OA
BRANCH  22  25
ATOM     25  C   UNL A   1      39.875  23.737  27.112  1.00  0.00     0.039 A 
ATOM     26  C   UNL A   1      41.108  23.803  27.767  1.00  0.00     0.014 A 
ATOM     27  C   UNL A   1      39.085  24.850  27.143  1.00  0.00     0.014 A 
ATOM     28  C   UNL A   1      41.447  24.998  28.425  1.00  0.00     0.010 A 
ATOM     29  C   UNL A   1      39.685  26.053  27.250  1.00  0.00     0.010 A 
ATOM     30  C   UNL A   1      40.670  26.131  28.187  1.00  0.00    -0.014 A 
BRANCH  30  31
ATOM     31  C   UNL A   1      40.859  27.456  28.737  1.00  0.00     0.031 A 
ATOM     32  C   UNL A   1      41.966  28.192  28.112  1.00  0.00     0.074 A 
ATOM     33  C   UNL A   1      39.918  28.111  29.454  1.00  0.00     0.049 A 
ATOM     34  N   UNL A   1      43.182  28.255  28.535  1.00  0.00    -0.248 NA
ATOM     35  C   UNL A   1      41.765  28.729  26.759  1.00  0.00     0.031 C 
ATOM     36  C   UNL A   1      38.534  27.715  29.755  1.00  0.00     0.029 A 
ATOM     37  N   UNL A   1      39.988  29.366  29.974  1.00  0.00    -0.354 N 
ATOM     38  C   UNL A   1      43.815  29.097  27.635  1.00  0.00     0.074 A 
ATOM     39  C   UNL A   1      43.015  29.070  26.441  1.00  0.00     0.031 C 
ATOM     40  C   UNL A   1      37.852  28.784  30.233  1.00  0.00     0.029 A 
ATOM     41  C   UNL A   1      38.778  29.886  30.416  1.00  0.00     0.049 A 
ATOM     42  H   UNL A   1      40.833  29.868  30.032  1.00  0.00     0.167 HD
ATOM     43  C   UNL A   1      44.737  30.005  28.056  1.00  0.00     0.034 A 
ATOM     44  C   UNL A   1      38.572  31.149  30.862  1.00  0.00     0.034 A 
ATOM     45  C   UNL A   1      45.060  29.801  29.453  1.00  0.00     0.049 A 
ATOM     46  C   UNL A   1      39.901  31.695  31.238  1.00  0.00     0.074 A 
ATOM     47  C   UNL A   1      45.513  28.739  30.213  1.00  0.00     0.029 A 
ATOM     48  N   UNL A   1      44.506  30.694  30.342  1.00  0.00    -0.354 N 
ATOM     49  N   UNL A   1      40.615  31.249  32.233  1.00  0.00    -0.248 NA
ATOM     50  C   UNL A   1      40.627  32.485  30.256  1.00  0.00     0.031 C 
ATOM     51  C   UNL A   1      44.814  28.844  31.453  1.00  0.00     0.029 A 
ATOM     52  C   UNL A   1      44.019  29.993  31.413  1.00  0.00     0.049 A 
ATOM     53  H   UNL A   1      44.466  31.671  30.228  1.00  0.00     0.167 HD
ATOM     54  C   UNL A   1      41.926  31.304  31.774  1.00  0.00     0.074 A 
ATOM     55  C   UNL A   1      41.881  32.200  30.622  1.00  0.00     0.031 C 
ATOM     56  C   UNL A   1      42.855  30.388  32.184  1.00  0.00     0.034 A 
BRANCH  43  57
ATOM     57  C   UNL A   1      45.068  31.311  27.368  1.00  0.00     0.023 A 
ATOM     58  C   UNL A   1      46.394  31.454  26.901  1.00  0.00     0.012 A 
ATOM     59  C   UNL A   1      44.262  32.472  27.353  1.00  0.00     0.148 A 
ATOM     60  C   UNL A   1      46.906  32.691  26.500  1.00  0.00     0.002 A 
ATOM     61  C   UNL A   1      44.746  33.680  26.865  1.00  0.00     0.091 A 
ATOM     62  F   UNL A   1      43.062  32.475  27.936  1.00  0.00    -0.205 F 
ATOM     63  C   UNL A   1      46.079  33.805  26.471  1.00  0.00     0.022 A 
BRANCH  61  64
ATOM     64  S   UNL A   1      43.690  35.130  26.746  1.00  0.00     0.127 S 
ATOM     65  O   UNL A   1      44.673  36.210  26.774  1.00  0.00    -0.237 OA
ATOM     66  O   UNL A   1      43.035  34.921  25.455  1.00  0.00    -0.237 OA
ATOM     67  O   UNL A   1      42.789  35.047  27.890  1.00  0.00    -0.744 OA
ENDBRANCH  61  64
ENDBRANCH  43  57
BRANCH  44  68
ATOM     68  C   UNL A   1      37.362  32.003  30.839  1.00  0.00     0.023 A 
ATOM     69  C   UNL A   1      36.444  31.872  29.777  1.00  0.00     0.012 A 
ATOM     70  C   UNL A   1      36.961  32.728  31.982  1.00  0.00     0.148 A 
ATOM     71  C   UNL A   1      35.151  32.402  29.870  1.00  0.00     0.002 A 
ATOM     72  C   UNL A   1      35.676  33.259  32.068  1.00  0.00     0.091 A 
ATOM     73  F   UNL A   1      37.804  32.813  33.020  1.00  0.00    -0.205 F 
ATOM     74  C   UNL A   1      34.764  33.084  31.019  1.00  0.00     0.022 A 
BRANCH  72  75
ATOM     75  S   UNL A   1      35.088  34.128  33.529  1.00  0.00     0.127 S 
ATOM     76  O   UNL A   1      33.689  34.387  33.189  1.00  0.00    -0.237 OA
ATOM     77  O   UNL A   1      35.288  33.129  34.575  1.00  0.00    -0.237 OA
ATOM     78  O   UNL A   1      35.908  35.328  33.637  1.00  0.00    -0.744 OA
ENDBRANCH  72  75
ENDBRANCH  44  68
BRANCH  56  79
ATOM     79  C   UNL A   1      42.523  29.526  33.380  1.00  0.00     0.023 A 
ATOM     80  C   UNL A   1      41.623  28.441  33.306  1.00  0.00     0.012 A 
ATOM     81  C   UNL A   1      43.259  29.709  34.565  1.00  0.00     0.148 A 
ATOM     82  C   UNL A   1      41.443  27.578  34.390  1.00  0.00     0.002 A 
ATOM     83  C   UNL A   1      43.115  28.820  35.624  1.00  0.00     0.091 A 
ATOM     84  F   UNL A   1      44.112  30.744  34.627  1.00  0.00    -0.205 F 
ATOM     85  C   UNL A   1      42.201  27.759  35.545  1.00  0.00     0.022 A 
BRANCH  83  86
ATOM     86  S   UNL A   1      44.156  28.923  37.082  1.00  0.00     0.127 S 
ATOM     87  O   UNL A   1      43.811  27.695  37.794  1.00  0.00    -0.237 OA
ATOM     88  O   UNL A   1      45.504  28.941  36.510  1.00  0.00    -0.237 OA
ATOM     89  O   UNL A   1      43.783  30.165  37.750  1.00  0.00    -0.744 OA
ENDBRANCH  83  86
ENDBRANCH  56  79
ENDBRANCH  30  31
ENDBRANCH  22  25
ENDBRANCH  20  21
ENDBRANCH   1  20
TORSDOF 15
ENDMDL
