MODEL 1
REMARK VINA RESULT:     -12.3      0.000      0.000
REMARK SMILES O=C(CC[N@H+]1CCC[C@@H](C(=O)NCCCNC(=O)c2ccc(-c3c4nc(c(-c5cccc(S(=O)(=O)[O-])c5F)c5ccc([nH]5)c(-c5cccc(S(=O)(=O)[O-])c5F)c5nc(c(-c6cccc(S(=O)(=O)[O-])c6F)c6ccc3[nH]6)C=C5)C=C4)cc2)C1)Nc1cccc(F)c1
REMARK SMILES IDX 13 1 12 2 10 3 11 4 9 6 5 7 6 8 82 9 7 11 8 12 4 13 3 14
REMARK SMILES IDX 2 15 1 16 83 17 84 19 85 20 90 21 86 22 88 23 87 24 89 25
REMARK SMILES IDX 14 26 15 27 16 28 17 29 18 31 19 32 20 33 81 34 21 35 80 36
REMARK SMILES IDX 22 37 23 38 24 39 74 40 25 41 79 42 73 43 75 44 26 45 78 46
REMARK SMILES IDX 72 47 71 48 27 50 59 51 39 52 58 53 40 54 43 55 57 56 76 57
REMARK SMILES IDX 41 58 42 59 56 61 77 62 44 63 28 64 29 65 37 66 30 67 32 68
REMARK SMILES IDX 38 69 31 70 33 71 34 72 35 73 36 74 60 75 61 76 69 77 62 78
REMARK SMILES IDX 64 79 70 80 63 81 65 82 66 83 67 84 68 85 45 86 46 87 54 88
REMARK SMILES IDX 47 89 49 90 55 91 48 92 50 93 51 94 52 95 53 96
REMARK H PARENT 12 5 5 10 83 18 16 30 75 49 43 60
REMARK Flexibility Score: inf
ROOT
ATOM      1  C   UNL A   1      31.819  29.000  24.807  1.00  0.00     0.117 C 
ENDROOT
BRANCH   1   2
ATOM      2  N   UNL A   1      31.397  27.881  25.628  1.00  0.00    -0.356 N 
ATOM      3  C   UNL A   1      31.927  26.637  25.771  1.00  0.00     0.228 C 
ATOM      4  O   UNL A   1      31.412  25.889  26.604  1.00  0.00    -0.275 OA
ATOM      5  H   UNL A   1      30.594  28.050  26.171  1.00  0.00     0.163 HD
BRANCH   3   6
ATOM      6  C   UNL A   1      33.145  26.210  24.961  1.00  0.00     0.133 C 
ATOM      7  N   UNL A   1      34.961  24.463  24.940  1.00  0.00    -0.334 N 
ATOM      8  C   UNL A   1      34.411  23.909  23.685  1.00  0.00     0.262 C 
ATOM      9  C   UNL A   1      33.860  25.082  25.725  1.00  0.00     0.275 C 
ATOM     10  H   UNL A   1      35.662  25.163  24.698  1.00  0.00     0.348 HD
ATOM     11  C   UNL A   1      33.809  25.024  22.834  1.00  0.00     0.062 C 
ATOM     12  C   UNL A   1      32.687  25.735  23.576  1.00  0.00     0.025 C 
BRANCH   7  13
ATOM     13  C   UNL A   1      35.621  23.415  25.758  1.00  0.00     0.272 C 
BRANCH  13  14
ATOM     14  C   UNL A   1      34.721  22.723  26.789  1.00  0.00     0.161 C 
BRANCH  14  15
ATOM     15  C   UNL A   1      33.913  21.536  26.290  1.00  0.00     0.230 C 
ATOM     16  O   UNL A   1      32.738  21.419  26.628  1.00  0.00    -0.275 OA
ATOM     17  N   UNL A   1      34.589  20.710  25.417  1.00  0.00    -0.326 N 
ATOM     18  H   UNL A   1      35.551  20.884  25.306  1.00  0.00     0.169 HD
BRANCH  17  19
ATOM     19  C   UNL A   1      34.055  19.645  24.664  1.00  0.00     0.044 A 
ATOM     20  C   UNL A   1      32.877  19.888  23.944  1.00  0.00     0.026 A 
ATOM     21  C   UNL A   1      34.625  18.372  24.622  1.00  0.00     0.065 A 
ATOM     22  C   UNL A   1      32.297  18.882  23.164  1.00  0.00     0.005 A 
ATOM     23  C   UNL A   1      34.029  17.372  23.858  1.00  0.00     0.125 A 
ATOM     24  C   UNL A   1      32.877  17.617  23.122  1.00  0.00     0.039 A 
ATOM     25  F   UNL A   1      34.572  16.147  23.841  1.00  0.00    -0.207 F 
ENDBRANCH  17  19
ENDBRANCH  14  15
ENDBRANCH  13  14
ENDBRANCH   7  13
ENDBRANCH   3   6
ENDBRANCH   1   2
BRANCH   1  26
ATOM     26  C   UNL A   1      31.345  30.351  25.338  1.00  0.00     0.042 C 
BRANCH  26  27
ATOM     27  C   UNL A   1      31.880  30.744  26.717  1.00  0.00     0.118 C 
BRANCH  27  28
ATOM     28  N   UNL A   1      32.004  32.180  26.911  1.00  0.00    -0.352 N 
ATOM     29  C   UNL A   1      32.974  32.934  27.527  1.00  0.00     0.251 C 
ATOM     30  H   UNL A   1      31.261  32.706  26.534  1.00  0.00     0.163 HD
ATOM     31  O   UNL A   1      32.789  34.145  27.635  1.00  0.00    -0.269 OA
BRANCH  29  32
ATOM     32  C   UNL A   1      34.212  32.332  28.087  1.00  0.00     0.039 A 
ATOM     33  C   UNL A   1      35.339  33.151  28.213  1.00  0.00     0.014 A 
ATOM     34  C   UNL A   1      34.306  30.984  28.440  1.00  0.00     0.014 A 
ATOM     35  C   UNL A   1      36.526  32.641  28.748  1.00  0.00     0.010 A 
ATOM     36  C   UNL A   1      35.467  30.493  29.046  1.00  0.00     0.010 A 
ATOM     37  C   UNL A   1      36.593  31.315  29.208  1.00  0.00    -0.014 A 
BRANCH  37  38
ATOM     38  C   UNL A   1      37.817  30.821  29.900  1.00  0.00     0.031 A 
ATOM     39  C   UNL A   1      38.160  31.246  31.304  1.00  0.00     0.074 A 
ATOM     40  C   UNL A   1      38.658  30.002  29.236  1.00  0.00     0.049 A 
ATOM     41  N   UNL A   1      39.147  30.847  32.066  1.00  0.00    -0.248 NA
ATOM     42  C   UNL A   1      37.300  32.265  31.924  1.00  0.00     0.031 C 
ATOM     43  C   UNL A   1      38.499  29.584  27.841  1.00  0.00     0.029 A 
ATOM     44  N   UNL A   1      39.814  29.379  29.638  1.00  0.00    -0.354 N 
ATOM     45  C   UNL A   1      39.043  31.579  33.244  1.00  0.00     0.074 A 
ATOM     46  C   UNL A   1      37.920  32.477  33.077  1.00  0.00     0.031 C 
ATOM     47  C   UNL A   1      39.498  28.749  27.515  1.00  0.00     0.029 A 
ATOM     48  C   UNL A   1      40.384  28.593  28.664  1.00  0.00     0.049 A 
ATOM     49  H   UNL A   1      40.198  29.486  30.538  1.00  0.00     0.167 HD
ATOM     50  C   UNL A   1      39.793  31.495  34.372  1.00  0.00     0.034 A 
ATOM     51  C   UNL A   1      41.488  27.821  28.691  1.00  0.00     0.034 A 
ATOM     52  C   UNL A   1      40.900  30.590  34.545  1.00  0.00     0.049 A 
ATOM     53  C   UNL A   1      42.277  27.709  29.965  1.00  0.00     0.074 A 
ATOM     54  C   UNL A   1      41.668  30.372  35.676  1.00  0.00     0.029 A 
ATOM     55  N   UNL A   1      41.413  29.764  33.555  1.00  0.00    -0.354 N 
ATOM     56  N   UNL A   1      42.059  28.281  31.123  1.00  0.00    -0.248 NA
ATOM     57  C   UNL A   1      43.440  26.811  29.945  1.00  0.00     0.031 C 
ATOM     58  C   UNL A   1      42.664  29.439  35.361  1.00  0.00     0.029 A 
ATOM     59  C   UNL A   1      42.493  29.046  34.043  1.00  0.00     0.049 A 
ATOM     60  H   UNL A   1      41.061  29.697  32.638  1.00  0.00     0.167 HD
ATOM     61  C   UNL A   1      43.036  27.786  31.982  1.00  0.00     0.074 A 
ATOM     62  C   UNL A   1      43.828  26.848  31.213  1.00  0.00     0.031 C 
ATOM     63  C   UNL A   1      43.261  28.091  33.284  1.00  0.00     0.034 A 
BRANCH  50  64
ATOM     64  C   UNL A   1      39.408  32.385  35.530  1.00  0.00     0.023 A 
ATOM     65  C   UNL A   1      38.588  31.875  36.558  1.00  0.00     0.012 A 
ATOM     66  C   UNL A   1      39.888  33.706  35.627  1.00  0.00     0.148 A 
ATOM     67  C   UNL A   1      38.211  32.677  37.635  1.00  0.00     0.002 A 
ATOM     68  C   UNL A   1      39.548  34.485  36.728  1.00  0.00     0.091 A 
ATOM     69  F   UNL A   1      40.652  34.185  34.634  1.00  0.00    -0.205 F 
ATOM     70  C   UNL A   1      38.697  33.979  37.724  1.00  0.00     0.022 A 
BRANCH  68  71
ATOM     71  S   UNL A   1      40.193  36.143  36.975  1.00  0.00     0.127 S 
ATOM     72  O   UNL A   1      39.399  36.601  38.117  1.00  0.00    -0.237 OA
ATOM     73  O   UNL A   1      41.602  35.885  37.279  1.00  0.00    -0.237 OA
ATOM     74  O   UNL A   1      39.963  36.853  35.727  1.00  0.00    -0.744 OA
ENDBRANCH  68  71
ENDBRANCH  50  64
BRANCH  51  75
ATOM     75  C   UNL A   1      41.857  27.021  27.488  1.00  0.00     0.023 A 
ATOM     76  C   UNL A   1      42.487  27.657  26.400  1.00  0.00     0.012 A 
ATOM     77  C   UNL A   1      41.631  25.632  27.436  1.00  0.00     0.148 A 
ATOM     78  C   UNL A   1      42.861  26.929  25.272  1.00  0.00     0.002 A 
ATOM     79  C   UNL A   1      42.060  24.903  26.334  1.00  0.00     0.091 A 
ATOM     80  F   UNL A   1      41.024  25.050  28.480  1.00  0.00    -0.205 F 
ATOM     81  C   UNL A   1      42.659  25.551  25.243  1.00  0.00     0.022 A 
BRANCH  79  82
ATOM     82  S   UNL A   1      41.967  23.111  26.268  1.00  0.00     0.127 S 
ATOM     83  O   UNL A   1      42.570  22.826  24.968  1.00  0.00    -0.237 OA
ATOM     84  O   UNL A   1      42.781  22.727  27.423  1.00  0.00    -0.237 OA
ATOM     85  O   UNL A   1      40.555  22.782  26.393  1.00  0.00    -0.744 OA
ENDBRANCH  79  82
ENDBRANCH  51  75
BRANCH  63  86
ATOM     86  C   UNL A   1      44.397  27.377  33.975  1.00  0.00     0.023 A 
ATOM     87  C   UNL A   1      45.719  27.849  33.833  1.00  0.00     0.012 A 
ATOM     88  C   UNL A   1      44.153  26.254  34.792  1.00  0.00     0.148 A 
ATOM     89  C   UNL A   1      46.782  27.185  34.447  1.00  0.00     0.002 A 
ATOM     90  C   UNL A   1      45.211  25.630  35.444  1.00  0.00     0.091 A 
ATOM     91  F   UNL A   1      42.895  25.805  34.903  1.00  0.00    -0.205 F 
ATOM     92  C   UNL A   1      46.526  26.083  35.259  1.00  0.00     0.022 A 
BRANCH  90  93
ATOM     93  S   UNL A   1      44.962  24.266  36.586  1.00  0.00     0.127 S 
ATOM     94  O   UNL A   1      44.447  23.224  35.698  1.00  0.00    -0.237 OA
ATOM     95  O   UNL A   1      46.316  24.026  37.086  1.00  0.00    -0.237 OA
ATOM     96  O   UNL A   1      44.027  24.754  37.592  1.00  0.00    -0.744 OA
ENDBRANCH  90  93
ENDBRANCH  63  86
ENDBRANCH  37  38
ENDBRANCH  29  32
ENDBRANCH  27  28
ENDBRANCH  26  27
ENDBRANCH   1  26
TORSDOF 17
ENDMDL
MODEL 2
REMARK VINA RESULT:     -11.8      4.277      8.057
REMARK SMILES O=C(CC[N@H+]1CCC[C@@H](C(=O)NCCCNC(=O)c2ccc(-c3c4nc(c(-c5cccc(S(=O)(=O)[O-])c5F)c5ccc([nH]5)c(-c5cccc(S(=O)(=O)[O-])c5F)c5nc(c(-c6cccc(S(=O)(=O)[O-])c6F)c6ccc3[nH]6)C=C5)C=C4)cc2)C1)Nc1cccc(F)c1
REMARK SMILES IDX 13 1 12 2 10 3 11 4 9 6 5 7 6 8 82 9 7 11 8 12 4 13 3 14
REMARK SMILES IDX 2 15 1 16 83 17 84 19 85 20 90 21 86 22 88 23 87 24 89 25
REMARK SMILES IDX 14 26 15 27 16 28 17 29 18 31 19 32 20 33 81 34 21 35 80 36
REMARK SMILES IDX 22 37 23 38 24 39 74 40 25 41 79 42 73 43 75 44 26 45 78 46
REMARK SMILES IDX 72 47 71 48 27 50 59 51 39 52 58 53 40 54 43 55 57 56 76 57
REMARK SMILES IDX 41 58 42 59 56 61 77 62 44 63 28 64 29 65 37 66 30 67 32 68
REMARK SMILES IDX 38 69 31 70 33 71 34 72 35 73 36 74 60 75 61 76 69 77 62 78
REMARK SMILES IDX 64 79 70 80 63 81 65 82 66 83 67 84 68 85 45 86 46 87 54 88
REMARK SMILES IDX 47 89 49 90 55 91 48 92 50 93 51 94 52 95 53 96
REMARK H PARENT 12 5 5 10 83 18 16 30 75 49 43 60
REMARK Flexibility Score: inf
ROOT
ATOM      1  C   UNL A   1      35.127  34.609  29.111  1.00  0.00     0.117 C 
ENDROOT
BRANCH   1   2
ATOM      2  N   UNL A   1      34.378  35.773  28.677  1.00  0.00    -0.356 N 
ATOM      3  C   UNL A   1      33.515  36.575  29.356  1.00  0.00     0.228 C 
ATOM      4  O   UNL A   1      33.064  37.558  28.764  1.00  0.00    -0.275 OA
ATOM      5  H   UNL A   1      34.517  36.022  27.735  1.00  0.00     0.163 HD
BRANCH   3   6
ATOM      6  C   UNL A   1      33.163  36.289  30.810  1.00  0.00     0.133 C 
ATOM      7  N   UNL A   1      33.731  34.699  32.680  1.00  0.00    -0.334 N 
ATOM      8  C   UNL A   1      34.327  35.814  33.445  1.00  0.00     0.262 C 
ATOM      9  C   UNL A   1      33.857  34.981  31.226  1.00  0.00     0.275 C 
ATOM     10  H   UNL A   1      32.749  34.622  32.944  1.00  0.00     0.348 HD
ATOM     11  C   UNL A   1      33.576  37.112  33.160  1.00  0.00     0.062 C 
ATOM     12  C   UNL A   1      33.629  37.463  31.681  1.00  0.00     0.025 C 
BRANCH   7  13
ATOM     13  C   UNL A   1      34.392  33.407  32.991  1.00  0.00     0.272 C 
BRANCH  13  14
ATOM     14  C   UNL A   1      35.451  33.460  34.098  1.00  0.00     0.161 C 
BRANCH  14  15
ATOM     15  C   UNL A   1      36.896  33.288  33.657  1.00  0.00     0.230 C 
ATOM     16  O   UNL A   1      37.476  32.228  33.887  1.00  0.00    -0.275 OA
ATOM     17  N   UNL A   1      37.412  34.356  32.956  1.00  0.00    -0.326 N 
ATOM     18  H   UNL A   1      36.857  35.167  32.923  1.00  0.00     0.169 HD
BRANCH  17  19
ATOM     19  C   UNL A   1      38.646  34.415  32.278  1.00  0.00     0.044 A 
ATOM     20  C   UNL A   1      39.814  34.398  33.055  1.00  0.00     0.026 A 
ATOM     21  C   UNL A   1      38.757  34.513  30.891  1.00  0.00     0.065 A 
ATOM     22  C   UNL A   1      41.074  34.441  32.449  1.00  0.00     0.005 A 
ATOM     23  C   UNL A   1      40.016  34.574  30.299  1.00  0.00     0.125 A 
ATOM     24  C   UNL A   1      41.175  34.530  31.064  1.00  0.00     0.039 A 
ATOM     25  F   UNL A   1      40.111  34.688  28.967  1.00  0.00    -0.207 F 
ENDBRANCH  17  19
ENDBRANCH  14  15
ENDBRANCH  13  14
ENDBRANCH   7  13
ENDBRANCH   3   6
ENDBRANCH   1   2
BRANCH   1  26
ATOM     26  C   UNL A   1      34.936  33.395  28.205  1.00  0.00     0.042 C 
BRANCH  26  27
ATOM     27  C   UNL A   1      33.978  32.323  28.728  1.00  0.00     0.118 C 
BRANCH  27  28
ATOM     28  N   UNL A   1      33.675  31.282  27.758  1.00  0.00    -0.352 N 
ATOM     29  C   UNL A   1      34.422  30.224  27.298  1.00  0.00     0.251 C 
ATOM     30  H   UNL A   1      32.777  31.347  27.361  1.00  0.00     0.163 HD
ATOM     31  O   UNL A   1      33.956  29.534  26.393  1.00  0.00    -0.269 OA
BRANCH  29  32
ATOM     32  C   UNL A   1      35.772  29.911  27.833  1.00  0.00     0.039 A 
ATOM     33  C   UNL A   1      35.857  29.395  29.131  1.00  0.00     0.014 A 
ATOM     34  C   UNL A   1      36.946  30.156  27.118  1.00  0.00     0.014 A 
ATOM     35  C   UNL A   1      37.102  29.068  29.680  1.00  0.00     0.010 A 
ATOM     36  C   UNL A   1      38.183  29.758  27.636  1.00  0.00     0.010 A 
ATOM     37  C   UNL A   1      38.278  29.208  28.924  1.00  0.00    -0.014 A 
BRANCH  37  38
ATOM     38  C   UNL A   1      39.581  28.731  29.466  1.00  0.00     0.031 A 
ATOM     39  C   UNL A   1      40.227  29.381  30.661  1.00  0.00     0.074 A 
ATOM     40  C   UNL A   1      40.215  27.716  28.846  1.00  0.00     0.049 A 
ATOM     41  N   UNL A   1      41.319  29.036  31.296  1.00  0.00    -0.248 NA
ATOM     42  C   UNL A   1      39.579  30.586  31.201  1.00  0.00     0.031 C 
ATOM     43  C   UNL A   1      39.751  27.055  27.624  1.00  0.00     0.029 A 
ATOM     44  N   UNL A   1      41.385  27.064  29.150  1.00  0.00    -0.354 N 
ATOM     45  C   UNL A   1      41.504  29.988  32.291  1.00  0.00     0.074 A 
ATOM     46  C   UNL A   1      40.431  30.950  32.150  1.00  0.00     0.031 C 
ATOM     47  C   UNL A   1      40.606  26.072  27.303  1.00  0.00     0.029 A 
ATOM     48  C   UNL A   1      41.694  26.049  28.276  1.00  0.00     0.049 A 
ATOM     49  H   UNL A   1      41.949  27.302  29.922  1.00  0.00     0.167 HD
ATOM     50  C   UNL A   1      42.458  30.046  33.254  1.00  0.00     0.034 A 
ATOM     51  C   UNL A   1      42.728  25.184  28.260  1.00  0.00     0.034 A 
ATOM     52  C   UNL A   1      43.516  29.079  33.407  1.00  0.00     0.049 A 
ATOM     53  C   UNL A   1      43.748  25.239  29.362  1.00  0.00     0.074 A 
ATOM     54  C   UNL A   1      44.480  29.004  34.398  1.00  0.00     0.029 A 
ATOM     55  N   UNL A   1      43.763  28.028  32.536  1.00  0.00    -0.354 N 
ATOM     56  N   UNL A   1      43.807  26.043  30.394  1.00  0.00    -0.248 NA
ATOM     57  C   UNL A   1      44.822  24.236  29.318  1.00  0.00     0.031 C 
ATOM     58  C   UNL A   1      45.329  27.929  34.108  1.00  0.00     0.029 A 
ATOM     59  C   UNL A   1      44.870  27.309  32.957  1.00  0.00     0.049 A 
ATOM     60  H   UNL A   1      43.229  27.823  31.734  1.00  0.00     0.167 HD
ATOM     61  C   UNL A   1      44.902  25.623  31.143  1.00  0.00     0.074 A 
ATOM     62  C   UNL A   1      45.459  24.476  30.456  1.00  0.00     0.031 C 
ATOM     63  C   UNL A   1      45.405  26.149  32.288  1.00  0.00     0.034 A 
BRANCH  50  64
ATOM     64  C   UNL A   1      42.374  31.178  34.250  1.00  0.00     0.023 A 
ATOM     65  C   UNL A   1      43.325  32.219  34.203  1.00  0.00     0.012 A 
ATOM     66  C   UNL A   1      41.338  31.237  35.203  1.00  0.00     0.148 A 
ATOM     67  C   UNL A   1      43.276  33.272  35.116  1.00  0.00     0.002 A 
ATOM     68  C   UNL A   1      41.267  32.316  36.078  1.00  0.00     0.091 A 
ATOM     69  F   UNL A   1      40.451  30.232  35.249  1.00  0.00    -0.205 F 
ATOM     70  C   UNL A   1      42.243  33.325  36.048  1.00  0.00     0.022 A 
BRANCH  68  71
ATOM     71  S   UNL A   1      39.926  32.516  37.258  1.00  0.00     0.127 S 
ATOM     72  O   UNL A   1      40.621  32.317  38.530  1.00  0.00    -0.237 OA
ATOM     73  O   UNL A   1      39.499  33.895  37.008  1.00  0.00    -0.237 OA
ATOM     74  O   UNL A   1      38.938  31.505  36.918  1.00  0.00    -0.744 OA
ENDBRANCH  68  71
ENDBRANCH  50  64
BRANCH  51  75
ATOM     75  C   UNL A   1      42.793  24.132  27.205  1.00  0.00     0.023 A 
ATOM     76  C   UNL A   1      43.644  24.315  26.098  1.00  0.00     0.012 A 
ATOM     77  C   UNL A   1      42.057  22.937  27.319  1.00  0.00     0.148 A 
ATOM     78  C   UNL A   1      43.739  23.338  25.107  1.00  0.00     0.002 A 
ATOM     79  C   UNL A   1      42.203  21.943  26.359  1.00  0.00     0.091 A 
ATOM     80  F   UNL A   1      41.250  22.788  28.378  1.00  0.00    -0.205 F 
ATOM     81  C   UNL A   1      43.029  22.148  25.243  1.00  0.00     0.022 A 
BRANCH  79  82
ATOM     82  S   UNL A   1      41.437  20.327  26.521  1.00  0.00     0.127 S 
ATOM     83  O   UNL A   1      40.032  20.632  26.259  1.00  0.00    -0.237 OA
ATOM     84  O   UNL A   1      42.111  19.570  25.465  1.00  0.00    -0.237 OA
ATOM     85  O   UNL A   1      41.743  19.877  27.871  1.00  0.00    -0.744 OA
ENDBRANCH  79  82
ENDBRANCH  51  75
BRANCH  63  86
ATOM     86  C   UNL A   1      46.608  25.467  32.892  1.00  0.00     0.023 A 
ATOM     87  C   UNL A   1      47.908  25.894  32.551  1.00  0.00     0.012 A 
ATOM     88  C   UNL A   1      46.451  24.419  33.822  1.00  0.00     0.148 A 
ATOM     89  C   UNL A   1      49.029  25.257  33.084  1.00  0.00     0.002 A 
ATOM     90  C   UNL A   1      47.572  23.825  34.390  1.00  0.00     0.091 A 
ATOM     91  F   UNL A   1      45.210  24.010  34.122  1.00  0.00    -0.205 F 
ATOM     92  C   UNL A   1      48.861  24.231  34.010  1.00  0.00     0.022 A 
BRANCH  90  93
ATOM     93  S   UNL A   1      47.447  22.563  35.663  1.00  0.00     0.127 S 
ATOM     94  O   UNL A   1      46.652  23.247  36.683  1.00  0.00    -0.237 OA
ATOM     95  O   UNL A   1      46.746  21.484  34.965  1.00  0.00    -0.237 OA
ATOM     96  O   UNL A   1      48.817  22.243  36.043  1.00  0.00    -0.744 OA
ENDBRANCH  90  93
ENDBRANCH  63  86
ENDBRANCH  37  38
ENDBRANCH  29  32
ENDBRANCH  27  28
ENDBRANCH  26  27
ENDBRANCH   1  26
TORSDOF 17
ENDMDL
MODEL 3
REMARK VINA RESULT:     -11.8      1.774      2.236
REMARK SMILES O=C(CC[N@H+]1CCC[C@@H](C(=O)NCCCNC(=O)c2ccc(-c3c4nc(c(-c5cccc(S(=O)(=O)[O-])c5F)c5ccc([nH]5)c(-c5cccc(S(=O)(=O)[O-])c5F)c5nc(c(-c6cccc(S(=O)(=O)[O-])c6F)c6ccc3[nH]6)C=C5)C=C4)cc2)C1)Nc1cccc(F)c1
REMARK SMILES IDX 13 1 12 2 10 3 11 4 9 6 5 7 6 8 82 9 7 11 8 12 4 13 3 14
REMARK SMILES IDX 2 15 1 16 83 17 84 19 85 20 90 21 86 22 88 23 87 24 89 25
REMARK SMILES IDX 14 26 15 27 16 28 17 29 18 31 19 32 20 33 81 34 21 35 80 36
REMARK SMILES IDX 22 37 23 38 24 39 74 40 25 41 79 42 73 43 75 44 26 45 78 46
REMARK SMILES IDX 72 47 71 48 27 50 59 51 39 52 58 53 40 54 43 55 57 56 76 57
REMARK SMILES IDX 41 58 42 59 56 61 77 62 44 63 28 64 29 65 37 66 30 67 32 68
REMARK SMILES IDX 38 69 31 70 33 71 34 72 35 73 36 74 60 75 61 76 69 77 62 78
REMARK SMILES IDX 64 79 70 80 63 81 65 82 66 83 67 84 68 85 45 86 46 87 54 88
REMARK SMILES IDX 47 89 49 90 55 91 48 92 50 93 51 94 52 95 53 96
REMARK H PARENT 12 5 5 10 83 18 16 30 75 49 43 60
REMARK Flexibility Score: inf
ROOT
ATOM      1  C   UNL A   1      33.313  28.915  25.519  1.00  0.00     0.117 C 
ENDROOT
BRANCH   1   2
ATOM      2  N   UNL A   1      33.980  28.922  24.230  1.00  0.00    -0.356 N 
ATOM      3  C   UNL A   1      33.727  28.214  23.097  1.00  0.00     0.228 C 
ATOM      4  O   UNL A   1      34.407  28.469  22.101  1.00  0.00    -0.275 OA
ATOM      5  H   UNL A   1      34.741  29.543  24.166  1.00  0.00     0.163 HD
BRANCH   3   6
ATOM      6  C   UNL A   1      32.608  27.180  23.056  1.00  0.00     0.133 C 
ATOM      7  N   UNL A   1      31.520  25.423  24.498  1.00  0.00    -0.334 N 
ATOM      8  C   UNL A   1      30.270  26.211  24.510  1.00  0.00     0.262 C 
ATOM      9  C   UNL A   1      32.677  26.345  24.347  1.00  0.00     0.275 C 
ATOM     10  H   UNL A   1      31.478  24.774  23.713  1.00  0.00     0.348 HD
ATOM     11  C   UNL A   1      30.098  26.953  23.187  1.00  0.00     0.062 C 
ATOM     12  C   UNL A   1      31.260  27.902  22.936  1.00  0.00     0.025 C 
BRANCH   7  13
ATOM     13  C   UNL A   1      31.680  24.631  25.742  1.00  0.00     0.272 C 
BRANCH  13  14
ATOM     14  C   UNL A   1      32.945  23.768  25.812  1.00  0.00     0.161 C 
BRANCH  14  15
ATOM     15  C   UNL A   1      33.049  22.640  24.798  1.00  0.00     0.230 C 
ATOM     16  O   UNL A   1      33.270  22.906  23.618  1.00  0.00    -0.275 OA
ATOM     17  N   UNL A   1      32.947  21.375  25.336  1.00  0.00    -0.326 N 
ATOM     18  H   UNL A   1      32.686  21.322  26.283  1.00  0.00     0.169 HD
BRANCH  17  19
ATOM     19  C   UNL A   1      33.176  20.148  24.681  1.00  0.00     0.044 A 
ATOM     20  C   UNL A   1      34.363  19.465  24.983  1.00  0.00     0.026 A 
ATOM     21  C   UNL A   1      32.301  19.603  23.741  1.00  0.00     0.065 A 
ATOM     22  C   UNL A   1      34.651  18.235  24.380  1.00  0.00     0.005 A 
ATOM     23  C   UNL A   1      32.606  18.389  23.133  1.00  0.00     0.125 A 
ATOM     24  C   UNL A   1      33.767  17.696  23.450  1.00  0.00     0.039 A 
ATOM     25  F   UNL A   1      31.768  17.884  22.217  1.00  0.00    -0.207 F 
ENDBRANCH  17  19
ENDBRANCH  14  15
ENDBRANCH  13  14
ENDBRANCH   7  13
ENDBRANCH   3   6
ENDBRANCH   1   2
BRANCH   1  26
ATOM     26  C   UNL A   1      32.316  30.057  25.689  1.00  0.00     0.042 C 
BRANCH  26  27
ATOM     27  C   UNL A   1      32.234  30.662  27.093  1.00  0.00     0.118 C 
BRANCH  27  28
ATOM     28  N   UNL A   1      32.487  32.094  27.131  1.00  0.00    -0.352 N 
ATOM     29  C   UNL A   1      33.553  32.816  27.611  1.00  0.00     0.251 C 
ATOM     30  H   UNL A   1      31.766  32.643  26.745  1.00  0.00     0.163 HD
ATOM     31  O   UNL A   1      33.474  34.043  27.605  1.00  0.00    -0.269 OA
BRANCH  29  32
ATOM     32  C   UNL A   1      34.771  32.165  28.159  1.00  0.00     0.039 A 
ATOM     33  C   UNL A   1      35.948  32.921  28.216  1.00  0.00     0.014 A 
ATOM     34  C   UNL A   1      34.799  30.829  28.567  1.00  0.00     0.014 A 
ATOM     35  C   UNL A   1      37.120  32.364  28.737  1.00  0.00     0.010 A 
ATOM     36  C   UNL A   1      35.949  30.297  29.158  1.00  0.00     0.010 A 
ATOM     37  C   UNL A   1      37.125  31.056  29.251  1.00  0.00    -0.014 A 
BRANCH  37  38
ATOM     38  C   UNL A   1      38.340  30.519  29.926  1.00  0.00     0.031 A 
ATOM     39  C   UNL A   1      38.714  30.929  31.327  1.00  0.00     0.074 A 
ATOM     40  C   UNL A   1      39.145  29.675  29.250  1.00  0.00     0.049 A 
ATOM     41  N   UNL A   1      39.696  30.495  32.076  1.00  0.00    -0.248 NA
ATOM     42  C   UNL A   1      37.897  31.975  31.961  1.00  0.00     0.031 C 
ATOM     43  C   UNL A   1      38.955  29.266  27.856  1.00  0.00     0.029 A 
ATOM     44  N   UNL A   1      40.284  29.013  29.636  1.00  0.00    -0.354 N 
ATOM     45  C   UNL A   1      39.632  31.226  33.257  1.00  0.00     0.074 A 
ATOM     46  C   UNL A   1      38.537  32.162  33.106  1.00  0.00     0.031 C 
ATOM     47  C   UNL A   1      39.921  28.400  27.516  1.00  0.00     0.029 A 
ATOM     48  C   UNL A   1      40.816  28.210  28.654  1.00  0.00     0.049 A 
ATOM     49  H   UNL A   1      40.682  29.104  30.532  1.00  0.00     0.167 HD
ATOM     50  C   UNL A   1      40.392  31.114  34.375  1.00  0.00     0.034 A 
ATOM     51  C   UNL A   1      41.893  27.402  28.664  1.00  0.00     0.034 A 
ATOM     52  C   UNL A   1      41.470  30.172  34.532  1.00  0.00     0.049 A 
ATOM     53  C   UNL A   1      42.694  27.260  29.929  1.00  0.00     0.074 A 
ATOM     54  C   UNL A   1      42.244  29.925  35.654  1.00  0.00     0.029 A 
ATOM     55  N   UNL A   1      41.943  29.332  33.534  1.00  0.00    -0.354 N 
ATOM     56  N   UNL A   1      42.509  27.835  31.091  1.00  0.00    -0.248 NA
ATOM     57  C   UNL A   1      43.825  26.324  29.893  1.00  0.00     0.031 C 
ATOM     58  C   UNL A   1      43.204  28.961  35.324  1.00  0.00     0.029 A 
ATOM     59  C   UNL A   1      43.005  28.577  34.007  1.00  0.00     0.049 A 
ATOM     60  H   UNL A   1      41.577  29.280  32.621  1.00  0.00     0.167 HD
ATOM     61  C   UNL A   1      43.479  27.305  31.936  1.00  0.00     0.074 A 
ATOM     62  C   UNL A   1      44.230  26.344  31.155  1.00  0.00     0.031 C 
ATOM     63  C   UNL A   1      43.730  27.599  33.237  1.00  0.00     0.034 A 
BRANCH  50  64
ATOM     64  C   UNL A   1      40.052  32.013  35.541  1.00  0.00     0.023 A 
ATOM     65  C   UNL A   1      40.773  33.210  35.732  1.00  0.00     0.012 A 
ATOM     66  C   UNL A   1      38.996  31.700  36.420  1.00  0.00     0.148 A 
ATOM     67  C   UNL A   1      40.485  34.053  36.804  1.00  0.00     0.002 A 
ATOM     68  C   UNL A   1      38.683  32.570  37.459  1.00  0.00     0.091 A 
ATOM     69  F   UNL A   1      38.330  30.551  36.238  1.00  0.00    -0.205 F 
ATOM     70  C   UNL A   1      39.435  33.738  37.662  1.00  0.00     0.022 A 
BRANCH  68  71
ATOM     71  S   UNL A   1      37.295  32.294  38.566  1.00  0.00     0.127 S 
ATOM     72  O   UNL A   1      37.153  30.839  38.503  1.00  0.00    -0.237 OA
ATOM     73  O   UNL A   1      37.810  32.800  39.840  1.00  0.00    -0.237 OA
ATOM     74  O   UNL A   1      36.186  33.057  38.016  1.00  0.00    -0.744 OA
ENDBRANCH  68  71
ENDBRANCH  50  64
BRANCH  51  75
ATOM     75  C   UNL A   1      42.220  26.593  27.455  1.00  0.00     0.023 A 
ATOM     76  C   UNL A   1      42.926  27.192  26.393  1.00  0.00     0.012 A 
ATOM     77  C   UNL A   1      41.880  25.230  27.374  1.00  0.00     0.148 A 
ATOM     78  C   UNL A   1      43.262  26.453  25.259  1.00  0.00     0.002 A 
ATOM     79  C   UNL A   1      42.270  24.485  26.268  1.00  0.00     0.091 A 
ATOM     80  F   UNL A   1      41.203  24.684  28.393  1.00  0.00    -0.205 F 
ATOM     81  C   UNL A   1      42.946  25.099  25.201  1.00  0.00     0.022 A 
BRANCH  79  82
ATOM     82  S   UNL A   1      42.029  22.708  26.167  1.00  0.00     0.127 S 
ATOM     83  O   UNL A   1      40.572  22.604  26.148  1.00  0.00    -0.237 OA
ATOM     84  O   UNL A   1      42.687  22.389  24.899  1.00  0.00    -0.237 OA
ATOM     85  O   UNL A   1      42.685  22.152  27.341  1.00  0.00    -0.744 OA
ENDBRANCH  79  82
ENDBRANCH  51  75
BRANCH  63  86
ATOM     86  C   UNL A   1      44.851  26.846  33.912  1.00  0.00     0.023 A 
ATOM     87  C   UNL A   1      46.153  27.386  33.934  1.00  0.00     0.012 A 
ATOM     88  C   UNL A   1      44.608  25.613  34.552  1.00  0.00     0.148 A 
ATOM     89  C   UNL A   1      47.203  26.689  34.533  1.00  0.00     0.002 A 
ATOM     90  C   UNL A   1      45.647  24.951  35.195  1.00  0.00     0.091 A 
ATOM     91  F   UNL A   1      43.369  25.102  34.507  1.00  0.00    -0.205 F 
ATOM     92  C   UNL A   1      46.948  25.479  35.172  1.00  0.00     0.022 A 
BRANCH  90  93
ATOM     93  S   UNL A   1      45.389  23.436  36.124  1.00  0.00     0.127 S 
ATOM     94  O   UNL A   1      44.582  23.910  37.248  1.00  0.00    -0.237 OA
ATOM     95  O   UNL A   1      44.667  22.600  35.165  1.00  0.00    -0.237 OA
ATOM     96  O   UNL A   1      46.718  22.947  36.467  1.00  0.00    -0.744 OA
ENDBRANCH  90  93
ENDBRANCH  63  86
ENDBRANCH  37  38
ENDBRANCH  29  32
ENDBRANCH  27  28
ENDBRANCH  26  27
ENDBRANCH   1  26
TORSDOF 17
ENDMDL
