MODEL 1
REMARK VINA RESULT:     -11.5      0.000      0.000
REMARK SMILES C[N@@H+](CC(=O)NCCCNC(=O)c1ccc(-c2c3nc(c(-c4cccc(S(=O)(=O)[O-])c4F)c4ccc([nH]4)c(-c4cccc(S(=O)(=O)[O-])c4F)c4nc(c(-c5cccc(S(=O)(=O)[O-])c5F)c5ccc2[nH]5)C=C4)C=C3)cc1)Cc1noc(-c2ccccc2Cl)n1
REMARK SMILES IDX 7 1 6 2 4 3 5 4 3 6 2 7 1 8 76 10 77 11 78 12 88 13 79 14
REMARK SMILES IDX 80 15 81 16 82 17 86 18 83 19 85 20 87 21 84 22 8 23 9 24
REMARK SMILES IDX 10 25 11 26 12 28 13 29 14 30 75 31 15 32 74 33 16 34 17 35
REMARK SMILES IDX 18 36 68 37 19 38 73 39 67 40 69 41 20 42 72 43 66 44 65 45
REMARK SMILES IDX 21 47 53 48 33 49 52 50 34 51 37 52 51 53 70 54 35 55 36 56
REMARK SMILES IDX 50 58 71 59 38 60 22 61 23 62 31 63 24 64 26 65 32 66 25 67
REMARK SMILES IDX 27 68 28 69 29 70 30 71 54 72 55 73 63 74 56 75 58 76 64 77
REMARK SMILES IDX 57 78 59 79 60 80 61 81 62 82 39 83 40 84 48 85 41 86 43 87
REMARK SMILES IDX 49 88 42 89 44 90 45 91 46 92 47 93
REMARK H PARENT 6 5 2 9 10 27 69 46 37 57
REMARK Flexibility Score: inf
ROOT
ATOM      1  C   UNL A   1      32.275  27.539  26.834  1.00  0.00     0.118 C 
ENDROOT
BRANCH   1   2
ATOM      2  N   UNL A   1      31.278  26.490  26.817  1.00  0.00    -0.351 N 
ATOM      3  C   UNL A   1      31.379  25.175  26.483  1.00  0.00     0.275 C 
ATOM      4  O   UNL A   1      30.380  24.474  26.672  1.00  0.00    -0.269 OA
ATOM      5  H   UNL A   1      30.377  26.774  27.092  1.00  0.00     0.163 HD
BRANCH   3   6
ATOM      6  C   UNL A   1      32.684  24.559  25.979  1.00  0.00     0.363 C 
BRANCH   6   7
ATOM      7  N   UNL A   1      32.717  24.124  24.585  1.00  0.00    -0.323 N 
ATOM      8  C   UNL A   1      32.712  22.712  24.295  1.00  0.00     0.333 C 
ATOM      9  H   UNL A   1      31.736  24.363  24.442  1.00  0.00     0.348 HD
BRANCH   7  10
ATOM     10  C   UNL A   1      33.311  24.989  23.562  1.00  0.00     0.345 C 
BRANCH  10  11
ATOM     11  C   UNL A   1      32.377  25.895  22.824  1.00  0.00     0.226 A 
ATOM     12  N   UNL A   1      32.272  25.949  21.487  1.00  0.00    -0.056 NA
ATOM     13  N   UNL A   1      31.512  26.722  23.500  1.00  0.00    -0.186 NA
ATOM     14  O   UNL A   1      31.296  26.932  21.285  1.00  0.00    -0.334 OA
ATOM     15  C   UNL A   1      30.902  27.356  22.526  1.00  0.00     0.259 A 
BRANCH  15  16
ATOM     16  C   UNL A   1      29.869  28.380  22.572  1.00  0.00     0.058 A 
ATOM     17  C   UNL A   1      30.125  29.644  22.008  1.00  0.00     0.015 A 
ATOM     18  C   UNL A   1      28.598  28.147  23.125  1.00  0.00     0.053 A 
ATOM     19  C   UNL A   1      29.142  30.639  21.984  1.00  0.00     0.001 A 
ATOM     20  C   UNL A   1      27.619  29.150  23.109  1.00  0.00     0.021 A 
ATOM     21  Cl  UNL A   1      28.154  26.655  23.877  1.00  0.00    -0.083 Cl
ATOM     22  C   UNL A   1      27.888  30.391  22.534  1.00  0.00     0.002 A 
ENDBRANCH  15  16
ENDBRANCH  10  11
ENDBRANCH   7  10
ENDBRANCH   6   7
ENDBRANCH   3   6
ENDBRANCH   1   2
BRANCH   1  23
ATOM     23  C   UNL A   1      31.727  28.890  26.388  1.00  0.00     0.042 C 
BRANCH  23  24
ATOM     24  C   UNL A   1      32.746  29.822  25.744  1.00  0.00     0.118 C 
BRANCH  24  25
ATOM     25  N   UNL A   1      32.557  31.210  26.133  1.00  0.00    -0.352 N 
ATOM     26  C   UNL A   1      33.175  31.948  27.113  1.00  0.00     0.251 C 
ATOM     27  H   UNL A   1      31.879  31.698  25.611  1.00  0.00     0.163 HD
ATOM     28  O   UNL A   1      32.716  33.051  27.406  1.00  0.00    -0.269 OA
BRANCH  26  29
ATOM     29  C   UNL A   1      34.370  31.437  27.829  1.00  0.00     0.039 A 
ATOM     30  C   UNL A   1      35.462  32.292  28.009  1.00  0.00     0.014 A 
ATOM     31  C   UNL A   1      34.452  30.115  28.273  1.00  0.00     0.014 A 
ATOM     32  C   UNL A   1      36.608  31.838  28.671  1.00  0.00     0.010 A 
ATOM     33  C   UNL A   1      35.558  29.689  29.008  1.00  0.00     0.010 A 
ATOM     34  C   UNL A   1      36.658  30.538  29.199  1.00  0.00    -0.014 A 
BRANCH  34  35
ATOM     35  C   UNL A   1      37.852  30.051  29.940  1.00  0.00     0.031 A 
ATOM     36  C   UNL A   1      38.129  30.523  31.344  1.00  0.00     0.074 A 
ATOM     37  C   UNL A   1      38.741  29.247  29.323  1.00  0.00     0.049 A 
ATOM     38  N   UNL A   1      39.136  30.235  32.128  1.00  0.00    -0.248 NA
ATOM     39  C   UNL A   1      37.165  31.468  31.932  1.00  0.00     0.031 C 
ATOM     40  C   UNL A   1      38.643  28.792  27.934  1.00  0.00     0.029 A 
ATOM     41  N   UNL A   1      39.915  28.696  29.772  1.00  0.00    -0.354 N 
ATOM     42  C   UNL A   1      38.952  30.993  33.280  1.00  0.00     0.074 A 
ATOM     43  C   UNL A   1      37.753  31.777  33.078  1.00  0.00     0.031 C 
ATOM     44  C   UNL A   1      39.711  28.033  27.646  1.00  0.00     0.029 A 
ATOM     45  C   UNL A   1      40.581  27.964  28.816  1.00  0.00     0.049 A 
ATOM     46  H   UNL A   1      40.248  28.812  30.691  1.00  0.00     0.167 HD
ATOM     47  C   UNL A   1      39.692  31.013  34.414  1.00  0.00     0.034 A 
ATOM     48  C   UNL A   1      41.761  27.315  28.872  1.00  0.00     0.034 A 
ATOM     49  C   UNL A   1      40.851  30.191  34.636  1.00  0.00     0.049 A 
ATOM     50  C   UNL A   1      42.529  27.292  30.165  1.00  0.00     0.074 A 
ATOM     51  C   UNL A   1      41.597  30.048  35.793  1.00  0.00     0.029 A 
ATOM     52  N   UNL A   1      41.440  29.379  33.680  1.00  0.00    -0.354 N 
ATOM     53  N   UNL A   1      42.238  27.866  31.307  1.00  0.00    -0.248 NA
ATOM     54  C   UNL A   1      43.767  26.499  30.190  1.00  0.00     0.031 C 
ATOM     55  C   UNL A   1      42.651  29.168  35.528  1.00  0.00     0.029 A 
ATOM     56  C   UNL A   1      42.549  28.743  34.214  1.00  0.00     0.049 A 
ATOM     57  H   UNL A   1      41.117  29.270  32.756  1.00  0.00     0.167 HD
ATOM     58  C   UNL A   1      43.238  27.484  32.194  1.00  0.00     0.074 A 
ATOM     59  C   UNL A   1      44.131  26.608  31.462  1.00  0.00     0.031 C 
ATOM     60  C   UNL A   1      43.408  27.839  33.491  1.00  0.00     0.034 A 
BRANCH  47  61
ATOM     61  C   UNL A   1      39.236  31.921  35.528  1.00  0.00     0.023 A 
ATOM     62  C   UNL A   1      38.324  31.440  36.491  1.00  0.00     0.012 A 
ATOM     63  C   UNL A   1      39.735  33.232  35.648  1.00  0.00     0.148 A 
ATOM     64  C   UNL A   1      37.882  32.260  37.527  1.00  0.00     0.002 A 
ATOM     65  C   UNL A   1      39.323  34.031  36.710  1.00  0.00     0.091 A 
ATOM     66  F   UNL A   1      40.582  33.685  34.713  1.00  0.00    -0.205 F 
ATOM     67  C   UNL A   1      38.388  33.552  37.643  1.00  0.00     0.022 A 
BRANCH  65  68
ATOM     68  S   UNL A   1      39.981  35.681  36.984  1.00  0.00     0.127 S 
ATOM     69  O   UNL A   1      39.274  36.082  38.200  1.00  0.00    -0.237 OA
ATOM     70  O   UNL A   1      41.410  35.420  37.169  1.00  0.00    -0.237 OA
ATOM     71  O   UNL A   1      39.658  36.441  35.785  1.00  0.00    -0.744 OA
ENDBRANCH  65  68
ENDBRANCH  47  61
BRANCH  48  72
ATOM     72  C   UNL A   1      42.243  26.569  27.674  1.00  0.00     0.023 A 
ATOM     73  C   UNL A   1      43.083  27.216  26.749  1.00  0.00     0.012 A 
ATOM     74  C   UNL A   1      41.928  25.209  27.485  1.00  0.00     0.148 A 
ATOM     75  C   UNL A   1      43.587  26.529  25.645  1.00  0.00     0.002 A 
ATOM     76  C   UNL A   1      42.478  24.515  26.413  1.00  0.00     0.091 A 
ATOM     77  F   UNL A   1      41.119  24.616  28.373  1.00  0.00    -0.205 F 
ATOM     78  C   UNL A   1      43.295  25.177  25.483  1.00  0.00     0.022 A 
BRANCH  76  79
ATOM     79  S   UNL A   1      42.272  22.743  26.204  1.00  0.00     0.127 S 
ATOM     80  O   UNL A   1      42.991  22.504  24.954  1.00  0.00    -0.237 OA
ATOM     81  O   UNL A   1      42.930  22.221  27.403  1.00  0.00    -0.237 OA
ATOM     82  O   UNL A   1      40.836  22.514  26.159  1.00  0.00    -0.744 OA
ENDBRANCH  76  79
ENDBRANCH  48  72
BRANCH  60  83
ATOM     83  C   UNL A   1      44.596  27.270  34.223  1.00  0.00     0.023 A 
ATOM     84  C   UNL A   1      45.813  27.980  34.236  1.00  0.00     0.012 A 
ATOM     85  C   UNL A   1      44.487  26.073  34.959  1.00  0.00     0.148 A 
ATOM     86  C   UNL A   1      46.911  27.495  34.945  1.00  0.00     0.002 A 
ATOM     87  C   UNL A   1      45.571  25.620  35.702  1.00  0.00     0.091 A 
ATOM     88  F   UNL A   1      43.328  25.401  34.919  1.00  0.00    -0.205 F 
ATOM     89  C   UNL A   1      46.787  26.322  35.687  1.00  0.00     0.022 A 
BRANCH  87  90
ATOM     90  S   UNL A   1      45.470  24.171  36.761  1.00  0.00     0.127 S 
ATOM     91  O   UNL A   1      44.500  24.603  37.766  1.00  0.00    -0.237 OA
ATOM     92  O   UNL A   1      44.980  23.145  35.841  1.00  0.00    -0.237 OA
ATOM     93  O   UNL A   1      46.822  23.942  37.253  1.00  0.00    -0.744 OA
ENDBRANCH  87  90
ENDBRANCH  60  83
ENDBRANCH  34  35
ENDBRANCH  26  29
ENDBRANCH  24  25
ENDBRANCH  23  24
ENDBRANCH   1  23
TORSDOF 17
ENDMDL
MODEL 2
REMARK VINA RESULT:     -11.2      2.186      3.111
REMARK SMILES C[N@@H+](CC(=O)NCCCNC(=O)c1ccc(-c2c3nc(c(-c4cccc(S(=O)(=O)[O-])c4F)c4ccc([nH]4)c(-c4cccc(S(=O)(=O)[O-])c4F)c4nc(c(-c5cccc(S(=O)(=O)[O-])c5F)c5ccc2[nH]5)C=C4)C=C3)cc1)Cc1noc(-c2ccccc2Cl)n1
REMARK SMILES IDX 7 1 6 2 4 3 5 4 3 6 2 7 1 8 76 10 77 11 78 12 88 13 79 14
REMARK SMILES IDX 80 15 81 16 82 17 86 18 83 19 85 20 87 21 84 22 8 23 9 24
REMARK SMILES IDX 10 25 11 26 12 28 13 29 14 30 75 31 15 32 74 33 16 34 17 35
REMARK SMILES IDX 18 36 68 37 19 38 73 39 67 40 69 41 20 42 72 43 66 44 65 45
REMARK SMILES IDX 21 47 53 48 33 49 52 50 34 51 37 52 51 53 70 54 35 55 36 56
REMARK SMILES IDX 50 58 71 59 38 60 22 61 23 62 31 63 24 64 26 65 32 66 25 67
REMARK SMILES IDX 27 68 28 69 29 70 30 71 54 72 55 73 63 74 56 75 58 76 64 77
REMARK SMILES IDX 57 78 59 79 60 80 61 81 62 82 39 83 40 84 48 85 41 86 43 87
REMARK SMILES IDX 49 88 42 89 44 90 45 91 46 92 47 93
REMARK H PARENT 6 5 2 9 10 27 69 46 37 57
REMARK Flexibility Score: inf
ROOT
ATOM      1  C   UNL A   1      33.863  26.342  25.698  1.00  0.00     0.118 C 
ENDROOT
BRANCH   1   2
ATOM      2  N   UNL A   1      34.110  25.848  24.360  1.00  0.00    -0.351 N 
ATOM      3  C   UNL A   1      34.110  24.580  23.868  1.00  0.00     0.275 C 
ATOM      4  O   UNL A   1      34.243  24.457  22.646  1.00  0.00    -0.269 OA
ATOM      5  H   UNL A   1      34.313  26.545  23.695  1.00  0.00     0.163 HD
BRANCH   3   6
ATOM      6  C   UNL A   1      33.871  23.360  24.757  1.00  0.00     0.363 C 
BRANCH   6   7
ATOM      7  N   UNL A   1      32.630  22.618  24.545  1.00  0.00    -0.323 N 
ATOM      8  C   UNL A   1      32.365  22.061  23.242  1.00  0.00     0.333 C 
ATOM      9  H   UNL A   1      32.983  21.802  25.045  1.00  0.00     0.348 HD
BRANCH   7  10
ATOM     10  C   UNL A   1      31.456  22.902  25.375  1.00  0.00     0.345 C 
BRANCH  10  11
ATOM     11  C   UNL A   1      30.962  24.314  25.378  1.00  0.00     0.226 A 
ATOM     12  N   UNL A   1      30.708  25.026  26.488  1.00  0.00    -0.056 NA
ATOM     13  N   UNL A   1      30.773  25.000  24.202  1.00  0.00    -0.186 NA
ATOM     14  O   UNL A   1      30.268  26.255  25.981  1.00  0.00    -0.334 OA
ATOM     15  C   UNL A   1      30.320  26.160  24.616  1.00  0.00     0.259 A 
BRANCH  15  16
ATOM     16  C   UNL A   1      29.918  27.337  23.861  1.00  0.00     0.058 A 
ATOM     17  C   UNL A   1      30.904  28.225  23.390  1.00  0.00     0.015 A 
ATOM     18  C   UNL A   1      28.577  27.609  23.542  1.00  0.00     0.053 A 
ATOM     19  C   UNL A   1      30.565  29.338  22.615  1.00  0.00     0.001 A 
ATOM     20  C   UNL A   1      28.240  28.732  22.774  1.00  0.00     0.021 A 
ATOM     21  Cl  UNL A   1      27.260  26.623  24.076  1.00  0.00    -0.083 Cl
ATOM     22  C   UNL A   1      29.232  29.591  22.307  1.00  0.00     0.002 A 
ENDBRANCH  15  16
ENDBRANCH  10  11
ENDBRANCH   7  10
ENDBRANCH   6   7
ENDBRANCH   3   6
ENDBRANCH   1   2
BRANCH   1  23
ATOM     23  C   UNL A   1      33.836  27.865  25.776  1.00  0.00     0.042 C 
BRANCH  23  24
ATOM     24  C   UNL A   1      33.314  28.437  27.089  1.00  0.00     0.118 C 
BRANCH  24  25
ATOM     25  N   UNL A   1      33.385  29.888  27.133  1.00  0.00    -0.352 N 
ATOM     26  C   UNL A   1      34.330  30.712  27.695  1.00  0.00     0.251 C 
ATOM     27  H   UNL A   1      32.638  30.354  26.691  1.00  0.00     0.163 HD
ATOM     28  O   UNL A   1      34.087  31.914  27.794  1.00  0.00    -0.269 OA
BRANCH  26  29
ATOM     29  C   UNL A   1      35.622  30.181  28.193  1.00  0.00     0.039 A 
ATOM     30  C   UNL A   1      36.713  30.140  27.318  1.00  0.00     0.014 A 
ATOM     31  C   UNL A   1      35.759  29.671  29.486  1.00  0.00     0.014 A 
ATOM     32  C   UNL A   1      37.944  29.636  27.753  1.00  0.00     0.010 A 
ATOM     33  C   UNL A   1      37.006  29.248  29.945  1.00  0.00     0.010 A 
ATOM     34  C   UNL A   1      38.109  29.207  29.079  1.00  0.00    -0.014 A 
BRANCH  34  35
ATOM     35  C   UNL A   1      39.420  28.704  29.570  1.00  0.00     0.031 A 
ATOM     36  C   UNL A   1      40.149  29.417  30.679  1.00  0.00     0.074 A 
ATOM     37  C   UNL A   1      40.003  27.651  28.963  1.00  0.00     0.049 A 
ATOM     38  N   UNL A   1      41.314  29.146  31.210  1.00  0.00    -0.248 NA
ATOM     39  C   UNL A   1      39.499  30.612  31.244  1.00  0.00     0.031 C 
ATOM     40  C   UNL A   1      39.451  26.927  27.815  1.00  0.00     0.029 A 
ATOM     41  N   UNL A   1      41.201  27.026  29.204  1.00  0.00    -0.354 N 
ATOM     42  C   UNL A   1      41.556  30.155  32.136  1.00  0.00     0.074 A 
ATOM     43  C   UNL A   1      40.431  31.062  32.071  1.00  0.00     0.031 C 
ATOM     44  C   UNL A   1      40.307  25.960  27.453  1.00  0.00     0.029 A 
ATOM     45  C   UNL A   1      41.479  26.006  28.324  1.00  0.00     0.049 A 
ATOM     46  H   UNL A   1      41.805  27.283  29.939  1.00  0.00     0.167 HD
ATOM     47  C   UNL A   1      42.601  30.300  32.985  1.00  0.00     0.034 A 
ATOM     48  C   UNL A   1      42.555  25.200  28.224  1.00  0.00     0.034 A 
ATOM     49  C   UNL A   1      43.691  29.368  33.088  1.00  0.00     0.049 A 
ATOM     50  C   UNL A   1      43.670  25.333  29.223  1.00  0.00     0.074 A 
ATOM     51  C   UNL A   1      44.734  29.359  33.998  1.00  0.00     0.029 A 
ATOM     52  N   UNL A   1      43.887  28.282  32.249  1.00  0.00    -0.354 N 
ATOM     53  N   UNL A   1      43.790  26.181  30.216  1.00  0.00    -0.248 NA
ATOM     54  C   UNL A   1      44.779  24.374  29.116  1.00  0.00     0.031 C 
ATOM     55  C   UNL A   1      45.574  28.282  33.694  1.00  0.00     0.029 A 
ATOM     56  C   UNL A   1      45.041  27.606  32.608  1.00  0.00     0.049 A 
ATOM     57  H   UNL A   1      43.293  28.030  31.506  1.00  0.00     0.167 HD
ATOM     58  C   UNL A   1      44.971  25.843  30.868  1.00  0.00     0.074 A 
ATOM     59  C   UNL A   1      45.517  24.696  30.172  1.00  0.00     0.031 C 
ATOM     60  C   UNL A   1      45.555  26.438  31.937  1.00  0.00     0.034 A 
BRANCH  47  61
ATOM     61  C   UNL A   1      42.588  31.490  33.911  1.00  0.00     0.023 A 
ATOM     62  C   UNL A   1      43.114  32.723  33.469  1.00  0.00     0.012 A 
ATOM     63  C   UNL A   1      42.025  31.404  35.198  1.00  0.00     0.148 A 
ATOM     64  C   UNL A   1      43.120  33.836  34.307  1.00  0.00     0.002 A 
ATOM     65  C   UNL A   1      41.994  32.532  36.013  1.00  0.00     0.091 A 
ATOM     66  F   UNL A   1      41.551  30.221  35.613  1.00  0.00    -0.205 F 
ATOM     67  C   UNL A   1      42.552  33.744  35.575  1.00  0.00     0.022 A 
BRANCH  65  68
ATOM     68  S   UNL A   1      41.213  32.527  37.631  1.00  0.00     0.127 S 
ATOM     69  O   UNL A   1      41.277  33.942  37.994  1.00  0.00    -0.237 OA
ATOM     70  O   UNL A   1      39.867  32.039  37.326  1.00  0.00    -0.237 OA
ATOM     71  O   UNL A   1      42.008  31.627  38.453  1.00  0.00    -0.744 OA
ENDBRANCH  65  68
ENDBRANCH  47  61
BRANCH  48  72
ATOM     72  C   UNL A   1      42.582  24.145  27.172  1.00  0.00     0.023 A 
ATOM     73  C   UNL A   1      43.286  24.379  25.975  1.00  0.00     0.012 A 
ATOM     74  C   UNL A   1      41.975  22.890  27.380  1.00  0.00     0.148 A 
ATOM     75  C   UNL A   1      43.368  23.390  24.994  1.00  0.00     0.002 A 
ATOM     76  C   UNL A   1      42.108  21.891  26.422  1.00  0.00     0.091 A 
ATOM     77  F   UNL A   1      41.302  22.693  28.522  1.00  0.00    -0.205 F 
ATOM     78  C   UNL A   1      42.790  22.144  25.222  1.00  0.00     0.022 A 
BRANCH  76  79
ATOM     79  S   UNL A   1      41.518  20.215  26.689  1.00  0.00     0.127 S 
ATOM     80  O   UNL A   1      40.080  20.425  26.846  1.00  0.00    -0.237 OA
ATOM     81  O   UNL A   1      41.912  19.558  25.440  1.00  0.00    -0.237 OA
ATOM     82  O   UNL A   1      42.218  19.732  27.868  1.00  0.00    -0.744 OA
ENDBRANCH  76  79
ENDBRANCH  48  72
BRANCH  60  83
ATOM     83  C   UNL A   1      46.850  25.856  32.442  1.00  0.00     0.023 A 
ATOM     84  C   UNL A   1      48.075  26.332  31.934  1.00  0.00     0.012 A 
ATOM     85  C   UNL A   1      46.857  24.893  33.470  1.00  0.00     0.148 A 
ATOM     86  C   UNL A   1      49.285  25.840  32.420  1.00  0.00     0.002 A 
ATOM     87  C   UNL A   1      48.068  24.441  33.983  1.00  0.00     0.091 A 
ATOM     88  F   UNL A   1      45.683  24.436  33.927  1.00  0.00    -0.205 F 
ATOM     89  C   UNL A   1      49.282  24.904  33.452  1.00  0.00     0.022 A 
BRANCH  87  90
ATOM     90  S   UNL A   1      48.158  23.308  35.376  1.00  0.00     0.127 S 
ATOM     91  O   UNL A   1      49.593  23.039  35.449  1.00  0.00    -0.237 OA
ATOM     92  O   UNL A   1      47.632  24.120  36.473  1.00  0.00    -0.237 OA
ATOM     93  O   UNL A   1      47.324  22.169  35.017  1.00  0.00    -0.744 OA
ENDBRANCH  87  90
ENDBRANCH  60  83
ENDBRANCH  34  35
ENDBRANCH  26  29
ENDBRANCH  24  25
ENDBRANCH  23  24
ENDBRANCH   1  23
TORSDOF 17
ENDMDL
MODEL 3
REMARK VINA RESULT:     -11.2      5.286     10.184
REMARK SMILES C[N@@H+](CC(=O)NCCCNC(=O)c1ccc(-c2c3nc(c(-c4cccc(S(=O)(=O)[O-])c4F)c4ccc([nH]4)c(-c4cccc(S(=O)(=O)[O-])c4F)c4nc(c(-c5cccc(S(=O)(=O)[O-])c5F)c5ccc2[nH]5)C=C4)C=C3)cc1)Cc1noc(-c2ccccc2Cl)n1
REMARK SMILES IDX 7 1 6 2 4 3 5 4 3 6 2 7 1 8 76 10 77 11 78 12 88 13 79 14
REMARK SMILES IDX 80 15 81 16 82 17 86 18 83 19 85 20 87 21 84 22 8 23 9 24
REMARK SMILES IDX 10 25 11 26 12 28 13 29 14 30 75 31 15 32 74 33 16 34 17 35
REMARK SMILES IDX 18 36 68 37 19 38 73 39 67 40 69 41 20 42 72 43 66 44 65 45
REMARK SMILES IDX 21 47 53 48 33 49 52 50 34 51 37 52 51 53 70 54 35 55 36 56
REMARK SMILES IDX 50 58 71 59 38 60 22 61 23 62 31 63 24 64 26 65 32 66 25 67
REMARK SMILES IDX 27 68 28 69 29 70 30 71 54 72 55 73 63 74 56 75 58 76 64 77
REMARK SMILES IDX 57 78 59 79 60 80 61 81 62 82 39 83 40 84 48 85 41 86 43 87
REMARK SMILES IDX 49 88 42 89 44 90 45 91 46 92 47 93
REMARK H PARENT 6 5 2 9 10 27 69 46 37 57
REMARK Flexibility Score: inf
ROOT
ATOM      1  C   UNL A   1      36.701  20.477  24.799  1.00  0.00     0.118 C 
ENDROOT
BRANCH   1   2
ATOM      2  N   UNL A   1      35.507  19.683  24.997  1.00  0.00    -0.351 N 
ATOM      3  C   UNL A   1      34.195  20.044  25.023  1.00  0.00     0.275 C 
ATOM      4  O   UNL A   1      33.368  19.130  25.097  1.00  0.00    -0.269 OA
ATOM      5  H   UNL A   1      35.670  18.722  25.136  1.00  0.00     0.163 HD
BRANCH   3   6
ATOM      6  C   UNL A   1      33.746  21.497  24.880  1.00  0.00     0.363 C 
BRANCH   6   7
ATOM      7  N   UNL A   1      33.042  22.089  26.016  1.00  0.00    -0.323 N 
ATOM      8  C   UNL A   1      33.659  22.047  27.318  1.00  0.00     0.333 C 
ATOM      9  H   UNL A   1      33.268  23.038  25.716  1.00  0.00     0.348 HD
BRANCH   7  10
ATOM     10  C   UNL A   1      31.580  22.188  25.999  1.00  0.00     0.345 C 
BRANCH  10  11
ATOM     11  C   UNL A   1      31.001  23.567  26.013  1.00  0.00     0.226 A 
ATOM     12  N   UNL A   1      30.147  24.021  26.943  1.00  0.00    -0.056 NA
ATOM     13  N   UNL A   1      31.358  24.494  25.062  1.00  0.00    -0.186 NA
ATOM     14  O   UNL A   1      29.891  25.333  26.525  1.00  0.00    -0.334 OA
ATOM     15  C   UNL A   1      30.633  25.537  25.393  1.00  0.00     0.259 A 
BRANCH  15  16
ATOM     16  C   UNL A   1      30.542  26.852  24.776  1.00  0.00     0.058 A 
ATOM     17  C   UNL A   1      29.589  27.075  23.764  1.00  0.00     0.015 A 
ATOM     18  C   UNL A   1      31.343  27.934  25.179  1.00  0.00     0.053 A 
ATOM     19  C   UNL A   1      29.432  28.337  23.182  1.00  0.00     0.001 A 
ATOM     20  C   UNL A   1      31.191  29.195  24.587  1.00  0.00     0.021 A 
ATOM     21  Cl  UNL A   1      32.572  27.799  26.388  1.00  0.00    -0.083 Cl
ATOM     22  C   UNL A   1      30.233  29.397  23.595  1.00  0.00     0.002 A 
ENDBRANCH  15  16
ENDBRANCH  10  11
ENDBRANCH   7  10
ENDBRANCH   6   7
ENDBRANCH   3   6
ENDBRANCH   1   2
BRANCH   1  23
ATOM     23  C   UNL A   1      37.986  19.691  25.038  1.00  0.00     0.042 C 
BRANCH  23  24
ATOM     24  C   UNL A   1      39.082  20.451  25.774  1.00  0.00     0.118 C 
BRANCH  24  25
ATOM     25  N   UNL A   1      40.239  19.620  26.065  1.00  0.00    -0.352 N 
ATOM     26  C   UNL A   1      41.521  19.975  26.411  1.00  0.00     0.251 C 
ATOM     27  H   UNL A   1      40.079  18.650  26.004  1.00  0.00     0.163 HD
ATOM     28  O   UNL A   1      42.397  19.112  26.411  1.00  0.00    -0.269 OA
BRANCH  26  29
ATOM     29  C   UNL A   1      41.866  21.372  26.767  1.00  0.00     0.039 A 
ATOM     30  C   UNL A   1      41.984  22.317  25.741  1.00  0.00     0.014 A 
ATOM     31  C   UNL A   1      42.131  21.752  28.085  1.00  0.00     0.014 A 
ATOM     32  C   UNL A   1      42.319  23.642  26.043  1.00  0.00     0.010 A 
ATOM     33  C   UNL A   1      42.379  23.090  28.393  1.00  0.00     0.010 A 
ATOM     34  C   UNL A   1      42.496  24.047  27.375  1.00  0.00    -0.014 A 
BRANCH  34  35
ATOM     35  C   UNL A   1      42.813  25.460  27.717  1.00  0.00     0.031 A 
ATOM     36  C   UNL A   1      44.226  25.973  27.624  1.00  0.00     0.074 A 
ATOM     37  C   UNL A   1      41.844  26.267  28.195  1.00  0.00     0.049 A 
ATOM     38  N   UNL A   1      44.695  27.159  27.915  1.00  0.00    -0.248 NA
ATOM     39  C   UNL A   1      45.254  25.018  27.176  1.00  0.00     0.031 C 
ATOM     40  C   UNL A   1      40.454  25.869  28.426  1.00  0.00     0.029 A 
ATOM     41  N   UNL A   1      41.888  27.577  28.603  1.00  0.00    -0.354 N 
ATOM     42  C   UNL A   1      46.072  27.083  27.728  1.00  0.00     0.074 A 
ATOM     43  C   UNL A   1      46.365  25.723  27.330  1.00  0.00     0.031 C 
ATOM     44  C   UNL A   1      39.778  26.912  28.933  1.00  0.00     0.029 A 
ATOM     45  C   UNL A   1      40.688  28.044  29.087  1.00  0.00     0.049 A 
ATOM     46  H   UNL A   1      42.700  28.130  28.552  1.00  0.00     0.167 HD
ATOM     47  C   UNL A   1      47.003  28.058  27.846  1.00  0.00     0.034 A 
ATOM     48  C   UNL A   1      40.355  29.245  29.601  1.00  0.00     0.034 A 
ATOM     49  C   UNL A   1      46.703  29.423  28.187  1.00  0.00     0.049 A 
ATOM     50  C   UNL A   1      41.390  30.335  29.654  1.00  0.00     0.074 A 
ATOM     51  C   UNL A   1      47.558  30.512  28.214  1.00  0.00     0.029 A 
ATOM     52  N   UNL A   1      45.455  29.887  28.570  1.00  0.00    -0.354 N 
ATOM     53  N   UNL A   1      42.650  30.294  29.293  1.00  0.00    -0.248 NA
ATOM     54  C   UNL A   1      40.949  31.648  30.147  1.00  0.00     0.031 C 
ATOM     55  C   UNL A   1      46.830  31.629  28.636  1.00  0.00     0.029 A 
ATOM     56  C   UNL A   1      45.517  31.242  28.851  1.00  0.00     0.049 A 
ATOM     57  H   UNL A   1      44.643  29.334  28.634  1.00  0.00     0.167 HD
ATOM     58  C   UNL A   1      43.146  31.578  29.489  1.00  0.00     0.074 A 
ATOM     59  C   UNL A   1      42.043  32.380  29.977  1.00  0.00     0.031 C 
ATOM     60  C   UNL A   1      44.404  32.044  29.295  1.00  0.00     0.034 A 
BRANCH  47  61
ATOM     61  C   UNL A   1      48.436  27.694  27.552  1.00  0.00     0.023 A 
ATOM     62  C   UNL A   1      49.261  27.212  28.591  1.00  0.00     0.012 A 
ATOM     63  C   UNL A   1      48.958  27.789  26.248  1.00  0.00     0.148 A 
ATOM     64  C   UNL A   1      50.590  26.874  28.347  1.00  0.00     0.002 A 
ATOM     65  C   UNL A   1      50.273  27.408  26.003  1.00  0.00     0.091 A 
ATOM     66  F   UNL A   1      48.171  28.270  25.275  1.00  0.00    -0.205 F 
ATOM     67  C   UNL A   1      51.094  26.963  27.052  1.00  0.00     0.022 A 
BRANCH  65  68
ATOM     68  S   UNL A   1      50.985  27.414  24.353  1.00  0.00     0.127 S 
ATOM     69  O   UNL A   1      52.182  26.597  24.544  1.00  0.00    -0.237 OA
ATOM     70  O   UNL A   1      49.934  26.775  23.558  1.00  0.00    -0.237 OA
ATOM     71  O   UNL A   1      51.220  28.813  24.027  1.00  0.00    -0.744 OA
ENDBRANCH  65  68
ENDBRANCH  47  61
BRANCH  48  72
ATOM     72  C   UNL A   1      38.951  29.491  30.034  1.00  0.00     0.023 A 
ATOM     73  C   UNL A   1      38.558  29.136  31.338  1.00  0.00     0.012 A 
ATOM     74  C   UNL A   1      38.027  30.135  29.187  1.00  0.00     0.148 A 
ATOM     75  C   UNL A   1      37.263  29.399  31.786  1.00  0.00     0.002 A 
ATOM     76  C   UNL A   1      36.756  30.443  29.659  1.00  0.00     0.091 A 
ATOM     77  F   UNL A   1      38.420  30.455  27.947  1.00  0.00    -0.205 F 
ATOM     78  C   UNL A   1      36.367  30.062  30.952  1.00  0.00     0.022 A 
BRANCH  76  79
ATOM     79  S   UNL A   1      35.585  31.418  28.707  1.00  0.00     0.127 S 
ATOM     80  O   UNL A   1      36.440  32.478  28.176  1.00  0.00    -0.237 OA
ATOM     81  O   UNL A   1      35.122  30.445  27.715  1.00  0.00    -0.237 OA
ATOM     82  O   UNL A   1      34.565  31.844  29.651  1.00  0.00    -0.744 OA
ENDBRANCH  76  79
ENDBRANCH  48  72
BRANCH  60  83
ATOM     83  C   UNL A   1      44.666  33.498  29.592  1.00  0.00     0.023 A 
ATOM     84  C   UNL A   1      45.109  33.879  30.874  1.00  0.00     0.012 A 
ATOM     85  C   UNL A   1      44.546  34.475  28.584  1.00  0.00     0.148 A 
ATOM     86  C   UNL A   1      45.401  35.213  31.157  1.00  0.00     0.002 A 
ATOM     87  C   UNL A   1      44.884  35.795  28.859  1.00  0.00     0.091 A 
ATOM     88  F   UNL A   1      44.103  34.097  27.376  1.00  0.00    -0.205 F 
ATOM     89  C   UNL A   1      45.300  36.168  30.147  1.00  0.00     0.022 A 
BRANCH  87  90
ATOM     90  S   UNL A   1      44.875  37.073  27.595  1.00  0.00     0.127 S 
ATOM     91  O   UNL A   1      45.818  36.532  26.617  1.00  0.00    -0.237 OA
ATOM     92  O   UNL A   1      43.478  37.072  27.161  1.00  0.00    -0.237 OA
ATOM     93  O   UNL A   1      45.297  38.296  28.262  1.00  0.00    -0.744 OA
ENDBRANCH  87  90
ENDBRANCH  60  83
ENDBRANCH  34  35
ENDBRANCH  26  29
ENDBRANCH  24  25
ENDBRANCH  23  24
ENDBRANCH   1  23
TORSDOF 17
ENDMDL
