MODEL 1
REMARK VINA RESULT:     -13.6      0.000      0.000
REMARK SMILES C[C@@H]1C(C(=O)NCCCNC(=O)c2ccc(-c3c4nc(c(-c5cccc(S(=O)(=O)[O-])c5F)c5ccc([nH]5)c(-c5cccc(S(=O)(=O)[O-])c5F)c5nc(c(-c6cccc(S(=O)(=O)[O-])c6F)c6ccc3[nH]6)C=C5)C=C4)cc2)=NC2=C1C(=O)C[C@H](c1ccccc1)C2
REMARK SMILES IDX 9 1 8 2 7 3 6 4 4 5 5 6 3 8 1 9 2 10 78 11 76 12 77 13 79 14
REMARK SMILES IDX 89 15 80 16 81 17 82 18 83 19 84 20 88 21 85 22 87 23 86 24
REMARK SMILES IDX 10 25 11 26 12 28 13 29 14 30 75 31 15 32 74 33 16 34 17 35
REMARK SMILES IDX 18 36 68 37 19 38 73 39 67 40 69 41 20 42 72 43 66 44 65 45
REMARK SMILES IDX 21 47 53 48 33 49 52 50 34 51 37 52 51 53 70 54 35 55 36 56
REMARK SMILES IDX 50 58 71 59 38 60 22 61 23 62 31 63 24 64 26 65 32 66 25 67
REMARK SMILES IDX 27 68 28 69 29 70 30 71 54 72 55 73 63 74 56 75 58 76 64 77
REMARK SMILES IDX 57 78 59 79 60 80 61 81 62 82 39 83 40 84 48 85 41 86 43 87
REMARK SMILES IDX 49 88 42 89 44 90 45 91 46 92 47 93
REMARK H PARENT 6 7 10 27 69 46 37 57
REMARK Flexibility Score: inf
ROOT
ATOM      1  C   UNL A   1      34.281  28.974  27.455  1.00  0.00     0.118 C 
ENDROOT
BRANCH   1   2
ATOM      2  C   UNL A   1      33.205  28.408  26.537  1.00  0.00     0.042 C 
BRANCH   2   3
ATOM      3  C   UNL A   1      33.399  28.856  25.085  1.00  0.00     0.118 C 
BRANCH   3   4
ATOM      4  N   UNL A   1      33.939  27.829  24.206  1.00  0.00    -0.351 N 
ATOM      5  C   UNL A   1      33.327  27.350  23.061  1.00  0.00     0.266 C 
ATOM      6  O   UNL A   1      33.888  27.402  21.974  1.00  0.00    -0.268 OA
ATOM      7  H   UNL A   1      34.812  27.442  24.446  1.00  0.00     0.163 HD
BRANCH   5   8
ATOM      8  C   UNL A   1      32.047  26.540  23.207  1.00  0.00     0.113 C 
ATOM      9  C   UNL A   1      29.914  27.772  23.117  1.00  0.00     0.020 C 
ATOM     10  C   UNL A   1      30.883  27.021  24.025  1.00  0.00     0.076 C 
ATOM     11  C   UNL A   1      30.442  25.637  24.340  1.00  0.00     0.026 C 
ATOM     12  N   UNL A   1      31.894  25.355  22.669  1.00  0.00    -0.251 NA
ATOM     13  C   UNL A   1      30.910  24.772  23.437  1.00  0.00     0.049 C 
ATOM     14  C   UNL A   1      30.400  25.154  25.736  1.00  0.00     0.161 C 
ATOM     15  C   UNL A   1      30.938  23.303  23.744  1.00  0.00     0.065 C 
ATOM     16  O   UNL A   1      29.755  25.794  26.565  1.00  0.00    -0.294 OA
ATOM     17  C   UNL A   1      31.285  23.961  26.133  1.00  0.00     0.089 C 
ATOM     18  C   UNL A   1      31.868  23.105  24.960  1.00  0.00     0.033 C 
BRANCH  18  19
ATOM     19  C   UNL A   1      33.360  23.304  24.627  1.00  0.00    -0.044 A 
ATOM     20  C   UNL A   1      34.164  24.193  25.375  1.00  0.00     0.004 A 
ATOM     21  C   UNL A   1      33.977  22.675  23.535  1.00  0.00     0.004 A 
ATOM     22  C   UNL A   1      35.527  24.360  25.126  1.00  0.00     0.000 A 
ATOM     23  C   UNL A   1      35.344  22.857  23.270  1.00  0.00     0.000 A 
ATOM     24  C   UNL A   1      36.122  23.683  24.075  1.00  0.00     0.000 A 
ENDBRANCH  18  19
ENDBRANCH   5   8
ENDBRANCH   3   4
ENDBRANCH   2   3
ENDBRANCH   1   2
BRANCH   1  25
ATOM     25  N   UNL A   1      34.072  30.393  27.760  1.00  0.00    -0.352 N 
ATOM     26  C   UNL A   1      34.981  31.331  28.225  1.00  0.00     0.251 C 
ATOM     27  H   UNL A   1      33.157  30.726  27.616  1.00  0.00     0.163 HD
ATOM     28  O   UNL A   1      34.611  32.419  28.604  1.00  0.00    -0.269 OA
BRANCH  26  29
ATOM     29  C   UNL A   1      36.405  30.945  28.286  1.00  0.00     0.039 A 
ATOM     30  C   UNL A   1      37.277  31.635  29.131  1.00  0.00     0.014 A 
ATOM     31  C   UNL A   1      36.831  29.831  27.572  1.00  0.00     0.014 A 
ATOM     32  C   UNL A   1      38.554  31.119  29.346  1.00  0.00     0.010 A 
ATOM     33  C   UNL A   1      38.035  29.249  27.891  1.00  0.00     0.010 A 
ATOM     34  C   UNL A   1      38.917  29.902  28.754  1.00  0.00    -0.014 A 
BRANCH  34  35
ATOM     35  C   UNL A   1      40.172  29.247  29.122  1.00  0.00     0.031 A 
ATOM     36  C   UNL A   1      40.333  28.874  30.561  1.00  0.00     0.074 A 
ATOM     37  C   UNL A   1      41.040  28.767  28.205  1.00  0.00     0.049 A 
ATOM     38  N   UNL A   1      41.259  29.263  31.375  1.00  0.00    -0.248 NA
ATOM     39  C   UNL A   1      39.310  28.026  31.190  1.00  0.00     0.031 C 
ATOM     40  C   UNL A   1      40.885  28.741  26.746  1.00  0.00     0.029 A 
ATOM     41  N   UNL A   1      42.165  28.023  28.404  1.00  0.00    -0.354 N 
ATOM     42  C   UNL A   1      41.052  28.566  32.567  1.00  0.00     0.074 A 
ATOM     43  C   UNL A   1      39.762  27.939  32.444  1.00  0.00     0.031 C 
ATOM     44  C   UNL A   1      41.680  27.779  26.235  1.00  0.00     0.029 A 
ATOM     45  C   UNL A   1      42.521  27.262  27.297  1.00  0.00     0.049 A 
ATOM     46  H   UNL A   1      42.674  28.024  29.247  1.00  0.00     0.167 HD
ATOM     47  C   UNL A   1      42.045  28.406  33.490  1.00  0.00     0.034 A 
ATOM     48  C   UNL A   1      43.400  26.234  27.264  1.00  0.00     0.034 A 
ATOM     49  C   UNL A   1      43.174  29.253  33.204  1.00  0.00     0.049 A 
ATOM     50  C   UNL A   1      44.281  26.364  28.447  1.00  0.00     0.074 A 
ATOM     51  C   UNL A   1      43.367  30.611  33.058  1.00  0.00     0.029 A 
ATOM     52  N   UNL A   1      44.288  28.653  32.669  1.00  0.00    -0.354 N 
ATOM     53  N   UNL A   1      45.140  27.334  28.603  1.00  0.00    -0.248 NA
ATOM     54  C   UNL A   1      43.926  25.645  29.658  1.00  0.00     0.031 C 
ATOM     55  C   UNL A   1      44.325  30.728  32.010  1.00  0.00     0.029 A 
ATOM     56  C   UNL A   1      44.697  29.437  31.625  1.00  0.00     0.049 A 
ATOM     57  H   UNL A   1      44.710  27.819  32.977  1.00  0.00     0.167 HD
ATOM     58  C   UNL A   1      45.071  27.641  29.955  1.00  0.00     0.074 A 
ATOM     59  C   UNL A   1      44.416  26.489  30.570  1.00  0.00     0.031 C 
ATOM     60  C   UNL A   1      45.271  28.917  30.404  1.00  0.00     0.034 A 
BRANCH  47  61
ATOM     61  C   UNL A   1      42.172  27.279  34.490  1.00  0.00     0.023 A 
ATOM     62  C   UNL A   1      41.670  27.509  35.795  1.00  0.00     0.012 A 
ATOM     63  C   UNL A   1      42.980  26.137  34.309  1.00  0.00     0.148 A 
ATOM     64  C   UNL A   1      42.002  26.680  36.871  1.00  0.00     0.002 A 
ATOM     65  C   UNL A   1      43.239  25.269  35.368  1.00  0.00     0.091 A 
ATOM     66  F   UNL A   1      43.618  25.948  33.151  1.00  0.00    -0.205 F 
ATOM     67  C   UNL A   1      42.781  25.553  36.656  1.00  0.00     0.022 A 
BRANCH  65  68
ATOM     68  S   UNL A   1      44.184  23.760  35.130  1.00  0.00     0.127 S 
ATOM     69  O   UNL A   1      43.234  22.928  34.400  1.00  0.00    -0.237 OA
ATOM     70  O   UNL A   1      45.323  24.236  34.343  1.00  0.00    -0.237 OA
ATOM     71  O   UNL A   1      44.536  23.313  36.472  1.00  0.00    -0.744 OA
ENDBRANCH  65  68
ENDBRANCH  47  61
BRANCH  48  72
ATOM     72  C   UNL A   1      43.416  25.054  26.373  1.00  0.00     0.023 A 
ATOM     73  C   UNL A   1      44.367  24.973  25.339  1.00  0.00     0.012 A 
ATOM     74  C   UNL A   1      42.656  23.901  26.674  1.00  0.00     0.148 A 
ATOM     75  C   UNL A   1      44.566  23.778  24.638  1.00  0.00     0.002 A 
ATOM     76  C   UNL A   1      42.847  22.719  25.965  1.00  0.00     0.091 A 
ATOM     77  F   UNL A   1      41.812  23.932  27.716  1.00  0.00    -0.205 F 
ATOM     78  C   UNL A   1      43.810  22.651  24.952  1.00  0.00     0.022 A 
BRANCH  76  79
ATOM     79  S   UNL A   1      41.907  21.230  26.331  1.00  0.00     0.127 S 
ATOM     80  O   UNL A   1      40.540  21.641  26.011  1.00  0.00    -0.237 OA
ATOM     81  O   UNL A   1      42.492  20.268  25.401  1.00  0.00    -0.237 OA
ATOM     82  O   UNL A   1      42.133  20.961  27.748  1.00  0.00    -0.744 OA
ENDBRANCH  76  79
ENDBRANCH  48  72
BRANCH  60  83
ATOM     83  C   UNL A   1      45.840  29.946  29.457  1.00  0.00     0.023 A 
ATOM     84  C   UNL A   1      47.227  30.091  29.250  1.00  0.00     0.012 A 
ATOM     85  C   UNL A   1      44.956  30.636  28.608  1.00  0.00     0.148 A 
ATOM     86  C   UNL A   1      47.721  30.919  28.241  1.00  0.00     0.002 A 
ATOM     87  C   UNL A   1      45.451  31.416  27.568  1.00  0.00     0.091 A 
ATOM     88  F   UNL A   1      43.637  30.495  28.808  1.00  0.00    -0.205 F 
ATOM     89  C   UNL A   1      46.833  31.570  27.388  1.00  0.00     0.022 A 
BRANCH  87  90
ATOM     90  S   UNL A   1      44.347  32.147  26.356  1.00  0.00     0.127 S 
ATOM     91  O   UNL A   1      43.770  33.265  27.099  1.00  0.00    -0.237 OA
ATOM     92  O   UNL A   1      45.261  32.536  25.280  1.00  0.00    -0.237 OA
ATOM     93  O   UNL A   1      43.420  31.084  25.984  1.00  0.00    -0.744 OA
ENDBRANCH  87  90
ENDBRANCH  60  83
ENDBRANCH  34  35
ENDBRANCH  26  29
ENDBRANCH   1  25
TORSDOF 14
ENDMDL
MODEL 2
REMARK VINA RESULT:     -13.5      3.177      7.383
REMARK SMILES C[C@@H]1C(C(=O)NCCCNC(=O)c2ccc(-c3c4nc(c(-c5cccc(S(=O)(=O)[O-])c5F)c5ccc([nH]5)c(-c5cccc(S(=O)(=O)[O-])c5F)c5nc(c(-c6cccc(S(=O)(=O)[O-])c6F)c6ccc3[nH]6)C=C5)C=C4)cc2)=NC2=C1C(=O)C[C@H](c1ccccc1)C2
REMARK SMILES IDX 9 1 8 2 7 3 6 4 4 5 5 6 3 8 1 9 2 10 78 11 76 12 77 13 79 14
REMARK SMILES IDX 89 15 80 16 81 17 82 18 83 19 84 20 88 21 85 22 87 23 86 24
REMARK SMILES IDX 10 25 11 26 12 28 13 29 14 30 75 31 15 32 74 33 16 34 17 35
REMARK SMILES IDX 18 36 68 37 19 38 73 39 67 40 69 41 20 42 72 43 66 44 65 45
REMARK SMILES IDX 21 47 53 48 33 49 52 50 34 51 37 52 51 53 70 54 35 55 36 56
REMARK SMILES IDX 50 58 71 59 38 60 22 61 23 62 31 63 24 64 26 65 32 66 25 67
REMARK SMILES IDX 27 68 28 69 29 70 30 71 54 72 55 73 63 74 56 75 58 76 64 77
REMARK SMILES IDX 57 78 59 79 60 80 61 81 62 82 39 83 40 84 48 85 41 86 43 87
REMARK SMILES IDX 49 88 42 89 44 90 45 91 46 92 47 93
REMARK H PARENT 6 7 10 27 69 46 37 57
REMARK Flexibility Score: inf
ROOT
ATOM      1  C   UNL A   1      38.624  20.598  25.758  1.00  0.00     0.118 C 
ENDROOT
BRANCH   1   2
ATOM      2  C   UNL A   1      37.528  20.497  24.705  1.00  0.00     0.042 C 
BRANCH   2   3
ATOM      3  C   UNL A   1      36.648  21.750  24.674  1.00  0.00     0.118 C 
BRANCH   3   4
ATOM      4  N   UNL A   1      35.259  21.501  24.314  1.00  0.00    -0.351 N 
ATOM      5  C   UNL A   1      34.278  22.468  24.179  1.00  0.00     0.266 C 
ATOM      6  O   UNL A   1      33.659  22.600  23.132  1.00  0.00    -0.268 OA
ATOM      7  H   UNL A   1      34.996  20.566  24.154  1.00  0.00     0.163 HD
BRANCH   5   8
ATOM      8  C   UNL A   1      33.814  23.208  25.425  1.00  0.00     0.113 C 
ATOM      9  C   UNL A   1      33.860  21.972  27.557  1.00  0.00     0.020 C 
ATOM     10  C   UNL A   1      32.959  22.556  26.474  1.00  0.00     0.076 C 
ATOM     11  C   UNL A   1      32.330  23.845  26.863  1.00  0.00     0.026 C 
ATOM     12  N   UNL A   1      34.090  24.471  25.642  1.00  0.00    -0.251 NA
ATOM     13  C   UNL A   1      33.103  24.876  26.513  1.00  0.00     0.049 C 
ATOM     14  C   UNL A   1      30.873  24.052  26.718  1.00  0.00     0.161 C 
ATOM     15  C   UNL A   1      32.526  26.259  26.439  1.00  0.00     0.065 C 
ATOM     16  O   UNL A   1      30.106  23.252  27.252  1.00  0.00    -0.294 OA
ATOM     17  C   UNL A   1      30.373  25.166  25.783  1.00  0.00     0.089 C 
ATOM     18  C   UNL A   1      31.426  26.241  25.356  1.00  0.00     0.033 C 
BRANCH  18  19
ATOM     19  C   UNL A   1      31.983  26.141  23.921  1.00  0.00    -0.044 A 
ATOM     20  C   UNL A   1      31.463  25.204  23.000  1.00  0.00     0.004 A 
ATOM     21  C   UNL A   1      33.066  26.914  23.479  1.00  0.00     0.004 A 
ATOM     22  C   UNL A   1      31.916  25.120  21.682  1.00  0.00     0.000 A 
ATOM     23  C   UNL A   1      33.536  26.818  22.160  1.00  0.00     0.000 A 
ATOM     24  C   UNL A   1      32.951  25.936  21.257  1.00  0.00     0.000 A 
ENDBRANCH  18  19
ENDBRANCH   5   8
ENDBRANCH   3   4
ENDBRANCH   2   3
ENDBRANCH   1   2
BRANCH   1  25
ATOM     25  N   UNL A   1      39.592  19.500  25.671  1.00  0.00    -0.352 N 
ATOM     26  C   UNL A   1      40.948  19.505  25.956  1.00  0.00     0.251 C 
ATOM     27  H   UNL A   1      39.227  18.638  25.366  1.00  0.00     0.163 HD
ATOM     28  O   UNL A   1      41.649  18.565  25.658  1.00  0.00    -0.269 OA
BRANCH  26  29
ATOM     29  C   UNL A   1      41.519  20.710  26.592  1.00  0.00     0.039 A 
ATOM     30  C   UNL A   1      42.057  21.727  25.799  1.00  0.00     0.014 A 
ATOM     31  C   UNL A   1      41.415  20.856  27.970  1.00  0.00     0.014 A 
ATOM     32  C   UNL A   1      42.381  22.944  26.395  1.00  0.00     0.010 A 
ATOM     33  C   UNL A   1      41.604  22.097  28.530  1.00  0.00     0.010 A 
ATOM     34  C   UNL A   1      42.115  23.141  27.757  1.00  0.00    -0.014 A 
BRANCH  34  35
ATOM     35  C   UNL A   1      42.262  24.467  28.354  1.00  0.00     0.031 A 
ATOM     36  C   UNL A   1      41.105  25.401  28.199  1.00  0.00     0.074 A 
ATOM     37  C   UNL A   1      43.258  24.774  29.214  1.00  0.00     0.049 A 
ATOM     38  N   UNL A   1      41.104  26.564  27.635  1.00  0.00    -0.248 NA
ATOM     39  C   UNL A   1      39.778  24.965  28.659  1.00  0.00     0.031 C 
ATOM     40  C   UNL A   1      44.292  23.880  29.748  1.00  0.00     0.029 A 
ATOM     41  N   UNL A   1      43.435  25.912  29.943  1.00  0.00    -0.354 N 
ATOM     42  C   UNL A   1      39.827  27.096  27.832  1.00  0.00     0.074 A 
ATOM     43  C   UNL A   1      39.019  26.015  28.333  1.00  0.00     0.031 C 
ATOM     44  C   UNL A   1      44.765  24.393  30.902  1.00  0.00     0.029 A 
ATOM     45  C   UNL A   1      44.207  25.719  31.082  1.00  0.00     0.049 A 
ATOM     46  H   UNL A   1      43.053  26.784  29.687  1.00  0.00     0.167 HD
ATOM     47  C   UNL A   1      39.584  28.435  27.745  1.00  0.00     0.034 A 
ATOM     48  C   UNL A   1      44.332  26.561  32.133  1.00  0.00     0.034 A 
ATOM     49  C   UNL A   1      40.700  29.140  27.172  1.00  0.00     0.049 A 
ATOM     50  C   UNL A   1      43.931  27.910  31.672  1.00  0.00     0.074 A 
ATOM     51  C   UNL A   1      41.397  29.071  25.983  1.00  0.00     0.029 A 
ATOM     52  N   UNL A   1      41.489  29.868  28.030  1.00  0.00    -0.354 N 
ATOM     53  N   UNL A   1      44.608  28.605  30.800  1.00  0.00    -0.248 NA
ATOM     54  C   UNL A   1      42.553  28.329  31.870  1.00  0.00     0.031 C 
ATOM     55  C   UNL A   1      42.753  29.316  26.346  1.00  0.00     0.029 A 
ATOM     56  C   UNL A   1      42.789  29.576  27.718  1.00  0.00     0.049 A 
ATOM     57  H   UNL A   1      41.179  30.482  28.734  1.00  0.00     0.167 HD
ATOM     58  C   UNL A   1      43.638  29.221  30.022  1.00  0.00     0.074 A 
ATOM     59  C   UNL A   1      42.409  29.123  30.806  1.00  0.00     0.031 C 
ATOM     60  C   UNL A   1      43.850  29.479  28.696  1.00  0.00     0.034 A 
BRANCH  47  61
ATOM     61  C   UNL A   1      38.479  29.197  28.443  1.00  0.00     0.023 A 
ATOM     62  C   UNL A   1      37.691  30.069  27.652  1.00  0.00     0.012 A 
ATOM     63  C   UNL A   1      38.349  29.312  29.843  1.00  0.00     0.148 A 
ATOM     64  C   UNL A   1      36.863  31.040  28.224  1.00  0.00     0.002 A 
ATOM     65  C   UNL A   1      37.460  30.226  30.406  1.00  0.00     0.091 A 
ATOM     66  F   UNL A   1      39.177  28.640  30.648  1.00  0.00    -0.205 F 
ATOM     67  C   UNL A   1      36.741  31.114  29.604  1.00  0.00     0.022 A 
BRANCH  65  68
ATOM     68  S   UNL A   1      37.212  30.315  32.183  1.00  0.00     0.127 S 
ATOM     69  O   UNL A   1      38.466  30.915  32.627  1.00  0.00    -0.237 OA
ATOM     70  O   UNL A   1      36.039  31.185  32.282  1.00  0.00    -0.237 OA
ATOM     71  O   UNL A   1      36.969  28.941  32.605  1.00  0.00    -0.744 OA
ENDBRANCH  65  68
ENDBRANCH  47  61
BRANCH  48  72
ATOM     72  C   UNL A   1      44.609  26.242  33.550  1.00  0.00     0.023 A 
ATOM     73  C   UNL A   1      45.941  26.131  33.993  1.00  0.00     0.012 A 
ATOM     74  C   UNL A   1      43.582  26.276  34.521  1.00  0.00     0.148 A 
ATOM     75  C   UNL A   1      46.241  26.072  35.359  1.00  0.00     0.002 A 
ATOM     76  C   UNL A   1      43.884  26.201  35.877  1.00  0.00     0.091 A 
ATOM     77  F   UNL A   1      42.318  26.474  34.122  1.00  0.00    -0.205 F 
ATOM     78  C   UNL A   1      45.215  26.109  36.300  1.00  0.00     0.022 A 
BRANCH  76  79
ATOM     79  S   UNL A   1      42.603  26.254  37.139  1.00  0.00     0.127 S 
ATOM     80  O   UNL A   1      41.905  27.499  36.818  1.00  0.00    -0.237 OA
ATOM     81  O   UNL A   1      41.850  25.036  36.855  1.00  0.00    -0.237 OA
ATOM     82  O   UNL A   1      43.311  26.279  38.416  1.00  0.00    -0.744 OA
ENDBRANCH  76  79
ENDBRANCH  48  72
BRANCH  60  83
ATOM     83  C   UNL A   1      45.245  29.344  28.137  1.00  0.00     0.023 A 
ATOM     84  C   UNL A   1      46.190  30.388  28.214  1.00  0.00     0.012 A 
ATOM     85  C   UNL A   1      45.678  28.073  27.715  1.00  0.00     0.148 A 
ATOM     86  C   UNL A   1      47.523  30.179  27.857  1.00  0.00     0.002 A 
ATOM     87  C   UNL A   1      47.018  27.855  27.413  1.00  0.00     0.091 A 
ATOM     88  F   UNL A   1      44.776  27.082  27.644  1.00  0.00    -0.205 F 
ATOM     89  C   UNL A   1      47.942  28.909  27.472  1.00  0.00     0.022 A 
BRANCH  87  90
ATOM     90  S   UNL A   1      47.628  26.204  27.061  1.00  0.00     0.127 S 
ATOM     91  O   UNL A   1      49.073  26.413  27.015  1.00  0.00    -0.237 OA
ATOM     92  O   UNL A   1      47.158  25.433  28.214  1.00  0.00    -0.237 OA
ATOM     93  O   UNL A   1      47.001  25.819  25.801  1.00  0.00    -0.744 OA
ENDBRANCH  87  90
ENDBRANCH  60  83
ENDBRANCH  34  35
ENDBRANCH  26  29
ENDBRANCH   1  25
TORSDOF 14
ENDMDL
MODEL 3
REMARK VINA RESULT:     -13.5      1.504      1.849
REMARK SMILES C[C@@H]1C(C(=O)NCCCNC(=O)c2ccc(-c3c4nc(c(-c5cccc(S(=O)(=O)[O-])c5F)c5ccc([nH]5)c(-c5cccc(S(=O)(=O)[O-])c5F)c5nc(c(-c6cccc(S(=O)(=O)[O-])c6F)c6ccc3[nH]6)C=C5)C=C4)cc2)=NC2=C1C(=O)C[C@H](c1ccccc1)C2
REMARK SMILES IDX 9 1 8 2 7 3 6 4 4 5 5 6 3 8 1 9 2 10 78 11 76 12 77 13 79 14
REMARK SMILES IDX 89 15 80 16 81 17 82 18 83 19 84 20 88 21 85 22 87 23 86 24
REMARK SMILES IDX 10 25 11 26 12 28 13 29 14 30 75 31 15 32 74 33 16 34 17 35
REMARK SMILES IDX 18 36 68 37 19 38 73 39 67 40 69 41 20 42 72 43 66 44 65 45
REMARK SMILES IDX 21 47 53 48 33 49 52 50 34 51 37 52 51 53 70 54 35 55 36 56
REMARK SMILES IDX 50 58 71 59 38 60 22 61 23 62 31 63 24 64 26 65 32 66 25 67
REMARK SMILES IDX 27 68 28 69 29 70 30 71 54 72 55 73 63 74 56 75 58 76 64 77
REMARK SMILES IDX 57 78 59 79 60 80 61 81 62 82 39 83 40 84 48 85 41 86 43 87
REMARK SMILES IDX 49 88 42 89 44 90 45 91 46 92 47 93
REMARK H PARENT 6 7 10 27 69 46 37 57
REMARK Flexibility Score: inf
ROOT
ATOM      1  C   UNL A   1      34.540  29.566  26.785  1.00  0.00     0.118 C 
ENDROOT
BRANCH   1   2
ATOM      2  C   UNL A   1      33.284  28.883  26.258  1.00  0.00     0.042 C 
BRANCH   2   3
ATOM      3  C   UNL A   1      33.413  27.357  26.279  1.00  0.00     0.118 C 
BRANCH   3   4
ATOM      4  N   UNL A   1      33.959  26.783  25.057  1.00  0.00    -0.351 N 
ATOM      5  C   UNL A   1      33.233  26.486  23.915  1.00  0.00     0.266 C 
ATOM      6  O   UNL A   1      33.528  26.974  22.833  1.00  0.00    -0.268 OA
ATOM      7  H   UNL A   1      34.923  26.590  25.040  1.00  0.00     0.163 HD
BRANCH   5   8
ATOM      8  C   UNL A   1      32.212  25.359  23.978  1.00  0.00     0.113 C 
ATOM      9  C   UNL A   1      29.831  25.993  24.011  1.00  0.00     0.020 C 
ATOM     10  C   UNL A   1      30.984  25.437  24.839  1.00  0.00     0.076 C 
ATOM     11  C   UNL A   1      30.927  23.962  25.013  1.00  0.00     0.026 C 
ATOM     12  N   UNL A   1      32.360  24.234  23.324  1.00  0.00    -0.251 NA
ATOM     13  C   UNL A   1      31.581  23.342  24.028  1.00  0.00     0.049 C 
ATOM     14  C   UNL A   1      31.048  23.351  26.354  1.00  0.00     0.161 C 
ATOM     15  C   UNL A   1      31.998  21.909  24.186  1.00  0.00     0.065 C 
ATOM     16  O   UNL A   1      30.279  23.717  27.242  1.00  0.00    -0.294 OA
ATOM     17  C   UNL A   1      32.222  22.398  26.629  1.00  0.00     0.089 C 
ATOM     18  C   UNL A   1      32.978  21.843  25.376  1.00  0.00     0.033 C 
BRANCH  18  19
ATOM     19  C   UNL A   1      34.358  22.457  25.066  1.00  0.00    -0.044 A 
ATOM     20  C   UNL A   1      34.912  23.462  25.890  1.00  0.00     0.004 A 
ATOM     21  C   UNL A   1      35.099  22.107  23.927  1.00  0.00     0.004 A 
ATOM     22  C   UNL A   1      36.179  24.005  25.661  1.00  0.00     0.000 A 
ATOM     23  C   UNL A   1      36.363  22.665  23.684  1.00  0.00     0.000 A 
ATOM     24  C   UNL A   1      36.911  23.598  24.558  1.00  0.00     0.000 A 
ENDBRANCH  18  19
ENDBRANCH   5   8
ENDBRANCH   3   4
ENDBRANCH   2   3
ENDBRANCH   1   2
BRANCH   1  25
ATOM     25  N   UNL A   1      34.270  30.906  27.317  1.00  0.00    -0.352 N 
ATOM     26  C   UNL A   1      34.920  31.590  28.333  1.00  0.00     0.251 C 
ATOM     27  H   UNL A   1      33.523  31.386  26.894  1.00  0.00     0.163 HD
ATOM     28  O   UNL A   1      34.462  32.616  28.782  1.00  0.00    -0.269 OA
BRANCH  26  29
ATOM     29  C   UNL A   1      36.160  31.005  28.881  1.00  0.00     0.039 A 
ATOM     30  C   UNL A   1      36.238  29.630  29.112  1.00  0.00     0.014 A 
ATOM     31  C   UNL A   1      37.268  31.825  29.059  1.00  0.00     0.014 A 
ATOM     32  C   UNL A   1      37.477  29.067  29.411  1.00  0.00     0.010 A 
ATOM     33  C   UNL A   1      38.508  31.253  29.216  1.00  0.00     0.010 A 
ATOM     34  C   UNL A   1      38.620  29.877  29.423  1.00  0.00    -0.014 A 
BRANCH  34  35
ATOM     35  C   UNL A   1      39.950  29.278  29.538  1.00  0.00     0.031 A 
ATOM     36  C   UNL A   1      40.458  29.044  30.924  1.00  0.00     0.074 A 
ATOM     37  C   UNL A   1      40.595  28.728  28.486  1.00  0.00     0.049 A 
ATOM     38  N   UNL A   1      41.534  29.521  31.457  1.00  0.00    -0.248 NA
ATOM     39  C   UNL A   1      39.643  28.244  31.849  1.00  0.00     0.031 C 
ATOM     40  C   UNL A   1      40.101  28.563  27.114  1.00  0.00     0.029 A 
ATOM     41  N   UNL A   1      41.761  28.022  28.476  1.00  0.00    -0.354 N 
ATOM     42  C   UNL A   1      41.640  28.936  32.721  1.00  0.00     0.074 A 
ATOM     43  C   UNL A   1      40.381  28.280  32.963  1.00  0.00     0.031 C 
ATOM     44  C   UNL A   1      40.788  27.570  26.514  1.00  0.00     0.029 A 
ATOM     45  C   UNL A   1      41.874  27.166  27.388  1.00  0.00     0.049 A 
ATOM     46  H   UNL A   1      42.453  28.110  29.171  1.00  0.00     0.167 HD
ATOM     47  C   UNL A   1      42.826  28.877  33.391  1.00  0.00     0.034 A 
ATOM     48  C   UNL A   1      42.757  26.153  27.237  1.00  0.00     0.034 A 
ATOM     49  C   UNL A   1      43.825  29.711  32.773  1.00  0.00     0.049 A 
ATOM     50  C   UNL A   1      43.886  26.406  28.160  1.00  0.00     0.074 A 
ATOM     51  C   UNL A   1      43.929  31.052  32.467  1.00  0.00     0.029 A 
ATOM     52  N   UNL A   1      44.803  29.079  32.043  1.00  0.00    -0.354 N 
ATOM     53  N   UNL A   1      44.722  27.398  28.022  1.00  0.00    -0.248 NA
ATOM     54  C   UNL A   1      43.853  25.798  29.479  1.00  0.00     0.031 C 
ATOM     55  C   UNL A   1      44.609  31.084  31.215  1.00  0.00     0.029 A 
ATOM     56  C   UNL A   1      44.926  29.768  30.867  1.00  0.00     0.049 A 
ATOM     57  H   UNL A   1      45.316  28.284  32.313  1.00  0.00     0.167 HD
ATOM     58  C   UNL A   1      44.962  27.830  29.320  1.00  0.00     0.074 A 
ATOM     59  C   UNL A   1      44.512  26.731  30.171  1.00  0.00     0.031 C 
ATOM     60  C   UNL A   1      45.216  29.145  29.595  1.00  0.00     0.034 A 
BRANCH  47  61
ATOM     61  C   UNL A   1      43.226  27.851  34.427  1.00  0.00     0.023 A 
ATOM     62  C   UNL A   1      43.732  28.334  35.660  1.00  0.00     0.012 A 
ATOM     63  C   UNL A   1      43.388  26.474  34.168  1.00  0.00     0.148 A 
ATOM     64  C   UNL A   1      44.412  27.504  36.556  1.00  0.00     0.002 A 
ATOM     65  C   UNL A   1      43.993  25.636  35.102  1.00  0.00     0.091 A 
ATOM     66  F   UNL A   1      43.085  25.982  32.963  1.00  0.00    -0.205 F 
ATOM     67  C   UNL A   1      44.536  26.151  36.281  1.00  0.00     0.022 A 
BRANCH  65  68
ATOM     68  S   UNL A   1      44.118  23.864  34.827  1.00  0.00     0.127 S 
ATOM     69  O   UNL A   1      44.760  23.419  36.059  1.00  0.00    -0.237 OA
ATOM     70  O   UNL A   1      42.712  23.480  34.685  1.00  0.00    -0.237 OA
ATOM     71  O   UNL A   1      44.898  23.721  33.604  1.00  0.00    -0.744 OA
ENDBRANCH  65  68
ENDBRANCH  47  61
BRANCH  48  72
ATOM     72  C   UNL A   1      42.606  24.895  26.473  1.00  0.00     0.023 A 
ATOM     73  C   UNL A   1      43.524  24.583  25.454  1.00  0.00     0.012 A 
ATOM     74  C   UNL A   1      41.706  23.890  26.894  1.00  0.00     0.148 A 
ATOM     75  C   UNL A   1      43.556  23.306  24.881  1.00  0.00     0.002 A 
ATOM     76  C   UNL A   1      41.730  22.626  26.312  1.00  0.00     0.091 A 
ATOM     77  F   UNL A   1      40.888  24.140  27.926  1.00  0.00    -0.205 F 
ATOM     78  C   UNL A   1      42.662  22.327  25.311  1.00  0.00     0.022 A 
BRANCH  76  79
ATOM     79  S   UNL A   1      40.608  21.319  26.832  1.00  0.00     0.127 S 
ATOM     80  O   UNL A   1      39.309  21.843  26.409  1.00  0.00    -0.237 OA
ATOM     81  O   UNL A   1      41.093  20.180  26.057  1.00  0.00    -0.237 OA
ATOM     82  O   UNL A   1      40.768  21.217  28.279  1.00  0.00    -0.744 OA
ENDBRANCH  76  79
ENDBRANCH  48  72
BRANCH  60  83
ATOM     83  C   UNL A   1      45.508  30.089  28.454  1.00  0.00     0.023 A 
ATOM     84  C   UNL A   1      44.487  30.793  27.781  1.00  0.00     0.012 A 
ATOM     85  C   UNL A   1      46.847  30.432  28.194  1.00  0.00     0.148 A 
ATOM     86  C   UNL A   1      44.793  31.793  26.856  1.00  0.00     0.002 A 
ATOM     87  C   UNL A   1      47.146  31.466  27.314  1.00  0.00     0.091 A 
ATOM     88  F   UNL A   1      47.815  29.761  28.837  1.00  0.00    -0.205 F 
ATOM     89  C   UNL A   1      46.122  32.142  26.634  1.00  0.00     0.022 A 
BRANCH  87  90
ATOM     90  S   UNL A   1      48.832  32.049  27.113  1.00  0.00     0.127 S 
ATOM     91  O   UNL A   1      48.669  33.141  26.156  1.00  0.00    -0.237 OA
ATOM     92  O   UNL A   1      49.191  32.473  28.468  1.00  0.00    -0.237 OA
ATOM     93  O   UNL A   1      49.589  30.896  26.639  1.00  0.00    -0.744 OA
ENDBRANCH  87  90
ENDBRANCH  60  83
ENDBRANCH  34  35
ENDBRANCH  26  29
ENDBRANCH   1  25
TORSDOF 14
ENDMDL
