MODEL 1
REMARK VINA RESULT:     -11.2      0.000      0.000
REMARK SMILES CCCC[C@@H](Sc1nc(OCCC2CCCCC2)cc(OCCC2CCCCC2)n1)C(=O)NCCCNC(=O)c1ccc(-c2c3nc(c(-c4cccc(S(=O)(=O)[O-])c4F)c4ccc([nH]4)c(-c4cccc(S(=O)(=O)[O-])c4F)c4nc(c(-c5cccc(S(=O)(=O)[O-])c5F)c5ccc2[nH]5)C=C4)C=C3)cc1
REMARK SMILES IDX 31 1 32 2 33 3 5 5 4 6 3 7 2 8 1 9 6 10 7 11 8 12 30 13 9 14
REMARK SMILES IDX 20 15 19 16 10 17 11 18 12 19 13 20 14 21 18 22 15 23 17 24
REMARK SMILES IDX 16 25 21 26 22 27 23 28 24 29 25 30 29 31 26 32 28 33 27 34
REMARK SMILES IDX 34 35 35 36 36 37 37 38 38 39 39 41 40 42 41 43 102 44 42 45
REMARK SMILES IDX 101 46 43 47 44 48 45 49 95 50 46 51 100 52 94 53 96 54
REMARK SMILES IDX 47 55 99 56 93 57 92 58 48 60 80 61 60 62 79 63 61 64 64 65
REMARK SMILES IDX 78 66 97 67 62 68 63 69 77 71 98 72 65 73 49 74 50 75 58 76
REMARK SMILES IDX 51 77 53 78 59 79 52 80 54 81 55 82 56 83 57 84 81 85 82 86
REMARK SMILES IDX 90 87 83 88 85 89 91 90 84 91 86 92 87 93 88 94 89 95 66 96
REMARK SMILES IDX 67 97 75 98 68 99 70 100 76 101 69 102 71 103 72 104 73 105
REMARK SMILES IDX 74 106
REMARK H PARENT 33 4 37 40 96 59 64 70
REMARK Flexibility Score: inf
ROOT
ATOM      1  C   UNL A   1      36.258  22.570  23.727  1.00  0.00     0.233 C 
ATOM      2  O   UNL A   1      36.682  23.432  22.952  1.00  0.00    -0.274 OA
ATOM      3  N   UNL A   1      37.137  21.619  24.174  1.00  0.00    -0.355 N 
ATOM      4  H   UNL A   1      38.049  21.694  23.811  1.00  0.00     0.163 HD
ENDROOT
BRANCH   1   5
ATOM      5  C   UNL A   1      34.785  22.556  24.180  1.00  0.00     0.144 C 
BRANCH   5   6
ATOM      6  C   UNL A   1      34.623  23.654  25.262  1.00  0.00     0.025 C 
BRANCH   6   7
ATOM      7  C   UNL A   1      34.347  23.270  26.717  1.00  0.00     0.001 C 
BRANCH   7   8
ATOM      8  C   UNL A   1      32.945  22.754  27.032  1.00  0.00    -0.003 C 
ATOM      9  C   UNL A   1      31.836  23.704  26.615  1.00  0.00     0.004 C 
ENDBRANCH   7   8
ENDBRANCH   6   7
ENDBRANCH   5   6
BRANCH   5  10
ATOM     10  S   UNL A   1      33.841  22.514  22.573  1.00  0.00    -0.073 SA
BRANCH  10  11
ATOM     11  C   UNL A   1      33.011  24.050  22.568  1.00  0.00     0.195 A 
ATOM     12  N   UNL A   1      31.717  24.037  22.913  1.00  0.00    -0.187 NA
ATOM     13  N   UNL A   1      33.709  25.131  22.235  1.00  0.00    -0.187 NA
ATOM     14  C   UNL A   1      31.045  25.184  22.788  1.00  0.00     0.221 A 
ATOM     15  C   UNL A   1      33.010  26.253  22.082  1.00  0.00     0.221 A 
ATOM     16  C   UNL A   1      31.646  26.298  22.262  1.00  0.00     0.136 A 
BRANCH  14  17
ATOM     17  O   UNL A   1      29.802  25.121  23.350  1.00  0.00    -0.477 OA
BRANCH  17  18
ATOM     18  C   UNL A   1      29.329  26.073  24.295  1.00  0.00     0.231 C 
BRANCH  18  19
ATOM     19  C   UNL A   1      28.192  27.041  23.872  1.00  0.00     0.045 C 
BRANCH  19  20
ATOM     20  C   UNL A   1      28.565  28.210  22.956  1.00  0.00    -0.008 C 
ATOM     21  C   UNL A   1      27.449  29.236  22.720  1.00  0.00     0.004 C 
ATOM     22  C   UNL A   1      29.823  28.949  23.418  1.00  0.00     0.004 C 
ATOM     23  C   UNL A   1      27.883  30.224  21.626  1.00  0.00     0.000 C 
ATOM     24  C   UNL A   1      30.323  29.848  22.294  1.00  0.00     0.000 C 
ATOM     25  C   UNL A   1      29.254  30.856  21.883  1.00  0.00     0.000 C 
ENDBRANCH  19  20
ENDBRANCH  18  19
ENDBRANCH  17  18
ENDBRANCH  14  17
BRANCH  15  26
ATOM     26  O   UNL A   1      33.772  27.279  21.603  1.00  0.00    -0.477 OA
BRANCH  26  27
ATOM     27  C   UNL A   1      33.831  28.498  22.332  1.00  0.00     0.231 C 
BRANCH  27  28
ATOM     28  C   UNL A   1      34.045  28.243  23.835  1.00  0.00     0.045 C 
BRANCH  28  29
ATOM     29  C   UNL A   1      32.843  28.497  24.786  1.00  0.00    -0.008 C 
ATOM     30  C   UNL A   1      32.465  27.250  25.607  1.00  0.00     0.004 C 
ATOM     31  C   UNL A   1      33.020  29.807  25.571  1.00  0.00     0.004 C 
ATOM     32  C   UNL A   1      31.763  27.463  26.943  1.00  0.00     0.000 C 
ATOM     33  C   UNL A   1      32.068  29.950  26.749  1.00  0.00     0.000 C 
ATOM     34  C   UNL A   1      32.153  28.740  27.656  1.00  0.00     0.000 C 
ENDBRANCH  28  29
ENDBRANCH  27  28
ENDBRANCH  26  27
ENDBRANCH  15  26
ENDBRANCH  10  11
ENDBRANCH   5  10
ENDBRANCH   1   5
BRANCH   3  35
ATOM     35  C   UNL A   1      36.933  20.515  25.104  1.00  0.00     0.117 C 
BRANCH  35  36
ATOM     36  C   UNL A   1      38.122  19.568  25.121  1.00  0.00     0.042 C 
BRANCH  36  37
ATOM     37  C   UNL A   1      39.314  20.143  25.865  1.00  0.00     0.118 C 
BRANCH  37  38
ATOM     38  N   UNL A   1      40.445  19.222  25.887  1.00  0.00    -0.352 N 
ATOM     39  C   UNL A   1      41.782  19.502  25.991  1.00  0.00     0.251 C 
ATOM     40  H   UNL A   1      40.216  18.266  25.818  1.00  0.00     0.163 HD
ATOM     41  O   UNL A   1      42.616  18.619  25.788  1.00  0.00    -0.269 OA
BRANCH  39  42
ATOM     42  C   UNL A   1      42.208  20.871  26.329  1.00  0.00     0.039 A 
ATOM     43  C   UNL A   1      42.414  21.212  27.667  1.00  0.00     0.014 A 
ATOM     44  C   UNL A   1      42.430  21.807  25.314  1.00  0.00     0.014 A 
ATOM     45  C   UNL A   1      42.903  22.480  27.982  1.00  0.00     0.010 A 
ATOM     46  C   UNL A   1      43.007  23.029  25.623  1.00  0.00     0.010 A 
ATOM     47  C   UNL A   1      43.234  23.385  26.960  1.00  0.00    -0.014 A 
BRANCH  47  48
ATOM     48  C   UNL A   1      43.800  24.722  27.260  1.00  0.00     0.031 A 
ATOM     49  C   UNL A   1      42.903  25.805  27.798  1.00  0.00     0.074 A 
ATOM     50  C   UNL A   1      45.091  24.982  26.974  1.00  0.00     0.049 A 
ATOM     51  N   UNL A   1      43.179  27.060  28.041  1.00  0.00    -0.248 NA
ATOM     52  C   UNL A   1      41.502  25.439  28.072  1.00  0.00     0.031 C 
ATOM     53  C   UNL A   1      46.039  24.031  26.387  1.00  0.00     0.029 A 
ATOM     54  N   UNL A   1      45.824  26.133  27.115  1.00  0.00    -0.354 N 
ATOM     55  C   UNL A   1      41.988  27.634  28.467  1.00  0.00     0.074 A 
ATOM     56  C   UNL A   1      40.973  26.608  28.401  1.00  0.00     0.031 C 
ATOM     57  C   UNL A   1      47.228  24.634  26.229  1.00  0.00     0.029 A 
ATOM     58  C   UNL A   1      47.120  26.021  26.666  1.00  0.00     0.049 A 
ATOM     59  H   UNL A   1      45.458  26.961  27.502  1.00  0.00     0.167 HD
ATOM     60  C   UNL A   1      41.766  28.893  28.913  1.00  0.00     0.034 A 
ATOM     61  C   UNL A   1      48.103  26.940  26.606  1.00  0.00     0.034 A 
ATOM     62  C   UNL A   1      42.787  29.897  29.014  1.00  0.00     0.049 A 
ATOM     63  C   UNL A   1      47.827  28.330  27.117  1.00  0.00     0.074 A 
ATOM     64  C   UNL A   1      42.682  31.188  29.502  1.00  0.00     0.029 A 
ATOM     65  N   UNL A   1      44.107  29.722  28.623  1.00  0.00    -0.354 N 
ATOM     66  N   UNL A   1      46.728  28.816  27.639  1.00  0.00    -0.248 NA
ATOM     67  C   UNL A   1      48.940  29.289  27.062  1.00  0.00     0.031 C 
ATOM     68  C   UNL A   1      43.934  31.799  29.390  1.00  0.00     0.029 A 
ATOM     69  C   UNL A   1      44.826  30.880  28.861  1.00  0.00     0.049 A 
ATOM     70  H   UNL A   1      44.477  28.897  28.235  1.00  0.00     0.167 HD
ATOM     71  C   UNL A   1      47.030  30.118  28.021  1.00  0.00     0.074 A 
ATOM     72  C   UNL A   1      48.422  30.338  27.685  1.00  0.00     0.031 C 
ATOM     73  C   UNL A   1      46.228  31.054  28.585  1.00  0.00     0.034 A 
BRANCH  60  74
ATOM     74  C   UNL A   1      40.378  29.233  29.390  1.00  0.00     0.023 A 
ATOM     75  C   UNL A   1      39.425  29.700  28.460  1.00  0.00     0.012 A 
ATOM     76  C   UNL A   1      39.995  29.032  30.730  1.00  0.00     0.148 A 
ATOM     77  C   UNL A   1      38.123  29.991  28.862  1.00  0.00     0.002 A 
ATOM     78  C   UNL A   1      38.682  29.280  31.113  1.00  0.00     0.091 A 
ATOM     79  F   UNL A   1      40.920  28.605  31.601  1.00  0.00    -0.205 F 
ATOM     80  C   UNL A   1      37.748  29.770  30.184  1.00  0.00     0.022 A 
BRANCH  78  81
ATOM     81  S   UNL A   1      38.074  28.952  32.771  1.00  0.00     0.127 S 
ATOM     82  O   UNL A   1      36.720  29.503  32.703  1.00  0.00    -0.237 OA
ATOM     83  O   UNL A   1      38.136  27.493  32.837  1.00  0.00    -0.237 OA
ATOM     84  O   UNL A   1      38.979  29.644  33.678  1.00  0.00    -0.744 OA
ENDBRANCH  78  81
ENDBRANCH  60  74
BRANCH  61  85
ATOM     85  C   UNL A   1      49.458  26.571  26.101  1.00  0.00     0.023 A 
ATOM     86  C   UNL A   1      50.279  25.733  26.879  1.00  0.00     0.012 A 
ATOM     87  C   UNL A   1      49.942  27.052  24.870  1.00  0.00     0.148 A 
ATOM     88  C   UNL A   1      51.576  25.423  26.469  1.00  0.00     0.002 A 
ATOM     89  C   UNL A   1      51.214  26.693  24.438  1.00  0.00     0.091 A 
ATOM     90  F   UNL A   1      49.152  27.856  24.144  1.00  0.00    -0.205 F 
ATOM     91  C   UNL A   1      52.041  25.897  25.245  1.00  0.00     0.022 A 
BRANCH  89  92
ATOM     92  S   UNL A   1      51.844  27.153  22.820  1.00  0.00     0.127 S 
ATOM     93  O   UNL A   1      51.944  28.605  22.939  1.00  0.00    -0.237 OA
ATOM     94  O   UNL A   1      53.126  26.447  22.779  1.00  0.00    -0.237 OA
ATOM     95  O   UNL A   1      50.861  26.660  21.864  1.00  0.00    -0.744 OA
ENDBRANCH  89  92
ENDBRANCH  61  85
BRANCH  73  96
ATOM     96  C   UNL A   1      46.843  32.382  28.937  1.00  0.00     0.023 A 
ATOM     97  C   UNL A   1      47.468  32.561  30.185  1.00  0.00     0.012 A 
ATOM     98  C   UNL A   1      46.866  33.428  27.992  1.00  0.00     0.148 A 
ATOM     99  C   UNL A   1      48.079  33.773  30.503  1.00  0.00     0.002 A 
ATOM    100  C   UNL A   1      47.522  34.614  28.296  1.00  0.00     0.091 A 
ATOM    101  F   UNL A   1      46.250  33.242  26.816  1.00  0.00    -0.205 F 
ATOM    102  C   UNL A   1      48.117  34.793  29.556  1.00  0.00     0.022 A 
BRANCH 100 103
ATOM    103  S   UNL A   1      47.710  35.944  27.103  1.00  0.00     0.127 S 
ATOM    104  O   UNL A   1      46.398  35.949  26.456  1.00  0.00    -0.237 OA
ATOM    105  O   UNL A   1      47.970  37.097  27.965  1.00  0.00    -0.237 OA
ATOM    106  O   UNL A   1      48.826  35.563  26.248  1.00  0.00    -0.744 OA
ENDBRANCH 100 103
ENDBRANCH  73  96
ENDBRANCH  47  48
ENDBRANCH  39  42
ENDBRANCH  37  38
ENDBRANCH  36  37
ENDBRANCH  35  36
ENDBRANCH   3  35
TORSDOF 26
ENDMDL
MODEL 2
REMARK VINA RESULT:     -11.0      0.687      7.293
REMARK SMILES CCCC[C@@H](Sc1nc(OCCC2CCCCC2)cc(OCCC2CCCCC2)n1)C(=O)NCCCNC(=O)c1ccc(-c2c3nc(c(-c4cccc(S(=O)(=O)[O-])c4F)c4ccc([nH]4)c(-c4cccc(S(=O)(=O)[O-])c4F)c4nc(c(-c5cccc(S(=O)(=O)[O-])c5F)c5ccc2[nH]5)C=C4)C=C3)cc1
REMARK SMILES IDX 31 1 32 2 33 3 5 5 4 6 3 7 2 8 1 9 6 10 7 11 8 12 30 13 9 14
REMARK SMILES IDX 20 15 19 16 10 17 11 18 12 19 13 20 14 21 18 22 15 23 17 24
REMARK SMILES IDX 16 25 21 26 22 27 23 28 24 29 25 30 29 31 26 32 28 33 27 34
REMARK SMILES IDX 34 35 35 36 36 37 37 38 38 39 39 41 40 42 41 43 102 44 42 45
REMARK SMILES IDX 101 46 43 47 44 48 45 49 95 50 46 51 100 52 94 53 96 54
REMARK SMILES IDX 47 55 99 56 93 57 92 58 48 60 80 61 60 62 79 63 61 64 64 65
REMARK SMILES IDX 78 66 97 67 62 68 63 69 77 71 98 72 65 73 49 74 50 75 58 76
REMARK SMILES IDX 51 77 53 78 59 79 52 80 54 81 55 82 56 83 57 84 81 85 82 86
REMARK SMILES IDX 90 87 83 88 85 89 91 90 84 91 86 92 87 93 88 94 89 95 66 96
REMARK SMILES IDX 67 97 75 98 68 99 70 100 76 101 69 102 71 103 72 104 73 105
REMARK SMILES IDX 74 106
REMARK H PARENT 33 4 37 40 96 59 64 70
REMARK Flexibility Score: inf
ROOT
ATOM      1  C   UNL A   1      36.362  22.647  23.638  1.00  0.00     0.233 C 
ATOM      2  O   UNL A   1      36.801  23.463  22.823  1.00  0.00    -0.274 OA
ATOM      3  N   UNL A   1      37.218  21.686  24.108  1.00  0.00    -0.355 N 
ATOM      4  H   UNL A   1      38.126  21.717  23.728  1.00  0.00     0.163 HD
ENDROOT
BRANCH   1   5
ATOM      5  C   UNL A   1      34.898  22.697  24.114  1.00  0.00     0.144 C 
BRANCH   5   6
ATOM      6  C   UNL A   1      34.791  23.832  25.164  1.00  0.00     0.025 C 
BRANCH   6   7
ATOM      7  C   UNL A   1      33.622  23.865  26.150  1.00  0.00     0.001 C 
BRANCH   7   8
ATOM      8  C   UNL A   1      33.156  22.519  26.701  1.00  0.00    -0.003 C 
ATOM      9  C   UNL A   1      34.109  21.911  27.714  1.00  0.00     0.004 C 
ENDBRANCH   7   8
ENDBRANCH   6   7
ENDBRANCH   5   6
BRANCH   5  10
ATOM     10  S   UNL A   1      33.926  22.640  22.524  1.00  0.00    -0.073 SA
BRANCH  10  11
ATOM     11  C   UNL A   1      33.069  24.161  22.535  1.00  0.00     0.195 A 
ATOM     12  N   UNL A   1      31.787  24.128  22.923  1.00  0.00    -0.187 NA
ATOM     13  N   UNL A   1      33.737  25.252  22.172  1.00  0.00    -0.187 NA
ATOM     14  C   UNL A   1      31.092  25.262  22.812  1.00  0.00     0.221 A 
ATOM     15  C   UNL A   1      33.013  26.361  22.034  1.00  0.00     0.221 A 
ATOM     16  C   UNL A   1      31.655  26.383  22.258  1.00  0.00     0.136 A 
BRANCH  14  17
ATOM     17  O   UNL A   1      29.868  25.181  23.414  1.00  0.00    -0.477 OA
BRANCH  17  18
ATOM     18  C   UNL A   1      29.369  26.183  24.291  1.00  0.00     0.231 C 
BRANCH  18  19
ATOM     19  C   UNL A   1      28.167  27.049  23.827  1.00  0.00     0.045 C 
BRANCH  19  20
ATOM     20  C   UNL A   1      28.473  28.281  22.971  1.00  0.00    -0.008 C 
ATOM     21  C   UNL A   1      27.381  29.358  22.965  1.00  0.00     0.004 C 
ATOM     22  C   UNL A   1      29.809  28.937  23.331  1.00  0.00     0.004 C 
ATOM     23  C   UNL A   1      27.719  30.425  21.911  1.00  0.00     0.000 C 
ATOM     24  C   UNL A   1      30.204  29.915  22.233  1.00  0.00     0.000 C 
ATOM     25  C   UNL A   1      29.137  30.989  22.045  1.00  0.00     0.000 C 
ENDBRANCH  19  20
ENDBRANCH  18  19
ENDBRANCH  17  18
ENDBRANCH  14  17
BRANCH  15  26
ATOM     26  O   UNL A   1      33.741  27.396  21.524  1.00  0.00    -0.477 OA
BRANCH  26  27
ATOM     27  C   UNL A   1      33.985  28.538  22.334  1.00  0.00     0.231 C 
BRANCH  27  28
ATOM     28  C   UNL A   1      34.079  28.160  23.823  1.00  0.00     0.045 C 
BRANCH  28  29
ATOM     29  C   UNL A   1      32.834  28.428  24.714  1.00  0.00    -0.008 C 
ATOM     30  C   UNL A   1      32.521  27.256  25.661  1.00  0.00     0.004 C 
ATOM     31  C   UNL A   1      32.895  29.827  25.350  1.00  0.00     0.004 C 
ATOM     32  C   UNL A   1      31.766  27.563  26.950  1.00  0.00     0.000 C 
ATOM     33  C   UNL A   1      31.900  30.029  26.483  1.00  0.00     0.000 C 
ATOM     34  C   UNL A   1      32.044  28.937  27.523  1.00  0.00     0.000 C 
ENDBRANCH  28  29
ENDBRANCH  27  28
ENDBRANCH  26  27
ENDBRANCH  15  26
ENDBRANCH  10  11
ENDBRANCH   5  10
ENDBRANCH   1   5
BRANCH   3  35
ATOM     35  C   UNL A   1      36.995  20.626  25.083  1.00  0.00     0.117 C 
BRANCH  35  36
ATOM     36  C   UNL A   1      38.146  19.633  25.106  1.00  0.00     0.042 C 
BRANCH  36  37
ATOM     37  C   UNL A   1      39.383  20.190  25.786  1.00  0.00     0.118 C 
BRANCH  37  38
ATOM     38  N   UNL A   1      40.425  19.180  25.946  1.00  0.00    -0.352 N 
ATOM     39  C   UNL A   1      41.773  19.353  26.115  1.00  0.00     0.251 C 
ATOM     40  H   UNL A   1      40.116  18.245  25.928  1.00  0.00     0.163 HD
ATOM     41  O   UNL A   1      42.535  18.390  26.028  1.00  0.00    -0.269 OA
BRANCH  39  42
ATOM     42  C   UNL A   1      42.299  20.703  26.384  1.00  0.00     0.039 A 
ATOM     43  C   UNL A   1      42.640  21.530  25.313  1.00  0.00     0.014 A 
ATOM     44  C   UNL A   1      42.425  21.156  27.701  1.00  0.00     0.014 A 
ATOM     45  C   UNL A   1      43.054  22.838  25.564  1.00  0.00     0.010 A 
ATOM     46  C   UNL A   1      42.742  22.484  27.942  1.00  0.00     0.010 A 
ATOM     47  C   UNL A   1      43.076  23.334  26.878  1.00  0.00    -0.014 A 
BRANCH  47  48
ATOM     48  C   UNL A   1      43.465  24.734  27.174  1.00  0.00     0.031 A 
ATOM     49  C   UNL A   1      44.909  25.143  27.063  1.00  0.00     0.074 A 
ATOM     50  C   UNL A   1      42.538  25.606  27.617  1.00  0.00     0.049 A 
ATOM     51  N   UNL A   1      45.467  26.288  27.360  1.00  0.00    -0.248 NA
ATOM     52  C   UNL A   1      45.858  24.124  26.582  1.00  0.00     0.031 C 
ATOM     53  C   UNL A   1      41.119  25.305  27.829  1.00  0.00     0.029 A 
ATOM     54  N   UNL A   1      42.654  26.921  27.993  1.00  0.00    -0.354 N 
ATOM     55  C   UNL A   1      46.827  26.117  27.130  1.00  0.00     0.074 A 
ATOM     56  C   UNL A   1      47.020  24.745  26.718  1.00  0.00     0.031 C 
ATOM     57  C   UNL A   1      40.498  26.404  28.286  1.00  0.00     0.029 A 
ATOM     58  C   UNL A   1      41.476  27.475  28.437  1.00  0.00     0.049 A 
ATOM     59  H   UNL A   1      43.502  27.420  27.949  1.00  0.00     0.167 HD
ATOM     60  C   UNL A   1      47.822  27.031  27.214  1.00  0.00     0.034 A 
ATOM     61  C   UNL A   1      41.220  28.707  28.918  1.00  0.00     0.034 A 
ATOM     62  C   UNL A   1      47.618  28.403  27.585  1.00  0.00     0.049 A 
ATOM     63  C   UNL A   1      42.346  29.704  28.992  1.00  0.00     0.074 A 
ATOM     64  C   UNL A   1      48.548  29.425  27.651  1.00  0.00     0.029 A 
ATOM     65  N   UNL A   1      46.396  28.948  27.951  1.00  0.00    -0.354 N 
ATOM     66  N   UNL A   1      43.602  29.561  28.644  1.00  0.00    -0.248 NA
ATOM     67  C   UNL A   1      42.013  31.045  29.493  1.00  0.00     0.031 C 
ATOM     68  C   UNL A   1      47.891  30.585  28.072  1.00  0.00     0.029 A 
ATOM     69  C   UNL A   1      46.547  30.292  28.241  1.00  0.00     0.049 A 
ATOM     70  H   UNL A   1      45.547  28.452  27.998  1.00  0.00     0.167 HD
ATOM     71  C   UNL A   1      44.195  30.803  28.835  1.00  0.00     0.074 A 
ATOM     72  C   UNL A   1      43.156  31.691  29.313  1.00  0.00     0.031 C 
ATOM     73  C   UNL A   1      45.485  31.175  28.647  1.00  0.00     0.034 A 
BRANCH  60  74
ATOM     74  C   UNL A   1      49.211  26.592  26.832  1.00  0.00     0.023 A 
ATOM     75  C   UNL A   1      49.888  25.659  27.645  1.00  0.00     0.012 A 
ATOM     76  C   UNL A   1      49.820  27.044  25.645  1.00  0.00     0.148 A 
ATOM     77  C   UNL A   1      51.160  25.206  27.301  1.00  0.00     0.002 A 
ATOM     78  C   UNL A   1      51.069  26.551  25.284  1.00  0.00     0.091 A 
ATOM     79  F   UNL A   1      49.169  27.943  24.895  1.00  0.00    -0.205 F 
ATOM     80  C   UNL A   1      51.745  25.643  26.116  1.00  0.00     0.022 A 
BRANCH  78  81
ATOM     81  S   UNL A   1      51.878  26.985  23.740  1.00  0.00     0.127 S 
ATOM     82  O   UNL A   1      50.816  26.723  22.768  1.00  0.00    -0.237 OA
ATOM     83  O   UNL A   1      52.184  28.401  23.942  1.00  0.00    -0.237 OA
ATOM     84  O   UNL A   1      53.042  26.118  23.635  1.00  0.00    -0.744 OA
ENDBRANCH  78  81
ENDBRANCH  60  74
BRANCH  61  85
ATOM     85  C   UNL A   1      39.835  29.096  29.313  1.00  0.00     0.023 A 
ATOM     86  C   UNL A   1      38.893  29.404  28.312  1.00  0.00     0.012 A 
ATOM     87  C   UNL A   1      39.447  29.176  30.664  1.00  0.00     0.148 A 
ATOM     88  C   UNL A   1      37.609  29.835  28.647  1.00  0.00     0.002 A 
ATOM     89  C   UNL A   1      38.149  29.552  30.991  1.00  0.00     0.091 A 
ATOM     90  F   UNL A   1      40.357  28.889  31.606  1.00  0.00    -0.205 F 
ATOM     91  C   UNL A   1      37.235  29.902  29.986  1.00  0.00     0.022 A 
BRANCH  89  92
ATOM     92  S   UNL A   1      37.546  29.542  32.683  1.00  0.00     0.127 S 
ATOM     93  O   UNL A   1      38.509  30.413  33.350  1.00  0.00    -0.237 OA
ATOM     94  O   UNL A   1      36.204  30.107  32.531  1.00  0.00    -0.237 OA
ATOM     95  O   UNL A   1      37.560  28.144  33.095  1.00  0.00    -0.744 OA
ENDBRANCH  89  92
ENDBRANCH  61  85
BRANCH  73  96
ATOM     96  C   UNL A   1      45.840  32.617  28.894  1.00  0.00     0.023 A 
ATOM     97  C   UNL A   1      46.371  33.008  30.138  1.00  0.00     0.012 A 
ATOM     98  C   UNL A   1      45.720  33.567  27.861  1.00  0.00     0.148 A 
ATOM     99  C   UNL A   1      46.745  34.333  30.362  1.00  0.00     0.002 A 
ATOM    100  C   UNL A   1      46.142  34.873  28.074  1.00  0.00     0.091 A 
ATOM    101  F   UNL A   1      45.196  33.176  26.690  1.00  0.00    -0.205 F 
ATOM    102  C   UNL A   1      46.643  35.260  29.328  1.00  0.00     0.022 A 
BRANCH 100 103
ATOM    103  S   UNL A   1      46.144  36.110  26.772  1.00  0.00     0.127 S 
ATOM    104  O   UNL A   1      45.276  35.489  25.772  1.00  0.00    -0.237 OA
ATOM    105  O   UNL A   1      45.563  37.270  27.448  1.00  0.00    -0.237 OA
ATOM    106  O   UNL A   1      47.535  36.275  26.374  1.00  0.00    -0.744 OA
ENDBRANCH 100 103
ENDBRANCH  73  96
ENDBRANCH  47  48
ENDBRANCH  39  42
ENDBRANCH  37  38
ENDBRANCH  36  37
ENDBRANCH  35  36
ENDBRANCH   3  35
TORSDOF 26
ENDMDL
MODEL 3
REMARK VINA RESULT:     -10.8      1.839      2.164
REMARK SMILES CCCC[C@@H](Sc1nc(OCCC2CCCCC2)cc(OCCC2CCCCC2)n1)C(=O)NCCCNC(=O)c1ccc(-c2c3nc(c(-c4cccc(S(=O)(=O)[O-])c4F)c4ccc([nH]4)c(-c4cccc(S(=O)(=O)[O-])c4F)c4nc(c(-c5cccc(S(=O)(=O)[O-])c5F)c5ccc2[nH]5)C=C4)C=C3)cc1
REMARK SMILES IDX 31 1 32 2 33 3 5 5 4 6 3 7 2 8 1 9 6 10 7 11 8 12 30 13 9 14
REMARK SMILES IDX 20 15 19 16 10 17 11 18 12 19 13 20 14 21 18 22 15 23 17 24
REMARK SMILES IDX 16 25 21 26 22 27 23 28 24 29 25 30 29 31 26 32 28 33 27 34
REMARK SMILES IDX 34 35 35 36 36 37 37 38 38 39 39 41 40 42 41 43 102 44 42 45
REMARK SMILES IDX 101 46 43 47 44 48 45 49 95 50 46 51 100 52 94 53 96 54
REMARK SMILES IDX 47 55 99 56 93 57 92 58 48 60 80 61 60 62 79 63 61 64 64 65
REMARK SMILES IDX 78 66 97 67 62 68 63 69 77 71 98 72 65 73 49 74 50 75 58 76
REMARK SMILES IDX 51 77 53 78 59 79 52 80 54 81 55 82 56 83 57 84 81 85 82 86
REMARK SMILES IDX 90 87 83 88 85 89 91 90 84 91 86 92 87 93 88 94 89 95 66 96
REMARK SMILES IDX 67 97 75 98 68 99 70 100 76 101 69 102 71 103 72 104 73 105
REMARK SMILES IDX 74 106
REMARK H PARENT 33 4 37 40 96 59 64 70
REMARK Flexibility Score: inf
ROOT
ATOM      1  C   UNL A   1      36.123  22.767  25.136  1.00  0.00     0.233 C 
ATOM      2  O   UNL A   1      36.604  23.864  25.432  1.00  0.00    -0.274 OA
ATOM      3  N   UNL A   1      36.980  21.709  24.988  1.00  0.00    -0.355 N 
ATOM      4  H   UNL A   1      37.932  21.926  25.112  1.00  0.00     0.163 HD
ENDROOT
BRANCH   1   5
ATOM      5  C   UNL A   1      34.606  22.585  24.934  1.00  0.00     0.144 C 
BRANCH   5   6
ATOM      6  C   UNL A   1      33.890  23.506  25.955  1.00  0.00     0.025 C 
BRANCH   6   7
ATOM      7  C   UNL A   1      33.479  22.966  27.326  1.00  0.00     0.001 C 
BRANCH   7   8
ATOM      8  C   UNL A   1      31.987  22.994  27.652  1.00  0.00    -0.003 C 
ATOM      9  C   UNL A   1      31.161  23.798  26.664  1.00  0.00     0.004 C 
ENDBRANCH   7   8
ENDBRANCH   6   7
ENDBRANCH   5   6
BRANCH   5  10
ATOM     10  S   UNL A   1      34.402  22.706  23.085  1.00  0.00    -0.073 SA
BRANCH  10  11
ATOM     11  C   UNL A   1      33.421  24.137  22.892  1.00  0.00     0.195 A 
ATOM     12  N   UNL A   1      32.118  24.018  23.179  1.00  0.00    -0.187 NA
ATOM     13  N   UNL A   1      34.023  25.252  22.488  1.00  0.00    -0.187 NA
ATOM     14  C   UNL A   1      31.340  25.070  22.912  1.00  0.00     0.221 A 
ATOM     15  C   UNL A   1      33.222  26.273  22.194  1.00  0.00     0.221 A 
ATOM     16  C   UNL A   1      31.853  26.189  22.307  1.00  0.00     0.136 A 
BRANCH  14  17
ATOM     17  O   UNL A   1      30.081  24.927  23.421  1.00  0.00    -0.477 OA
BRANCH  17  18
ATOM     18  C   UNL A   1      29.465  25.903  24.251  1.00  0.00     0.231 C 
BRANCH  18  19
ATOM     19  C   UNL A   1      28.236  26.679  23.706  1.00  0.00     0.045 C 
BRANCH  19  20
ATOM     20  C   UNL A   1      28.496  28.028  23.031  1.00  0.00    -0.008 C 
ATOM     21  C   UNL A   1      27.366  29.056  23.170  1.00  0.00     0.004 C 
ATOM     22  C   UNL A   1      29.808  28.675  23.483  1.00  0.00     0.004 C 
ATOM     23  C   UNL A   1      27.663  30.270  22.275  1.00  0.00     0.000 C 
ATOM     24  C   UNL A   1      30.166  29.809  22.532  1.00  0.00     0.000 C 
ATOM     25  C   UNL A   1      29.060  30.860  22.491  1.00  0.00     0.000 C 
ENDBRANCH  19  20
ENDBRANCH  18  19
ENDBRANCH  17  18
ENDBRANCH  14  17
BRANCH  15  26
ATOM     26  O   UNL A   1      33.901  27.326  21.653  1.00  0.00    -0.477 OA
BRANCH  26  27
ATOM     27  C   UNL A   1      33.902  28.574  22.334  1.00  0.00     0.231 C 
BRANCH  27  28
ATOM     28  C   UNL A   1      34.110  28.387  23.847  1.00  0.00     0.045 C 
BRANCH  28  29
ATOM     29  C   UNL A   1      32.857  28.487  24.763  1.00  0.00    -0.008 C 
ATOM     30  C   UNL A   1      32.694  27.258  25.676  1.00  0.00     0.004 C 
ATOM     31  C   UNL A   1      32.771  29.863  25.442  1.00  0.00     0.004 C 
ATOM     32  C   UNL A   1      31.932  27.440  26.984  1.00  0.00     0.000 C 
ATOM     33  C   UNL A   1      31.780  29.918  26.594  1.00  0.00     0.000 C 
ATOM     34  C   UNL A   1      32.063  28.818  27.596  1.00  0.00     0.000 C 
ENDBRANCH  28  29
ENDBRANCH  27  28
ENDBRANCH  26  27
ENDBRANCH  15  26
ENDBRANCH  10  11
ENDBRANCH   5  10
ENDBRANCH   1   5
BRANCH   3  35
ATOM     35  C   UNL A   1      36.702  20.312  24.679  1.00  0.00     0.117 C 
BRANCH  35  36
ATOM     36  C   UNL A   1      37.811  19.396  25.172  1.00  0.00     0.042 C 
BRANCH  36  37
ATOM     37  C   UNL A   1      39.036  20.162  25.638  1.00  0.00     0.118 C 
BRANCH  37  38
ATOM     38  N   UNL A   1      40.150  19.276  25.959  1.00  0.00    -0.352 N 
ATOM     39  C   UNL A   1      41.429  19.600  26.328  1.00  0.00     0.251 C 
ATOM     40  H   UNL A   1      39.956  18.312  25.901  1.00  0.00     0.163 HD
ATOM     41  O   UNL A   1      42.300  18.730  26.363  1.00  0.00    -0.269 OA
BRANCH  39  42
ATOM     42  C   UNL A   1      41.751  20.997  26.664  1.00  0.00     0.039 A 
ATOM     43  C   UNL A   1      42.108  21.321  27.973  1.00  0.00     0.014 A 
ATOM     44  C   UNL A   1      41.725  21.980  25.670  1.00  0.00     0.014 A 
ATOM     45  C   UNL A   1      42.499  22.626  28.272  1.00  0.00     0.010 A 
ATOM     46  C   UNL A   1      42.207  23.250  25.949  1.00  0.00     0.010 A 
ATOM     47  C   UNL A   1      42.583  23.591  27.256  1.00  0.00    -0.014 A 
BRANCH  47  48
ATOM     48  C   UNL A   1      43.041  24.974  27.533  1.00  0.00     0.031 A 
ATOM     49  C   UNL A   1      42.082  25.967  28.134  1.00  0.00     0.074 A 
ATOM     50  C   UNL A   1      44.283  25.352  27.171  1.00  0.00     0.049 A 
ATOM     51  N   UNL A   1      42.257  27.241  28.370  1.00  0.00    -0.248 NA
ATOM     52  C   UNL A   1      40.740  25.473  28.488  1.00  0.00     0.031 C 
ATOM     53  C   UNL A   1      45.277  24.495  26.520  1.00  0.00     0.029 A 
ATOM     54  N   UNL A   1      44.914  26.566  27.278  1.00  0.00    -0.354 N 
ATOM     55  C   UNL A   1      41.046  27.702  28.873  1.00  0.00     0.074 A 
ATOM     56  C   UNL A   1      40.127  26.586  28.859  1.00  0.00     0.031 C 
ATOM     57  C   UNL A   1      46.394  25.206  26.295  1.00  0.00     0.029 A 
ATOM     58  C   UNL A   1      46.185  26.576  26.750  1.00  0.00     0.049 A 
ATOM     59  H   UNL A   1      44.497  27.355  27.694  1.00  0.00     0.167 HD
ATOM     60  C   UNL A   1      40.736  28.933  29.342  1.00  0.00     0.034 A 
ATOM     61  C   UNL A   1      47.074  27.581  26.639  1.00  0.00     0.034 A 
ATOM     62  C   UNL A   1      41.665  30.028  29.390  1.00  0.00     0.049 A 
ATOM     63  C   UNL A   1      46.703  28.939  27.178  1.00  0.00     0.074 A 
ATOM     64  C   UNL A   1      41.471  31.301  29.895  1.00  0.00     0.029 A 
ATOM     65  N   UNL A   1      42.969  29.977  28.919  1.00  0.00    -0.354 N 
ATOM     66  N   UNL A   1      45.598  29.319  27.770  1.00  0.00    -0.248 NA
ATOM     67  C   UNL A   1      47.717  29.996  27.065  1.00  0.00     0.031 C 
ATOM     68  C   UNL A   1      42.653  32.026  29.713  1.00  0.00     0.029 A 
ATOM     69  C   UNL A   1      43.592  31.195  29.123  1.00  0.00     0.049 A 
ATOM     70  H   UNL A   1      43.389  29.190  28.501  1.00  0.00     0.167 HD
ATOM     71  C   UNL A   1      45.801  30.642  28.144  1.00  0.00     0.074 A 
ATOM     72  C   UNL A   1      47.143  30.991  27.727  1.00  0.00     0.031 C 
ATOM     73  C   UNL A   1      44.953  31.498  28.764  1.00  0.00     0.034 A 
BRANCH  60  74
ATOM     74  C   UNL A   1      39.355  29.143  29.905  1.00  0.00     0.023 A 
ATOM     75  C   UNL A   1      39.039  28.612  31.173  1.00  0.00     0.012 A 
ATOM     76  C   UNL A   1      38.395  29.913  29.221  1.00  0.00     0.148 A 
ATOM     77  C   UNL A   1      37.782  28.817  31.738  1.00  0.00     0.002 A 
ATOM     78  C   UNL A   1      37.160  30.153  29.811  1.00  0.00     0.091 A 
ATOM     79  F   UNL A   1      38.708  30.394  28.009  1.00  0.00    -0.205 F 
ATOM     80  C   UNL A   1      36.847  29.596  31.062  1.00  0.00     0.022 A 
BRANCH  78  81
ATOM     81  S   UNL A   1      35.914  31.210  29.065  1.00  0.00     0.127 S 
ATOM     82  O   UNL A   1      35.121  31.599  30.231  1.00  0.00    -0.237 OA
ATOM     83  O   UNL A   1      36.725  32.284  28.494  1.00  0.00    -0.237 OA
ATOM     84  O   UNL A   1      35.216  30.386  28.089  1.00  0.00    -0.744 OA
ENDBRANCH  78  81
ENDBRANCH  60  74
BRANCH  61  85
ATOM     85  C   UNL A   1      48.423  27.342  26.050  1.00  0.00     0.023 A 
ATOM     86  C   UNL A   1      49.477  26.925  26.887  1.00  0.00     0.012 A 
ATOM     87  C   UNL A   1      48.675  27.535  24.678  1.00  0.00     0.148 A 
ATOM     88  C   UNL A   1      50.766  26.756  26.381  1.00  0.00     0.002 A 
ATOM     89  C   UNL A   1      49.949  27.309  24.169  1.00  0.00     0.091 A 
ATOM     90  F   UNL A   1      47.664  27.940  23.896  1.00  0.00    -0.205 F 
ATOM     91  C   UNL A   1      51.001  26.941  25.021  1.00  0.00     0.022 A 
BRANCH  89  92
ATOM     92  S   UNL A   1      50.309  27.400  22.412  1.00  0.00     0.127 S 
ATOM     93  O   UNL A   1      51.688  26.923  22.364  1.00  0.00    -0.237 OA
ATOM     94  O   UNL A   1      49.317  26.481  21.850  1.00  0.00    -0.237 OA
ATOM     95  O   UNL A   1      50.104  28.795  22.043  1.00  0.00    -0.744 OA
ENDBRANCH  89  92
ENDBRANCH  61  85
BRANCH  73  96
ATOM     96  C   UNL A   1      45.462  32.876  29.090  1.00  0.00     0.023 A 
ATOM     97  C   UNL A   1      45.266  33.934  28.181  1.00  0.00     0.012 A 
ATOM     98  C   UNL A   1      46.068  33.135  30.336  1.00  0.00     0.148 A 
ATOM     99  C   UNL A   1      45.695  35.223  28.494  1.00  0.00     0.002 A 
ATOM    100  C   UNL A   1      46.446  34.431  30.661  1.00  0.00     0.091 A 
ATOM    101  F   UNL A   1      46.261  32.110  31.178  1.00  0.00    -0.205 F 
ATOM    102  C   UNL A   1      46.273  35.474  29.736  1.00  0.00     0.022 A 
BRANCH 100 103
ATOM    103  S   UNL A   1      47.103  34.867  32.275  1.00  0.00     0.127 S 
ATOM    104  O   UNL A   1      45.950  34.624  33.141  1.00  0.00    -0.237 OA
ATOM    105  O   UNL A   1      48.197  33.909  32.431  1.00  0.00    -0.237 OA
ATOM    106  O   UNL A   1      47.526  36.258  32.176  1.00  0.00    -0.744 OA
ENDBRANCH 100 103
ENDBRANCH  73  96
ENDBRANCH  47  48
ENDBRANCH  39  42
ENDBRANCH  37  38
ENDBRANCH  36  37
ENDBRANCH  35  36
ENDBRANCH   3  35
TORSDOF 26
ENDMDL
