MODEL 1
REMARK VINA RESULT:     -12.3      0.000      0.000
REMARK SMILES Cc1ccc(C(=O)CC(C)(C)C(=O)NCCCNC(=O)c2ccc(-c3c4nc(c(-c5cccc(S(=O)(=O)[O-])c5F)c5ccc([nH]5)c(-c5cccc(S(=O)(=O)[O-])c5F)c5nc(c(-c6cccc(S(=O)(=O)[O-])c6F)c6ccc3[nH]6)C=C5)C=C4)cc2)cc1
REMARK SMILES IDX 16 1 15 2 14 3 12 4 13 5 9 7 10 8 11 9 8 10 6 11 7 12 5 13
REMARK SMILES IDX 1 14 2 15 3 16 85 17 4 18 84 19 17 20 18 21 19 22 20 24
REMARK SMILES IDX 21 25 22 26 83 27 23 28 82 29 24 30 25 31 26 32 76 33 27 34
REMARK SMILES IDX 81 35 75 36 77 37 28 38 80 39 74 40 73 41 29 43 61 44 41 45
REMARK SMILES IDX 60 46 42 47 45 48 59 49 78 50 43 51 44 52 58 54 79 55 46 56
REMARK SMILES IDX 30 57 31 58 39 59 32 60 34 61 40 62 33 63 35 64 36 65 37 66
REMARK SMILES IDX 38 67 62 68 63 69 71 70 64 71 66 72 72 73 65 74 67 75 68 76
REMARK SMILES IDX 69 77 70 78 47 79 48 80 56 81 49 82 51 83 57 84 50 85 52 86
REMARK SMILES IDX 53 87 54 88 55 89
REMARK H PARENT 14 6 18 23 77 42 45 53
REMARK Flexibility Score: inf
ROOT
ATOM      1  C   UNL A   1      32.203  30.684  26.814  1.00  0.00     0.042 C 
ENDROOT
BRANCH   1   2
ATOM      2  C   UNL A   1      31.772  29.922  25.566  1.00  0.00     0.117 C 
BRANCH   2   3
ATOM      3  N   UNL A   1      32.859  29.733  24.616  1.00  0.00    -0.356 N 
ATOM      4  C   UNL A   1      33.375  28.650  23.972  1.00  0.00     0.226 C 
ATOM      5  O   UNL A   1      34.276  28.889  23.164  1.00  0.00    -0.274 OA
ATOM      6  H   UNL A   1      33.321  30.572  24.389  1.00  0.00     0.163 HD
BRANCH   4   7
ATOM      7  C   UNL A   1      32.928  27.193  24.236  1.00  0.00     0.051 C 
ATOM      8  C   UNL A   1      31.473  26.936  23.837  1.00  0.00     0.022 C 
ATOM      9  C   UNL A   1      33.070  26.876  25.740  1.00  0.00     0.022 C 
BRANCH   7  10
ATOM     10  C   UNL A   1      33.901  26.199  23.508  1.00  0.00     0.097 C 
BRANCH  10  11
ATOM     11  C   UNL A   1      33.815  24.690  23.751  1.00  0.00     0.163 C 
ATOM     12  O   UNL A   1      32.836  24.031  23.402  1.00  0.00    -0.294 OA
BRANCH  11  13
ATOM     13  C   UNL A   1      34.979  23.950  24.287  1.00  0.00     0.018 A 
ATOM     14  C   UNL A   1      38.635  22.220  25.730  1.00  0.00     0.044 C 
ATOM     15  C   UNL A   1      37.326  22.777  25.256  1.00  0.00    -0.051 A 
ATOM     16  C   UNL A   1      36.572  23.628  26.074  1.00  0.00     0.004 A 
ATOM     17  C   UNL A   1      36.835  22.431  23.993  1.00  0.00     0.004 A 
ATOM     18  C   UNL A   1      35.403  24.219  25.589  1.00  0.00     0.012 A 
ATOM     19  C   UNL A   1      35.647  22.994  23.521  1.00  0.00     0.012 A 
ENDBRANCH  11  13
ENDBRANCH  10  11
ENDBRANCH   7  10
ENDBRANCH   4   7
ENDBRANCH   2   3
ENDBRANCH   1   2
BRANCH   1  20
ATOM     20  C   UNL A   1      33.711  30.693  27.009  1.00  0.00     0.118 C 
BRANCH  20  21
ATOM     21  N   UNL A   1      34.172  31.646  28.007  1.00  0.00    -0.352 N 
ATOM     22  C   UNL A   1      35.168  31.508  28.964  1.00  0.00     0.251 C 
ATOM     23  H   UNL A   1      33.712  32.515  28.002  1.00  0.00     0.163 HD
ATOM     24  O   UNL A   1      35.292  32.377  29.812  1.00  0.00    -0.269 OA
BRANCH  22  25
ATOM     25  C   UNL A   1      36.123  30.374  28.872  1.00  0.00     0.039 A 
ATOM     26  C   UNL A   1      36.422  29.661  30.042  1.00  0.00     0.014 A 
ATOM     27  C   UNL A   1      36.855  30.142  27.712  1.00  0.00     0.014 A 
ATOM     28  C   UNL A   1      37.596  28.908  30.113  1.00  0.00     0.010 A 
ATOM     29  C   UNL A   1      38.060  29.484  27.804  1.00  0.00     0.010 A 
ATOM     30  C   UNL A   1      38.459  28.921  29.022  1.00  0.00    -0.014 A 
BRANCH  30  31
ATOM     31  C   UNL A   1      39.842  28.470  29.046  1.00  0.00     0.031 A 
ATOM     32  C   UNL A   1      40.179  27.053  28.810  1.00  0.00     0.074 A 
ATOM     33  C   UNL A   1      40.806  29.414  28.997  1.00  0.00     0.049 A 
ATOM     34  N   UNL A   1      41.340  26.535  29.028  1.00  0.00    -0.248 NA
ATOM     35  C   UNL A   1      39.201  26.098  28.311  1.00  0.00     0.031 C 
ATOM     36  C   UNL A   1      42.174  29.254  28.519  1.00  0.00     0.029 A 
ATOM     37  N   UNL A   1      40.788  30.690  29.568  1.00  0.00    -0.354 N 
ATOM     38  C   UNL A   1      41.351  25.286  28.443  1.00  0.00     0.074 A 
ATOM     39  C   UNL A   1      39.976  25.037  28.079  1.00  0.00     0.031 C 
ATOM     40  C   UNL A   1      42.926  30.231  29.043  1.00  0.00     0.029 A 
ATOM     41  C   UNL A   1      42.099  30.938  30.006  1.00  0.00     0.049 A 
ATOM     42  H   UNL A   1      40.013  31.292  29.649  1.00  0.00     0.167 HD
ATOM     43  C   UNL A   1      42.547  24.675  28.195  1.00  0.00     0.034 A 
ATOM     44  C   UNL A   1      42.431  31.179  31.307  1.00  0.00     0.034 A 
ATOM     45  C   UNL A   1      43.667  25.482  28.702  1.00  0.00     0.049 A 
ATOM     46  C   UNL A   1      43.435  30.187  31.867  1.00  0.00     0.074 A 
ATOM     47  C   UNL A   1      44.546  26.368  28.098  1.00  0.00     0.029 A 
ATOM     48  N   UNL A   1      43.833  25.642  30.071  1.00  0.00    -0.354 N 
ATOM     49  N   UNL A   1      43.890  29.152  31.217  1.00  0.00    -0.248 NA
ATOM     50  C   UNL A   1      43.974  30.260  33.223  1.00  0.00     0.031 C 
ATOM     51  C   UNL A   1      45.178  27.127  29.119  1.00  0.00     0.029 A 
ATOM     52  C   UNL A   1      44.705  26.686  30.344  1.00  0.00     0.049 A 
ATOM     53  H   UNL A   1      43.391  25.090  30.756  1.00  0.00     0.167 HD
ATOM     54  C   UNL A   1      44.606  28.348  32.066  1.00  0.00     0.074 A 
ATOM     55  C   UNL A   1      44.717  29.139  33.279  1.00  0.00     0.031 C 
ATOM     56  C   UNL A   1      44.970  27.072  31.726  1.00  0.00     0.034 A 
BRANCH  43  57
ATOM     57  C   UNL A   1      42.745  23.523  27.218  1.00  0.00     0.023 A 
ATOM     58  C   UNL A   1      42.233  22.258  27.588  1.00  0.00     0.012 A 
ATOM     59  C   UNL A   1      43.456  23.561  25.999  1.00  0.00     0.148 A 
ATOM     60  C   UNL A   1      42.519  21.089  26.872  1.00  0.00     0.002 A 
ATOM     61  C   UNL A   1      43.817  22.387  25.330  1.00  0.00     0.091 A 
ATOM     62  F   UNL A   1      43.700  24.733  25.407  1.00  0.00    -0.205 F 
ATOM     63  C   UNL A   1      43.353  21.145  25.768  1.00  0.00     0.022 A 
BRANCH  61  64
ATOM     64  S   UNL A   1      44.979  22.391  23.952  1.00  0.00     0.127 S 
ATOM     65  O   UNL A   1      45.651  23.683  24.115  1.00  0.00    -0.237 OA
ATOM     66  O   UNL A   1      45.818  21.231  24.240  1.00  0.00    -0.237 OA
ATOM     67  O   UNL A   1      44.165  22.300  22.745  1.00  0.00    -0.744 OA
ENDBRANCH  61  64
ENDBRANCH  43  57
BRANCH  44  68
ATOM     68  C   UNL A   1      41.361  31.872  32.079  1.00  0.00     0.023 A 
ATOM     69  C   UNL A   1      41.097  33.217  31.726  1.00  0.00     0.012 A 
ATOM     70  C   UNL A   1      40.397  31.161  32.817  1.00  0.00     0.148 A 
ATOM     71  C   UNL A   1      39.861  33.804  32.000  1.00  0.00     0.002 A 
ATOM     72  C   UNL A   1      39.161  31.752  33.079  1.00  0.00     0.091 A 
ATOM     73  F   UNL A   1      40.664  29.897  33.165  1.00  0.00    -0.205 F 
ATOM     74  C   UNL A   1      38.882  33.060  32.648  1.00  0.00     0.022 A 
BRANCH  72  75
ATOM     75  S   UNL A   1      37.808  30.838  33.834  1.00  0.00     0.127 S 
ATOM     76  O   UNL A   1      37.917  31.252  35.229  1.00  0.00    -0.237 OA
ATOM     77  O   UNL A   1      36.644  31.365  33.123  1.00  0.00    -0.237 OA
ATOM     78  O   UNL A   1      38.095  29.439  33.551  1.00  0.00    -0.744 OA
ENDBRANCH  72  75
ENDBRANCH  44  68
BRANCH  56  79
ATOM     79  C   UNL A   1      45.561  26.038  32.669  1.00  0.00     0.023 A 
ATOM     80  C   UNL A   1      46.941  25.767  32.725  1.00  0.00     0.012 A 
ATOM     81  C   UNL A   1      44.752  25.420  33.660  1.00  0.00     0.148 A 
ATOM     82  C   UNL A   1      47.489  24.894  33.674  1.00  0.00     0.002 A 
ATOM     83  C   UNL A   1      45.317  24.641  34.669  1.00  0.00     0.091 A 
ATOM     84  F   UNL A   1      43.420  25.571  33.626  1.00  0.00    -0.205 F 
ATOM     85  C   UNL A   1      46.681  24.351  34.664  1.00  0.00     0.022 A 
BRANCH  83  86
ATOM     86  S   UNL A   1      44.331  24.141  36.088  1.00  0.00     0.127 S 
ATOM     87  O   UNL A   1      43.298  23.311  35.472  1.00  0.00    -0.237 OA
ATOM     88  O   UNL A   1      45.294  23.401  36.908  1.00  0.00    -0.237 OA
ATOM     89  O   UNL A   1      43.887  25.395  36.682  1.00  0.00    -0.744 OA
ENDBRANCH  83  86
ENDBRANCH  56  79
ENDBRANCH  30  31
ENDBRANCH  22  25
ENDBRANCH  20  21
ENDBRANCH   1  20
TORSDOF 16
ENDMDL
MODEL 2
REMARK VINA RESULT:     -12.3      3.930      9.517
REMARK SMILES Cc1ccc(C(=O)CC(C)(C)C(=O)NCCCNC(=O)c2ccc(-c3c4nc(c(-c5cccc(S(=O)(=O)[O-])c5F)c5ccc([nH]5)c(-c5cccc(S(=O)(=O)[O-])c5F)c5nc(c(-c6cccc(S(=O)(=O)[O-])c6F)c6ccc3[nH]6)C=C5)C=C4)cc2)cc1
REMARK SMILES IDX 16 1 15 2 14 3 12 4 13 5 9 7 10 8 11 9 8 10 6 11 7 12 5 13
REMARK SMILES IDX 1 14 2 15 3 16 85 17 4 18 84 19 17 20 18 21 19 22 20 24
REMARK SMILES IDX 21 25 22 26 83 27 23 28 82 29 24 30 25 31 26 32 76 33 27 34
REMARK SMILES IDX 81 35 75 36 77 37 28 38 80 39 74 40 73 41 29 43 61 44 41 45
REMARK SMILES IDX 60 46 42 47 45 48 59 49 78 50 43 51 44 52 58 54 79 55 46 56
REMARK SMILES IDX 30 57 31 58 39 59 32 60 34 61 40 62 33 63 35 64 36 65 37 66
REMARK SMILES IDX 38 67 62 68 63 69 71 70 64 71 66 72 72 73 65 74 67 75 68 76
REMARK SMILES IDX 69 77 70 78 47 79 48 80 56 81 49 82 51 83 57 84 50 85 52 86
REMARK SMILES IDX 53 87 54 88 55 89
REMARK H PARENT 14 6 18 23 77 42 45 53
REMARK Flexibility Score: inf
ROOT
ATOM      1  C   UNL A   1      37.561  21.272  24.899  1.00  0.00     0.042 C 
ENDROOT
BRANCH   1   2
ATOM      2  C   UNL A   1      36.040  21.351  24.843  1.00  0.00     0.117 C 
BRANCH   2   3
ATOM      3  N   UNL A   1      35.561  22.379  23.929  1.00  0.00    -0.356 N 
ATOM      4  C   UNL A   1      34.547  23.286  23.974  1.00  0.00     0.226 C 
ATOM      5  O   UNL A   1      34.486  24.066  23.019  1.00  0.00    -0.274 OA
ATOM      6  H   UNL A   1      36.086  22.429  23.098  1.00  0.00     0.163 HD
BRANCH   4   7
ATOM      7  C   UNL A   1      33.488  23.346  25.100  1.00  0.00     0.051 C 
ATOM      8  C   UNL A   1      34.107  23.541  26.487  1.00  0.00     0.022 C 
ATOM      9  C   UNL A   1      32.684  22.029  25.121  1.00  0.00     0.022 C 
BRANCH   7  10
ATOM     10  C   UNL A   1      32.439  24.469  24.784  1.00  0.00     0.097 C 
BRANCH  10  11
ATOM     11  C   UNL A   1      31.804  25.296  25.906  1.00  0.00     0.163 C 
ATOM     12  O   UNL A   1      30.959  24.822  26.664  1.00  0.00    -0.294 OA
BRANCH  11  13
ATOM     13  C   UNL A   1      32.301  26.658  26.204  1.00  0.00     0.018 A 
ATOM     14  C   UNL A   1      34.065  30.387  27.398  1.00  0.00     0.044 C 
ATOM     15  C   UNL A   1      33.422  29.115  26.930  1.00  0.00    -0.051 A 
ATOM     16  C   UNL A   1      34.035  28.320  25.953  1.00  0.00     0.004 A 
ATOM     17  C   UNL A   1      32.186  28.722  27.455  1.00  0.00     0.004 A 
ATOM     18  C   UNL A   1      33.480  27.090  25.594  1.00  0.00     0.012 A 
ATOM     19  C   UNL A   1      31.612  27.509  27.069  1.00  0.00     0.012 A 
ENDBRANCH  11  13
ENDBRANCH  10  11
ENDBRANCH   7  10
ENDBRANCH   4   7
ENDBRANCH   2   3
ENDBRANCH   1   2
BRANCH   1  20
ATOM     20  C   UNL A   1      38.181  22.404  25.702  1.00  0.00     0.118 C 
BRANCH  20  21
ATOM     21  N   UNL A   1      39.590  22.207  26.009  1.00  0.00    -0.352 N 
ATOM     22  C   UNL A   1      40.552  23.140  26.370  1.00  0.00     0.251 C 
ATOM     23  H   UNL A   1      39.907  21.277  25.954  1.00  0.00     0.163 HD
ATOM     24  O   UNL A   1      41.719  22.787  26.432  1.00  0.00    -0.269 OA
BRANCH  22  25
ATOM     25  C   UNL A   1      40.134  24.506  26.777  1.00  0.00     0.039 A 
ATOM     26  C   UNL A   1      40.722  25.602  26.127  1.00  0.00     0.014 A 
ATOM     27  C   UNL A   1      39.337  24.711  27.898  1.00  0.00     0.014 A 
ATOM     28  C   UNL A   1      40.711  26.856  26.738  1.00  0.00     0.010 A 
ATOM     29  C   UNL A   1      39.406  25.919  28.553  1.00  0.00     0.010 A 
ATOM     30  C   UNL A   1      40.145  26.973  28.003  1.00  0.00    -0.014 A 
BRANCH  30  31
ATOM     31  C   UNL A   1      40.331  28.103  28.901  1.00  0.00     0.031 A 
ATOM     32  C   UNL A   1      39.416  29.260  28.862  1.00  0.00     0.074 A 
ATOM     33  C   UNL A   1      41.168  27.935  29.948  1.00  0.00     0.049 A 
ATOM     34  N   UNL A   1      39.636  30.382  29.458  1.00  0.00    -0.248 NA
ATOM     35  C   UNL A   1      38.167  29.231  28.116  1.00  0.00     0.031 C 
ATOM     36  C   UNL A   1      41.156  28.661  31.212  1.00  0.00     0.029 A 
ATOM     37  N   UNL A   1      42.347  27.184  29.993  1.00  0.00    -0.354 N 
ATOM     38  C   UNL A   1      38.461  31.103  29.424  1.00  0.00     0.074 A 
ATOM     39  C   UNL A   1      37.607  30.375  28.515  1.00  0.00     0.031 C 
ATOM     40  C   UNL A   1      42.366  28.553  31.777  1.00  0.00     0.029 A 
ATOM     41  C   UNL A   1      43.233  27.904  30.811  1.00  0.00     0.049 A 
ATOM     42  H   UNL A   1      42.521  26.326  29.542  1.00  0.00     0.167 HD
ATOM     43  C   UNL A   1      38.292  32.147  30.288  1.00  0.00     0.034 A 
ATOM     44  C   UNL A   1      44.440  28.379  30.385  1.00  0.00     0.034 A 
ATOM     45  C   UNL A   1      39.505  32.369  31.090  1.00  0.00     0.049 A 
ATOM     46  C   UNL A   1      44.576  29.885  30.522  1.00  0.00     0.074 A 
ATOM     47  C   UNL A   1      39.871  31.996  32.375  1.00  0.00     0.029 A 
ATOM     48  N   UNL A   1      40.659  32.835  30.475  1.00  0.00    -0.354 N 
ATOM     49  N   UNL A   1      43.623  30.678  30.927  1.00  0.00    -0.248 NA
ATOM     50  C   UNL A   1      45.787  30.623  30.171  1.00  0.00     0.031 C 
ATOM     51  C   UNL A   1      41.277  32.160  32.496  1.00  0.00     0.029 A 
ATOM     52  C   UNL A   1      41.762  32.655  31.298  1.00  0.00     0.049 A 
ATOM     53  H   UNL A   1      40.691  33.237  29.578  1.00  0.00     0.167 HD
ATOM     54  C   UNL A   1      43.992  31.985  30.736  1.00  0.00     0.074 A 
ATOM     55  C   UNL A   1      45.393  31.896  30.361  1.00  0.00     0.031 C 
ATOM     56  C   UNL A   1      43.093  33.015  30.819  1.00  0.00     0.034 A 
BRANCH  43  57
ATOM     57  C   UNL A   1      36.947  32.763  30.650  1.00  0.00     0.023 A 
ATOM     58  C   UNL A   1      36.381  32.409  31.896  1.00  0.00     0.012 A 
ATOM     59  C   UNL A   1      36.156  33.605  29.837  1.00  0.00     0.148 A 
ATOM     60  C   UNL A   1      35.072  32.752  32.256  1.00  0.00     0.002 A 
ATOM     61  C   UNL A   1      34.821  33.875  30.152  1.00  0.00     0.091 A 
ATOM     62  F   UNL A   1      36.711  34.247  28.806  1.00  0.00    -0.205 F 
ATOM     63  C   UNL A   1      34.272  33.445  31.361  1.00  0.00     0.022 A 
BRANCH  61  64
ATOM     64  S   UNL A   1      33.708  34.682  28.986  1.00  0.00     0.127 S 
ATOM     65  O   UNL A   1      33.496  33.636  27.983  1.00  0.00    -0.237 OA
ATOM     66  O   UNL A   1      32.540  34.977  29.811  1.00  0.00    -0.237 OA
ATOM     67  O   UNL A   1      34.435  35.842  28.481  1.00  0.00    -0.744 OA
ENDBRANCH  61  64
ENDBRANCH  43  57
BRANCH  44  68
ATOM     68  C   UNL A   1      45.082  27.533  29.340  1.00  0.00     0.023 A 
ATOM     69  C   UNL A   1      45.591  26.282  29.763  1.00  0.00     0.012 A 
ATOM     70  C   UNL A   1      44.853  27.745  27.968  1.00  0.00     0.148 A 
ATOM     71  C   UNL A   1      45.760  25.231  28.862  1.00  0.00     0.002 A 
ATOM     72  C   UNL A   1      45.016  26.686  27.074  1.00  0.00     0.091 A 
ATOM     73  F   UNL A   1      44.393  28.938  27.574  1.00  0.00    -0.205 F 
ATOM     74  C   UNL A   1      45.442  25.424  27.523  1.00  0.00     0.022 A 
BRANCH  72  75
ATOM     75  S   UNL A   1      44.547  26.820  25.343  1.00  0.00     0.127 S 
ATOM     76  O   UNL A   1      43.710  28.015  25.358  1.00  0.00    -0.237 OA
ATOM     77  O   UNL A   1      45.843  26.983  24.683  1.00  0.00    -0.237 OA
ATOM     78  O   UNL A   1      43.877  25.565  25.037  1.00  0.00    -0.744 OA
ENDBRANCH  72  75
ENDBRANCH  44  68
BRANCH  56  79
ATOM     79  C   UNL A   1      43.355  34.454  30.409  1.00  0.00     0.023 A 
ATOM     80  C   UNL A   1      43.762  35.440  31.328  1.00  0.00     0.012 A 
ATOM     81  C   UNL A   1      43.360  34.824  29.038  1.00  0.00     0.148 A 
ATOM     82  C   UNL A   1      44.108  36.735  30.922  1.00  0.00     0.002 A 
ATOM     83  C   UNL A   1      43.811  36.078  28.630  1.00  0.00     0.091 A 
ATOM     84  F   UNL A   1      42.914  33.963  28.111  1.00  0.00    -0.205 F 
ATOM     85  C   UNL A   1      44.158  37.048  29.570  1.00  0.00     0.022 A 
BRANCH  83  86
ATOM     86  S   UNL A   1      44.118  36.411  26.889  1.00  0.00     0.127 S 
ATOM     87  O   UNL A   1      42.773  36.361  26.322  1.00  0.00    -0.237 OA
ATOM     88  O   UNL A   1      44.716  37.748  26.915  1.00  0.00    -0.237 OA
ATOM     89  O   UNL A   1      45.038  35.359  26.475  1.00  0.00    -0.744 OA
ENDBRANCH  83  86
ENDBRANCH  56  79
ENDBRANCH  30  31
ENDBRANCH  22  25
ENDBRANCH  20  21
ENDBRANCH   1  20
TORSDOF 16
ENDMDL
MODEL 3
REMARK VINA RESULT:     -12.3      3.828      9.869
REMARK SMILES Cc1ccc(C(=O)CC(C)(C)C(=O)NCCCNC(=O)c2ccc(-c3c4nc(c(-c5cccc(S(=O)(=O)[O-])c5F)c5ccc([nH]5)c(-c5cccc(S(=O)(=O)[O-])c5F)c5nc(c(-c6cccc(S(=O)(=O)[O-])c6F)c6ccc3[nH]6)C=C5)C=C4)cc2)cc1
REMARK SMILES IDX 16 1 15 2 14 3 12 4 13 5 9 7 10 8 11 9 8 10 6 11 7 12 5 13
REMARK SMILES IDX 1 14 2 15 3 16 85 17 4 18 84 19 17 20 18 21 19 22 20 24
REMARK SMILES IDX 21 25 22 26 83 27 23 28 82 29 24 30 25 31 26 32 76 33 27 34
REMARK SMILES IDX 81 35 75 36 77 37 28 38 80 39 74 40 73 41 29 43 61 44 41 45
REMARK SMILES IDX 60 46 42 47 45 48 59 49 78 50 43 51 44 52 58 54 79 55 46 56
REMARK SMILES IDX 30 57 31 58 39 59 32 60 34 61 40 62 33 63 35 64 36 65 37 66
REMARK SMILES IDX 38 67 62 68 63 69 71 70 64 71 66 72 72 73 65 74 67 75 68 76
REMARK SMILES IDX 69 77 70 78 47 79 48 80 56 81 49 82 51 83 57 84 50 85 52 86
REMARK SMILES IDX 53 87 54 88 55 89
REMARK H PARENT 14 6 18 23 77 42 45 53
REMARK Flexibility Score: inf
ROOT
ATOM      1  C   UNL A   1      37.677  21.278  25.116  1.00  0.00     0.042 C 
ENDROOT
BRANCH   1   2
ATOM      2  C   UNL A   1      36.175  21.327  24.864  1.00  0.00     0.117 C 
BRANCH   2   3
ATOM      3  N   UNL A   1      35.786  22.409  23.970  1.00  0.00    -0.356 N 
ATOM      4  C   UNL A   1      34.835  23.382  24.019  1.00  0.00     0.226 C 
ATOM      5  O   UNL A   1      34.848  24.189  23.086  1.00  0.00    -0.274 OA
ATOM      6  H   UNL A   1      36.332  22.446  23.151  1.00  0.00     0.163 HD
BRANCH   4   7
ATOM      7  C   UNL A   1      33.758  23.483  25.125  1.00  0.00     0.051 C 
ATOM      8  C   UNL A   1      34.356  23.558  26.532  1.00  0.00     0.022 C 
ATOM      9  C   UNL A   1      32.842  22.242  25.066  1.00  0.00     0.022 C 
BRANCH   7  10
ATOM     10  C   UNL A   1      32.818  24.707  24.840  1.00  0.00     0.097 C 
BRANCH  10  11
ATOM     11  C   UNL A   1      32.080  25.417  25.979  1.00  0.00     0.163 C 
ATOM     12  O   UNL A   1      31.211  24.851  26.642  1.00  0.00    -0.294 OA
BRANCH  11  13
ATOM     13  C   UNL A   1      32.496  26.770  26.411  1.00  0.00     0.018 A 
ATOM     14  C   UNL A   1      33.463  30.869  27.250  1.00  0.00     0.044 C 
ATOM     15  C   UNL A   1      33.143  29.423  27.018  1.00  0.00    -0.051 A 
ATOM     16  C   UNL A   1      31.899  28.896  27.389  1.00  0.00     0.004 A 
ATOM     17  C   UNL A   1      34.098  28.578  26.443  1.00  0.00     0.004 A 
ATOM     18  C   UNL A   1      31.572  27.574  27.082  1.00  0.00     0.012 A 
ATOM     19  C   UNL A   1      33.785  27.245  26.168  1.00  0.00     0.012 A 
ENDBRANCH  11  13
ENDBRANCH  10  11
ENDBRANCH   7  10
ENDBRANCH   4   7
ENDBRANCH   2   3
ENDBRANCH   1   2
BRANCH   1  20
ATOM     20  C   UNL A   1      38.201  22.529  25.804  1.00  0.00     0.118 C 
BRANCH  20  21
ATOM     21  N   UNL A   1      39.422  22.316  26.566  1.00  0.00    -0.352 N 
ATOM     22  C   UNL A   1      40.266  23.246  27.157  1.00  0.00     0.251 C 
ATOM     23  H   UNL A   1      39.688  21.375  26.680  1.00  0.00     0.163 HD
ATOM     24  O   UNL A   1      41.329  22.865  27.620  1.00  0.00    -0.269 OA
BRANCH  22  25
ATOM     25  C   UNL A   1      39.814  24.653  27.312  1.00  0.00     0.039 A 
ATOM     26  C   UNL A   1      40.424  25.637  26.521  1.00  0.00     0.014 A 
ATOM     27  C   UNL A   1      38.959  25.024  28.344  1.00  0.00     0.014 A 
ATOM     28  C   UNL A   1      40.369  26.975  26.915  1.00  0.00     0.010 A 
ATOM     29  C   UNL A   1      38.982  26.325  28.794  1.00  0.00     0.010 A 
ATOM     30  C   UNL A   1      39.738  27.287  28.115  1.00  0.00    -0.014 A 
BRANCH  30  31
ATOM     31  C   UNL A   1      39.867  28.552  28.823  1.00  0.00     0.031 A 
ATOM     32  C   UNL A   1      38.903  29.646  28.599  1.00  0.00     0.074 A 
ATOM     33  C   UNL A   1      40.701  28.589  29.884  1.00  0.00     0.049 A 
ATOM     34  N   UNL A   1      39.068  30.857  29.010  1.00  0.00    -0.248 NA
ATOM     35  C   UNL A   1      37.663  29.444  27.865  1.00  0.00     0.031 C 
ATOM     36  C   UNL A   1      40.646  29.504  31.017  1.00  0.00     0.029 A 
ATOM     37  N   UNL A   1      41.911  27.908  30.050  1.00  0.00    -0.354 N 
ATOM     38  C   UNL A   1      37.863  31.511  28.860  1.00  0.00     0.074 A 
ATOM     39  C   UNL A   1      37.049  30.611  28.077  1.00  0.00     0.031 C 
ATOM     40  C   UNL A   1      41.855  29.541  31.595  1.00  0.00     0.029 A 
ATOM     41  C   UNL A   1      42.758  28.787  30.745  1.00  0.00     0.049 A 
ATOM     42  H   UNL A   1      42.126  26.998  29.741  1.00  0.00     0.167 HD
ATOM     43  C   UNL A   1      37.642  32.670  29.547  1.00  0.00     0.034 A 
ATOM     44  C   UNL A   1      43.946  29.242  30.252  1.00  0.00     0.034 A 
ATOM     45  C   UNL A   1      38.836  33.070  30.307  1.00  0.00     0.049 A 
ATOM     46  C   UNL A   1      44.015  30.755  30.148  1.00  0.00     0.074 A 
ATOM     47  C   UNL A   1      39.207  32.922  31.635  1.00  0.00     0.029 A 
ATOM     48  N   UNL A   1      39.974  33.483  29.628  1.00  0.00    -0.354 N 
ATOM     49  N   UNL A   1      43.025  31.559  30.421  1.00  0.00    -0.248 NA
ATOM     50  C   UNL A   1      45.196  31.482  29.687  1.00  0.00     0.031 C 
ATOM     51  C   UNL A   1      40.604  33.165  31.731  1.00  0.00     0.029 A 
ATOM     52  C   UNL A   1      41.077  33.485  30.470  1.00  0.00     0.049 A 
ATOM     53  H   UNL A   1      39.997  33.739  28.678  1.00  0.00     0.167 HD
ATOM     54  C   UNL A   1      43.339  32.834  30.026  1.00  0.00     0.074 A 
ATOM     55  C   UNL A   1      44.746  32.749  29.672  1.00  0.00     0.031 C 
ATOM     56  C   UNL A   1      42.395  33.823  29.943  1.00  0.00     0.034 A 
BRANCH  43  57
ATOM     57  C   UNL A   1      36.268  33.275  29.805  1.00  0.00     0.023 A 
ATOM     58  C   UNL A   1      35.621  33.915  28.721  1.00  0.00     0.012 A 
ATOM     59  C   UNL A   1      35.588  33.334  31.041  1.00  0.00     0.148 A 
ATOM     60  C   UNL A   1      34.454  34.672  28.878  1.00  0.00     0.002 A 
ATOM     61  C   UNL A   1      34.473  34.160  31.221  1.00  0.00     0.091 A 
ATOM     62  F   UNL A   1      35.939  32.512  32.033  1.00  0.00    -0.205 F 
ATOM     63  C   UNL A   1      33.906  34.836  30.140  1.00  0.00     0.022 A 
BRANCH  61  64
ATOM     64  S   UNL A   1      33.782  34.490  32.853  1.00  0.00     0.127 S 
ATOM     65  O   UNL A   1      32.640  35.353  32.538  1.00  0.00    -0.237 OA
ATOM     66  O   UNL A   1      33.422  33.154  33.322  1.00  0.00    -0.237 OA
ATOM     67  O   UNL A   1      34.837  35.161  33.603  1.00  0.00    -0.744 OA
ENDBRANCH  61  64
ENDBRANCH  43  57
BRANCH  44  68
ATOM     68  C   UNL A   1      44.634  28.271  29.355  1.00  0.00     0.023 A 
ATOM     69  C   UNL A   1      45.042  27.048  29.940  1.00  0.00     0.012 A 
ATOM     70  C   UNL A   1      44.535  28.353  27.954  1.00  0.00     0.148 A 
ATOM     71  C   UNL A   1      45.236  25.907  29.162  1.00  0.00     0.002 A 
ATOM     72  C   UNL A   1      44.723  27.205  27.184  1.00  0.00     0.091 A 
ATOM     73  F   UNL A   1      44.170  29.519  27.408  1.00  0.00    -0.205 F 
ATOM     74  C   UNL A   1      45.045  25.978  27.788  1.00  0.00     0.022 A 
BRANCH  72  75
ATOM     75  S   UNL A   1      44.412  27.184  25.412  1.00  0.00     0.127 S 
ATOM     76  O   UNL A   1      43.146  27.906  25.329  1.00  0.00    -0.237 OA
ATOM     77  O   UNL A   1      45.570  27.908  24.887  1.00  0.00    -0.237 OA
ATOM     78  O   UNL A   1      44.378  25.775  25.053  1.00  0.00    -0.744 OA
ENDBRANCH  72  75
ENDBRANCH  44  68
BRANCH  56  79
ATOM     79  C   UNL A   1      42.597  35.189  29.310  1.00  0.00     0.023 A 
ATOM     80  C   UNL A   1      41.829  35.638  28.219  1.00  0.00     0.012 A 
ATOM     81  C   UNL A   1      43.465  36.141  29.909  1.00  0.00     0.148 A 
ATOM     82  C   UNL A   1      41.946  36.939  27.714  1.00  0.00     0.002 A 
ATOM     83  C   UNL A   1      43.496  37.464  29.473  1.00  0.00     0.091 A 
ATOM     84  F   UNL A   1      44.283  35.767  30.904  1.00  0.00    -0.205 F 
ATOM     85  C   UNL A   1      42.761  37.862  28.357  1.00  0.00     0.022 A 
BRANCH  83  86
ATOM     86  S   UNL A   1      44.347  38.719  30.441  1.00  0.00     0.127 S 
ATOM     87  O   UNL A   1      44.009  39.947  29.725  1.00  0.00    -0.237 OA
ATOM     88  O   UNL A   1      43.719  38.593  31.759  1.00  0.00    -0.237 OA
ATOM     89  O   UNL A   1      45.747  38.314  30.411  1.00  0.00    -0.744 OA
ENDBRANCH  83  86
ENDBRANCH  56  79
ENDBRANCH  30  31
ENDBRANCH  22  25
ENDBRANCH  20  21
ENDBRANCH   1  20
TORSDOF 16
ENDMDL
