MODEL 1
REMARK VINA RESULT:     -12.0      0.000      0.000
REMARK SMILES CC1(C)CC[NH+](CC[C@H]2CCC[C@]2([NH3+])C(=O)NCCCNC(=O)c2ccc(-c3c4nc(c(-c5cccc(S(=O)(=O)[O-])c5F)c5ccc([nH]5)c(-c5cccc(S(=O)(=O)[O-])c5F)c5nc(c(-c6cccc(S(=O)(=O)[O-])c6F)c6ccc3[nH]6)C=C5)C=C4)cc2)CC1
REMARK SMILES IDX 19 1 18 2 17 3 15 4 16 5 13 7 9 8 10 9 11 10 12 11 8 12 7 13
REMARK SMILES IDX 6 14 1 15 2 16 3 17 4 18 88 19 5 20 87 21 14 23 20 27 21 28
REMARK SMILES IDX 22 29 23 31 24 32 25 33 86 34 26 35 85 36 27 37 28 38 29 39
REMARK SMILES IDX 79 40 30 41 84 42 78 43 80 44 31 45 83 46 77 47 76 48 32 50
REMARK SMILES IDX 64 51 44 52 63 53 45 54 48 55 62 56 81 57 46 58 47 59 61 61
REMARK SMILES IDX 82 62 49 63 33 64 34 65 42 66 35 67 37 68 43 69 36 70 38 71
REMARK SMILES IDX 39 72 40 73 41 74 65 75 66 76 74 77 67 78 69 79 75 80 68 81
REMARK SMILES IDX 70 82 71 83 72 84 73 85 50 86 51 87 59 88 52 89 54 90 60 91
REMARK SMILES IDX 53 92 55 93 56 94 57 95 58 96
REMARK H PARENT 17 6 6 22 14 24 14 25 14 26 21 30 80 49 48 60
REMARK Flexibility Score: inf
ROOT
ATOM      1  C   UNL A   1      31.393  32.232  26.721  1.00  0.00     0.042 C 
ENDROOT
BRANCH   1   2
ATOM      2  C   UNL A   1      31.585  30.879  26.040  1.00  0.00     0.118 C 
BRANCH   2   3
ATOM      3  N   UNL A   1      30.709  30.667  24.897  1.00  0.00    -0.351 N 
ATOM      4  C   UNL A   1      30.690  29.620  24.010  1.00  0.00     0.281 C 
ATOM      5  O   UNL A   1      29.728  29.533  23.243  1.00  0.00    -0.268 OA
ATOM      6  H   UNL A   1      30.038  31.370  24.739  1.00  0.00     0.163 HD
BRANCH   4   7
ATOM      7  C   UNL A   1      31.892  28.596  23.971  1.00  0.00     0.177 C 
ATOM      8  C   UNL A   1      31.396  27.306  23.235  1.00  0.00     0.066 C 
ATOM      9  C   UNL A   1      30.528  26.712  24.359  1.00  0.00     0.011 C 
ATOM     10  C   UNL A   1      31.231  26.966  25.676  1.00  0.00     0.008 C 
ATOM     11  C   UNL A   1      32.231  28.075  25.384  1.00  0.00     0.079 C 
BRANCH   8  12
ATOM     12  C   UNL A   1      32.457  26.515  22.390  1.00  0.00     0.072 C 
BRANCH  12  13
ATOM     13  C   UNL A   1      33.655  25.702  22.930  1.00  0.00     0.262 C 
BRANCH  13  14
ATOM     14  N   UNL A   1      33.663  24.248  23.110  1.00  0.00    -0.335 N 
ATOM     15  C   UNL A   1      32.268  21.440  25.356  1.00  0.00     0.011 C 
ATOM     16  C   UNL A   1      31.848  22.903  25.098  1.00  0.00    -0.025 C 
ATOM     17  C   UNL A   1      30.662  23.250  26.025  1.00  0.00     0.011 C 
ATOM     18  C   UNL A   1      33.036  23.804  25.447  1.00  0.00     0.068 C 
ATOM     19  C   UNL A   1      31.407  23.183  23.634  1.00  0.00     0.068 C 
ATOM     20  C   UNL A   1      34.138  23.751  24.380  1.00  0.00     0.262 C 
ATOM     21  C   UNL A   1      32.540  23.443  22.629  1.00  0.00     0.262 C 
ATOM     22  H   UNL A   1      34.389  24.088  22.411  1.00  0.00     0.348 HD
ENDBRANCH  13  14
ENDBRANCH  12  13
ENDBRANCH   8  12
BRANCH   7  23
ATOM     23  N   UNL A   1      33.064  29.323  23.452  1.00  0.00    -0.345 N 
ATOM     24  H   UNL A   1      33.378  28.888  22.585  1.00  0.00     0.345 HD
ATOM     25  H   UNL A   1      33.817  29.291  24.141  1.00  0.00     0.345 HD
ATOM     26  H   UNL A   1      32.810  30.295  23.272  1.00  0.00     0.345 HD
ENDBRANCH   7  23
ENDBRANCH   4   7
ENDBRANCH   2   3
ENDBRANCH   1   2
BRANCH   1  27
ATOM     27  C   UNL A   1      32.664  32.876  27.259  1.00  0.00     0.118 C 
BRANCH  27  28
ATOM     28  N   UNL A   1      32.460  34.242  27.715  1.00  0.00    -0.352 N 
ATOM     29  C   UNL A   1      33.066  34.947  28.724  1.00  0.00     0.251 C 
ATOM     30  H   UNL A   1      31.773  34.744  27.218  1.00  0.00     0.163 HD
ATOM     31  O   UNL A   1      32.615  36.046  29.039  1.00  0.00    -0.269 OA
BRANCH  29  32
ATOM     32  C   UNL A   1      34.239  34.399  29.442  1.00  0.00     0.039 A 
ATOM     33  C   UNL A   1      34.029  33.744  30.660  1.00  0.00     0.014 A 
ATOM     34  C   UNL A   1      35.537  34.557  28.954  1.00  0.00     0.014 A 
ATOM     35  C   UNL A   1      35.113  33.199  31.355  1.00  0.00     0.010 A 
ATOM     36  C   UNL A   1      36.607  33.948  29.607  1.00  0.00     0.010 A 
ATOM     37  C   UNL A   1      36.409  33.268  30.818  1.00  0.00    -0.014 A 
BRANCH  37  38
ATOM     38  C   UNL A   1      37.561  32.627  31.504  1.00  0.00     0.031 A 
ATOM     39  C   UNL A   1      38.292  31.479  30.858  1.00  0.00     0.074 A 
ATOM     40  C   UNL A   1      37.900  33.023  32.747  1.00  0.00     0.049 A 
ATOM     41  N   UNL A   1      39.277  30.760  31.330  1.00  0.00    -0.248 NA
ATOM     42  C   UNL A   1      37.840  31.069  29.519  1.00  0.00     0.031 C 
ATOM     43  C   UNL A   1      37.227  34.075  33.511  1.00  0.00     0.029 A 
ATOM     44  N   UNL A   1      38.877  32.570  33.599  1.00  0.00    -0.354 N 
ATOM     45  C   UNL A   1      39.540  29.793  30.366  1.00  0.00     0.074 A 
ATOM     46  C   UNL A   1      38.588  29.998  29.296  1.00  0.00     0.031 C 
ATOM     47  C   UNL A   1      37.811  34.189  34.714  1.00  0.00     0.029 A 
ATOM     48  C   UNL A   1      38.876  33.197  34.823  1.00  0.00     0.049 A 
ATOM     49  H   UNL A   1      39.518  31.864  33.356  1.00  0.00     0.167 HD
ATOM     50  C   UNL A   1      40.501  28.839  30.358  1.00  0.00     0.034 A 
ATOM     51  C   UNL A   1      39.635  32.988  35.916  1.00  0.00     0.034 A 
ATOM     52  C   UNL A   1      41.470  28.660  31.407  1.00  0.00     0.049 A 
ATOM     53  C   UNL A   1      40.712  31.938  35.872  1.00  0.00     0.074 A 
ATOM     54  C   UNL A   1      42.535  27.778  31.452  1.00  0.00     0.029 A 
ATOM     55  N   UNL A   1      41.484  29.365  32.601  1.00  0.00    -0.354 N 
ATOM     56  N   UNL A   1      41.044  31.138  34.888  1.00  0.00    -0.248 NA
ATOM     57  C   UNL A   1      41.543  31.787  37.075  1.00  0.00     0.031 C 
ATOM     58  C   UNL A   1      43.174  27.927  32.687  1.00  0.00     0.029 A 
ATOM     59  C   UNL A   1      42.529  28.928  33.396  1.00  0.00     0.049 A 
ATOM     60  H   UNL A   1      40.844  30.072  32.847  1.00  0.00     0.167 HD
ATOM     61  C   UNL A   1      42.144  30.415  35.339  1.00  0.00     0.074 A 
ATOM     62  C   UNL A   1      42.433  30.889  36.677  1.00  0.00     0.031 C 
ATOM     63  C   UNL A   1      42.841  29.439  34.708  1.00  0.00     0.034 A 
BRANCH  50  64
ATOM     64  C   UNL A   1      40.583  27.936  29.153  1.00  0.00     0.023 A 
ATOM     65  C   UNL A   1      39.715  26.830  29.048  1.00  0.00     0.012 A 
ATOM     66  C   UNL A   1      41.476  28.214  28.098  1.00  0.00     0.148 A 
ATOM     67  C   UNL A   1      39.760  25.992  27.934  1.00  0.00     0.002 A 
ATOM     68  C   UNL A   1      41.482  27.403  26.970  1.00  0.00     0.091 A 
ATOM     69  F   UNL A   1      42.307  29.258  28.223  1.00  0.00    -0.205 F 
ATOM     70  C   UNL A   1      40.634  26.285  26.892  1.00  0.00     0.022 A 
BRANCH  68  71
ATOM     71  S   UNL A   1      42.512  27.740  25.537  1.00  0.00     0.127 S 
ATOM     72  O   UNL A   1      42.280  26.550  24.720  1.00  0.00    -0.237 OA
ATOM     73  O   UNL A   1      41.913  28.968  25.011  1.00  0.00    -0.237 OA
ATOM     74  O   UNL A   1      43.868  27.895  26.044  1.00  0.00    -0.744 OA
ENDBRANCH  68  71
ENDBRANCH  50  64
BRANCH  51  75
ATOM     75  C   UNL A   1      39.441  33.832  37.131  1.00  0.00     0.023 A 
ATOM     76  C   UNL A   1      39.904  35.162  37.132  1.00  0.00     0.012 A 
ATOM     77  C   UNL A   1      38.782  33.333  38.271  1.00  0.00     0.148 A 
ATOM     78  C   UNL A   1      39.747  35.969  38.258  1.00  0.00     0.002 A 
ATOM     79  C   UNL A   1      38.578  34.160  39.369  1.00  0.00     0.091 A 
ATOM     80  F   UNL A   1      38.357  32.061  38.254  1.00  0.00    -0.205 F 
ATOM     81  C   UNL A   1      39.075  35.472  39.372  1.00  0.00     0.022 A 
BRANCH  79  82
ATOM     82  S   UNL A   1      37.612  33.651  40.795  1.00  0.00     0.127 S 
ATOM     83  O   UNL A   1      38.515  32.710  41.448  1.00  0.00    -0.237 OA
ATOM     84  O   UNL A   1      37.422  34.918  41.499  1.00  0.00    -0.237 OA
ATOM     85  O   UNL A   1      36.384  33.076  40.255  1.00  0.00    -0.744 OA
ENDBRANCH  79  82
ENDBRANCH  51  75
BRANCH  63  86
ATOM     86  C   UNL A   1      44.018  28.838  35.432  1.00  0.00     0.023 A 
ATOM     87  C   UNL A   1      45.303  29.391  35.270  1.00  0.00     0.012 A 
ATOM     88  C   UNL A   1      43.835  27.767  36.329  1.00  0.00     0.148 A 
ATOM     89  C   UNL A   1      46.393  28.866  35.962  1.00  0.00     0.002 A 
ATOM     90  C   UNL A   1      44.916  27.282  37.055  1.00  0.00     0.091 A 
ATOM     91  F   UNL A   1      42.607  27.242  36.457  1.00  0.00    -0.205 F 
ATOM     92  C   UNL A   1      46.198  27.821  36.863  1.00  0.00     0.022 A 
BRANCH  90  93
ATOM     93  S   UNL A   1      44.744  26.007  38.308  1.00  0.00     0.127 S 
ATOM     94  O   UNL A   1      43.843  26.649  39.264  1.00  0.00    -0.237 OA
ATOM     95  O   UNL A   1      44.145  24.908  37.550  1.00  0.00    -0.237 OA
ATOM     96  O   UNL A   1      46.089  25.740  38.800  1.00  0.00    -0.744 OA
ENDBRANCH  90  93
ENDBRANCH  63  86
ENDBRANCH  37  38
ENDBRANCH  29  32
ENDBRANCH  27  28
ENDBRANCH   1  27
TORSDOF 17
ENDMDL
MODEL 2
REMARK VINA RESULT:     -11.8      6.519     11.825
REMARK SMILES CC1(C)CC[NH+](CC[C@H]2CCC[C@]2([NH3+])C(=O)NCCCNC(=O)c2ccc(-c3c4nc(c(-c5cccc(S(=O)(=O)[O-])c5F)c5ccc([nH]5)c(-c5cccc(S(=O)(=O)[O-])c5F)c5nc(c(-c6cccc(S(=O)(=O)[O-])c6F)c6ccc3[nH]6)C=C5)C=C4)cc2)CC1
REMARK SMILES IDX 19 1 18 2 17 3 15 4 16 5 13 7 9 8 10 9 11 10 12 11 8 12 7 13
REMARK SMILES IDX 6 14 1 15 2 16 3 17 4 18 88 19 5 20 87 21 14 23 20 27 21 28
REMARK SMILES IDX 22 29 23 31 24 32 25 33 86 34 26 35 85 36 27 37 28 38 29 39
REMARK SMILES IDX 79 40 30 41 84 42 78 43 80 44 31 45 83 46 77 47 76 48 32 50
REMARK SMILES IDX 64 51 44 52 63 53 45 54 48 55 62 56 81 57 46 58 47 59 61 61
REMARK SMILES IDX 82 62 49 63 33 64 34 65 42 66 35 67 37 68 43 69 36 70 38 71
REMARK SMILES IDX 39 72 40 73 41 74 65 75 66 76 74 77 67 78 69 79 75 80 68 81
REMARK SMILES IDX 70 82 71 83 72 84 73 85 50 86 51 87 59 88 52 89 54 90 60 91
REMARK SMILES IDX 53 92 55 93 56 94 57 95 58 96
REMARK H PARENT 17 6 6 22 14 24 14 25 14 26 21 30 80 49 48 60
REMARK Flexibility Score: inf
ROOT
ATOM      1  C   UNL A   1      37.752  19.621  24.921  1.00  0.00     0.042 C 
ENDROOT
BRANCH   1   2
ATOM      2  C   UNL A   1      36.437  20.388  25.032  1.00  0.00     0.118 C 
BRANCH   2   3
ATOM      3  N   UNL A   1      35.255  19.562  24.831  1.00  0.00    -0.351 N 
ATOM      4  C   UNL A   1      33.934  19.905  24.968  1.00  0.00     0.281 C 
ATOM      5  O   UNL A   1      33.088  19.113  24.542  1.00  0.00    -0.268 OA
ATOM      6  H   UNL A   1      35.428  18.632  24.559  1.00  0.00     0.163 HD
BRANCH   4   7
ATOM      7  C   UNL A   1      33.537  21.256  25.682  1.00  0.00     0.177 C 
ATOM      8  C   UNL A   1      32.201  21.760  25.040  1.00  0.00     0.066 C 
ATOM      9  C   UNL A   1      32.761  22.277  23.703  1.00  0.00     0.011 C 
ATOM     10  C   UNL A   1      34.104  22.922  23.977  1.00  0.00     0.008 C 
ATOM     11  C   UNL A   1      34.531  22.386  25.336  1.00  0.00     0.079 C 
BRANCH   8  12
ATOM     12  C   UNL A   1      31.212  22.544  25.975  1.00  0.00     0.072 C 
BRANCH  12  13
ATOM     13  C   UNL A   1      31.518  23.819  26.791  1.00  0.00     0.262 C 
BRANCH  13  14
ATOM     14  N   UNL A   1      31.123  25.175  26.399  1.00  0.00    -0.335 N 
ATOM     15  C   UNL A   1      32.096  28.086  24.064  1.00  0.00     0.011 C 
ATOM     16  C   UNL A   1      32.419  26.577  24.072  1.00  0.00    -0.025 C 
ATOM     17  C   UNL A   1      33.397  26.272  22.916  1.00  0.00     0.011 C 
ATOM     18  C   UNL A   1      33.101  26.248  25.404  1.00  0.00     0.068 C 
ATOM     19  C   UNL A   1      31.173  25.665  23.897  1.00  0.00     0.068 C 
ATOM     20  C   UNL A   1      32.106  26.217  26.573  1.00  0.00     0.262 C 
ATOM     21  C   UNL A   1      30.357  25.389  25.170  1.00  0.00     0.262 C 
ATOM     22  H   UNL A   1      30.423  25.267  27.135  1.00  0.00     0.348 HD
ENDBRANCH  13  14
ENDBRANCH  12  13
ENDBRANCH   8  12
BRANCH   7  23
ATOM     23  N   UNL A   1      33.599  21.014  27.134  1.00  0.00    -0.345 N 
ATOM     24  H   UNL A   1      33.466  21.893  27.632  1.00  0.00     0.345 HD
ATOM     25  H   UNL A   1      34.510  20.621  27.375  1.00  0.00     0.345 HD
ATOM     26  H   UNL A   1      32.865  20.357  27.401  1.00  0.00     0.345 HD
ENDBRANCH   7  23
ENDBRANCH   4   7
ENDBRANCH   2   3
ENDBRANCH   1   2
BRANCH   1  27
ATOM     27  C   UNL A   1      38.901  20.173  25.754  1.00  0.00     0.118 C 
BRANCH  27  28
ATOM     28  N   UNL A   1      39.996  19.228  25.909  1.00  0.00    -0.352 N 
ATOM     29  C   UNL A   1      41.332  19.439  26.145  1.00  0.00     0.251 C 
ATOM     30  H   UNL A   1      39.737  18.281  25.832  1.00  0.00     0.163 HD
ATOM     31  O   UNL A   1      42.107  18.489  26.076  1.00  0.00    -0.269 OA
BRANCH  29  32
ATOM     32  C   UNL A   1      41.847  20.790  26.465  1.00  0.00     0.039 A 
ATOM     33  C   UNL A   1      42.062  21.688  25.415  1.00  0.00     0.014 A 
ATOM     34  C   UNL A   1      42.158  21.165  27.774  1.00  0.00     0.014 A 
ATOM     35  C   UNL A   1      42.532  22.977  25.684  1.00  0.00     0.010 A 
ATOM     36  C   UNL A   1      42.552  22.473  28.049  1.00  0.00     0.010 A 
ATOM     37  C   UNL A   1      42.751  23.392  27.008  1.00  0.00    -0.014 A 
BRANCH  37  38
ATOM     38  C   UNL A   1      43.174  24.782  27.319  1.00  0.00     0.031 A 
ATOM     39  C   UNL A   1      42.209  25.754  27.944  1.00  0.00     0.074 A 
ATOM     40  C   UNL A   1      44.407  25.197  26.962  1.00  0.00     0.049 A 
ATOM     41  N   UNL A   1      42.381  27.018  28.231  1.00  0.00    -0.248 NA
ATOM     42  C   UNL A   1      40.865  25.244  28.267  1.00  0.00     0.031 C 
ATOM     43  C   UNL A   1      45.412  24.376  26.285  1.00  0.00     0.029 A 
ATOM     44  N   UNL A   1      45.014  26.422  27.092  1.00  0.00    -0.354 N 
ATOM     45  C   UNL A   1      41.163  27.465  28.732  1.00  0.00     0.074 A 
ATOM     46  C   UNL A   1      40.251  26.344  28.680  1.00  0.00     0.031 C 
ATOM     47  C   UNL A   1      46.509  25.116  26.064  1.00  0.00     0.029 A 
ATOM     48  C   UNL A   1      46.276  26.472  26.548  1.00  0.00     0.049 A 
ATOM     49  H   UNL A   1      44.587  27.190  27.534  1.00  0.00     0.167 HD
ATOM     50  C   UNL A   1      40.841  28.689  29.216  1.00  0.00     0.034 A 
ATOM     51  C   UNL A   1      47.143  27.497  26.437  1.00  0.00     0.034 A 
ATOM     52  C   UNL A   1      41.761  29.792  29.299  1.00  0.00     0.049 A 
ATOM     53  C   UNL A   1      46.769  28.840  27.005  1.00  0.00     0.074 A 
ATOM     54  C   UNL A   1      41.553  31.044  29.851  1.00  0.00     0.029 A 
ATOM     55  N   UNL A   1      43.056  29.783  28.805  1.00  0.00    -0.354 N 
ATOM     56  N   UNL A   1      45.666  29.198  27.616  1.00  0.00    -0.248 NA
ATOM     57  C   UNL A   1      47.772  29.909  26.900  1.00  0.00     0.031 C 
ATOM     58  C   UNL A   1      42.713  31.803  29.663  1.00  0.00     0.029 A 
ATOM     59  C   UNL A   1      43.656  31.011  29.026  1.00  0.00     0.049 A 
ATOM     60  H   UNL A   1      43.486  29.016  28.363  1.00  0.00     0.167 HD
ATOM     61  C   UNL A   1      45.857  30.522  28.001  1.00  0.00     0.074 A 
ATOM     62  C   UNL A   1      47.189  30.892  27.572  1.00  0.00     0.031 C 
ATOM     63  C   UNL A   1      45.001  31.356  28.639  1.00  0.00     0.034 A 
BRANCH  50  64
ATOM     64  C   UNL A   1      39.440  28.889  29.736  1.00  0.00     0.023 A 
ATOM     65  C   UNL A   1      39.125  28.513  31.058  1.00  0.00     0.012 A 
ATOM     66  C   UNL A   1      38.451  29.502  28.941  1.00  0.00     0.148 A 
ATOM     67  C   UNL A   1      37.841  28.706  31.567  1.00  0.00     0.002 A 
ATOM     68  C   UNL A   1      37.188  29.735  29.470  1.00  0.00     0.091 A 
ATOM     69  F   UNL A   1      38.762  29.836  27.680  1.00  0.00    -0.205 F 
ATOM     70  C   UNL A   1      36.877  29.325  30.778  1.00  0.00     0.022 A 
BRANCH  68  71
ATOM     71  S   UNL A   1      35.900  30.600  28.564  1.00  0.00     0.127 S 
ATOM     72  O   UNL A   1      35.202  29.491  27.912  1.00  0.00    -0.237 OA
ATOM     73  O   UNL A   1      35.147  31.244  29.641  1.00  0.00    -0.237 OA
ATOM     74  O   UNL A   1      36.586  31.519  27.667  1.00  0.00    -0.744 OA
ENDBRANCH  68  71
ENDBRANCH  50  64
BRANCH  51  75
ATOM     75  C   UNL A   1      48.479  27.280  25.809  1.00  0.00     0.023 A 
ATOM     76  C   UNL A   1      49.545  26.802  26.596  1.00  0.00     0.012 A 
ATOM     77  C   UNL A   1      48.690  27.519  24.438  1.00  0.00     0.148 A 
ATOM     78  C   UNL A   1      50.807  26.602  26.037  1.00  0.00     0.002 A 
ATOM     79  C   UNL A   1      49.935  27.263  23.875  1.00  0.00     0.091 A 
ATOM     80  F   UNL A   1      47.665  27.982  23.708  1.00  0.00    -0.205 F 
ATOM     81  C   UNL A   1      50.999  26.822  24.676  1.00  0.00     0.022 A 
BRANCH  79  82
ATOM     82  S   UNL A   1      50.242  27.392  22.110  1.00  0.00     0.127 S 
ATOM     83  O   UNL A   1      51.626  26.943  22.013  1.00  0.00    -0.237 OA
ATOM     84  O   UNL A   1      49.250  26.468  21.563  1.00  0.00    -0.237 OA
ATOM     85  O   UNL A   1      50.007  28.792  21.771  1.00  0.00    -0.744 OA
ENDBRANCH  79  82
ENDBRANCH  51  75
BRANCH  63  86
ATOM     86  C   UNL A   1      45.485  32.748  28.957  1.00  0.00     0.023 A 
ATOM     87  C   UNL A   1      46.188  32.993  30.153  1.00  0.00     0.012 A 
ATOM     88  C   UNL A   1      45.304  33.797  28.035  1.00  0.00     0.148 A 
ATOM     89  C   UNL A   1      46.672  34.268  30.442  1.00  0.00     0.002 A 
ATOM     90  C   UNL A   1      45.834  35.053  28.305  1.00  0.00     0.091 A 
ATOM     91  F   UNL A   1      44.617  33.548  26.910  1.00  0.00    -0.205 F 
ATOM     92  C   UNL A   1      46.506  35.294  29.513  1.00  0.00     0.022 A 
BRANCH  90  93
ATOM     93  S   UNL A   1      45.756  36.407  27.127  1.00  0.00     0.127 S 
ATOM     94  O   UNL A   1      46.402  35.820  25.955  1.00  0.00    -0.237 OA
ATOM     95  O   UNL A   1      44.314  36.613  26.988  1.00  0.00    -0.237 OA
ATOM     96  O   UNL A   1      46.469  37.518  27.742  1.00  0.00    -0.744 OA
ENDBRANCH  90  93
ENDBRANCH  63  86
ENDBRANCH  37  38
ENDBRANCH  29  32
ENDBRANCH  27  28
ENDBRANCH   1  27
TORSDOF 17
ENDMDL
MODEL 3
REMARK VINA RESULT:     -11.7      5.892     11.898
REMARK SMILES CC1(C)CC[NH+](CC[C@H]2CCC[C@]2([NH3+])C(=O)NCCCNC(=O)c2ccc(-c3c4nc(c(-c5cccc(S(=O)(=O)[O-])c5F)c5ccc([nH]5)c(-c5cccc(S(=O)(=O)[O-])c5F)c5nc(c(-c6cccc(S(=O)(=O)[O-])c6F)c6ccc3[nH]6)C=C5)C=C4)cc2)CC1
REMARK SMILES IDX 19 1 18 2 17 3 15 4 16 5 13 7 9 8 10 9 11 10 12 11 8 12 7 13
REMARK SMILES IDX 6 14 1 15 2 16 3 17 4 18 88 19 5 20 87 21 14 23 20 27 21 28
REMARK SMILES IDX 22 29 23 31 24 32 25 33 86 34 26 35 85 36 27 37 28 38 29 39
REMARK SMILES IDX 79 40 30 41 84 42 78 43 80 44 31 45 83 46 77 47 76 48 32 50
REMARK SMILES IDX 64 51 44 52 63 53 45 54 48 55 62 56 81 57 46 58 47 59 61 61
REMARK SMILES IDX 82 62 49 63 33 64 34 65 42 66 35 67 37 68 43 69 36 70 38 71
REMARK SMILES IDX 39 72 40 73 41 74 65 75 66 76 74 77 67 78 69 79 75 80 68 81
REMARK SMILES IDX 70 82 71 83 72 84 73 85 50 86 51 87 59 88 52 89 54 90 60 91
REMARK SMILES IDX 53 92 55 93 56 94 57 95 58 96
REMARK H PARENT 17 6 6 22 14 24 14 25 14 26 21 30 80 49 48 60
REMARK Flexibility Score: inf
ROOT
ATOM      1  C   UNL A   1      37.805  20.123  24.917  1.00  0.00     0.042 C 
ENDROOT
BRANCH   1   2
ATOM      2  C   UNL A   1      36.633  21.102  24.892  1.00  0.00     0.118 C 
BRANCH   2   3
ATOM      3  N   UNL A   1      35.974  21.262  26.181  1.00  0.00    -0.351 N 
ATOM      4  C   UNL A   1      34.673  21.609  26.443  1.00  0.00     0.281 C 
ATOM      5  O   UNL A   1      34.267  21.480  27.601  1.00  0.00    -0.268 OA
ATOM      6  H   UNL A   1      36.539  21.100  26.970  1.00  0.00     0.163 HD
BRANCH   4   7
ATOM      7  C   UNL A   1      33.760  22.183  25.290  1.00  0.00     0.177 C 
ATOM      8  C   UNL A   1      34.450  23.474  24.734  1.00  0.00     0.066 C 
ATOM      9  C   UNL A   1      34.119  24.435  25.891  1.00  0.00     0.011 C 
ATOM     10  C   UNL A   1      32.720  24.117  26.376  1.00  0.00     0.008 C 
ATOM     11  C   UNL A   1      32.424  22.721  25.847  1.00  0.00     0.079 C 
BRANCH   8  12
ATOM     12  C   UNL A   1      34.254  23.787  23.208  1.00  0.00     0.072 C 
BRANCH  12  13
ATOM     13  C   UNL A   1      32.949  24.230  22.510  1.00  0.00     0.262 C 
BRANCH  13  14
ATOM     14  N   UNL A   1      32.595  25.620  22.209  1.00  0.00    -0.335 N 
ATOM     15  C   UNL A   1      31.263  28.855  23.833  1.00  0.00     0.011 C 
ATOM     16  C   UNL A   1      31.927  27.579  24.394  1.00  0.00    -0.025 C 
ATOM     17  C   UNL A   1      31.957  27.671  25.935  1.00  0.00     0.011 C 
ATOM     18  C   UNL A   1      31.068  26.380  23.982  1.00  0.00     0.068 C 
ATOM     19  C   UNL A   1      33.383  27.357  23.900  1.00  0.00     0.068 C 
ATOM     20  C   UNL A   1      31.240  26.025  22.498  1.00  0.00     0.262 C 
ATOM     21  C   UNL A   1      33.533  26.700  22.519  1.00  0.00     0.262 C 
ATOM     22  H   UNL A   1      32.687  25.506  21.200  1.00  0.00     0.348 HD
ENDBRANCH  13  14
ENDBRANCH  12  13
ENDBRANCH   8  12
BRANCH   7  23
ATOM     23  N   UNL A   1      33.463  21.067  24.375  1.00  0.00    -0.345 N 
ATOM     24  H   UNL A   1      34.293  20.849  23.824  1.00  0.00     0.345 HD
ATOM     25  H   UNL A   1      32.701  21.332  23.750  1.00  0.00     0.345 HD
ATOM     26  H   UNL A   1      33.189  20.246  24.916  1.00  0.00     0.345 HD
ENDBRANCH   7  23
ENDBRANCH   4   7
ENDBRANCH   2   3
ENDBRANCH   1   2
BRANCH   1  27
ATOM     27  C   UNL A   1      38.949  20.501  25.847  1.00  0.00     0.118 C 
BRANCH  27  28
ATOM     28  N   UNL A   1      39.983  19.481  25.921  1.00  0.00    -0.352 N 
ATOM     29  C   UNL A   1      41.340  19.595  26.093  1.00  0.00     0.251 C 
ATOM     30  H   UNL A   1      39.656  18.556  25.832  1.00  0.00     0.163 HD
ATOM     31  O   UNL A   1      42.044  18.597  25.959  1.00  0.00    -0.269 OA
BRANCH  29  32
ATOM     32  C   UNL A   1      41.962  20.897  26.422  1.00  0.00     0.039 A 
ATOM     33  C   UNL A   1      42.236  21.789  25.379  1.00  0.00     0.014 A 
ATOM     34  C   UNL A   1      42.314  21.232  27.731  1.00  0.00     0.014 A 
ATOM     35  C   UNL A   1      42.807  23.033  25.657  1.00  0.00     0.010 A 
ATOM     36  C   UNL A   1      42.812  22.503  28.017  1.00  0.00     0.010 A 
ATOM     37  C   UNL A   1      43.071  23.415  26.983  1.00  0.00    -0.014 A 
BRANCH  37  38
ATOM     38  C   UNL A   1      43.604  24.765  27.304  1.00  0.00     0.031 A 
ATOM     39  C   UNL A   1      42.689  25.848  27.812  1.00  0.00     0.074 A 
ATOM     40  C   UNL A   1      44.901  25.042  27.060  1.00  0.00     0.049 A 
ATOM     41  N   UNL A   1      42.963  27.096  28.088  1.00  0.00    -0.248 NA
ATOM     42  C   UNL A   1      41.276  25.486  28.013  1.00  0.00     0.031 C 
ATOM     43  C   UNL A   1      45.876  24.103  26.502  1.00  0.00     0.029 A 
ATOM     44  N   UNL A   1      45.616  26.203  27.224  1.00  0.00    -0.354 N 
ATOM     45  C   UNL A   1      41.756  27.679  28.458  1.00  0.00     0.074 A 
ATOM     46  C   UNL A   1      40.742  26.655  28.341  1.00  0.00     0.031 C 
ATOM     47  C   UNL A   1      47.060  24.721  26.373  1.00  0.00     0.029 A 
ATOM     48  C   UNL A   1      46.923  26.109  26.804  1.00  0.00     0.049 A 
ATOM     49  H   UNL A   1      45.231  27.024  27.606  1.00  0.00     0.167 HD
ATOM     50  C   UNL A   1      41.517  28.943  28.882  1.00  0.00     0.034 A 
ATOM     51  C   UNL A   1      47.898  27.038  26.757  1.00  0.00     0.034 A 
ATOM     52  C   UNL A   1      42.534  29.950  29.031  1.00  0.00     0.049 A 
ATOM     53  C   UNL A   1      47.612  28.428  27.256  1.00  0.00     0.074 A 
ATOM     54  C   UNL A   1      42.405  31.233  29.534  1.00  0.00     0.029 A 
ATOM     55  N   UNL A   1      43.863  29.796  28.666  1.00  0.00    -0.354 N 
ATOM     56  N   UNL A   1      46.499  28.914  27.750  1.00  0.00    -0.248 NA
ATOM     57  C   UNL A   1      48.726  29.387  27.228  1.00  0.00     0.031 C 
ATOM     58  C   UNL A   1      43.650  31.865  29.443  1.00  0.00     0.029 A 
ATOM     59  C   UNL A   1      44.562  30.963  28.918  1.00  0.00     0.049 A 
ATOM     60  H   UNL A   1      44.251  28.976  28.284  1.00  0.00     0.167 HD
ATOM     61  C   UNL A   1      46.788  30.223  28.123  1.00  0.00     0.074 A 
ATOM     62  C   UNL A   1      48.186  30.444  27.818  1.00  0.00     0.031 C 
ATOM     63  C   UNL A   1      45.966  31.159  28.657  1.00  0.00     0.034 A 
BRANCH  50  64
ATOM     64  C   UNL A   1      40.101  29.300  29.259  1.00  0.00     0.023 A 
ATOM     65  C   UNL A   1      39.181  29.662  28.254  1.00  0.00     0.012 A 
ATOM     66  C   UNL A   1      39.665  29.221  30.597  1.00  0.00     0.148 A 
ATOM     67  C   UNL A   1      37.862  29.978  28.578  1.00  0.00     0.002 A 
ATOM     68  C   UNL A   1      38.337  29.490  30.905  1.00  0.00     0.091 A 
ATOM     69  F   UNL A   1      40.558  28.893  31.542  1.00  0.00    -0.205 F 
ATOM     70  C   UNL A   1      37.438  29.882  29.900  1.00  0.00     0.022 A 
BRANCH  68  71
ATOM     71  S   UNL A   1      37.671  29.315  32.565  1.00  0.00     0.127 S 
ATOM     72  O   UNL A   1      38.563  30.183  33.333  1.00  0.00    -0.237 OA
ATOM     73  O   UNL A   1      36.310  29.828  32.404  1.00  0.00    -0.237 OA
ATOM     74  O   UNL A   1      37.754  27.897  32.884  1.00  0.00    -0.744 OA
ENDBRANCH  68  71
ENDBRANCH  50  64
BRANCH  51  75
ATOM     75  C   UNL A   1      49.257  26.667  26.266  1.00  0.00     0.023 A 
ATOM     76  C   UNL A   1      50.066  25.818  27.045  1.00  0.00     0.012 A 
ATOM     77  C   UNL A   1      49.740  27.131  25.028  1.00  0.00     0.148 A 
ATOM     78  C   UNL A   1      51.346  25.465  26.617  1.00  0.00     0.002 A 
ATOM     79  C   UNL A   1      50.993  26.729  24.580  1.00  0.00     0.091 A 
ATOM     80  F   UNL A   1      48.957  27.945  24.305  1.00  0.00    -0.205 F 
ATOM     81  C   UNL A   1      51.805  25.912  25.381  1.00  0.00     0.022 A 
BRANCH  79  82
ATOM     82  S   UNL A   1      51.615  27.147  22.948  1.00  0.00     0.127 S 
ATOM     83  O   UNL A   1      52.809  26.315  22.859  1.00  0.00    -0.237 OA
ATOM     84  O   UNL A   1      50.506  26.735  22.088  1.00  0.00    -0.237 OA
ATOM     85  O   UNL A   1      51.849  28.588  22.972  1.00  0.00    -0.744 OA
ENDBRANCH  79  82
ENDBRANCH  51  75
BRANCH  63  86
ATOM     86  C   UNL A   1      46.559  32.504  28.992  1.00  0.00     0.023 A 
ATOM     87  C   UNL A   1      47.140  32.723  30.256  1.00  0.00     0.012 A 
ATOM     88  C   UNL A   1      46.603  33.527  28.024  1.00  0.00     0.148 A 
ATOM     89  C   UNL A   1      47.724  33.951  30.564  1.00  0.00     0.002 A 
ATOM     90  C   UNL A   1      47.232  34.730  28.320  1.00  0.00     0.091 A 
ATOM     91  F   UNL A   1      46.029  33.306  26.832  1.00  0.00    -0.205 F 
ATOM     92  C   UNL A   1      47.780  34.950  29.594  1.00  0.00     0.022 A 
BRANCH  90  93
ATOM     93  S   UNL A   1      47.440  36.035  27.104  1.00  0.00     0.127 S 
ATOM     94  O   UNL A   1      46.056  36.426  26.845  1.00  0.00    -0.237 OA
ATOM     95  O   UNL A   1      48.225  37.024  27.843  1.00  0.00    -0.237 OA
ATOM     96  O   UNL A   1      48.138  35.429  25.978  1.00  0.00    -0.744 OA
ENDBRANCH  90  93
ENDBRANCH  63  86
ENDBRANCH  37  38
ENDBRANCH  29  32
ENDBRANCH  27  28
ENDBRANCH   1  27
TORSDOF 17
ENDMDL
