MODEL 1
REMARK VINA RESULT:     -11.5      0.000      0.000
REMARK SMILES CC(C)[C@H](NS(=O)(=O)N1C[C@@H](C)O[C@H](C)C1)C(=O)NCCCNC(=O)c1ccc(-c2c3nc(c(-c4cccc(S(=O)(=O)[O-])c4F)c4ccc([nH]4)c(-c4cccc(S(=O)(=O)[O-])c4F)c4nc(c(-c5cccc(S(=O)(=O)[O-])c5F)c5ccc2[nH]5)C=C4)C=C3)cc1
REMARK SMILES IDX 21 1 20 2 19 3 17 4 18 5 4 7 2 8 1 9 3 10 5 11 6 13 7 14
REMARK SMILES IDX 8 15 9 16 10 17 16 18 11 19 14 20 12 21 13 22 15 23 22 24
REMARK SMILES IDX 23 25 24 26 25 28 26 29 27 30 88 31 28 32 87 33 29 34 30 35
REMARK SMILES IDX 31 36 81 37 32 38 86 39 80 40 82 41 33 42 85 43 79 44 78 45
REMARK SMILES IDX 34 47 66 48 46 49 65 50 47 51 50 52 64 53 83 54 48 55 49 56
REMARK SMILES IDX 63 58 84 59 51 60 35 61 36 62 44 63 37 64 39 65 45 66 38 67
REMARK SMILES IDX 40 68 41 69 42 70 43 71 67 72 68 73 76 74 69 75 71 76 77 77
REMARK SMILES IDX 70 78 72 79 73 80 74 81 75 82 52 83 53 84 61 85 54 86 56 87
REMARK SMILES IDX 62 88 55 89 57 90 58 91 59 92 60 93
REMARK H PARENT 19 6 5 12 23 27 82 46 50 57
REMARK Flexibility Score: inf
ROOT
ATOM      1  C   UNL A   1      31.939  28.722  26.267  1.00  0.00     0.042 C 
ENDROOT
BRANCH   1   2
ATOM      2  C   UNL A   1      32.198  27.240  26.526  1.00  0.00     0.117 C 
BRANCH   2   3
ATOM      3  N   UNL A   1      30.975  26.538  26.836  1.00  0.00    -0.355 N 
ATOM      4  C   UNL A   1      30.279  25.620  26.125  1.00  0.00     0.238 C 
ATOM      5  O   UNL A   1      29.269  25.165  26.682  1.00  0.00    -0.273 OA
ATOM      6  H   UNL A   1      30.582  26.764  27.709  1.00  0.00     0.163 HD
BRANCH   4   7
ATOM      7  C   UNL A   1      30.650  25.124  24.709  1.00  0.00     0.162 C 
BRANCH   7   8
ATOM      8  C   UNL A   1      30.175  25.915  23.475  1.00  0.00     0.010 C 
ATOM      9  C   UNL A   1      29.484  27.244  23.788  1.00  0.00     0.009 C 
ATOM     10  C   UNL A   1      31.381  26.220  22.564  1.00  0.00     0.009 C 
ENDBRANCH   7   8
BRANCH   7  11
ATOM     11  N   UNL A   1      30.667  23.652  24.540  1.00  0.00    -0.189 NA
ATOM     12  H   UNL A   1      30.725  23.504  23.533  1.00  0.00     0.143 HD
BRANCH  11  13
ATOM     13  S   UNL A   1      31.746  22.585  25.187  1.00  0.00     0.280 S 
ATOM     14  O   UNL A   1      32.602  23.413  26.002  1.00  0.00    -0.195 OA
ATOM     15  O   UNL A   1      31.080  21.450  25.750  1.00  0.00    -0.195 OA
BRANCH  13  16
ATOM     16  N   UNL A   1      32.622  21.943  23.931  1.00  0.00    -0.184 NA
ATOM     17  C   UNL A   1      33.085  22.725  22.779  1.00  0.00     0.135 C 
ATOM     18  C   UNL A   1      33.714  21.027  24.404  1.00  0.00     0.135 C 
ATOM     19  C   UNL A   1      34.454  23.390  22.970  1.00  0.00     0.130 C 
ATOM     20  C   UNL A   1      34.967  21.851  24.751  1.00  0.00     0.130 C 
ATOM     21  C   UNL A   1      34.346  24.751  23.645  1.00  0.00     0.040 C 
ATOM     22  O   UNL A   1      35.440  22.538  23.576  1.00  0.00    -0.373 OA
ATOM     23  C   UNL A   1      36.075  20.953  25.286  1.00  0.00     0.040 C 
ENDBRANCH  13  16
ENDBRANCH  11  13
ENDBRANCH   7  11
ENDBRANCH   4   7
ENDBRANCH   2   3
ENDBRANCH   1   2
BRANCH   1  24
ATOM     24  C   UNL A   1      33.203  29.482  25.924  1.00  0.00     0.118 C 
BRANCH  24  25
ATOM     25  N   UNL A   1      33.061  30.897  26.266  1.00  0.00    -0.352 N 
ATOM     26  C   UNL A   1      33.671  31.640  27.245  1.00  0.00     0.251 C 
ATOM     27  H   UNL A   1      32.426  31.396  25.704  1.00  0.00     0.163 HD
ATOM     28  O   UNL A   1      33.192  32.727  27.558  1.00  0.00    -0.269 OA
BRANCH  26  29
ATOM     29  C   UNL A   1      34.896  31.147  27.910  1.00  0.00     0.039 A 
ATOM     30  C   UNL A   1      36.007  31.989  28.006  1.00  0.00     0.014 A 
ATOM     31  C   UNL A   1      34.966  29.844  28.405  1.00  0.00     0.014 A 
ATOM     32  C   UNL A   1      37.169  31.531  28.630  1.00  0.00     0.010 A 
ATOM     33  C   UNL A   1      36.069  29.438  29.139  1.00  0.00     0.010 A 
ATOM     34  C   UNL A   1      37.198  30.261  29.226  1.00  0.00    -0.014 A 
BRANCH  34  35
ATOM     35  C   UNL A   1      38.404  29.746  29.917  1.00  0.00     0.031 A 
ATOM     36  C   UNL A   1      38.754  30.258  31.291  1.00  0.00     0.074 A 
ATOM     37  C   UNL A   1      39.224  28.894  29.274  1.00  0.00     0.049 A 
ATOM     38  N   UNL A   1      39.802  29.995  32.026  1.00  0.00    -0.248 NA
ATOM     39  C   UNL A   1      37.823  31.222  31.904  1.00  0.00     0.031 C 
ATOM     40  C   UNL A   1      39.025  28.391  27.913  1.00  0.00     0.029 A 
ATOM     41  N   UNL A   1      40.401  28.316  29.672  1.00  0.00    -0.354 N 
ATOM     42  C   UNL A   1      39.675  30.786  33.162  1.00  0.00     0.074 A 
ATOM     43  C   UNL A   1      38.480  31.581  32.996  1.00  0.00     0.031 C 
ATOM     44  C   UNL A   1      40.033  27.564  27.597  1.00  0.00     0.029 A 
ATOM     45  C   UNL A   1      40.970  27.511  28.714  1.00  0.00     0.049 A 
ATOM     46  H   UNL A   1      40.800  28.464  30.559  1.00  0.00     0.167 HD
ATOM     47  C   UNL A   1      40.463  30.824  34.262  1.00  0.00     0.034 A 
ATOM     48  C   UNL A   1      42.123  26.816  28.734  1.00  0.00     0.034 A 
ATOM     49  C   UNL A   1      41.629  30.002  34.432  1.00  0.00     0.049 A 
ATOM     50  C   UNL A   1      42.971  26.859  29.975  1.00  0.00     0.074 A 
ATOM     51  C   UNL A   1      42.457  29.899  35.536  1.00  0.00     0.029 A 
ATOM     52  N   UNL A   1      42.138  29.147  33.467  1.00  0.00    -0.354 N 
ATOM     53  N   UNL A   1      42.762  27.504  31.097  1.00  0.00    -0.248 NA
ATOM     54  C   UNL A   1      44.199  26.052  29.965  1.00  0.00     0.031 C 
ATOM     55  C   UNL A   1      43.488  29.008  35.222  1.00  0.00     0.029 A 
ATOM     56  C   UNL A   1      43.278  28.521  33.942  1.00  0.00     0.049 A 
ATOM     57  H   UNL A   1      41.747  29.005  32.575  1.00  0.00     0.167 HD
ATOM     58  C   UNL A   1      43.807  27.149  31.942  1.00  0.00     0.074 A 
ATOM     59  C   UNL A   1      44.638  26.217  31.205  1.00  0.00     0.031 C 
ATOM     60  C   UNL A   1      44.062  27.560  33.209  1.00  0.00     0.034 A 
BRANCH  47  61
ATOM     61  C   UNL A   1      40.059  31.754  35.379  1.00  0.00     0.023 A 
ATOM     62  C   UNL A   1      40.650  33.032  35.476  1.00  0.00     0.012 A 
ATOM     63  C   UNL A   1      39.074  31.379  36.315  1.00  0.00     0.148 A 
ATOM     64  C   UNL A   1      40.306  33.900  36.512  1.00  0.00     0.002 A 
ATOM     65  C   UNL A   1      38.698  32.271  37.312  1.00  0.00     0.091 A 
ATOM     66  F   UNL A   1      38.536  30.155  36.222  1.00  0.00    -0.205 F 
ATOM     67  C   UNL A   1      39.324  33.524  37.423  1.00  0.00     0.022 A 
BRANCH  65  68
ATOM     68  S   UNL A   1      37.385  31.916  38.485  1.00  0.00     0.127 S 
ATOM     69  O   UNL A   1      37.092  30.514  38.185  1.00  0.00    -0.237 OA
ATOM     70  O   UNL A   1      38.051  32.139  39.768  1.00  0.00    -0.237 OA
ATOM     71  O   UNL A   1      36.313  32.855  38.185  1.00  0.00    -0.744 OA
ENDBRANCH  65  68
ENDBRANCH  47  61
BRANCH  48  72
ATOM     72  C   UNL A   1      42.504  25.966  27.571  1.00  0.00     0.023 A 
ATOM     73  C   UNL A   1      43.346  26.498  26.575  1.00  0.00     0.012 A 
ATOM     74  C   UNL A   1      42.061  24.635  27.456  1.00  0.00     0.148 A 
ATOM     75  C   UNL A   1      43.711  25.733  25.467  1.00  0.00     0.002 A 
ATOM     76  C   UNL A   1      42.471  23.860  26.377  1.00  0.00     0.091 A 
ATOM     77  F   UNL A   1      41.258  24.149  28.413  1.00  0.00    -0.205 F 
ATOM     78  C   UNL A   1      43.280  24.412  25.372  1.00  0.00     0.022 A 
BRANCH  76  79
ATOM     79  S   UNL A   1      42.070  22.116  26.231  1.00  0.00     0.127 S 
ATOM     80  O   UNL A   1      42.809  21.740  25.028  1.00  0.00    -0.237 OA
ATOM     81  O   UNL A   1      42.610  21.578  27.480  1.00  0.00    -0.237 OA
ATOM     82  O   UNL A   1      40.619  22.051  26.124  1.00  0.00    -0.744 OA
ENDBRANCH  76  79
ENDBRANCH  48  72
BRANCH  60  83
ATOM     83  C   UNL A   1      45.261  26.971  33.903  1.00  0.00     0.023 A 
ATOM     84  C   UNL A   1      46.500  27.640  33.869  1.00  0.00     0.012 A 
ATOM     85  C   UNL A   1      45.137  25.783  34.651  1.00  0.00     0.148 A 
ATOM     86  C   UNL A   1      47.606  27.117  34.536  1.00  0.00     0.002 A 
ATOM     87  C   UNL A   1      46.227  25.298  35.360  1.00  0.00     0.091 A 
ATOM     88  F   UNL A   1      43.953  25.153  34.658  1.00  0.00    -0.205 F 
ATOM     89  C   UNL A   1      47.467  25.954  35.291  1.00  0.00     0.022 A 
BRANCH  87  90
ATOM     90  S   UNL A   1      46.116  23.868  36.440  1.00  0.00     0.127 S 
ATOM     91  O   UNL A   1      47.437  23.266  36.274  1.00  0.00    -0.237 OA
ATOM     92  O   UNL A   1      45.886  24.486  37.746  1.00  0.00    -0.237 OA
ATOM     93  O   UNL A   1      45.002  23.071  35.943  1.00  0.00    -0.744 OA
ENDBRANCH  87  90
ENDBRANCH  60  83
ENDBRANCH  34  35
ENDBRANCH  26  29
ENDBRANCH  24  25
ENDBRANCH   1  24
TORSDOF 17
ENDMDL
MODEL 2
REMARK VINA RESULT:     -11.4      1.688      2.111
REMARK SMILES CC(C)[C@H](NS(=O)(=O)N1C[C@@H](C)O[C@H](C)C1)C(=O)NCCCNC(=O)c1ccc(-c2c3nc(c(-c4cccc(S(=O)(=O)[O-])c4F)c4ccc([nH]4)c(-c4cccc(S(=O)(=O)[O-])c4F)c4nc(c(-c5cccc(S(=O)(=O)[O-])c5F)c5ccc2[nH]5)C=C4)C=C3)cc1
REMARK SMILES IDX 21 1 20 2 19 3 17 4 18 5 4 7 2 8 1 9 3 10 5 11 6 13 7 14
REMARK SMILES IDX 8 15 9 16 10 17 16 18 11 19 14 20 12 21 13 22 15 23 22 24
REMARK SMILES IDX 23 25 24 26 25 28 26 29 27 30 88 31 28 32 87 33 29 34 30 35
REMARK SMILES IDX 31 36 81 37 32 38 86 39 80 40 82 41 33 42 85 43 79 44 78 45
REMARK SMILES IDX 34 47 66 48 46 49 65 50 47 51 50 52 64 53 83 54 48 55 49 56
REMARK SMILES IDX 63 58 84 59 51 60 35 61 36 62 44 63 37 64 39 65 45 66 38 67
REMARK SMILES IDX 40 68 41 69 42 70 43 71 67 72 68 73 76 74 69 75 71 76 77 77
REMARK SMILES IDX 70 78 72 79 73 80 74 81 75 82 52 83 53 84 61 85 54 86 56 87
REMARK SMILES IDX 62 88 55 89 57 90 58 91 59 92 60 93
REMARK H PARENT 19 6 5 12 23 27 82 46 50 57
REMARK Flexibility Score: inf
ROOT
ATOM      1  C   UNL A   1      31.689  28.878  26.066  1.00  0.00     0.042 C 
ENDROOT
BRANCH   1   2
ATOM      2  C   UNL A   1      32.102  27.607  26.803  1.00  0.00     0.117 C 
BRANCH   2   3
ATOM      3  N   UNL A   1      31.129  26.553  26.623  1.00  0.00    -0.355 N 
ATOM      4  C   UNL A   1      30.673  25.956  25.497  1.00  0.00     0.238 C 
ATOM      5  O   UNL A   1      29.851  25.045  25.671  1.00  0.00    -0.273 OA
ATOM      6  H   UNL A   1      30.733  26.214  27.457  1.00  0.00     0.163 HD
BRANCH   4   7
ATOM      7  C   UNL A   1      31.094  26.331  24.059  1.00  0.00     0.162 C 
BRANCH   7   8
ATOM      8  C   UNL A   1      30.049  26.908  23.084  1.00  0.00     0.010 C 
ATOM      9  C   UNL A   1      28.676  27.183  23.699  1.00  0.00     0.009 C 
ATOM     10  C   UNL A   1      30.571  28.235  22.496  1.00  0.00     0.009 C 
ENDBRANCH   7   8
BRANCH   7  11
ATOM     11  N   UNL A   1      32.098  25.433  23.440  1.00  0.00    -0.189 NA
ATOM     12  H   UNL A   1      31.667  25.115  22.573  1.00  0.00     0.143 HD
BRANCH  11  13
ATOM     13  S   UNL A   1      33.651  25.806  23.028  1.00  0.00     0.280 S 
ATOM     14  O   UNL A   1      33.549  26.241  21.657  1.00  0.00    -0.195 OA
ATOM     15  O   UNL A   1      34.263  26.644  24.015  1.00  0.00    -0.195 OA
BRANCH  13  16
ATOM     16  N   UNL A   1      34.535  24.402  23.103  1.00  0.00    -0.184 NA
ATOM     17  C   UNL A   1      35.245  23.952  24.305  1.00  0.00     0.135 C 
ATOM     18  C   UNL A   1      33.825  23.245  22.460  1.00  0.00     0.135 C 
ATOM     19  C   UNL A   1      34.405  23.094  25.258  1.00  0.00     0.130 C 
ATOM     20  C   UNL A   1      32.864  22.599  23.474  1.00  0.00     0.130 C 
ATOM     21  C   UNL A   1      33.607  23.938  26.243  1.00  0.00     0.040 C 
ATOM     22  O   UNL A   1      33.608  22.095  24.600  1.00  0.00    -0.373 OA
ATOM     23  C   UNL A   1      32.089  21.454  22.832  1.00  0.00     0.040 C 
ENDBRANCH  13  16
ENDBRANCH  11  13
ENDBRANCH   7  11
ENDBRANCH   4   7
ENDBRANCH   2   3
ENDBRANCH   1   2
BRANCH   1  24
ATOM     24  C   UNL A   1      32.875  29.729  25.665  1.00  0.00     0.118 C 
BRANCH  24  25
ATOM     25  N   UNL A   1      32.665  31.121  26.059  1.00  0.00    -0.352 N 
ATOM     26  C   UNL A   1      33.214  31.848  27.086  1.00  0.00     0.251 C 
ATOM     27  H   UNL A   1      32.028  31.618  25.496  1.00  0.00     0.163 HD
ATOM     28  O   UNL A   1      32.681  32.901  27.426  1.00  0.00    -0.269 OA
BRANCH  26  29
ATOM     29  C   UNL A   1      34.436  31.376  27.771  1.00  0.00     0.039 A 
ATOM     30  C   UNL A   1      35.520  32.248  27.911  1.00  0.00     0.014 A 
ATOM     31  C   UNL A   1      34.533  30.066  28.240  1.00  0.00     0.014 A 
ATOM     32  C   UNL A   1      36.679  31.810  28.554  1.00  0.00     0.010 A 
ATOM     33  C   UNL A   1      35.629  29.676  28.992  1.00  0.00     0.010 A 
ATOM     34  C   UNL A   1      36.731  30.530  29.124  1.00  0.00    -0.014 A 
BRANCH  34  35
ATOM     35  C   UNL A   1      37.935  30.036  29.833  1.00  0.00     0.031 A 
ATOM     36  C   UNL A   1      38.225  30.511  31.234  1.00  0.00     0.074 A 
ATOM     37  C   UNL A   1      38.805  29.237  29.187  1.00  0.00     0.049 A 
ATOM     38  N   UNL A   1      39.260  30.261  31.991  1.00  0.00    -0.248 NA
ATOM     39  C   UNL A   1      37.240  31.418  31.851  1.00  0.00     0.031 C 
ATOM     40  C   UNL A   1      38.665  28.776  27.804  1.00  0.00     0.029 A 
ATOM     41  N   UNL A   1      39.991  28.689  29.601  1.00  0.00    -0.354 N 
ATOM     42  C   UNL A   1      39.071  31.007  33.149  1.00  0.00     0.074 A 
ATOM     43  C   UNL A   1      37.851  31.762  32.974  1.00  0.00     0.031 C 
ATOM     44  C   UNL A   1      39.713  27.998  27.491  1.00  0.00     0.029 A 
ATOM     45  C   UNL A   1      40.618  27.940  28.634  1.00  0.00     0.049 A 
ATOM     46  H   UNL A   1      40.359  28.820  30.505  1.00  0.00     0.167 HD
ATOM     47  C   UNL A   1      39.824  31.035  34.274  1.00  0.00     0.034 A 
ATOM     48  C   UNL A   1      41.795  27.288  28.665  1.00  0.00     0.034 A 
ATOM     49  C   UNL A   1      41.015  30.250  34.452  1.00  0.00     0.049 A 
ATOM     50  C   UNL A   1      42.605  27.319  29.932  1.00  0.00     0.074 A 
ATOM     51  C   UNL A   1      41.814  30.139  35.575  1.00  0.00     0.029 A 
ATOM     52  N   UNL A   1      41.584  29.449  33.473  1.00  0.00    -0.354 N 
ATOM     53  N   UNL A   1      42.338  27.915  31.069  1.00  0.00    -0.248 NA
ATOM     54  C   UNL A   1      43.862  26.558  29.933  1.00  0.00     0.031 C 
ATOM     55  C   UNL A   1      42.886  29.298  35.264  1.00  0.00     0.029 A 
ATOM     56  C   UNL A   1      42.732  28.849  33.961  1.00  0.00     0.049 A 
ATOM     57  H   UNL A   1      41.224  29.325  32.565  1.00  0.00     0.167 HD
ATOM     58  C   UNL A   1      43.371  27.569  31.933  1.00  0.00     0.074 A 
ATOM     59  C   UNL A   1      44.258  26.695  31.191  1.00  0.00     0.031 C 
ATOM     60  C   UNL A   1      43.574  27.945  33.220  1.00  0.00     0.034 A 
BRANCH  47  61
ATOM     61  C   UNL A   1      39.353  31.909  35.409  1.00  0.00     0.023 A 
ATOM     62  C   UNL A   1      38.453  31.393  36.365  1.00  0.00     0.012 A 
ATOM     63  C   UNL A   1      39.821  33.231  35.549  1.00  0.00     0.148 A 
ATOM     64  C   UNL A   1      37.988  32.190  37.411  1.00  0.00     0.002 A 
ATOM     65  C   UNL A   1      39.396  34.002  36.624  1.00  0.00     0.091 A 
ATOM     66  F   UNL A   1      40.660  33.715  34.622  1.00  0.00    -0.205 F 
ATOM     67  C   UNL A   1      38.467  33.489  37.546  1.00  0.00     0.022 A 
BRANCH  65  68
ATOM     68  S   UNL A   1      40.016  35.658  36.937  1.00  0.00     0.127 S 
ATOM     69  O   UNL A   1      39.535  36.380  35.758  1.00  0.00    -0.237 OA
ATOM     70  O   UNL A   1      39.338  36.008  38.184  1.00  0.00    -0.237 OA
ATOM     71  O   UNL A   1      41.462  35.533  37.044  1.00  0.00    -0.744 OA
ENDBRANCH  65  68
ENDBRANCH  47  61
BRANCH  48  72
ATOM     72  C   UNL A   1      42.242  26.494  27.486  1.00  0.00     0.023 A 
ATOM     73  C   UNL A   1      42.989  27.126  26.473  1.00  0.00     0.012 A 
ATOM     74  C   UNL A   1      41.956  25.121  27.373  1.00  0.00     0.148 A 
ATOM     75  C   UNL A   1      43.411  26.414  25.349  1.00  0.00     0.002 A 
ATOM     76  C   UNL A   1      42.425  24.404  26.278  1.00  0.00     0.091 A 
ATOM     77  F   UNL A   1      41.242  24.539  28.347  1.00  0.00    -0.205 F 
ATOM     78  C   UNL A   1      43.136  25.053  25.256  1.00  0.00     0.022 A 
BRANCH  76  79
ATOM     79  S   UNL A   1      42.228  22.626  26.128  1.00  0.00     0.127 S 
ATOM     80  O   UNL A   1      42.833  22.367  24.823  1.00  0.00    -0.237 OA
ATOM     81  O   UNL A   1      43.001  22.142  27.272  1.00  0.00    -0.237 OA
ATOM     82  O   UNL A   1      40.796  22.377  26.219  1.00  0.00    -0.744 OA
ENDBRANCH  76  79
ENDBRANCH  48  72
BRANCH  60  83
ATOM     83  C   UNL A   1      44.773  27.375  33.930  1.00  0.00     0.023 A 
ATOM     84  C   UNL A   1      45.998  28.072  33.922  1.00  0.00     0.012 A 
ATOM     85  C   UNL A   1      44.662  26.180  34.668  1.00  0.00     0.148 A 
ATOM     86  C   UNL A   1      47.103  27.566  34.603  1.00  0.00     0.002 A 
ATOM     87  C   UNL A   1      45.750  25.712  35.391  1.00  0.00     0.091 A 
ATOM     88  F   UNL A   1      43.491  25.525  34.650  1.00  0.00    -0.205 F 
ATOM     89  C   UNL A   1      46.977  26.395  35.348  1.00  0.00     0.022 A 
BRANCH  87  90
ATOM     90  S   UNL A   1      45.652  24.273  36.459  1.00  0.00     0.127 S 
ATOM     91  O   UNL A   1      44.619  24.678  37.411  1.00  0.00    -0.237 OA
ATOM     92  O   UNL A   1      45.244  23.224  35.525  1.00  0.00    -0.237 OA
ATOM     93  O   UNL A   1      46.983  24.097  37.023  1.00  0.00    -0.744 OA
ENDBRANCH  87  90
ENDBRANCH  60  83
ENDBRANCH  34  35
ENDBRANCH  26  29
ENDBRANCH  24  25
ENDBRANCH   1  24
TORSDOF 17
ENDMDL
MODEL 3
REMARK VINA RESULT:     -11.4      2.516      8.241
REMARK SMILES CC(C)[C@H](NS(=O)(=O)N1C[C@@H](C)O[C@H](C)C1)C(=O)NCCCNC(=O)c1ccc(-c2c3nc(c(-c4cccc(S(=O)(=O)[O-])c4F)c4ccc([nH]4)c(-c4cccc(S(=O)(=O)[O-])c4F)c4nc(c(-c5cccc(S(=O)(=O)[O-])c5F)c5ccc2[nH]5)C=C4)C=C3)cc1
REMARK SMILES IDX 21 1 20 2 19 3 17 4 18 5 4 7 2 8 1 9 3 10 5 11 6 13 7 14
REMARK SMILES IDX 8 15 9 16 10 17 16 18 11 19 14 20 12 21 13 22 15 23 22 24
REMARK SMILES IDX 23 25 24 26 25 28 26 29 27 30 88 31 28 32 87 33 29 34 30 35
REMARK SMILES IDX 31 36 81 37 32 38 86 39 80 40 82 41 33 42 85 43 79 44 78 45
REMARK SMILES IDX 34 47 66 48 46 49 65 50 47 51 50 52 64 53 83 54 48 55 49 56
REMARK SMILES IDX 63 58 84 59 51 60 35 61 36 62 44 63 37 64 39 65 45 66 38 67
REMARK SMILES IDX 40 68 41 69 42 70 43 71 67 72 68 73 76 74 69 75 71 76 77 77
REMARK SMILES IDX 70 78 72 79 73 80 74 81 75 82 52 83 53 84 61 85 54 86 56 87
REMARK SMILES IDX 62 88 55 89 57 90 58 91 59 92 60 93
REMARK H PARENT 19 6 5 12 23 27 82 46 50 57
REMARK Flexibility Score: inf
ROOT
ATOM      1  C   UNL A   1      31.494  31.776  26.425  1.00  0.00     0.042 C 
ENDROOT
BRANCH   1   2
ATOM      2  C   UNL A   1      31.672  30.399  25.791  1.00  0.00     0.117 C 
BRANCH   2   3
ATOM      3  N   UNL A   1      30.817  30.235  24.638  1.00  0.00    -0.355 N 
ATOM      4  C   UNL A   1      30.604  29.161  23.843  1.00  0.00     0.238 C 
ATOM      5  O   UNL A   1      29.772  29.322  22.939  1.00  0.00    -0.273 OA
ATOM      6  H   UNL A   1      30.306  31.038  24.389  1.00  0.00     0.163 HD
BRANCH   4   7
ATOM      7  C   UNL A   1      31.312  27.795  23.985  1.00  0.00     0.162 C 
BRANCH   7   8
ATOM      8  C   UNL A   1      32.377  27.377  22.953  1.00  0.00     0.010 C 
ATOM      9  C   UNL A   1      31.825  26.711  21.691  1.00  0.00     0.009 C 
ATOM     10  C   UNL A   1      33.181  28.616  22.512  1.00  0.00     0.009 C 
ENDBRANCH   7   8
BRANCH   7  11
ATOM     11  N   UNL A   1      30.459  26.691  24.487  1.00  0.00    -0.189 NA
ATOM     12  H   UNL A   1      30.368  26.051  23.699  1.00  0.00     0.143 HD
BRANCH  11  13
ATOM     13  S   UNL A   1      30.747  25.720  25.789  1.00  0.00     0.280 S 
ATOM     14  O   UNL A   1      31.890  26.328  26.425  1.00  0.00    -0.195 OA
ATOM     15  O   UNL A   1      29.546  25.474  26.529  1.00  0.00    -0.195 OA
BRANCH  13  16
ATOM     16  N   UNL A   1      31.164  24.221  25.207  1.00  0.00    -0.184 NA
ATOM     17  C   UNL A   1      32.164  24.007  24.156  1.00  0.00     0.135 C 
ATOM     18  C   UNL A   1      31.343  23.212  26.303  1.00  0.00     0.135 C 
ATOM     19  C   UNL A   1      33.601  23.851  24.668  1.00  0.00     0.130 C 
ATOM     20  C   UNL A   1      32.774  23.303  26.862  1.00  0.00     0.130 C 
ATOM     21  C   UNL A   1      34.302  25.193  24.836  1.00  0.00     0.040 C 
ATOM     22  O   UNL A   1      33.724  23.004  25.822  1.00  0.00    -0.373 OA
ATOM     23  C   UNL A   1      32.969  22.325  28.015  1.00  0.00     0.040 C 
ENDBRANCH  13  16
ENDBRANCH  11  13
ENDBRANCH   7  11
ENDBRANCH   4   7
ENDBRANCH   2   3
ENDBRANCH   1   2
BRANCH   1  24
ATOM     24  C   UNL A   1      32.703  32.207  27.229  1.00  0.00     0.118 C 
BRANCH  24  25
ATOM     25  N   UNL A   1      32.646  33.639  27.516  1.00  0.00    -0.352 N 
ATOM     26  C   UNL A   1      33.253  34.373  28.503  1.00  0.00     0.251 C 
ATOM     27  H   UNL A   1      32.081  34.162  26.901  1.00  0.00     0.163 HD
ATOM     28  O   UNL A   1      32.838  35.502  28.753  1.00  0.00    -0.269 OA
BRANCH  26  29
ATOM     29  C   UNL A   1      34.399  33.819  29.255  1.00  0.00     0.039 A 
ATOM     30  C   UNL A   1      34.161  32.917  30.296  1.00  0.00     0.014 A 
ATOM     31  C   UNL A   1      35.705  34.215  28.963  1.00  0.00     0.014 A 
ATOM     32  C   UNL A   1      35.238  32.391  31.013  1.00  0.00     0.010 A 
ATOM     33  C   UNL A   1      36.775  33.593  29.585  1.00  0.00     0.010 A 
ATOM     34  C   UNL A   1      36.554  32.703  30.643  1.00  0.00    -0.014 A 
BRANCH  34  35
ATOM     35  C   UNL A   1      37.724  32.149  31.365  1.00  0.00     0.031 A 
ATOM     36  C   UNL A   1      38.522  31.029  30.748  1.00  0.00     0.074 A 
ATOM     37  C   UNL A   1      38.009  32.590  32.605  1.00  0.00     0.049 A 
ATOM     38  N   UNL A   1      39.525  30.358  31.248  1.00  0.00    -0.248 NA
ATOM     39  C   UNL A   1      38.114  30.579  29.404  1.00  0.00     0.031 C 
ATOM     40  C   UNL A   1      37.259  33.616  33.333  1.00  0.00     0.029 A 
ATOM     41  N   UNL A   1      38.994  32.215  33.481  1.00  0.00    -0.354 N 
ATOM     42  C   UNL A   1      39.839  29.387  30.304  1.00  0.00     0.074 A 
ATOM     43  C   UNL A   1      38.886  29.518  29.226  1.00  0.00     0.031 C 
ATOM     44  C   UNL A   1      37.823  33.804  34.536  1.00  0.00     0.029 A 
ATOM     45  C   UNL A   1      38.946  32.884  34.681  1.00  0.00     0.049 A 
ATOM     46  H   UNL A   1      39.671  31.532  33.271  1.00  0.00     0.167 HD
ATOM     47  C   UNL A   1      40.851  28.488  30.316  1.00  0.00     0.034 A 
ATOM     48  C   UNL A   1      39.717  32.761  35.778  1.00  0.00     0.034 A 
ATOM     49  C   UNL A   1      41.815  28.391  31.377  1.00  0.00     0.049 A 
ATOM     50  C   UNL A   1      40.847  31.769  35.759  1.00  0.00     0.074 A 
ATOM     51  C   UNL A   1      42.927  27.572  31.458  1.00  0.00     0.029 A 
ATOM     52  N   UNL A   1      41.775  29.132  32.548  1.00  0.00    -0.354 N 
ATOM     53  N   UNL A   1      41.218  30.956  34.798  1.00  0.00    -0.248 NA
ATOM     54  C   UNL A   1      41.687  31.699  36.962  1.00  0.00     0.031 C 
ATOM     55  C   UNL A   1      43.539  27.794  32.696  1.00  0.00     0.029 A 
ATOM     56  C   UNL A   1      42.835  28.783  33.366  1.00  0.00     0.049 A 
ATOM     57  H   UNL A   1      41.093  29.808  32.765  1.00  0.00     0.167 HD
ATOM     58  C   UNL A   1      42.357  30.310  35.264  1.00  0.00     0.074 A 
ATOM     59  C   UNL A   1      42.624  30.841  36.586  1.00  0.00     0.031 C 
ATOM     60  C   UNL A   1      43.110  29.358  34.658  1.00  0.00     0.034 A 
BRANCH  47  61
ATOM     61  C   UNL A   1      40.986  27.573  29.124  1.00  0.00     0.023 A 
ATOM     62  C   UNL A   1      40.264  26.362  29.084  1.00  0.00     0.012 A 
ATOM     63  C   UNL A   1      41.803  27.924  28.030  1.00  0.00     0.148 A 
ATOM     64  C   UNL A   1      40.390  25.492  28.000  1.00  0.00     0.002 A 
ATOM     65  C   UNL A   1      41.881  27.077  26.931  1.00  0.00     0.091 A 
ATOM     66  F   UNL A   1      42.499  29.068  28.091  1.00  0.00    -0.205 F 
ATOM     67  C   UNL A   1      41.189  25.854  26.921  1.00  0.00     0.022 A 
BRANCH  65  68
ATOM     68  S   UNL A   1      42.817  27.488  25.454  1.00  0.00     0.127 S 
ATOM     69  O   UNL A   1      44.179  27.574  25.982  1.00  0.00    -0.237 OA
ATOM     70  O   UNL A   1      42.566  26.328  24.600  1.00  0.00    -0.237 OA
ATOM     71  O   UNL A   1      42.260  28.739  24.960  1.00  0.00    -0.744 OA
ENDBRANCH  65  68
ENDBRANCH  47  61
BRANCH  48  72
ATOM     72  C   UNL A   1      39.492  33.647  36.954  1.00  0.00     0.023 A 
ATOM     73  C   UNL A   1      39.933  34.984  36.905  1.00  0.00     0.012 A 
ATOM     74  C   UNL A   1      38.826  33.186  38.106  1.00  0.00     0.148 A 
ATOM     75  C   UNL A   1      39.750  35.836  37.995  1.00  0.00     0.002 A 
ATOM     76  C   UNL A   1      38.598  34.055  39.167  1.00  0.00     0.091 A 
ATOM     77  F   UNL A   1      38.416  31.911  38.133  1.00  0.00    -0.205 F 
ATOM     78  C   UNL A   1      39.075  35.373  39.121  1.00  0.00     0.022 A 
BRANCH  76  79
ATOM     79  S   UNL A   1      37.633  33.589  40.608  1.00  0.00     0.127 S 
ATOM     80  O   UNL A   1      36.392  33.118  39.997  1.00  0.00    -0.237 OA
ATOM     81  O   UNL A   1      38.465  32.541  41.200  1.00  0.00    -0.237 OA
ATOM     82  O   UNL A   1      37.519  34.795  41.416  1.00  0.00    -0.744 OA
ENDBRANCH  76  79
ENDBRANCH  48  72
BRANCH  60  83
ATOM     83  C   UNL A   1      44.326  28.862  35.394  1.00  0.00     0.023 A 
ATOM     84  C   UNL A   1      45.573  29.489  35.205  1.00  0.00     0.012 A 
ATOM     85  C   UNL A   1      44.213  27.815  36.330  1.00  0.00     0.148 A 
ATOM     86  C   UNL A   1      46.696  29.055  35.907  1.00  0.00     0.002 A 
ATOM     87  C   UNL A   1      45.322  27.426  37.068  1.00  0.00     0.091 A 
ATOM     88  F   UNL A   1      43.019  27.222  36.484  1.00  0.00    -0.205 F 
ATOM     89  C   UNL A   1      46.569  28.034  36.846  1.00  0.00     0.022 A 
BRANCH  87  90
ATOM     90  S   UNL A   1      45.232  26.194  38.370  1.00  0.00     0.127 S 
ATOM     91  O   UNL A   1      46.622  26.131  38.818  1.00  0.00    -0.237 OA
ATOM     92  O   UNL A   1      44.312  26.818  39.321  1.00  0.00    -0.237 OA
ATOM     93  O   UNL A   1      44.724  24.981  37.744  1.00  0.00    -0.744 OA
ENDBRANCH  87  90
ENDBRANCH  60  83
ENDBRANCH  34  35
ENDBRANCH  26  29
ENDBRANCH  24  25
ENDBRANCH   1  24
TORSDOF 17
ENDMDL
