MODEL 1
REMARK VINA RESULT:     -11.4      0.000      0.000
REMARK SMILES COc1ccc(-c2sc(N)nc2C(=O)NCCCNC(=O)c2ccc(-c3c4nc(c(-c5cccc(S(=O)(=O)[O-])c5F)c5ccc([nH]5)c(-c5cccc(S(=O)(=O)[O-])c5F)c5nc(c(-c6cccc(S(=O)(=O)[O-])c6F)c6ccc3[nH]6)C=C5)C=C4)cc2)cc1OC
REMARK SMILES IDX 17 1 16 2 15 3 13 4 14 5 12 7 7 8 8 9 9 10 11 11 6 12 3 13
REMARK SMILES IDX 4 14 86 15 5 16 85 17 2 18 1 19 87 20 88 21 10 22 18 25
REMARK SMILES IDX 19 26 20 27 21 29 22 30 23 31 84 32 24 33 83 34 25 35 26 36
REMARK SMILES IDX 27 37 77 38 28 39 82 40 76 41 78 42 29 43 81 44 75 45 74 46
REMARK SMILES IDX 30 48 62 49 42 50 61 51 43 52 46 53 60 54 79 55 44 56 45 57
REMARK SMILES IDX 59 59 80 60 47 61 31 62 32 63 40 64 33 65 35 66 41 67 34 68
REMARK SMILES IDX 36 69 37 70 38 71 39 72 63 73 64 74 72 75 65 76 67 77 73 78
REMARK SMILES IDX 66 79 68 80 69 81 70 82 71 83 48 84 49 85 57 86 50 87 52 88
REMARK SMILES IDX 58 89 51 90 53 91 54 92 55 93 56 94
REMARK H PARENT 15 6 10 23 10 24 19 28 78 47 46 58
REMARK Flexibility Score: inf
ROOT
ATOM      1  C   UNL A   1      33.376  27.988  26.965  1.00  0.00     0.042 C 
ENDROOT
BRANCH   1   2
ATOM      2  C   UNL A   1      31.946  28.229  27.434  1.00  0.00     0.118 C 
BRANCH   2   3
ATOM      3  N   UNL A   1      31.079  27.101  27.148  1.00  0.00    -0.351 N 
ATOM      4  C   UNL A   1      30.749  26.458  25.980  1.00  0.00     0.271 C 
ATOM      5  O   UNL A   1      30.008  25.478  26.110  1.00  0.00    -0.267 OA
ATOM      6  H   UNL A   1      30.642  26.723  27.946  1.00  0.00     0.163 HD
BRANCH   4   7
ATOM      7  C   UNL A   1      31.268  26.898  24.673  1.00  0.00     0.149 A 
ATOM      8  C   UNL A   1      32.213  26.197  23.919  1.00  0.00     0.069 A 
ATOM      9  S   UNL A   1      32.608  27.090  22.501  1.00  0.00    -0.096 S 
ATOM     10  C   UNL A   1      31.493  28.303  22.951  1.00  0.00     0.181 A 
ATOM     11  N   UNL A   1      30.864  28.092  24.075  1.00  0.00    -0.215 NA
BRANCH   8  12
ATOM     12  C   UNL A   1      32.846  24.895  24.154  1.00  0.00    -0.002 A 
ATOM     13  C   UNL A   1      34.274  22.490  24.471  1.00  0.00     0.160 A 
ATOM     14  C   UNL A   1      33.179  22.560  23.596  1.00  0.00     0.051 A 
ATOM     15  C   UNL A   1      34.652  23.616  25.210  1.00  0.00     0.161 A 
ATOM     16  C   UNL A   1      32.466  23.754  23.441  1.00  0.00     0.014 A 
ATOM     17  C   UNL A   1      33.914  24.798  25.055  1.00  0.00     0.060 A 
BRANCH  13  18
ATOM     18  O   UNL A   1      35.019  21.342  24.453  1.00  0.00    -0.493 OA
ATOM     19  C   UNL A   1      34.281  20.219  24.930  1.00  0.00     0.278 C 
ENDBRANCH  13  18
BRANCH  15  20
ATOM     20  O   UNL A   1      35.697  23.774  26.076  1.00  0.00    -0.493 OA
ATOM     21  C   UNL A   1      37.018  23.837  25.571  1.00  0.00     0.278 C 
ENDBRANCH  15  20
ENDBRANCH   8  12
BRANCH  10  22
ATOM     22  N   UNL A   1      31.280  29.392  22.208  1.00  0.00    -0.375 N 
ATOM     23  H   UNL A   1      30.360  29.672  21.997  1.00  0.00     0.159 HD
ATOM     24  H   UNL A   1      32.043  29.913  21.870  1.00  0.00     0.159 HD
ENDBRANCH  10  22
ENDBRANCH   4   7
ENDBRANCH   2   3
ENDBRANCH   1   2
BRANCH   1  25
ATOM     25  C   UNL A   1      33.927  29.097  26.070  1.00  0.00     0.118 C 
BRANCH  25  26
ATOM     26  N   UNL A   1      33.837  30.416  26.689  1.00  0.00    -0.352 N 
ATOM     27  C   UNL A   1      34.588  30.986  27.685  1.00  0.00     0.251 C 
ATOM     28  H   UNL A   1      33.121  30.991  26.332  1.00  0.00     0.163 HD
ATOM     29  O   UNL A   1      34.211  32.036  28.200  1.00  0.00    -0.269 OA
BRANCH  27  30
ATOM     30  C   UNL A   1      35.838  30.344  28.145  1.00  0.00     0.039 A 
ATOM     31  C   UNL A   1      36.974  30.418  27.335  1.00  0.00     0.014 A 
ATOM     32  C   UNL A   1      35.884  29.649  29.355  1.00  0.00     0.014 A 
ATOM     33  C   UNL A   1      38.172  29.848  27.770  1.00  0.00     0.010 A 
ATOM     34  C   UNL A   1      37.098  29.159  29.826  1.00  0.00     0.010 A 
ATOM     35  C   UNL A   1      38.254  29.244  29.036  1.00  0.00    -0.014 A 
BRANCH  35  36
ATOM     36  C   UNL A   1      39.540  28.714  29.555  1.00  0.00     0.031 A 
ATOM     37  C   UNL A   1      40.257  29.413  30.679  1.00  0.00     0.074 A 
ATOM     38  C   UNL A   1      40.113  27.656  28.949  1.00  0.00     0.049 A 
ATOM     39  N   UNL A   1      41.410  29.127  31.223  1.00  0.00    -0.248 NA
ATOM     40  C   UNL A   1      39.608  30.608  31.241  1.00  0.00     0.031 C 
ATOM     41  C   UNL A   1      39.563  26.948  27.792  1.00  0.00     0.029 A 
ATOM     42  N   UNL A   1      41.300  27.013  29.199  1.00  0.00    -0.354 N 
ATOM     43  C   UNL A   1      41.646  30.127  32.160  1.00  0.00     0.074 A 
ATOM     44  C   UNL A   1      40.531  31.045  32.085  1.00  0.00     0.031 C 
ATOM     45  C   UNL A   1      40.407  25.968  27.434  1.00  0.00     0.029 A 
ATOM     46  C   UNL A   1      41.575  26.002  28.310  1.00  0.00     0.049 A 
ATOM     47  H   UNL A   1      41.896  27.254  29.945  1.00  0.00     0.167 HD
ATOM     48  C   UNL A   1      42.685  30.258  33.020  1.00  0.00     0.034 A 
ATOM     49  C   UNL A   1      42.652  25.201  28.197  1.00  0.00     0.034 A 
ATOM     50  C   UNL A   1      43.776  29.325  33.111  1.00  0.00     0.049 A 
ATOM     51  C   UNL A   1      43.772  25.335  29.189  1.00  0.00     0.074 A 
ATOM     52  C   UNL A   1      44.819  29.308  34.019  1.00  0.00     0.029 A 
ATOM     53  N   UNL A   1      43.980  28.259  32.248  1.00  0.00    -0.354 N 
ATOM     54  N   UNL A   1      43.895  26.181  30.183  1.00  0.00    -0.248 NA
ATOM     55  C   UNL A   1      44.884  24.382  29.071  1.00  0.00     0.031 C 
ATOM     56  C   UNL A   1      45.677  28.256  33.678  1.00  0.00     0.029 A 
ATOM     57  C   UNL A   1      45.145  27.590  32.587  1.00  0.00     0.049 A 
ATOM     58  H   UNL A   1      43.384  28.013  31.504  1.00  0.00     0.167 HD
ATOM     59  C   UNL A   1      45.081  25.845  30.827  1.00  0.00     0.074 A 
ATOM     60  C   UNL A   1      45.627  24.704  30.121  1.00  0.00     0.031 C 
ATOM     61  C   UNL A   1      45.665  26.434  31.900  1.00  0.00     0.034 A 
BRANCH  48  62
ATOM     62  C   UNL A   1      42.673  31.445  33.951  1.00  0.00     0.023 A 
ATOM     63  C   UNL A   1      43.258  32.664  33.546  1.00  0.00     0.012 A 
ATOM     64  C   UNL A   1      42.058  31.364  35.215  1.00  0.00     0.148 A 
ATOM     65  C   UNL A   1      43.278  33.764  34.403  1.00  0.00     0.002 A 
ATOM     66  C   UNL A   1      42.035  32.481  36.043  1.00  0.00     0.091 A 
ATOM     67  F   UNL A   1      41.524  30.194  35.594  1.00  0.00    -0.205 F 
ATOM     68  C   UNL A   1      42.659  33.674  35.647  1.00  0.00     0.022 A 
BRANCH  66  69
ATOM     69  S   UNL A   1      41.187  32.492  37.626  1.00  0.00     0.127 S 
ATOM     70  O   UNL A   1      39.877  31.953  37.264  1.00  0.00    -0.237 OA
ATOM     71  O   UNL A   1      42.017  31.590  38.426  1.00  0.00    -0.237 OA
ATOM     72  O   UNL A   1      41.194  33.877  38.074  1.00  0.00    -0.744 OA
ENDBRANCH  66  69
ENDBRANCH  48  62
BRANCH  49  73
ATOM     73  C   UNL A   1      42.685  24.167  27.125  1.00  0.00     0.023 A 
ATOM     74  C   UNL A   1      43.415  24.411  25.946  1.00  0.00     0.012 A 
ATOM     75  C   UNL A   1      42.052  22.921  27.298  1.00  0.00     0.148 A 
ATOM     76  C   UNL A   1      43.497  23.438  24.948  1.00  0.00     0.002 A 
ATOM     77  C   UNL A   1      42.184  21.937  26.327  1.00  0.00     0.091 A 
ATOM     78  F   UNL A   1      41.360  22.714  28.428  1.00  0.00    -0.205 F 
ATOM     79  C   UNL A   1      42.892  22.199  25.144  1.00  0.00     0.022 A 
BRANCH  77  80
ATOM     80  S   UNL A   1      41.561  20.267  26.551  1.00  0.00     0.127 S 
ATOM     81  O   UNL A   1      42.082  19.592  25.366  1.00  0.00    -0.237 OA
ATOM     82  O   UNL A   1      42.196  19.879  27.811  1.00  0.00    -0.237 OA
ATOM     83  O   UNL A   1      40.111  20.389  26.618  1.00  0.00    -0.744 OA
ENDBRANCH  77  80
ENDBRANCH  49  73
BRANCH  61  84
ATOM     84  C   UNL A   1      46.955  25.840  32.408  1.00  0.00     0.023 A 
ATOM     85  C   UNL A   1      48.188  26.290  31.898  1.00  0.00     0.012 A 
ATOM     86  C   UNL A   1      46.941  24.887  33.446  1.00  0.00     0.148 A 
ATOM     87  C   UNL A   1      49.388  25.775  32.389  1.00  0.00     0.002 A 
ATOM     88  C   UNL A   1      48.141  24.419  33.967  1.00  0.00     0.091 A 
ATOM     89  F   UNL A   1      45.757  24.459  33.905  1.00  0.00    -0.205 F 
ATOM     90  C   UNL A   1      49.365  24.851  33.431  1.00  0.00     0.022 A 
BRANCH  88  91
ATOM     91  S   UNL A   1      48.210  23.304  35.374  1.00  0.00     0.127 S 
ATOM     92  O   UNL A   1      49.619  23.389  35.753  1.00  0.00    -0.237 OA
ATOM     93  O   UNL A   1      47.286  23.937  36.316  1.00  0.00    -0.237 OA
ATOM     94  O   UNL A   1      47.775  22.004  34.880  1.00  0.00    -0.744 OA
ENDBRANCH  88  91
ENDBRANCH  61  84
ENDBRANCH  35  36
ENDBRANCH  27  30
ENDBRANCH  25  26
ENDBRANCH   1  25
TORSDOF 17
ENDMDL
MODEL 2
REMARK VINA RESULT:     -11.1      2.159      7.876
REMARK SMILES COc1ccc(-c2sc(N)nc2C(=O)NCCCNC(=O)c2ccc(-c3c4nc(c(-c5cccc(S(=O)(=O)[O-])c5F)c5ccc([nH]5)c(-c5cccc(S(=O)(=O)[O-])c5F)c5nc(c(-c6cccc(S(=O)(=O)[O-])c6F)c6ccc3[nH]6)C=C5)C=C4)cc2)cc1OC
REMARK SMILES IDX 17 1 16 2 15 3 13 4 14 5 12 7 7 8 8 9 9 10 11 11 6 12 3 13
REMARK SMILES IDX 4 14 86 15 5 16 85 17 2 18 1 19 87 20 88 21 10 22 18 25
REMARK SMILES IDX 19 26 20 27 21 29 22 30 23 31 84 32 24 33 83 34 25 35 26 36
REMARK SMILES IDX 27 37 77 38 28 39 82 40 76 41 78 42 29 43 81 44 75 45 74 46
REMARK SMILES IDX 30 48 62 49 42 50 61 51 43 52 46 53 60 54 79 55 44 56 45 57
REMARK SMILES IDX 59 59 80 60 47 61 31 62 32 63 40 64 33 65 35 66 41 67 34 68
REMARK SMILES IDX 36 69 37 70 38 71 39 72 63 73 64 74 72 75 65 76 67 77 73 78
REMARK SMILES IDX 66 79 68 80 69 81 70 82 71 83 48 84 49 85 57 86 50 87 52 88
REMARK SMILES IDX 58 89 51 90 53 91 54 92 55 93 56 94
REMARK H PARENT 15 6 10 23 10 24 19 28 78 47 46 58
REMARK Flexibility Score: inf
ROOT
ATOM      1  C   UNL A   1      31.696  29.157  27.217  1.00  0.00     0.042 C 
ENDROOT
BRANCH   1   2
ATOM      2  C   UNL A   1      32.101  27.693  27.337  1.00  0.00     0.118 C 
BRANCH   2   3
ATOM      3  N   UNL A   1      31.081  26.798  26.822  1.00  0.00    -0.351 N 
ATOM      4  C   UNL A   1      30.682  26.485  25.546  1.00  0.00     0.271 C 
ATOM      5  O   UNL A   1      29.800  25.622  25.467  1.00  0.00    -0.267 OA
ATOM      6  H   UNL A   1      30.577  26.324  27.523  1.00  0.00     0.163 HD
BRANCH   4   7
ATOM      7  C   UNL A   1      31.286  27.118  24.360  1.00  0.00     0.149 A 
ATOM      8  C   UNL A   1      32.481  26.705  23.764  1.00  0.00     0.069 A 
ATOM      9  S   UNL A   1      32.875  27.757  22.460  1.00  0.00    -0.096 S 
ATOM     10  C   UNL A   1      31.446  28.647  22.742  1.00  0.00     0.181 A 
ATOM     11  N   UNL A   1      30.712  28.224  23.733  1.00  0.00    -0.215 NA
BRANCH   8  12
ATOM     12  C   UNL A   1      33.359  25.571  24.071  1.00  0.00    -0.002 A 
ATOM     13  C   UNL A   1      34.835  23.283  24.784  1.00  0.00     0.160 A 
ATOM     14  C   UNL A   1      35.087  24.517  25.403  1.00  0.00     0.051 A 
ATOM     15  C   UNL A   1      33.856  23.186  23.789  1.00  0.00     0.161 A 
ATOM     16  C   UNL A   1      34.356  25.655  25.046  1.00  0.00     0.014 A 
ATOM     17  C   UNL A   1      33.148  24.342  23.431  1.00  0.00     0.060 A 
BRANCH  13  18
ATOM     18  O   UNL A   1      35.472  22.184  25.293  1.00  0.00    -0.493 OA
ATOM     19  C   UNL A   1      36.623  21.833  24.529  1.00  0.00     0.278 C 
ENDBRANCH  13  18
BRANCH  15  20
ATOM     20  O   UNL A   1      33.429  22.088  23.096  1.00  0.00    -0.493 OA
ATOM     21  C   UNL A   1      32.204  21.475  23.448  1.00  0.00     0.278 C 
ENDBRANCH  15  20
ENDBRANCH   8  12
BRANCH  10  22
ATOM     22  N   UNL A   1      31.104  29.705  22.001  1.00  0.00    -0.375 N 
ATOM     23  H   UNL A   1      30.797  30.533  22.438  1.00  0.00     0.159 HD
ATOM     24  H   UNL A   1      31.157  29.657  21.020  1.00  0.00     0.159 HD
ENDBRANCH  10  22
ENDBRANCH   4   7
ENDBRANCH   2   3
ENDBRANCH   1   2
BRANCH   1  25
ATOM     25  C   UNL A   1      32.624  29.982  26.328  1.00  0.00     0.118 C 
BRANCH  25  26
ATOM     26  N   UNL A   1      32.491  31.419  26.555  1.00  0.00    -0.352 N 
ATOM     27  C   UNL A   1      33.226  32.268  27.342  1.00  0.00     0.251 C 
ATOM     28  H   UNL A   1      31.754  31.847  26.062  1.00  0.00     0.163 HD
ATOM     29  O   UNL A   1      32.815  33.407  27.550  1.00  0.00    -0.269 OA
BRANCH  27  30
ATOM     30  C   UNL A   1      34.499  31.820  27.946  1.00  0.00     0.039 A 
ATOM     31  C   UNL A   1      35.571  32.715  28.006  1.00  0.00     0.014 A 
ATOM     32  C   UNL A   1      34.646  30.517  28.427  1.00  0.00     0.014 A 
ATOM     33  C   UNL A   1      36.769  32.321  28.605  1.00  0.00     0.010 A 
ATOM     34  C   UNL A   1      35.809  30.156  29.101  1.00  0.00     0.010 A 
ATOM     35  C   UNL A   1      36.886  31.049  29.190  1.00  0.00    -0.014 A 
BRANCH  35  36
ATOM     36  C   UNL A   1      38.119  30.644  29.913  1.00  0.00     0.031 A 
ATOM     37  C   UNL A   1      39.079  29.663  29.297  1.00  0.00     0.074 A 
ATOM     38  C   UNL A   1      38.325  31.087  31.168  1.00  0.00     0.049 A 
ATOM     39  N   UNL A   1      40.173  29.155  29.800  1.00  0.00    -0.248 NA
ATOM     40  C   UNL A   1      38.749  29.162  27.953  1.00  0.00     0.031 C 
ATOM     41  C   UNL A   1      37.422  31.970  31.910  1.00  0.00     0.029 A 
ATOM     42  N   UNL A   1      39.341  30.830  32.055  1.00  0.00    -0.354 N 
ATOM     43  C   UNL A   1      40.639  28.246  28.857  1.00  0.00     0.074 A 
ATOM     44  C   UNL A   1      39.689  28.248  27.767  1.00  0.00     0.031 C 
ATOM     45  C   UNL A   1      37.925  32.182  33.136  1.00  0.00     0.029 A 
ATOM     46  C   UNL A   1      39.163  31.423  33.282  1.00  0.00     0.049 A 
ATOM     47  H   UNL A   1      40.122  30.274  31.832  1.00  0.00     0.167 HD
ATOM     48  C   UNL A   1      41.765  27.494  28.886  1.00  0.00     0.034 A 
ATOM     49  C   UNL A   1      39.901  31.353  34.407  1.00  0.00     0.034 A 
ATOM     50  C   UNL A   1      42.721  27.519  29.960  1.00  0.00     0.049 A 
ATOM     51  C   UNL A   1      41.170  30.548  34.401  1.00  0.00     0.074 A 
ATOM     52  C   UNL A   1      43.945  26.879  30.037  1.00  0.00     0.029 A 
ATOM     53  N   UNL A   1      42.552  28.200  31.156  1.00  0.00    -0.354 N 
ATOM     54  N   UNL A   1      41.686  29.830  33.433  1.00  0.00    -0.248 NA
ATOM     55  C   UNL A   1      41.979  30.573  35.627  1.00  0.00     0.031 C 
ATOM     56  C   UNL A   1      44.496  27.138  31.298  1.00  0.00     0.029 A 
ATOM     57  C   UNL A   1      43.637  27.978  31.988  1.00  0.00     0.049 A 
ATOM     58  H   UNL A   1      41.774  28.760  31.382  1.00  0.00     0.167 HD
ATOM     59  C   UNL A   1      42.893  29.341  33.920  1.00  0.00     0.074 A 
ATOM     60  C   UNL A   1      43.040  29.864  35.263  1.00  0.00     0.031 C 
ATOM     61  C   UNL A   1      43.792  28.528  33.312  1.00  0.00     0.034 A 
BRANCH  48  62
ATOM     62  C   UNL A   1      42.035  26.598  27.703  1.00  0.00     0.023 A 
ATOM     63  C   UNL A   1      42.737  27.099  26.585  1.00  0.00     0.012 A 
ATOM     64  C   UNL A   1      41.621  25.252  27.707  1.00  0.00     0.148 A 
ATOM     65  C   UNL A   1      42.974  26.292  25.473  1.00  0.00     0.002 A 
ATOM     66  C   UNL A   1      41.907  24.439  26.618  1.00  0.00     0.091 A 
ATOM     67  F   UNL A   1      40.938  24.796  28.768  1.00  0.00    -0.205 F 
ATOM     68  C   UNL A   1      42.567  24.960  25.493  1.00  0.00     0.022 A 
BRANCH  66  69
ATOM     69  S   UNL A   1      41.502  22.689  26.585  1.00  0.00     0.127 S 
ATOM     70  O   UNL A   1      42.196  22.247  25.376  1.00  0.00    -0.237 OA
ATOM     71  O   UNL A   1      42.094  22.213  27.836  1.00  0.00    -0.237 OA
ATOM     72  O   UNL A   1      40.049  22.616  26.536  1.00  0.00    -0.744 OA
ENDBRANCH  66  69
ENDBRANCH  48  62
BRANCH  49  73
ATOM     73  C   UNL A   1      39.471  32.115  35.612  1.00  0.00     0.023 A 
ATOM     74  C   UNL A   1      39.799  33.479  35.726  1.00  0.00     0.012 A 
ATOM     75  C   UNL A   1      38.684  31.509  36.611  1.00  0.00     0.148 A 
ATOM     76  C   UNL A   1      39.367  34.223  36.825  1.00  0.00     0.002 A 
ATOM     77  C   UNL A   1      38.210  32.268  37.673  1.00  0.00     0.091 A 
ATOM     78  F   UNL A   1      38.388  30.208  36.481  1.00  0.00    -0.205 F 
ATOM     79  C   UNL A   1      38.564  33.621  37.791  1.00  0.00     0.022 A 
BRANCH  77  80
ATOM     80  S   UNL A   1      37.057  31.619  38.888  1.00  0.00     0.127 S 
ATOM     81  O   UNL A   1      37.817  31.759  40.126  1.00  0.00    -0.237 OA
ATOM     82  O   UNL A   1      35.929  32.540  38.749  1.00  0.00    -0.237 OA
ATOM     83  O   UNL A   1      36.773  30.251  38.476  1.00  0.00    -0.744 OA
ENDBRANCH  77  80
ENDBRANCH  49  73
BRANCH  61  84
ATOM     84  C   UNL A   1      45.041  28.171  34.076  1.00  0.00     0.023 A 
ATOM     85  C   UNL A   1      46.174  29.004  34.007  1.00  0.00     0.012 A 
ATOM     86  C   UNL A   1      45.062  27.044  34.922  1.00  0.00     0.148 A 
ATOM     87  C   UNL A   1      47.321  28.704  34.741  1.00  0.00     0.002 A 
ATOM     88  C   UNL A   1      46.190  26.780  35.691  1.00  0.00     0.091 A 
ATOM     89  F   UNL A   1      43.981  26.253  34.960  1.00  0.00    -0.205 F 
ATOM     90  C   UNL A   1      47.325  27.600  35.592  1.00  0.00     0.022 A 
BRANCH  88  91
ATOM     91  S   UNL A   1      46.248  25.440  36.886  1.00  0.00     0.127 S 
ATOM     92  O   UNL A   1      45.110  25.759  37.746  1.00  0.00    -0.237 OA
ATOM     93  O   UNL A   1      46.060  24.261  36.038  1.00  0.00    -0.237 OA
ATOM     94  O   UNL A   1      47.555  25.524  37.524  1.00  0.00    -0.744 OA
ENDBRANCH  88  91
ENDBRANCH  61  84
ENDBRANCH  35  36
ENDBRANCH  27  30
ENDBRANCH  25  26
ENDBRANCH   1  25
TORSDOF 17
ENDMDL
MODEL 3
REMARK VINA RESULT:     -11.0      2.090      2.876
REMARK SMILES COc1ccc(-c2sc(N)nc2C(=O)NCCCNC(=O)c2ccc(-c3c4nc(c(-c5cccc(S(=O)(=O)[O-])c5F)c5ccc([nH]5)c(-c5cccc(S(=O)(=O)[O-])c5F)c5nc(c(-c6cccc(S(=O)(=O)[O-])c6F)c6ccc3[nH]6)C=C5)C=C4)cc2)cc1OC
REMARK SMILES IDX 17 1 16 2 15 3 13 4 14 5 12 7 7 8 8 9 9 10 11 11 6 12 3 13
REMARK SMILES IDX 4 14 86 15 5 16 85 17 2 18 1 19 87 20 88 21 10 22 18 25
REMARK SMILES IDX 19 26 20 27 21 29 22 30 23 31 84 32 24 33 83 34 25 35 26 36
REMARK SMILES IDX 27 37 77 38 28 39 82 40 76 41 78 42 29 43 81 44 75 45 74 46
REMARK SMILES IDX 30 48 62 49 42 50 61 51 43 52 46 53 60 54 79 55 44 56 45 57
REMARK SMILES IDX 59 59 80 60 47 61 31 62 32 63 40 64 33 65 35 66 41 67 34 68
REMARK SMILES IDX 36 69 37 70 38 71 39 72 63 73 64 74 72 75 65 76 67 77 73 78
REMARK SMILES IDX 66 79 68 80 69 81 70 82 71 83 48 84 49 85 57 86 50 87 52 88
REMARK SMILES IDX 58 89 51 90 53 91 54 92 55 93 56 94
REMARK H PARENT 15 6 10 23 10 24 19 28 78 47 46 58
REMARK Flexibility Score: inf
ROOT
ATOM      1  C   UNL A   1      31.556  29.332  27.136  1.00  0.00     0.042 C 
ENDROOT
BRANCH   1   2
ATOM      2  C   UNL A   1      32.011  27.908  27.431  1.00  0.00     0.118 C 
BRANCH   2   3
ATOM      3  N   UNL A   1      31.019  26.924  27.039  1.00  0.00    -0.351 N 
ATOM      4  C   UNL A   1      30.667  26.397  25.821  1.00  0.00     0.271 C 
ATOM      5  O   UNL A   1      29.798  25.518  25.859  1.00  0.00    -0.267 OA
ATOM      6  H   UNL A   1      30.496  26.565  27.793  1.00  0.00     0.163 HD
BRANCH   4   7
ATOM      7  C   UNL A   1      31.305  26.834  24.567  1.00  0.00     0.149 A 
ATOM      8  C   UNL A   1      32.397  26.198  23.970  1.00  0.00     0.069 A 
ATOM      9  S   UNL A   1      32.885  27.069  22.568  1.00  0.00    -0.096 S 
ATOM     10  C   UNL A   1      31.618  28.187  22.818  1.00  0.00     0.181 A 
ATOM     11  N   UNL A   1      30.874  27.960  23.865  1.00  0.00    -0.215 NA
BRANCH   8  12
ATOM     12  C   UNL A   1      33.109  24.971  24.343  1.00  0.00    -0.002 A 
ATOM     13  C   UNL A   1      34.316  22.605  25.275  1.00  0.00     0.160 A 
ATOM     14  C   UNL A   1      35.001  23.828  25.337  1.00  0.00     0.051 A 
ATOM     15  C   UNL A   1      33.029  22.551  24.729  1.00  0.00     0.161 A 
ATOM     16  C   UNL A   1      34.404  25.004  24.870  1.00  0.00     0.014 A 
ATOM     17  C   UNL A   1      32.454  23.736  24.249  1.00  0.00     0.060 A 
BRANCH  13  18
ATOM     18  O   UNL A   1      34.895  21.530  25.893  1.00  0.00    -0.493 OA
ATOM     19  C   UNL A   1      36.063  21.085  25.207  1.00  0.00     0.278 C 
ENDBRANCH  13  18
BRANCH  15  20
ATOM     20  O   UNL A   1      32.181  21.486  24.612  1.00  0.00    -0.493 OA
ATOM     21  C   UNL A   1      32.528  20.408  23.764  1.00  0.00     0.278 C 
ENDBRANCH  15  20
ENDBRANCH   8  12
BRANCH  10  22
ATOM     22  N   UNL A   1      31.404  29.222  22.001  1.00  0.00    -0.375 N 
ATOM     23  H   UNL A   1      30.563  29.283  21.493  1.00  0.00     0.159 HD
ATOM     24  H   UNL A   1      32.088  29.923  21.907  1.00  0.00     0.159 HD
ENDBRANCH  10  22
ENDBRANCH   4   7
ENDBRANCH   2   3
ENDBRANCH   1   2
BRANCH   1  25
ATOM     25  C   UNL A   1      32.529  30.122  26.262  1.00  0.00     0.118 C 
BRANCH  25  26
ATOM     26  N   UNL A   1      32.501  31.555  26.542  1.00  0.00    -0.352 N 
ATOM     27  C   UNL A   1      33.277  32.313  27.382  1.00  0.00     0.251 C 
ATOM     28  H   UNL A   1      31.815  32.058  26.047  1.00  0.00     0.163 HD
ATOM     29  O   UNL A   1      32.949  33.472  27.624  1.00  0.00    -0.269 OA
BRANCH  27  30
ATOM     30  C   UNL A   1      34.492  31.744  28.002  1.00  0.00     0.039 A 
ATOM     31  C   UNL A   1      35.559  32.595  28.305  1.00  0.00     0.014 A 
ATOM     32  C   UNL A   1      34.594  30.375  28.258  1.00  0.00     0.014 A 
ATOM     33  C   UNL A   1      36.700  32.081  28.922  1.00  0.00     0.010 A 
ATOM     34  C   UNL A   1      35.694  29.881  28.952  1.00  0.00     0.010 A 
ATOM     35  C   UNL A   1      36.763  30.725  29.284  1.00  0.00    -0.014 A 
BRANCH  35  36
ATOM     36  C   UNL A   1      37.929  30.178  30.024  1.00  0.00     0.031 A 
ATOM     37  C   UNL A   1      38.219  30.625  31.431  1.00  0.00     0.074 A 
ATOM     38  C   UNL A   1      38.784  29.350  29.393  1.00  0.00     0.049 A 
ATOM     39  N   UNL A   1      39.217  30.298  32.210  1.00  0.00    -0.248 NA
ATOM     40  C   UNL A   1      37.284  31.591  32.029  1.00  0.00     0.031 C 
ATOM     41  C   UNL A   1      38.663  28.914  28.001  1.00  0.00     0.029 A 
ATOM     42  N   UNL A   1      39.941  28.754  29.828  1.00  0.00    -0.354 N 
ATOM     43  C   UNL A   1      39.055  31.047  33.370  1.00  0.00     0.074 A 
ATOM     44  C   UNL A   1      37.882  31.870  33.179  1.00  0.00     0.031 C 
ATOM     45  C   UNL A   1      39.700  28.120  27.697  1.00  0.00     0.029 A 
ATOM     46  C   UNL A   1      40.580  28.019  28.858  1.00  0.00     0.049 A 
ATOM     47  H   UNL A   1      40.281  28.843  30.748  1.00  0.00     0.167 HD
ATOM     48  C   UNL A   1      39.802  31.035  34.500  1.00  0.00     0.034 A 
ATOM     49  C   UNL A   1      41.750  27.353  28.888  1.00  0.00     0.034 A 
ATOM     50  C   UNL A   1      40.951  30.191  34.695  1.00  0.00     0.049 A 
ATOM     51  C   UNL A   1      42.539  27.317  30.166  1.00  0.00     0.074 A 
ATOM     52  C   UNL A   1      41.710  30.024  35.840  1.00  0.00     0.029 A 
ATOM     53  N   UNL A   1      41.523  29.392  33.717  1.00  0.00    -0.354 N 
ATOM     54  N   UNL A   1      42.277  27.895  31.313  1.00  0.00    -0.248 NA
ATOM     55  C   UNL A   1      43.766  26.508  30.168  1.00  0.00     0.031 C 
ATOM     56  C   UNL A   1      42.767  29.157  35.540  1.00  0.00     0.029 A 
ATOM     57  C   UNL A   1      42.639  28.746  34.223  1.00  0.00     0.049 A 
ATOM     58  H   UNL A   1      41.184  29.296  32.797  1.00  0.00     0.167 HD
ATOM     59  C   UNL A   1      43.286  27.497  32.182  1.00  0.00     0.074 A 
ATOM     60  C   UNL A   1      44.154  26.611  31.433  1.00  0.00     0.031 C 
ATOM     61  C   UNL A   1      43.479  27.840  33.480  1.00  0.00     0.034 A 
BRANCH  48  62
ATOM     62  C   UNL A   1      39.380  31.947  35.624  1.00  0.00     0.023 A 
ATOM     63  C   UNL A   1      38.485  31.483  36.611  1.00  0.00     0.012 A 
ATOM     64  C   UNL A   1      39.890  33.257  35.721  1.00  0.00     0.148 A 
ATOM     65  C   UNL A   1      38.065  32.321  37.644  1.00  0.00     0.002 A 
ATOM     66  C   UNL A   1      39.509  34.069  36.782  1.00  0.00     0.091 A 
ATOM     67  F   UNL A   1      40.724  33.691  34.765  1.00  0.00    -0.205 F 
ATOM     68  C   UNL A   1      38.583  33.610  37.733  1.00  0.00     0.022 A 
BRANCH  66  69
ATOM     69  S   UNL A   1      40.187  35.712  37.034  1.00  0.00     0.127 S 
ATOM     70  O   UNL A   1      39.657  36.432  35.877  1.00  0.00    -0.237 OA
ATOM     71  O   UNL A   1      39.594  36.097  38.316  1.00  0.00    -0.237 OA
ATOM     72  O   UNL A   1      41.634  35.548  37.062  1.00  0.00    -0.744 OA
ENDBRANCH  66  69
ENDBRANCH  48  62
BRANCH  49  73
ATOM     73  C   UNL A   1      42.209  26.625  27.672  1.00  0.00     0.023 A 
ATOM     74  C   UNL A   1      43.001  27.293  26.719  1.00  0.00     0.012 A 
ATOM     75  C   UNL A   1      41.919  25.259  27.492  1.00  0.00     0.148 A 
ATOM     76  C   UNL A   1      43.479  26.617  25.595  1.00  0.00     0.002 A 
ATOM     77  C   UNL A   1      42.446  24.578  26.402  1.00  0.00     0.091 A 
ATOM     78  F   UNL A   1      41.161  24.646  28.412  1.00  0.00    -0.205 F 
ATOM     79  C   UNL A   1      43.212  25.260  25.443  1.00  0.00     0.022 A 
BRANCH  77  80
ATOM     80  S   UNL A   1      42.273  22.802  26.194  1.00  0.00     0.127 S 
ATOM     81  O   UNL A   1      42.946  22.583  24.917  1.00  0.00    -0.237 OA
ATOM     82  O   UNL A   1      42.991  22.295  27.365  1.00  0.00    -0.237 OA
ATOM     83  O   UNL A   1      40.841  22.537  26.204  1.00  0.00    -0.744 OA
ENDBRANCH  77  80
ENDBRANCH  49  73
BRANCH  61  84
ATOM     84  C   UNL A   1      44.660  27.235  34.196  1.00  0.00     0.023 A 
ATOM     85  C   UNL A   1      45.904  27.894  34.189  1.00  0.00     0.012 A 
ATOM     86  C   UNL A   1      44.511  26.046  34.939  1.00  0.00     0.148 A 
ATOM     87  C   UNL A   1      46.992  27.363  34.881  1.00  0.00     0.002 A 
ATOM     88  C   UNL A   1      45.585  25.551  35.669  1.00  0.00     0.091 A 
ATOM     89  F   UNL A   1      43.324  25.424  34.918  1.00  0.00    -0.205 F 
ATOM     90  C   UNL A   1      46.829  26.199  35.631  1.00  0.00     0.022 A 
BRANCH  88  91
ATOM     91  S   UNL A   1      45.441  24.116  36.740  1.00  0.00     0.127 S 
ATOM     92  O   UNL A   1      46.810  23.972  37.230  1.00  0.00    -0.237 OA
ATOM     93  O   UNL A   1      44.479  24.576  37.744  1.00  0.00    -0.237 OA
ATOM     94  O   UNL A   1      44.962  23.029  35.897  1.00  0.00    -0.744 OA
ENDBRANCH  88  91
ENDBRANCH  61  84
ENDBRANCH  35  36
ENDBRANCH  27  30
ENDBRANCH  25  26
ENDBRANCH   1  25
TORSDOF 17
ENDMDL
