MODEL 1
REMARK VINA RESULT:     -13.4      0.000      0.000
REMARK SMILES O=C(NCCCNC(=O)[C@@H](Cc1c[nH]c2ccccc12)NC(=O)c1ccc(F)cc1F)c1ccc(-c2c3nc(c(-c4cccc(S(=O)(=O)[O-])c4F)c4ccc([nH]4)c(-c4cccc(S(=O)(=O)[O-])c4F)c4nc(c(-c5cccc(S(=O)(=O)[O-])c5F)c5ccc2[nH]5)C=C4)C=C3)cc1
REMARK SMILES IDX 4 1 3 2 1 3 2 4 32 6 33 7 94 8 34 9 93 10 35 11 36 12 37 13
REMARK SMILES IDX 87 14 38 15 92 16 86 17 88 18 39 19 91 20 85 21 84 22 40 24
REMARK SMILES IDX 72 25 52 26 71 27 53 28 56 29 70 30 89 31 54 32 55 33 69 35
REMARK SMILES IDX 90 36 57 37 41 38 42 39 50 40 43 41 45 42 51 43 44 44 46 45
REMARK SMILES IDX 47 46 48 47 49 48 73 49 74 50 82 51 75 52 77 53 83 54 76 55
REMARK SMILES IDX 78 56 79 57 80 58 81 59 58 60 59 61 67 62 60 63 62 64 68 65
REMARK SMILES IDX 61 66 63 67 64 68 65 69 66 70 5 71 6 72 7 73 8 74 9 76 10 77
REMARK SMILES IDX 11 78 12 79 13 80 20 81 14 82 15 83 19 84 16 86 18 87 17 88
REMARK SMILES IDX 21 89 22 90 23 92 24 93 25 94 30 95 26 96 29 97 31 98 27 99
REMARK SMILES IDX 28 100
REMARK H PARENT 3 5 88 23 56 34 7 75 14 85 21 91
REMARK Flexibility Score: inf
ROOT
ATOM      1  C   UNL A   1      36.042  21.978  25.592  1.00  0.00     0.118 C 
ENDROOT
BRANCH   1   2
ATOM      2  N   UNL A   1      37.139  21.026  25.633  1.00  0.00    -0.352 N 
ATOM      3  O   UNL A   1      39.245  20.296  25.520  1.00  0.00    -0.269 OA
ATOM      4  C   UNL A   1      38.484  21.205  25.854  1.00  0.00     0.251 C 
ATOM      5  H   UNL A   1      36.873  20.092  25.474  1.00  0.00     0.163 HD
BRANCH   4   6
ATOM      6  C   UNL A   1      39.044  22.441  26.466  1.00  0.00     0.039 A 
ATOM      7  C   UNL A   1      40.210  22.437  27.230  1.00  0.00     0.014 A 
ATOM      8  C   UNL A   1      38.456  23.675  26.147  1.00  0.00     0.014 A 
ATOM      9  C   UNL A   1      40.722  23.622  27.757  1.00  0.00     0.010 A 
ATOM     10  C   UNL A   1      39.036  24.876  26.579  1.00  0.00     0.010 A 
ATOM     11  C   UNL A   1      40.178  24.863  27.390  1.00  0.00    -0.014 A 
BRANCH  11  12
ATOM     12  C   UNL A   1      40.928  26.107  27.720  1.00  0.00     0.031 A 
ATOM     13  C   UNL A   1      42.338  26.338  27.252  1.00  0.00     0.074 A 
ATOM     14  C   UNL A   1      40.313  27.038  28.480  1.00  0.00     0.049 A 
ATOM     15  N   UNL A   1      43.093  27.392  27.426  1.00  0.00    -0.248 NA
ATOM     16  C   UNL A   1      42.991  25.253  26.503  1.00  0.00     0.031 C 
ATOM     17  C   UNL A   1      38.974  26.898  29.062  1.00  0.00     0.029 A 
ATOM     18  N   UNL A   1      40.720  28.280  28.898  1.00  0.00    -0.354 N 
ATOM     19  C   UNL A   1      44.320  27.089  26.848  1.00  0.00     0.074 A 
ATOM     20  C   UNL A   1      44.209  25.748  26.313  1.00  0.00     0.031 C 
ATOM     21  C   UNL A   1      38.658  28.018  29.727  1.00  0.00     0.029 A 
ATOM     22  C   UNL A   1      39.789  28.935  29.672  1.00  0.00     0.049 A 
ATOM     23  H   UNL A   1      41.596  28.667  28.667  1.00  0.00     0.167 HD
ATOM     24  C   UNL A   1      45.429  27.862  26.761  1.00  0.00     0.034 A 
ATOM     25  C   UNL A   1      39.837  30.132  30.289  1.00  0.00     0.034 A 
ATOM     26  C   UNL A   1      45.522  29.210  27.261  1.00  0.00     0.049 A 
ATOM     27  C   UNL A   1      41.068  30.976  30.136  1.00  0.00     0.074 A 
ATOM     28  C   UNL A   1      46.576  30.100  27.134  1.00  0.00     0.029 A 
ATOM     29  N   UNL A   1      44.540  29.857  27.992  1.00  0.00    -0.354 N 
ATOM     30  N   UNL A   1      42.151  30.734  29.438  1.00  0.00    -0.248 NA
ATOM     31  C   UNL A   1      41.077  32.269  30.835  1.00  0.00     0.031 C 
ATOM     32  C   UNL A   1      46.239  31.277  27.809  1.00  0.00     0.029 A 
ATOM     33  C   UNL A   1      44.969  31.128  28.340  1.00  0.00     0.049 A 
ATOM     34  H   UNL A   1      43.667  29.471  28.230  1.00  0.00     0.167 HD
ATOM     35  C   UNL A   1      42.962  31.849  29.601  1.00  0.00     0.074 A 
ATOM     36  C   UNL A   1      42.231  32.783  30.431  1.00  0.00     0.031 C 
ATOM     37  C   UNL A   1      44.214  32.067  29.128  1.00  0.00     0.034 A 
BRANCH  24  38
ATOM     38  C   UNL A   1      46.637  27.299  26.058  1.00  0.00     0.023 A 
ATOM     39  C   UNL A   1      46.786  27.498  24.671  1.00  0.00     0.012 A 
ATOM     40  C   UNL A   1      47.673  26.680  26.784  1.00  0.00     0.148 A 
ATOM     41  C   UNL A   1      47.943  27.078  24.014  1.00  0.00     0.002 A 
ATOM     42  C   UNL A   1      48.838  26.295  26.129  1.00  0.00     0.091 A 
ATOM     43  F   UNL A   1      47.503  26.486  28.100  1.00  0.00    -0.205 F 
ATOM     44  C   UNL A   1      48.971  26.488  24.744  1.00  0.00     0.022 A 
BRANCH  42  45
ATOM     45  S   UNL A   1      50.251  25.593  26.988  1.00  0.00     0.127 S 
ATOM     46  O   UNL A   1      50.556  26.645  27.959  1.00  0.00    -0.237 OA
ATOM     47  O   UNL A   1      49.684  24.375  27.569  1.00  0.00    -0.237 OA
ATOM     48  O   UNL A   1      51.269  25.368  25.973  1.00  0.00    -0.744 OA
ENDBRANCH  42  45
ENDBRANCH  24  38
BRANCH  25  49
ATOM     49  C   UNL A   1      38.668  30.611  31.078  1.00  0.00     0.023 A 
ATOM     50  C   UNL A   1      38.637  30.411  32.471  1.00  0.00     0.012 A 
ATOM     51  C   UNL A   1      37.601  31.294  30.460  1.00  0.00     0.148 A 
ATOM     52  C   UNL A   1      37.553  30.856  33.230  1.00  0.00     0.002 A 
ATOM     53  C   UNL A   1      36.556  31.790  31.231  1.00  0.00     0.091 A 
ATOM     54  F   UNL A   1      37.632  31.457  29.130  1.00  0.00    -0.205 F 
ATOM     55  C   UNL A   1      36.520  31.557  32.613  1.00  0.00     0.022 A 
BRANCH  53  56
ATOM     56  S   UNL A   1      35.277  32.833  30.520  1.00  0.00     0.127 S 
ATOM     57  O   UNL A   1      34.414  33.077  31.671  1.00  0.00    -0.237 OA
ATOM     58  O   UNL A   1      36.042  33.995  30.065  1.00  0.00    -0.237 OA
ATOM     59  O   UNL A   1      34.703  32.042  29.439  1.00  0.00    -0.744 OA
ENDBRANCH  53  56
ENDBRANCH  25  49
BRANCH  37  60
ATOM     60  C   UNL A   1      44.870  33.372  29.487  1.00  0.00     0.023 A 
ATOM     61  C   UNL A   1      45.686  33.446  30.634  1.00  0.00     0.012 A 
ATOM     62  C   UNL A   1      44.726  34.506  28.666  1.00  0.00     0.148 A 
ATOM     63  C   UNL A   1      46.323  34.638  30.974  1.00  0.00     0.002 A 
ATOM     64  C   UNL A   1      45.400  35.677  28.986  1.00  0.00     0.091 A 
ATOM     65  F   UNL A   1      43.926  34.422  27.592  1.00  0.00    -0.205 F 
ATOM     66  C   UNL A   1      46.190  35.749  30.145  1.00  0.00     0.022 A 
BRANCH  64  67
ATOM     67  S   UNL A   1      45.358  37.129  27.929  1.00  0.00     0.127 S 
ATOM     68  O   UNL A   1      46.216  38.057  28.662  1.00  0.00    -0.237 OA
ATOM     69  O   UNL A   1      45.930  36.624  26.681  1.00  0.00    -0.237 OA
ATOM     70  O   UNL A   1      43.955  37.512  27.835  1.00  0.00    -0.744 OA
ENDBRANCH  64  67
ENDBRANCH  37  60
ENDBRANCH  11  12
ENDBRANCH   4   6
ENDBRANCH   1   2
BRANCH   1  71
ATOM     71  C   UNL A   1      35.375  21.997  24.226  1.00  0.00     0.042 C 
BRANCH  71  72
ATOM     72  C   UNL A   1      34.116  22.855  24.178  1.00  0.00     0.117 C 
BRANCH  72  73
ATOM     73  N   UNL A   1      34.083  23.625  22.947  1.00  0.00    -0.354 N 
ATOM     74  C   UNL A   1      33.210  24.566  22.501  1.00  0.00     0.242 C 
ATOM     75  H   UNL A   1      34.822  23.432  22.327  1.00  0.00     0.163 HD
ATOM     76  O   UNL A   1      33.171  24.737  21.274  1.00  0.00    -0.273 OA
BRANCH  74  77
ATOM     77  C   UNL A   1      32.262  25.380  23.408  1.00  0.00     0.176 C 
BRANCH  77  78
ATOM     78  C   UNL A   1      31.116  26.138  22.709  1.00  0.00     0.072 C 
BRANCH  78  79
ATOM     79  C   UNL A   1      30.877  27.582  23.041  1.00  0.00    -0.020 A 
ATOM     80  C   UNL A   1      31.880  28.494  23.326  1.00  0.00     0.087 A 
ATOM     81  C   UNL A   1      29.636  28.292  23.196  1.00  0.00     0.003 A 
ATOM     82  N   UNL A   1      31.314  29.723  23.529  1.00  0.00    -0.361 N 
ATOM     83  C   UNL A   1      29.950  29.640  23.385  1.00  0.00     0.046 A 
ATOM     84  C   UNL A   1      28.270  27.941  23.143  1.00  0.00     0.010 A 
ATOM     85  H   UNL A   1      31.811  30.545  23.748  1.00  0.00     0.166 HD
ATOM     86  C   UNL A   1      28.985  30.654  23.404  1.00  0.00     0.026 A 
ATOM     87  C   UNL A   1      27.291  28.943  23.145  1.00  0.00     0.001 A 
ATOM     88  C   UNL A   1      27.649  30.283  23.251  1.00  0.00     0.002 A 
ENDBRANCH  78  79
ENDBRANCH  77  78
BRANCH  77  89
ATOM     89  N   UNL A   1      31.866  24.700  24.644  1.00  0.00    -0.340 N 
ATOM     90  C   UNL A   1      31.849  25.136  25.943  1.00  0.00     0.254 C 
ATOM     91  H   UNL A   1      31.559  23.772  24.519  1.00  0.00     0.164 HD
ATOM     92  O   UNL A   1      31.489  24.369  26.832  1.00  0.00    -0.269 OA
BRANCH  90  93
ATOM     93  C   UNL A   1      32.243  26.512  26.292  1.00  0.00     0.075 A 
ATOM     94  C   UNL A   1      31.320  27.441  26.792  1.00  0.00     0.020 A 
ATOM     95  C   UNL A   1      33.587  26.873  26.171  1.00  0.00     0.138 A 
ATOM     96  C   UNL A   1      31.738  28.738  27.096  1.00  0.00     0.040 A 
ATOM     97  C   UNL A   1      34.012  28.158  26.495  1.00  0.00     0.079 A 
ATOM     98  F   UNL A   1      34.499  25.999  25.720  1.00  0.00    -0.206 F 
ATOM     99  C   UNL A   1      33.079  29.083  26.942  1.00  0.00     0.126 A 
ATOM    100  F   UNL A   1      33.475  30.328  27.238  1.00  0.00    -0.207 F 
ENDBRANCH  90  93
ENDBRANCH  77  89
ENDBRANCH  74  77
ENDBRANCH  72  73
ENDBRANCH  71  72
ENDBRANCH   1  71
TORSDOF 17
ENDMDL
MODEL 2
REMARK VINA RESULT:     -13.4      4.526     10.015
REMARK SMILES O=C(NCCCNC(=O)[C@@H](Cc1c[nH]c2ccccc12)NC(=O)c1ccc(F)cc1F)c1ccc(-c2c3nc(c(-c4cccc(S(=O)(=O)[O-])c4F)c4ccc([nH]4)c(-c4cccc(S(=O)(=O)[O-])c4F)c4nc(c(-c5cccc(S(=O)(=O)[O-])c5F)c5ccc2[nH]5)C=C4)C=C3)cc1
REMARK SMILES IDX 4 1 3 2 1 3 2 4 32 6 33 7 94 8 34 9 93 10 35 11 36 12 37 13
REMARK SMILES IDX 87 14 38 15 92 16 86 17 88 18 39 19 91 20 85 21 84 22 40 24
REMARK SMILES IDX 72 25 52 26 71 27 53 28 56 29 70 30 89 31 54 32 55 33 69 35
REMARK SMILES IDX 90 36 57 37 41 38 42 39 50 40 43 41 45 42 51 43 44 44 46 45
REMARK SMILES IDX 47 46 48 47 49 48 73 49 74 50 82 51 75 52 77 53 83 54 76 55
REMARK SMILES IDX 78 56 79 57 80 58 81 59 58 60 59 61 67 62 60 63 62 64 68 65
REMARK SMILES IDX 61 66 63 67 64 68 65 69 66 70 5 71 6 72 7 73 8 74 9 76 10 77
REMARK SMILES IDX 11 78 12 79 13 80 20 81 14 82 15 83 19 84 16 86 18 87 17 88
REMARK SMILES IDX 21 89 22 90 23 92 24 93 25 94 30 95 26 96 29 97 31 98 27 99
REMARK SMILES IDX 28 100
REMARK H PARENT 3 5 88 23 56 34 7 75 14 85 21 91
REMARK Flexibility Score: inf
ROOT
ATOM      1  C   UNL A   1      31.826  29.437  27.063  1.00  0.00     0.118 C 
ENDROOT
BRANCH   1   2
ATOM      2  N   UNL A   1      31.940  30.862  26.808  1.00  0.00    -0.352 N 
ATOM      3  O   UNL A   1      32.604  32.969  27.122  1.00  0.00    -0.269 OA
ATOM      4  C   UNL A   1      32.896  31.775  27.187  1.00  0.00     0.251 C 
ATOM      5  H   UNL A   1      31.207  31.239  26.271  1.00  0.00     0.163 HD
BRANCH   4   6
ATOM      6  C   UNL A   1      34.246  31.376  27.671  1.00  0.00     0.039 A 
ATOM      7  C   UNL A   1      35.172  32.300  28.152  1.00  0.00     0.014 A 
ATOM      8  C   UNL A   1      34.545  30.010  27.778  1.00  0.00     0.014 A 
ATOM      9  C   UNL A   1      36.415  31.883  28.630  1.00  0.00     0.010 A 
ATOM     10  C   UNL A   1      35.744  29.583  28.366  1.00  0.00     0.010 A 
ATOM     11  C   UNL A   1      36.694  30.518  28.800  1.00  0.00    -0.014 A 
BRANCH  11  12
ATOM     12  C   UNL A   1      37.893  30.119  29.588  1.00  0.00     0.031 A 
ATOM     13  C   UNL A   1      38.118  30.595  30.996  1.00  0.00     0.074 A 
ATOM     14  C   UNL A   1      38.805  29.317  28.998  1.00  0.00     0.049 A 
ATOM     15  N   UNL A   1      39.092  30.291  31.816  1.00  0.00    -0.248 NA
ATOM     16  C   UNL A   1      37.139  31.538  31.559  1.00  0.00     0.031 C 
ATOM     17  C   UNL A   1      38.740  28.849  27.609  1.00  0.00     0.029 A 
ATOM     18  N   UNL A   1      39.961  28.752  29.477  1.00  0.00    -0.354 N 
ATOM     19  C   UNL A   1      38.870  31.029  32.972  1.00  0.00     0.074 A 
ATOM     20  C   UNL A   1      37.665  31.799  32.751  1.00  0.00     0.031 C 
ATOM     21  C   UNL A   1      39.784  28.045  27.362  1.00  0.00     0.029 A 
ATOM     22  C   UNL A   1      40.625  27.983  28.549  1.00  0.00     0.049 A 
ATOM     23  H   UNL A   1      40.285  28.885  30.398  1.00  0.00     0.167 HD
ATOM     24  C   UNL A   1      39.599  31.052  34.114  1.00  0.00     0.034 A 
ATOM     25  C   UNL A   1      41.792  27.313  28.629  1.00  0.00     0.034 A 
ATOM     26  C   UNL A   1      40.777  30.256  34.343  1.00  0.00     0.049 A 
ATOM     27  C   UNL A   1      42.549  27.330  29.924  1.00  0.00     0.074 A 
ATOM     28  C   UNL A   1      41.525  30.145  35.505  1.00  0.00     0.029 A 
ATOM     29  N   UNL A   1      41.389  29.449  33.398  1.00  0.00    -0.354 N 
ATOM     30  N   UNL A   1      42.226  27.900  31.059  1.00  0.00    -0.248 NA
ATOM     31  C   UNL A   1      43.820  26.592  29.959  1.00  0.00     0.031 C 
ATOM     32  C   UNL A   1      42.601  29.290  35.253  1.00  0.00     0.029 A 
ATOM     33  C   UNL A   1      42.515  28.851  33.943  1.00  0.00     0.049 A 
ATOM     34  H   UNL A   1      41.071  29.319  32.476  1.00  0.00     0.167 HD
ATOM     35  C   UNL A   1      43.244  27.579  31.947  1.00  0.00     0.074 A 
ATOM     36  C   UNL A   1      44.175  26.731  31.230  1.00  0.00     0.031 C 
ATOM     37  C   UNL A   1      43.408  27.973  33.233  1.00  0.00     0.034 A 
BRANCH  24  38
ATOM     38  C   UNL A   1      39.128  31.933  35.241  1.00  0.00     0.023 A 
ATOM     39  C   UNL A   1      38.251  31.408  36.211  1.00  0.00     0.012 A 
ATOM     40  C   UNL A   1      39.642  33.235  35.405  1.00  0.00     0.148 A 
ATOM     41  C   UNL A   1      37.883  32.169  37.321  1.00  0.00     0.002 A 
ATOM     42  C   UNL A   1      39.298  33.975  36.530  1.00  0.00     0.091 A 
ATOM     43  F   UNL A   1      40.462  33.721  34.461  1.00  0.00    -0.205 F 
ATOM     44  C   UNL A   1      38.413  33.445  37.485  1.00  0.00     0.022 A 
BRANCH  42  45
ATOM     45  S   UNL A   1      39.983  35.599  36.874  1.00  0.00     0.127 S 
ATOM     46  O   UNL A   1      39.506  36.368  35.724  1.00  0.00    -0.237 OA
ATOM     47  O   UNL A   1      39.340  35.942  38.144  1.00  0.00    -0.237 OA
ATOM     48  O   UNL A   1      41.425  35.422  36.950  1.00  0.00    -0.744 OA
ENDBRANCH  42  45
ENDBRANCH  24  38
BRANCH  25  49
ATOM     49  C   UNL A   1      42.292  26.544  27.455  1.00  0.00     0.023 A 
ATOM     50  C   UNL A   1      43.082  27.189  26.484  1.00  0.00     0.012 A 
ATOM     51  C   UNL A   1      42.015  25.171  27.310  1.00  0.00     0.148 A 
ATOM     52  C   UNL A   1      43.565  26.487  25.379  1.00  0.00     0.002 A 
ATOM     53  C   UNL A   1      42.551  24.463  26.240  1.00  0.00     0.091 A 
ATOM     54  F   UNL A   1      41.241  24.575  28.228  1.00  0.00    -0.205 F 
ATOM     55  C   UNL A   1      43.311  25.122  25.264  1.00  0.00     0.022 A 
BRANCH  53  56
ATOM     56  S   UNL A   1      42.392  22.678  26.119  1.00  0.00     0.127 S 
ATOM     57  O   UNL A   1      43.115  22.231  27.305  1.00  0.00    -0.237 OA
ATOM     58  O   UNL A   1      40.941  22.491  26.174  1.00  0.00    -0.237 OA
ATOM     59  O   UNL A   1      42.985  22.333  24.833  1.00  0.00    -0.744 OA
ENDBRANCH  53  56
ENDBRANCH  25  49
BRANCH  37  60
ATOM     60  C   UNL A   1      44.634  27.484  33.954  1.00  0.00     0.023 A 
ATOM     61  C   UNL A   1      45.803  28.271  33.948  1.00  0.00     0.012 A 
ATOM     62  C   UNL A   1      44.615  26.279  34.681  1.00  0.00     0.148 A 
ATOM     63  C   UNL A   1      46.944  27.850  34.629  1.00  0.00     0.002 A 
ATOM     64  C   UNL A   1      45.741  25.888  35.394  1.00  0.00     0.091 A 
ATOM     65  F   UNL A   1      43.501  25.532  34.655  1.00  0.00    -0.205 F 
ATOM     66  C   UNL A   1      46.910  26.666  35.361  1.00  0.00     0.022 A 
BRANCH  64  67
ATOM     67  S   UNL A   1      45.757  24.424  36.435  1.00  0.00     0.127 S 
ATOM     68  O   UNL A   1      44.701  24.731  37.398  1.00  0.00    -0.237 OA
ATOM     69  O   UNL A   1      45.428  23.361  35.486  1.00  0.00    -0.237 OA
ATOM     70  O   UNL A   1      47.104  24.342  36.986  1.00  0.00    -0.744 OA
ENDBRANCH  64  67
ENDBRANCH  37  60
ENDBRANCH  11  12
ENDBRANCH   4   6
ENDBRANCH   1   2
BRANCH   1  71
ATOM     71  C   UNL A   1      31.787  28.642  25.768  1.00  0.00     0.042 C 
BRANCH  71  72
ATOM     72  C   UNL A   1      32.419  27.260  25.884  1.00  0.00     0.117 C 
BRANCH  72  73
ATOM     73  N   UNL A   1      31.476  26.328  26.479  1.00  0.00    -0.354 N 
ATOM     74  C   UNL A   1      31.115  25.068  26.121  1.00  0.00     0.242 C 
ATOM     75  H   UNL A   1      31.020  26.668  27.281  1.00  0.00     0.163 HD
ATOM     76  O   UNL A   1      30.009  24.682  26.526  1.00  0.00    -0.273 OA
BRANCH  74  77
ATOM     77  C   UNL A   1      31.961  24.136  25.227  1.00  0.00     0.176 C 
BRANCH  77  78
ATOM     78  C   UNL A   1      31.443  22.695  25.044  1.00  0.00     0.072 C 
BRANCH  78  79
ATOM     79  C   UNL A   1      32.394  21.544  25.204  1.00  0.00    -0.020 A 
ATOM     80  C   UNL A   1      33.300  21.418  26.245  1.00  0.00     0.087 A 
ATOM     81  C   UNL A   1      32.616  20.415  24.342  1.00  0.00     0.003 A 
ATOM     82  N   UNL A   1      33.965  20.231  26.109  1.00  0.00    -0.361 N 
ATOM     83  C   UNL A   1      33.515  19.566  24.994  1.00  0.00     0.046 A 
ATOM     84  C   UNL A   1      32.109  19.994  23.094  1.00  0.00     0.010 A 
ATOM     85  H   UNL A   1      34.663  19.902  26.720  1.00  0.00     0.166 HD
ATOM     86  C   UNL A   1      33.834  18.286  24.526  1.00  0.00     0.026 A 
ATOM     87  C   UNL A   1      32.405  18.711  22.618  1.00  0.00     0.001 A 
ATOM     88  C   UNL A   1      33.238  17.862  23.337  1.00  0.00     0.002 A 
ENDBRANCH  78  79
ENDBRANCH  77  78
BRANCH  77  89
ATOM     89  N   UNL A   1      32.461  24.755  23.998  1.00  0.00    -0.340 N 
ATOM     90  C   UNL A   1      33.702  24.723  23.417  1.00  0.00     0.254 C 
ATOM     91  H   UNL A   1      31.792  25.284  23.505  1.00  0.00     0.164 HD
ATOM     92  O   UNL A   1      33.896  25.345  22.377  1.00  0.00    -0.269 OA
BRANCH  90  93
ATOM     93  C   UNL A   1      34.804  23.945  24.010  1.00  0.00     0.075 A 
ATOM     94  C   UNL A   1      35.331  22.811  23.378  1.00  0.00     0.020 A 
ATOM     95  C   UNL A   1      35.368  24.393  25.206  1.00  0.00     0.138 A 
ATOM     96  C   UNL A   1      36.367  22.098  23.986  1.00  0.00     0.040 A 
ATOM     97  C   UNL A   1      36.415  23.698  25.803  1.00  0.00     0.079 A 
ATOM     98  F   UNL A   1      34.903  25.489  25.822  1.00  0.00    -0.206 F 
ATOM     99  C   UNL A   1      36.896  22.548  25.193  1.00  0.00     0.126 A 
ATOM    100  F   UNL A   1      37.891  21.862  25.770  1.00  0.00    -0.207 F 
ENDBRANCH  90  93
ENDBRANCH  77  89
ENDBRANCH  74  77
ENDBRANCH  72  73
ENDBRANCH  71  72
ENDBRANCH   1  71
TORSDOF 17
ENDMDL
MODEL 3
REMARK VINA RESULT:     -13.4      1.878      2.972
REMARK SMILES O=C(NCCCNC(=O)[C@@H](Cc1c[nH]c2ccccc12)NC(=O)c1ccc(F)cc1F)c1ccc(-c2c3nc(c(-c4cccc(S(=O)(=O)[O-])c4F)c4ccc([nH]4)c(-c4cccc(S(=O)(=O)[O-])c4F)c4nc(c(-c5cccc(S(=O)(=O)[O-])c5F)c5ccc2[nH]5)C=C4)C=C3)cc1
REMARK SMILES IDX 4 1 3 2 1 3 2 4 32 6 33 7 94 8 34 9 93 10 35 11 36 12 37 13
REMARK SMILES IDX 87 14 38 15 92 16 86 17 88 18 39 19 91 20 85 21 84 22 40 24
REMARK SMILES IDX 72 25 52 26 71 27 53 28 56 29 70 30 89 31 54 32 55 33 69 35
REMARK SMILES IDX 90 36 57 37 41 38 42 39 50 40 43 41 45 42 51 43 44 44 46 45
REMARK SMILES IDX 47 46 48 47 49 48 73 49 74 50 82 51 75 52 77 53 83 54 76 55
REMARK SMILES IDX 78 56 79 57 80 58 81 59 58 60 59 61 67 62 60 63 62 64 68 65
REMARK SMILES IDX 61 66 63 67 64 68 65 69 66 70 5 71 6 72 7 73 8 74 9 76 10 77
REMARK SMILES IDX 11 78 12 79 13 80 20 81 14 82 15 83 19 84 16 86 18 87 17 88
REMARK SMILES IDX 21 89 22 90 23 92 24 93 25 94 30 95 26 96 29 97 31 98 27 99
REMARK SMILES IDX 28 100
REMARK H PARENT 3 5 88 23 56 34 7 75 14 85 21 91
REMARK Flexibility Score: inf
ROOT
ATOM      1  C   UNL A   1      37.397  21.413  24.881  1.00  0.00     0.118 C 
ENDROOT
BRANCH   1   2
ATOM      2  N   UNL A   1      38.343  20.482  25.472  1.00  0.00    -0.352 N 
ATOM      3  O   UNL A   1      40.300  19.738  26.245  1.00  0.00    -0.269 OA
ATOM      4  C   UNL A   1      39.534  20.695  26.125  1.00  0.00     0.251 C 
ATOM      5  H   UNL A   1      38.087  19.535  25.390  1.00  0.00     0.163 HD
BRANCH   4   6
ATOM      6  C   UNL A   1      39.926  22.021  26.677  1.00  0.00     0.039 A 
ATOM      7  C   UNL A   1      40.976  22.175  27.581  1.00  0.00     0.014 A 
ATOM      8  C   UNL A   1      39.309  23.171  26.165  1.00  0.00     0.014 A 
ATOM      9  C   UNL A   1      41.336  23.439  28.049  1.00  0.00     0.010 A 
ATOM     10  C   UNL A   1      39.747  24.448  26.545  1.00  0.00     0.010 A 
ATOM     11  C   UNL A   1      40.768  24.595  27.492  1.00  0.00    -0.014 A 
BRANCH  11  12
ATOM     12  C   UNL A   1      41.386  25.918  27.790  1.00  0.00     0.031 A 
ATOM     13  C   UNL A   1      42.775  26.272  27.337  1.00  0.00     0.074 A 
ATOM     14  C   UNL A   1      40.667  26.809  28.507  1.00  0.00     0.049 A 
ATOM     15  N   UNL A   1      43.419  27.401  27.485  1.00  0.00    -0.248 NA
ATOM     16  C   UNL A   1      43.546  25.232  26.638  1.00  0.00     0.031 C 
ATOM     17  C   UNL A   1      39.337  26.557  29.071  1.00  0.00     0.029 A 
ATOM     18  N   UNL A   1      40.942  28.099  28.887  1.00  0.00    -0.354 N 
ATOM     19  C   UNL A   1      44.681  27.201  26.938  1.00  0.00     0.074 A 
ATOM     20  C   UNL A   1      44.713  25.838  26.450  1.00  0.00     0.031 C 
ATOM     21  C   UNL A   1      38.900  27.662  29.691  1.00  0.00     0.029 A 
ATOM     22  C   UNL A   1      39.936  28.684  29.621  1.00  0.00     0.049 A 
ATOM     23  H   UNL A   1      41.780  28.562  28.656  1.00  0.00     0.167 HD
ATOM     24  C   UNL A   1      45.710  28.076  26.841  1.00  0.00     0.034 A 
ATOM     25  C   UNL A   1      39.855  29.900  30.196  1.00  0.00     0.034 A 
ATOM     26  C   UNL A   1      45.661  29.443  27.294  1.00  0.00     0.049 A 
ATOM     27  C   UNL A   1      40.999  30.857  30.033  1.00  0.00     0.074 A 
ATOM     28  C   UNL A   1      46.624  30.428  27.153  1.00  0.00     0.029 A 
ATOM     29  N   UNL A   1      44.606  30.014  27.987  1.00  0.00    -0.354 N 
ATOM     30  N   UNL A   1      42.113  30.699  29.361  1.00  0.00    -0.248 NA
ATOM     31  C   UNL A   1      40.867  32.167  30.686  1.00  0.00     0.031 C 
ATOM     32  C   UNL A   1      46.160  31.588  27.780  1.00  0.00     0.029 A 
ATOM     33  C   UNL A   1      44.900  31.333  28.295  1.00  0.00     0.049 A 
ATOM     34  H   UNL A   1      43.770  29.552  28.224  1.00  0.00     0.167 HD
ATOM     35  C   UNL A   1      42.808  31.893  29.497  1.00  0.00     0.074 A 
ATOM     36  C   UNL A   1      41.972  32.779  30.282  1.00  0.00     0.031 C 
ATOM     37  C   UNL A   1      44.041  32.218  29.037  1.00  0.00     0.034 A 
BRANCH  24  38
ATOM     38  C   UNL A   1      46.981  27.612  26.178  1.00  0.00     0.023 A 
ATOM     39  C   UNL A   1      47.899  26.834  26.910  1.00  0.00     0.012 A 
ATOM     40  C   UNL A   1      47.209  27.847  24.808  1.00  0.00     0.148 A 
ATOM     41  C   UNL A   1      49.033  26.306  26.292  1.00  0.00     0.002 A 
ATOM     42  C   UNL A   1      48.323  27.289  24.190  1.00  0.00     0.091 A 
ATOM     43  F   UNL A   1      46.331  28.605  24.135  1.00  0.00    -0.205 F 
ATOM     44  C   UNL A   1      49.238  26.524  24.932  1.00  0.00     0.022 A 
BRANCH  42  45
ATOM     45  S   UNL A   1      48.641  27.448  22.429  1.00  0.00     0.127 S 
ATOM     46  O   UNL A   1      47.516  28.281  22.002  1.00  0.00    -0.237 OA
ATOM     47  O   UNL A   1      49.939  28.123  22.411  1.00  0.00    -0.237 OA
ATOM     48  O   UNL A   1      48.650  26.094  21.897  1.00  0.00    -0.744 OA
ENDBRANCH  42  45
ENDBRANCH  24  38
BRANCH  25  49
ATOM     49  C   UNL A   1      38.628  30.288  30.949  1.00  0.00     0.023 A 
ATOM     50  C   UNL A   1      38.504  29.939  32.307  1.00  0.00     0.012 A 
ATOM     51  C   UNL A   1      37.599  31.029  30.335  1.00  0.00     0.148 A 
ATOM     52  C   UNL A   1      37.366  30.296  33.032  1.00  0.00     0.002 A 
ATOM     53  C   UNL A   1      36.498  31.436  31.079  1.00  0.00     0.091 A 
ATOM     54  F   UNL A   1      37.719  31.334  29.035  1.00  0.00    -0.205 F 
ATOM     55  C   UNL A   1      36.370  31.056  32.423  1.00  0.00     0.022 A 
BRANCH  53  56
ATOM     56  S   UNL A   1      35.260  32.545  30.397  1.00  0.00     0.127 S 
ATOM     57  O   UNL A   1      36.058  33.721  30.070  1.00  0.00    -0.237 OA
ATOM     58  O   UNL A   1      34.770  31.790  29.242  1.00  0.00    -0.237 OA
ATOM     59  O   UNL A   1      34.274  32.708  31.458  1.00  0.00    -0.744 OA
ENDBRANCH  53  56
ENDBRANCH  25  49
BRANCH  37  60
ATOM     60  C   UNL A   1      44.559  33.594  29.361  1.00  0.00     0.023 A 
ATOM     61  C   UNL A   1      45.258  33.806  30.565  1.00  0.00     0.012 A 
ATOM     62  C   UNL A   1      44.403  34.658  28.453  1.00  0.00     0.148 A 
ATOM     63  C   UNL A   1      45.767  35.066  30.876  1.00  0.00     0.002 A 
ATOM     64  C   UNL A   1      44.953  35.899  28.748  1.00  0.00     0.091 A 
ATOM     65  F   UNL A   1      43.714  34.441  27.323  1.00  0.00    -0.205 F 
ATOM     66  C   UNL A   1      45.625  36.108  29.963  1.00  0.00     0.022 A 
BRANCH  64  67
ATOM     67  S   UNL A   1      44.895  37.273  27.593  1.00  0.00     0.127 S 
ATOM     68  O   UNL A   1      45.226  38.404  28.458  1.00  0.00    -0.237 OA
ATOM     69  O   UNL A   1      45.937  36.917  26.629  1.00  0.00    -0.237 OA
ATOM     70  O   UNL A   1      43.545  37.276  27.044  1.00  0.00    -0.744 OA
ENDBRANCH  64  67
ENDBRANCH  37  60
ENDBRANCH  11  12
ENDBRANCH   4   6
ENDBRANCH   1   2
BRANCH   1  71
ATOM     71  C   UNL A   1      35.979  20.866  24.925  1.00  0.00     0.042 C 
BRANCH  71  72
ATOM     72  C   UNL A   1      35.147  21.429  26.072  1.00  0.00     0.117 C 
BRANCH  72  73
ATOM     73  N   UNL A   1      33.746  21.093  25.884  1.00  0.00    -0.354 N 
ATOM     74  C   UNL A   1      32.686  21.852  25.504  1.00  0.00     0.242 C 
ATOM     75  H   UNL A   1      33.527  20.151  26.064  1.00  0.00     0.163 HD
ATOM     76  O   UNL A   1      31.568  21.435  25.839  1.00  0.00    -0.273 OA
BRANCH  74  77
ATOM     77  C   UNL A   1      32.796  23.189  24.738  1.00  0.00     0.176 C 
BRANCH  77  78
ATOM     78  C   UNL A   1      33.429  24.372  25.498  1.00  0.00     0.072 C 
BRANCH  78  79
ATOM     79  C   UNL A   1      32.548  25.470  26.019  1.00  0.00    -0.020 A 
ATOM     80  C   UNL A   1      31.207  25.312  26.333  1.00  0.00     0.087 A 
ATOM     81  C   UNL A   1      32.849  26.858  26.237  1.00  0.00     0.003 A 
ATOM     82  N   UNL A   1      30.729  26.495  26.827  1.00  0.00    -0.361 N 
ATOM     83  C   UNL A   1      31.731  27.435  26.846  1.00  0.00     0.046 A 
ATOM     84  C   UNL A   1      33.976  27.682  26.030  1.00  0.00     0.010 A 
ATOM     85  H   UNL A   1      29.803  26.649  27.125  1.00  0.00     0.166 HD
ATOM     86  C   UNL A   1      31.725  28.738  27.357  1.00  0.00     0.026 A 
ATOM     87  C   UNL A   1      33.995  28.983  26.549  1.00  0.00     0.001 A 
ATOM     88  C   UNL A   1      32.891  29.493  27.223  1.00  0.00     0.002 A 
ENDBRANCH  78  79
ENDBRANCH  77  78
BRANCH  77  89
ATOM     89  N   UNL A   1      33.239  23.062  23.349  1.00  0.00    -0.340 N 
ATOM     90  C   UNL A   1      33.198  23.952  22.308  1.00  0.00     0.254 C 
ATOM     91  H   UNL A   1      33.634  22.187  23.123  1.00  0.00     0.164 HD
ATOM     92  O   UNL A   1      33.617  23.612  21.206  1.00  0.00    -0.269 OA
BRANCH  90  93
ATOM     93  C   UNL A   1      32.671  25.317  22.490  1.00  0.00     0.075 A 
ATOM     94  C   UNL A   1      33.498  26.445  22.407  1.00  0.00     0.020 A 
ATOM     95  C   UNL A   1      31.298  25.480  22.693  1.00  0.00     0.138 A 
ATOM     96  C   UNL A   1      32.954  27.717  22.602  1.00  0.00     0.040 A 
ATOM     97  C   UNL A   1      30.751  26.748  22.864  1.00  0.00     0.079 A 
ATOM     98  F   UNL A   1      30.478  24.422  22.752  1.00  0.00    -0.206 F 
ATOM     99  C   UNL A   1      31.587  27.855  22.830  1.00  0.00     0.126 A 
ATOM    100  F   UNL A   1      31.072  29.077  23.012  1.00  0.00    -0.207 F 
ENDBRANCH  90  93
ENDBRANCH  77  89
ENDBRANCH  74  77
ENDBRANCH  72  73
ENDBRANCH  71  72
ENDBRANCH   1  71
TORSDOF 17
ENDMDL
