MODEL 1
REMARK VINA RESULT:     -11.1      0.000      0.000
REMARK SMILES CC(C)N(CC1CC[NH2+]CC1)S(=O)(=O)[C@H](C)C(=O)NCCCNC(=O)c1ccc(-c2c3nc(c(-c4cccc(S(=O)(=O)[O-])c4F)c4ccc([nH]4)c(-c4cccc(S(=O)(=O)[O-])c4F)c4nc(c(-c5cccc(S(=O)(=O)[O-])c5F)c5ccc2[nH]5)C=C4)C=C3)cc1
REMARK SMILES IDX 20 1 19 2 17 3 18 4 15 6 16 7 12 8 13 9 14 10 4 11 2 12 1 13
REMARK SMILES IDX 3 14 5 15 6 16 7 17 11 18 8 19 10 20 9 21 21 24 22 25 23 26
REMARK SMILES IDX 24 27 25 29 26 30 27 31 88 32 28 33 87 34 29 35 30 36 31 37
REMARK SMILES IDX 81 38 32 39 86 40 80 41 82 42 33 43 85 44 79 45 78 46 34 48
REMARK SMILES IDX 66 49 46 50 65 51 47 52 50 53 64 54 83 55 48 56 49 57 63 59
REMARK SMILES IDX 84 60 51 61 35 62 36 63 44 64 37 65 39 66 45 67 38 68 40 69
REMARK SMILES IDX 41 70 42 71 43 72 67 73 68 74 76 75 69 76 71 77 77 78 70 79
REMARK SMILES IDX 72 80 73 81 74 82 75 83 52 84 53 85 61 86 54 87 56 88 62 89
REMARK SMILES IDX 55 90 57 91 58 92 59 93 60 94
REMARK H PARENT 19 5 9 22 9 23 23 28 82 47 50 58
REMARK Flexibility Score: inf
ROOT
ATOM      1  C   UNL A   1      34.198  21.924  25.271  1.00  0.00     0.117 C 
ENDROOT
BRANCH   1   2
ATOM      2  N   UNL A   1      33.313  21.929  24.113  1.00  0.00    -0.355 N 
ATOM      3  C   UNL A   1      32.184  22.628  23.844  1.00  0.00     0.239 C 
ATOM      4  O   UNL A   1      31.776  22.558  22.675  1.00  0.00    -0.274 OA
ATOM      5  H   UNL A   1      33.585  21.311  23.397  1.00  0.00     0.163 HD
BRANCH   3   6
ATOM      6  C   UNL A   1      31.325  23.310  24.850  1.00  0.00     0.210 C 
ATOM      7  C   UNL A   1      30.883  22.308  25.927  1.00  0.00     0.037 C 
BRANCH   6   8
ATOM      8  S   UNL A   1      31.832  24.845  25.599  1.00  0.00     0.226 S 
ATOM      9  O   UNL A   1      33.183  25.148  25.171  1.00  0.00    -0.211 OA
ATOM     10  O   UNL A   1      31.575  24.595  27.010  1.00  0.00    -0.211 OA
BRANCH   8  11
ATOM     11  N   UNL A   1      30.915  26.262  25.237  1.00  0.00    -0.198 NA
BRANCH  11  12
ATOM     12  C   UNL A   1      30.163  26.060  23.855  1.00  0.00     0.066 C 
ATOM     13  C   UNL A   1      28.958  26.997  23.635  1.00  0.00     0.025 C 
ATOM     14  C   UNL A   1      31.061  26.251  22.636  1.00  0.00     0.025 C 
ENDBRANCH  11  12
BRANCH  11  15
ATOM     15  C   UNL A   1      31.587  27.608  25.297  1.00  0.00     0.106 C 
BRANCH  15  16
ATOM     16  C   UNL A   1      32.068  28.119  26.703  1.00  0.00     0.015 C 
ATOM     17  C   UNL A   1      31.635  29.548  27.058  1.00  0.00     0.066 C 
ATOM     18  C   UNL A   1      33.553  28.032  27.089  1.00  0.00     0.066 C 
ATOM     19  C   UNL A   1      32.532  30.584  26.394  1.00  0.00     0.260 C 
ATOM     20  C   UNL A   1      34.413  29.105  26.418  1.00  0.00     0.260 C 
ATOM     21  N   UNL A   1      33.932  30.438  26.781  1.00  0.00    -0.346 N 
ATOM     22  H   UNL A   1      34.019  30.567  27.789  1.00  0.00     0.346 HD
ATOM     23  H   UNL A   1      34.490  31.140  26.294  1.00  0.00     0.346 HD
ENDBRANCH  15  16
ENDBRANCH  11  15
ENDBRANCH   8  11
ENDBRANCH   6   8
ENDBRANCH   3   6
ENDBRANCH   1   2
BRANCH   1  24
ATOM     24  C   UNL A   1      35.426  21.051  25.074  1.00  0.00     0.042 C 
BRANCH  24  25
ATOM     25  C   UNL A   1      36.753  21.714  25.429  1.00  0.00     0.118 C 
BRANCH  25  26
ATOM     26  N   UNL A   1      37.852  20.777  25.627  1.00  0.00    -0.352 N 
ATOM     27  C   UNL A   1      39.139  20.985  26.077  1.00  0.00     0.251 C 
ATOM     28  H   UNL A   1      37.641  19.842  25.403  1.00  0.00     0.163 HD
ATOM     29  O   UNL A   1      39.945  20.065  26.051  1.00  0.00    -0.269 OA
BRANCH  27  30
ATOM     30  C   UNL A   1      39.562  22.323  26.557  1.00  0.00     0.039 A 
ATOM     31  C   UNL A   1      40.565  22.407  27.526  1.00  0.00     0.014 A 
ATOM     32  C   UNL A   1      38.985  23.488  26.053  1.00  0.00     0.014 A 
ATOM     33  C   UNL A   1      41.056  23.660  27.911  1.00  0.00     0.010 A 
ATOM     34  C   UNL A   1      39.546  24.725  26.354  1.00  0.00     0.010 A 
ATOM     35  C   UNL A   1      40.589  24.828  27.287  1.00  0.00    -0.014 A 
BRANCH  35  36
ATOM     36  C   UNL A   1      41.185  26.161  27.575  1.00  0.00     0.031 A 
ATOM     37  C   UNL A   1      42.601  26.468  27.164  1.00  0.00     0.074 A 
ATOM     38  C   UNL A   1      40.488  27.060  28.301  1.00  0.00     0.049 A 
ATOM     39  N   UNL A   1      43.318  27.534  27.407  1.00  0.00    -0.248 NA
ATOM     40  C   UNL A   1      43.319  25.425  26.412  1.00  0.00     0.031 C 
ATOM     41  C   UNL A   1      39.140  26.855  28.837  1.00  0.00     0.029 A 
ATOM     42  N   UNL A   1      40.829  28.316  28.742  1.00  0.00    -0.354 N 
ATOM     43  C   UNL A   1      44.578  27.276  26.878  1.00  0.00     0.074 A 
ATOM     44  C   UNL A   1      44.540  25.935  26.337  1.00  0.00     0.031 C 
ATOM     45  C   UNL A   1      38.766  27.947  29.523  1.00  0.00     0.029 A 
ATOM     46  C   UNL A   1      39.858  28.915  29.512  1.00  0.00     0.049 A 
ATOM     47  H   UNL A   1      41.688  28.747  28.528  1.00  0.00     0.167 HD
ATOM     48  C   UNL A   1      45.659  28.088  26.819  1.00  0.00     0.034 A 
ATOM     49  C   UNL A   1      39.850  30.103  30.148  1.00  0.00     0.034 A 
ATOM     50  C   UNL A   1      45.680  29.438  27.314  1.00  0.00     0.049 A 
ATOM     51  C   UNL A   1      41.049  31.005  30.028  1.00  0.00     0.074 A 
ATOM     52  C   UNL A   1      46.693  30.375  27.214  1.00  0.00     0.029 A 
ATOM     53  N   UNL A   1      44.643  30.044  28.005  1.00  0.00    -0.354 N 
ATOM     54  N   UNL A   1      42.173  30.802  29.385  1.00  0.00    -0.248 NA
ATOM     55  C   UNL A   1      40.964  32.315  30.691  1.00  0.00     0.031 C 
ATOM     56  C   UNL A   1      46.281  31.537  27.873  1.00  0.00     0.029 A 
ATOM     57  C   UNL A   1      44.995  31.337  28.351  1.00  0.00     0.049 A 
ATOM     58  H   UNL A   1      43.783  29.616  28.220  1.00  0.00     0.167 HD
ATOM     59  C   UNL A   1      42.913  31.970  29.533  1.00  0.00     0.074 A 
ATOM     60  C   UNL A   1      42.100  32.883  30.310  1.00  0.00     0.031 C 
ATOM     61  C   UNL A   1      44.158  32.256  29.078  1.00  0.00     0.034 A 
BRANCH  48  62
ATOM     62  C   UNL A   1      46.900  27.556  26.147  1.00  0.00     0.023 A 
ATOM     63  C   UNL A   1      47.127  27.831  24.783  1.00  0.00     0.012 A 
ATOM     64  C   UNL A   1      47.866  26.836  26.876  1.00  0.00     0.148 A 
ATOM     65  C   UNL A   1      48.275  27.363  24.144  1.00  0.00     0.002 A 
ATOM     66  C   UNL A   1      49.031  26.415  26.245  1.00  0.00     0.091 A 
ATOM     67  F   UNL A   1      47.626  26.567  28.168  1.00  0.00    -0.205 F 
ATOM     68  C   UNL A   1      49.231  26.666  24.877  1.00  0.00     0.022 A 
BRANCH  66  69
ATOM     69  S   UNL A   1      50.362  25.582  27.118  1.00  0.00     0.127 S 
ATOM     70  O   UNL A   1      49.701  24.356  27.562  1.00  0.00    -0.237 OA
ATOM     71  O   UNL A   1      51.352  25.390  26.057  1.00  0.00    -0.237 OA
ATOM     72  O   UNL A   1      50.777  26.489  28.179  1.00  0.00    -0.744 OA
ENDBRANCH  66  69
ENDBRANCH  48  62
BRANCH  49  73
ATOM     73  C   UNL A   1      38.640  30.538  30.903  1.00  0.00     0.023 A 
ATOM     74  C   UNL A   1      38.544  30.252  32.280  1.00  0.00     0.012 A 
ATOM     75  C   UNL A   1      37.598  31.249  30.276  1.00  0.00     0.148 A 
ATOM     76  C   UNL A   1      37.417  30.633  33.009  1.00  0.00     0.002 A 
ATOM     77  C   UNL A   1      36.506  31.675  31.020  1.00  0.00     0.091 A 
ATOM     78  F   UNL A   1      37.705  31.503  28.964  1.00  0.00    -0.205 F 
ATOM     79  C   UNL A   1      36.404  31.353  32.382  1.00  0.00     0.022 A 
BRANCH  77  80
ATOM     80  S   UNL A   1      35.217  32.718  30.329  1.00  0.00     0.127 S 
ATOM     81  O   UNL A   1      34.770  31.924  29.187  1.00  0.00    -0.237 OA
ATOM     82  O   UNL A   1      34.264  32.794  31.438  1.00  0.00    -0.237 OA
ATOM     83  O   UNL A   1      35.864  33.982  30.007  1.00  0.00    -0.744 OA
ENDBRANCH  77  80
ENDBRANCH  49  73
BRANCH  61  84
ATOM     84  C   UNL A   1      44.712  33.626  29.366  1.00  0.00     0.023 A 
ATOM     85  C   UNL A   1      45.467  33.851  30.534  1.00  0.00     0.012 A 
ATOM     86  C   UNL A   1      44.546  34.674  28.438  1.00  0.00     0.148 A 
ATOM     87  C   UNL A   1      46.021  35.105  30.790  1.00  0.00     0.002 A 
ATOM     88  C   UNL A   1      45.144  35.905  28.674  1.00  0.00     0.091 A 
ATOM     89  F   UNL A   1      43.809  34.446  27.341  1.00  0.00    -0.205 F 
ATOM     90  C   UNL A   1      45.869  36.127  29.855  1.00  0.00     0.022 A 
BRANCH  88  91
ATOM     91  S   UNL A   1      45.088  37.248  27.482  1.00  0.00     0.127 S 
ATOM     92  O   UNL A   1      45.502  38.388  28.298  1.00  0.00    -0.237 OA
ATOM     93  O   UNL A   1      46.072  36.820  26.488  1.00  0.00    -0.237 OA
ATOM     94  O   UNL A   1      43.717  37.296  26.993  1.00  0.00    -0.744 OA
ENDBRANCH  88  91
ENDBRANCH  61  84
ENDBRANCH  35  36
ENDBRANCH  27  30
ENDBRANCH  25  26
ENDBRANCH  24  25
ENDBRANCH   1  24
TORSDOF 18
ENDMDL
MODEL 2
REMARK VINA RESULT:     -11.0      0.977      7.991
REMARK SMILES CC(C)N(CC1CC[NH2+]CC1)S(=O)(=O)[C@H](C)C(=O)NCCCNC(=O)c1ccc(-c2c3nc(c(-c4cccc(S(=O)(=O)[O-])c4F)c4ccc([nH]4)c(-c4cccc(S(=O)(=O)[O-])c4F)c4nc(c(-c5cccc(S(=O)(=O)[O-])c5F)c5ccc2[nH]5)C=C4)C=C3)cc1
REMARK SMILES IDX 20 1 19 2 17 3 18 4 15 6 16 7 12 8 13 9 14 10 4 11 2 12 1 13
REMARK SMILES IDX 3 14 5 15 6 16 7 17 11 18 8 19 10 20 9 21 21 24 22 25 23 26
REMARK SMILES IDX 24 27 25 29 26 30 27 31 88 32 28 33 87 34 29 35 30 36 31 37
REMARK SMILES IDX 81 38 32 39 86 40 80 41 82 42 33 43 85 44 79 45 78 46 34 48
REMARK SMILES IDX 66 49 46 50 65 51 47 52 50 53 64 54 83 55 48 56 49 57 63 59
REMARK SMILES IDX 84 60 51 61 35 62 36 63 44 64 37 65 39 66 45 67 38 68 40 69
REMARK SMILES IDX 41 70 42 71 43 72 67 73 68 74 76 75 69 76 71 77 77 78 70 79
REMARK SMILES IDX 72 80 73 81 74 82 75 83 52 84 53 85 61 86 54 87 56 88 62 89
REMARK SMILES IDX 55 90 57 91 58 92 59 93 60 94
REMARK H PARENT 19 5 9 22 9 23 23 28 82 47 50 58
REMARK Flexibility Score: inf
ROOT
ATOM      1  C   UNL A   1      34.288  21.962  25.161  1.00  0.00     0.117 C 
ENDROOT
BRANCH   1   2
ATOM      2  N   UNL A   1      33.888  22.521  23.876  1.00  0.00    -0.355 N 
ATOM      3  C   UNL A   1      33.046  23.533  23.555  1.00  0.00     0.239 C 
ATOM      4  O   UNL A   1      33.080  23.904  22.373  1.00  0.00    -0.274 OA
ATOM      5  H   UNL A   1      34.306  22.083  23.099  1.00  0.00     0.163 HD
BRANCH   3   6
ATOM      6  C   UNL A   1      31.993  24.099  24.441  1.00  0.00     0.210 C 
ATOM      7  C   UNL A   1      31.043  22.984  24.903  1.00  0.00     0.037 C 
BRANCH   6   8
ATOM      8  S   UNL A   1      32.417  25.162  25.806  1.00  0.00     0.226 S 
ATOM      9  O   UNL A   1      33.808  24.945  26.151  1.00  0.00    -0.211 OA
ATOM     10  O   UNL A   1      31.386  24.833  26.780  1.00  0.00    -0.211 OA
BRANCH   8  11
ATOM     11  N   UNL A   1      32.269  26.866  25.579  1.00  0.00    -0.198 NA
BRANCH  11  12
ATOM     12  C   UNL A   1      32.766  27.615  26.886  1.00  0.00     0.066 C 
ATOM     13  C   UNL A   1      33.831  28.701  26.641  1.00  0.00     0.025 C 
ATOM     14  C   UNL A   1      31.645  28.304  27.660  1.00  0.00     0.025 C 
ENDBRANCH  11  12
BRANCH  11  15
ATOM     15  C   UNL A   1      30.960  27.433  25.095  1.00  0.00     0.106 C 
BRANCH  15  16
ATOM     16  C   UNL A   1      30.636  27.307  23.562  1.00  0.00     0.015 C 
ATOM     17  C   UNL A   1      31.846  27.454  22.629  1.00  0.00     0.066 C 
ATOM     18  C   UNL A   1      29.527  28.167  22.935  1.00  0.00     0.066 C 
ATOM     19  C   UNL A   1      32.211  28.916  22.414  1.00  0.00     0.260 C 
ATOM     20  C   UNL A   1      29.945  29.621  22.715  1.00  0.00     0.260 C 
ATOM     21  N   UNL A   1      31.113  29.685  21.837  1.00  0.00    -0.346 N 
ATOM     22  H   UNL A   1      30.873  29.299  20.924  1.00  0.00     0.346 HD
ATOM     23  H   UNL A   1      31.403  30.658  21.734  1.00  0.00     0.346 HD
ENDBRANCH  15  16
ENDBRANCH  11  15
ENDBRANCH   8  11
ENDBRANCH   6   8
ENDBRANCH   3   6
ENDBRANCH   1   2
BRANCH   1  24
ATOM     24  C   UNL A   1      35.484  21.030  25.056  1.00  0.00     0.042 C 
BRANCH  24  25
ATOM     25  C   UNL A   1      36.802  21.613  25.556  1.00  0.00     0.118 C 
BRANCH  25  26
ATOM     26  N   UNL A   1      37.882  20.639  25.657  1.00  0.00    -0.352 N 
ATOM     27  C   UNL A   1      39.197  20.794  26.045  1.00  0.00     0.251 C 
ATOM     28  H   UNL A   1      37.633  19.720  25.407  1.00  0.00     0.163 HD
ATOM     29  O   UNL A   1      39.973  19.854  25.939  1.00  0.00    -0.269 OA
BRANCH  27  30
ATOM     30  C   UNL A   1      39.683  22.099  26.554  1.00  0.00     0.039 A 
ATOM     31  C   UNL A   1      40.723  22.116  27.488  1.00  0.00     0.014 A 
ATOM     32  C   UNL A   1      39.129  23.300  26.112  1.00  0.00     0.014 A 
ATOM     33  C   UNL A   1      41.270  23.337  27.897  1.00  0.00     0.010 A 
ATOM     34  C   UNL A   1      39.743  24.506  26.434  1.00  0.00     0.010 A 
ATOM     35  C   UNL A   1      40.822  24.541  27.330  1.00  0.00    -0.014 A 
BRANCH  35  36
ATOM     36  C   UNL A   1      41.474  25.842  27.641  1.00  0.00     0.031 A 
ATOM     37  C   UNL A   1      40.737  26.893  28.430  1.00  0.00     0.074 A 
ATOM     38  C   UNL A   1      42.688  26.122  27.124  1.00  0.00     0.049 A 
ATOM     39  N   UNL A   1      41.104  28.114  28.722  1.00  0.00    -0.248 NA
ATOM     40  C   UNL A   1      39.398  26.538  28.928  1.00  0.00     0.031 C 
ATOM     41  C   UNL A   1      43.472  25.226  26.270  1.00  0.00     0.029 A 
ATOM     42  N   UNL A   1      43.464  27.251  27.214  1.00  0.00    -0.354 N 
ATOM     43  C   UNL A   1      40.030  28.685  29.395  1.00  0.00     0.074 A 
ATOM     44  C   UNL A   1      38.981  27.689  29.435  1.00  0.00     0.031 C 
ATOM     45  C   UNL A   1      44.618  25.835  25.924  1.00  0.00     0.029 A 
ATOM     46  C   UNL A   1      44.636  27.177  26.497  1.00  0.00     0.049 A 
ATOM     47  H   UNL A   1      43.206  28.041  27.742  1.00  0.00     0.167 HD
ATOM     48  C   UNL A   1      39.933  29.913  29.958  1.00  0.00     0.034 A 
ATOM     49  C   UNL A   1      45.611  28.088  26.309  1.00  0.00     0.034 A 
ATOM     50  C   UNL A   1      40.994  30.883  29.960  1.00  0.00     0.049 A 
ATOM     51  C   UNL A   1      45.499  29.429  26.983  1.00  0.00     0.074 A 
ATOM     52  C   UNL A   1      41.030  32.117  30.585  1.00  0.00     0.029 A 
ATOM     53  N   UNL A   1      42.204  30.734  29.301  1.00  0.00    -0.354 N 
ATOM     54  N   UNL A   1      44.540  29.889  27.750  1.00  0.00    -0.248 NA
ATOM     55  C   UNL A   1      46.618  30.364  26.794  1.00  0.00     0.031 C 
ATOM     56  C   UNL A   1      42.250  32.727  30.280  1.00  0.00     0.029 A 
ATOM     57  C   UNL A   1      42.990  31.857  29.494  1.00  0.00     0.049 A 
ATOM     58  H   UNL A   1      42.466  29.946  28.773  1.00  0.00     0.167 HD
ATOM     59  C   UNL A   1      44.957  31.148  28.166  1.00  0.00     0.074 A 
ATOM     60  C   UNL A   1      46.263  31.370  27.582  1.00  0.00     0.031 C 
ATOM     61  C   UNL A   1      44.310  32.046  28.951  1.00  0.00     0.034 A 
BRANCH  48  62
ATOM     62  C   UNL A   1      38.648  30.260  30.667  1.00  0.00     0.023 A 
ATOM     63  C   UNL A   1      38.447  29.833  31.996  1.00  0.00     0.012 A 
ATOM     64  C   UNL A   1      37.667  31.054  30.041  1.00  0.00     0.148 A 
ATOM     65  C   UNL A   1      37.275  30.156  32.677  1.00  0.00     0.002 A 
ATOM     66  C   UNL A   1      36.522  31.412  30.744  1.00  0.00     0.091 A 
ATOM     67  F   UNL A   1      37.864  31.435  28.771  1.00  0.00    -0.205 F 
ATOM     68  C   UNL A   1      36.318  30.953  32.056  1.00  0.00     0.022 A 
BRANCH  66  69
ATOM     69  S   UNL A   1      35.267  32.503  30.064  1.00  0.00     0.127 S 
ATOM     70  O   UNL A   1      34.766  31.713  28.941  1.00  0.00    -0.237 OA
ATOM     71  O   UNL A   1      34.333  32.632  31.183  1.00  0.00    -0.237 OA
ATOM     72  O   UNL A   1      35.958  33.734  29.704  1.00  0.00    -0.744 OA
ENDBRANCH  66  69
ENDBRANCH  48  62
BRANCH  49  73
ATOM     73  C   UNL A   1      46.813  27.741  25.497  1.00  0.00     0.023 A 
ATOM     74  C   UNL A   1      46.776  27.910  24.099  1.00  0.00     0.012 A 
ATOM     75  C   UNL A   1      47.994  27.266  26.100  1.00  0.00     0.148 A 
ATOM     76  C   UNL A   1      47.879  27.579  23.312  1.00  0.00     0.002 A 
ATOM     77  C   UNL A   1      49.109  26.993  25.316  1.00  0.00     0.091 A 
ATOM     78  F   UNL A   1      48.006  27.103  27.430  1.00  0.00    -0.205 F 
ATOM     79  C   UNL A   1      49.049  27.131  23.921  1.00  0.00     0.022 A 
BRANCH  77  80
ATOM     80  S   UNL A   1      50.696  26.536  26.024  1.00  0.00     0.127 S 
ATOM     81  O   UNL A   1      51.524  26.387  24.829  1.00  0.00    -0.237 OA
ATOM     82  O   UNL A   1      51.006  27.704  26.848  1.00  0.00    -0.237 OA
ATOM     83  O   UNL A   1      50.452  25.315  26.780  1.00  0.00    -0.744 OA
ENDBRANCH  77  80
ENDBRANCH  49  73
BRANCH  61  84
ATOM     84  C   UNL A   1      45.017  33.338  29.267  1.00  0.00     0.023 A 
ATOM     85  C   UNL A   1      45.892  33.411  30.368  1.00  0.00     0.012 A 
ATOM     86  C   UNL A   1      44.868  34.459  28.425  1.00  0.00     0.148 A 
ATOM     87  C   UNL A   1      46.585  34.590  30.645  1.00  0.00     0.002 A 
ATOM     88  C   UNL A   1      45.600  35.612  28.678  1.00  0.00     0.091 A 
ATOM     89  F   UNL A   1      44.016  34.374  27.393  1.00  0.00    -0.205 F 
ATOM     90  C   UNL A   1      46.447  35.685  29.794  1.00  0.00     0.022 A 
BRANCH  88  91
ATOM     91  S   UNL A   1      45.564  37.035  27.581  1.00  0.00     0.127 S 
ATOM     92  O   UNL A   1      46.503  36.628  26.536  1.00  0.00    -0.237 OA
ATOM     93  O   UNL A   1      44.163  37.066  27.162  1.00  0.00    -0.237 OA
ATOM     94  O   UNL A   1      45.981  38.175  28.386  1.00  0.00    -0.744 OA
ENDBRANCH  88  91
ENDBRANCH  61  84
ENDBRANCH  35  36
ENDBRANCH  27  30
ENDBRANCH  25  26
ENDBRANCH  24  25
ENDBRANCH   1  24
TORSDOF 18
ENDMDL
MODEL 3
REMARK VINA RESULT:     -11.0      4.898     10.217
REMARK SMILES CC(C)N(CC1CC[NH2+]CC1)S(=O)(=O)[C@H](C)C(=O)NCCCNC(=O)c1ccc(-c2c3nc(c(-c4cccc(S(=O)(=O)[O-])c4F)c4ccc([nH]4)c(-c4cccc(S(=O)(=O)[O-])c4F)c4nc(c(-c5cccc(S(=O)(=O)[O-])c5F)c5ccc2[nH]5)C=C4)C=C3)cc1
REMARK SMILES IDX 20 1 19 2 17 3 18 4 15 6 16 7 12 8 13 9 14 10 4 11 2 12 1 13
REMARK SMILES IDX 3 14 5 15 6 16 7 17 11 18 8 19 10 20 9 21 21 24 22 25 23 26
REMARK SMILES IDX 24 27 25 29 26 30 27 31 88 32 28 33 87 34 29 35 30 36 31 37
REMARK SMILES IDX 81 38 32 39 86 40 80 41 82 42 33 43 85 44 79 45 78 46 34 48
REMARK SMILES IDX 66 49 46 50 65 51 47 52 50 53 64 54 83 55 48 56 49 57 63 59
REMARK SMILES IDX 84 60 51 61 35 62 36 63 44 64 37 65 39 66 45 67 38 68 40 69
REMARK SMILES IDX 41 70 42 71 43 72 67 73 68 74 76 75 69 76 71 77 77 78 70 79
REMARK SMILES IDX 72 80 73 81 74 82 75 83 52 84 53 85 61 86 54 87 56 88 62 89
REMARK SMILES IDX 55 90 57 91 58 92 59 93 60 94
REMARK H PARENT 19 5 9 22 9 23 23 28 82 47 50 58
REMARK Flexibility Score: inf
ROOT
ATOM      1  C   UNL A   1      31.278  29.738  25.116  1.00  0.00     0.117 C 
ENDROOT
BRANCH   1   2
ATOM      2  N   UNL A   1      32.261  29.189  24.191  1.00  0.00    -0.355 N 
ATOM      3  C   UNL A   1      32.403  27.953  23.654  1.00  0.00     0.239 C 
ATOM      4  O   UNL A   1      33.227  27.861  22.733  1.00  0.00    -0.274 OA
ATOM      5  H   UNL A   1      32.948  29.835  23.905  1.00  0.00     0.163 HD
BRANCH   3   6
ATOM      6  C   UNL A   1      31.795  26.702  24.183  1.00  0.00     0.210 C 
ATOM      7  C   UNL A   1      31.685  25.659  23.061  1.00  0.00     0.037 C 
BRANCH   6   8
ATOM      8  S   UNL A   1      32.403  25.947  25.677  1.00  0.00     0.226 S 
ATOM      9  O   UNL A   1      31.397  26.083  26.712  1.00  0.00    -0.211 OA
ATOM     10  O   UNL A   1      33.690  26.607  25.850  1.00  0.00    -0.211 OA
BRANCH   8  11
ATOM     11  N   UNL A   1      32.783  24.264  25.635  1.00  0.00    -0.198 NA
BRANCH  11  12
ATOM     12  C   UNL A   1      31.955  23.512  26.759  1.00  0.00     0.066 C 
ATOM     13  C   UNL A   1      30.835  22.594  26.230  1.00  0.00     0.025 C 
ATOM     14  C   UNL A   1      32.813  22.633  27.666  1.00  0.00     0.025 C 
ENDBRANCH  11  12
BRANCH  11  15
ATOM     15  C   UNL A   1      34.226  23.834  25.646  1.00  0.00     0.106 C 
BRANCH  15  16
ATOM     16  C   UNL A   1      34.729  22.947  24.450  1.00  0.00     0.015 C 
ATOM     17  C   UNL A   1      33.863  21.717  24.145  1.00  0.00     0.066 C 
ATOM     18  C   UNL A   1      36.181  22.445  24.419  1.00  0.00     0.066 C 
ATOM     19  C   UNL A   1      34.166  20.571  25.100  1.00  0.00     0.260 C 
ATOM     20  C   UNL A   1      36.435  21.279  25.376  1.00  0.00     0.260 C 
ATOM     21  N   UNL A   1      35.563  20.153  25.042  1.00  0.00    -0.346 N 
ATOM     22  H   UNL A   1      35.779  19.824  24.101  1.00  0.00     0.346 HD
ATOM     23  H   UNL A   1      35.716  19.399  25.714  1.00  0.00     0.346 HD
ENDBRANCH  15  16
ENDBRANCH  11  15
ENDBRANCH   8  11
ENDBRANCH   6   8
ENDBRANCH   3   6
ENDBRANCH   1   2
BRANCH   1  24
ATOM     24  C   UNL A   1      31.690  29.599  26.572  1.00  0.00     0.042 C 
BRANCH  24  25
ATOM     25  C   UNL A   1      33.102  30.079  26.892  1.00  0.00     0.118 C 
BRANCH  25  26
ATOM     26  N   UNL A   1      33.195  31.508  27.169  1.00  0.00    -0.352 N 
ATOM     27  C   UNL A   1      34.166  32.233  27.828  1.00  0.00     0.251 C 
ATOM     28  H   UNL A   1      32.441  32.043  26.830  1.00  0.00     0.163 HD
ATOM     29  O   UNL A   1      33.982  33.421  28.055  1.00  0.00    -0.269 OA
BRANCH  27  30
ATOM     30  C   UNL A   1      35.411  31.575  28.292  1.00  0.00     0.039 A 
ATOM     31  C   UNL A   1      36.576  32.339  28.409  1.00  0.00     0.014 A 
ATOM     32  C   UNL A   1      35.435  30.220  28.619  1.00  0.00     0.014 A 
ATOM     33  C   UNL A   1      37.732  31.766  28.950  1.00  0.00     0.010 A 
ATOM     34  C   UNL A   1      36.549  29.681  29.256  1.00  0.00     0.010 A 
ATOM     35  C   UNL A   1      37.712  30.447  29.431  1.00  0.00    -0.014 A 
BRANCH  35  36
ATOM     36  C   UNL A   1      38.881  29.852  30.133  1.00  0.00     0.031 A 
ATOM     37  C   UNL A   1      39.283  30.348  31.498  1.00  0.00     0.074 A 
ATOM     38  C   UNL A   1      39.647  28.939  29.500  1.00  0.00     0.049 A 
ATOM     39  N   UNL A   1      40.319  30.017  32.224  1.00  0.00    -0.248 NA
ATOM     40  C   UNL A   1      38.428  31.377  32.113  1.00  0.00     0.031 C 
ATOM     41  C   UNL A   1      39.419  28.437  28.142  1.00  0.00     0.029 A 
ATOM     42  N   UNL A   1      40.790  28.292  29.902  1.00  0.00    -0.354 N 
ATOM     43  C   UNL A   1      40.266  30.823  33.356  1.00  0.00     0.074 A 
ATOM     44  C   UNL A   1      39.116  31.687  33.202  1.00  0.00     0.031 C 
ATOM     45  C   UNL A   1      40.384  27.557  27.830  1.00  0.00     0.029 A 
ATOM     46  C   UNL A   1      41.320  27.458  28.944  1.00  0.00     0.049 A 
ATOM     47  H   UNL A   1      41.193  28.414  30.791  1.00  0.00     0.167 HD
ATOM     48  C   UNL A   1      41.077  30.824  34.439  1.00  0.00     0.034 A 
ATOM     49  C   UNL A   1      42.439  26.707  28.954  1.00  0.00     0.034 A 
ATOM     50  C   UNL A   1      42.190  29.930  34.612  1.00  0.00     0.049 A 
ATOM     51  C   UNL A   1      43.299  26.693  30.189  1.00  0.00     0.074 A 
ATOM     52  C   UNL A   1      43.014  29.786  35.714  1.00  0.00     0.029 A 
ATOM     53  N   UNL A   1      42.640  29.032  33.657  1.00  0.00    -0.354 N 
ATOM     54  N   UNL A   1      43.138  27.347  31.314  1.00  0.00    -0.248 NA
ATOM     55  C   UNL A   1      44.475  25.811  30.171  1.00  0.00     0.031 C 
ATOM     56  C   UNL A   1      43.981  28.822  35.415  1.00  0.00     0.029 A 
ATOM     57  C   UNL A   1      43.737  28.339  34.138  1.00  0.00     0.049 A 
ATOM     58  H   UNL A   1      42.239  28.907  32.767  1.00  0.00     0.167 HD
ATOM     59  C   UNL A   1      44.168  26.928  32.149  1.00  0.00     0.074 A 
ATOM     60  C   UNL A   1      44.934  25.949  31.406  1.00  0.00     0.031 C 
ATOM     61  C   UNL A   1      44.461  27.328  33.411  1.00  0.00     0.034 A 
BRANCH  48  62
ATOM     62  C   UNL A   1      40.761  31.792  35.551  1.00  0.00     0.023 A 
ATOM     63  C   UNL A   1      41.612  32.893  35.781  1.00  0.00     0.012 A 
ATOM     64  C   UNL A   1      39.597  31.645  36.330  1.00  0.00     0.148 A 
ATOM     65  C   UNL A   1      41.331  33.810  36.793  1.00  0.00     0.002 A 
ATOM     66  C   UNL A   1      39.299  32.590  37.306  1.00  0.00     0.091 A 
ATOM     67  F   UNL A   1      38.809  30.582  36.112  1.00  0.00    -0.205 F 
ATOM     68  C   UNL A   1      40.171  33.665  37.547  1.00  0.00     0.022 A 
BRANCH  66  69
ATOM     69  S   UNL A   1      37.787  32.540  38.276  1.00  0.00     0.127 S 
ATOM     70  O   UNL A   1      36.797  32.998  37.302  1.00  0.00    -0.237 OA
ATOM     71  O   UNL A   1      37.691  31.120  38.620  1.00  0.00    -0.237 OA
ATOM     72  O   UNL A   1      38.007  33.427  39.409  1.00  0.00    -0.744 OA
ENDBRANCH  66  69
ENDBRANCH  48  62
BRANCH  49  73
ATOM     73  C   UNL A   1      42.777  25.854  27.779  1.00  0.00     0.023 A 
ATOM     74  C   UNL A   1      43.681  26.336  26.811  1.00  0.00     0.012 A 
ATOM     75  C   UNL A   1      42.229  24.565  27.625  1.00  0.00     0.148 A 
ATOM     76  C   UNL A   1      44.004  25.566  25.694  1.00  0.00     0.002 A 
ATOM     77  C   UNL A   1      42.600  23.781  26.540  1.00  0.00     0.091 A 
ATOM     78  F   UNL A   1      41.365  24.129  28.552  1.00  0.00    -0.205 F 
ATOM     79  C   UNL A   1      43.473  24.285  25.563  1.00  0.00     0.022 A 
BRANCH  77  80
ATOM     80  S   UNL A   1      42.069  22.075  26.357  1.00  0.00     0.127 S 
ATOM     81  O   UNL A   1      42.839  21.645  25.191  1.00  0.00    -0.237 OA
ATOM     82  O   UNL A   1      42.495  21.488  27.628  1.00  0.00    -0.237 OA
ATOM     83  O   UNL A   1      40.625  22.130  26.175  1.00  0.00    -0.744 OA
ENDBRANCH  77  80
ENDBRANCH  49  73
BRANCH  61  84
ATOM     84  C   UNL A   1      45.634  26.680  34.098  1.00  0.00     0.023 A 
ATOM     85  C   UNL A   1      46.908  27.277  34.030  1.00  0.00     0.012 A 
ATOM     86  C   UNL A   1      45.456  25.517  34.873  1.00  0.00     0.148 A 
ATOM     87  C   UNL A   1      47.993  26.709  34.697  1.00  0.00     0.002 A 
ATOM     88  C   UNL A   1      46.530  24.986  35.577  1.00  0.00     0.091 A 
ATOM     89  F   UNL A   1      44.239  24.954  34.911  1.00  0.00    -0.205 F 
ATOM     90  C   UNL A   1      47.801  25.572  35.479  1.00  0.00     0.022 A 
BRANCH  88  91
ATOM     91  S   UNL A   1      46.355  23.585  36.688  1.00  0.00     0.127 S 
ATOM     92  O   UNL A   1      45.100  23.901  37.369  1.00  0.00    -0.237 OA
ATOM     93  O   UNL A   1      46.277  22.460  35.756  1.00  0.00    -0.237 OA
ATOM     94  O   UNL A   1      47.542  23.590  37.532  1.00  0.00    -0.744 OA
ENDBRANCH  88  91
ENDBRANCH  61  84
ENDBRANCH  35  36
ENDBRANCH  27  30
ENDBRANCH  25  26
ENDBRANCH  24  25
ENDBRANCH   1  24
TORSDOF 18
ENDMDL
