MODEL 1
REMARK VINA RESULT:     -10.2      0.000      0.000
REMARK SMILES COc1c(C(=O)NCCCNC(=O)c2ccc(-c3c4nc(c(-c5cccc(S(=O)(=O)[O-])c5F)c5ccc([nH]5)c(-c5cccc(S(=O)(=O)[O-])c5F)c5nc(c(-c6cccc(S(=O)(=O)[O-])c6F)c6ccc3[nH]6)C=C5)C=C4)cc2)ccc(F)c1F
REMARK SMILES IDX 10 1 9 2 8 3 7 4 5 5 6 6 4 8 3 9 81 10 77 11 79 12 82 13
REMARK SMILES IDX 78 14 80 15 2 16 1 17 11 18 12 19 13 21 14 22 15 23 76 24
REMARK SMILES IDX 16 25 75 26 17 27 18 28 19 29 69 30 20 31 74 32 68 33 70 34
REMARK SMILES IDX 21 35 73 36 67 37 66 38 22 40 54 41 34 42 53 43 35 44 38 45
REMARK SMILES IDX 52 46 71 47 36 48 37 49 51 51 72 52 39 53 23 54 24 55 32 56
REMARK SMILES IDX 25 57 27 58 33 59 26 60 28 61 29 62 30 63 31 64 55 65 56 66
REMARK SMILES IDX 64 67 57 68 59 69 65 70 58 71 60 72 61 73 62 74 63 75 40 76
REMARK SMILES IDX 41 77 49 78 42 79 44 80 50 81 43 82 45 83 46 84 47 85 48 86
REMARK H PARENT 7 7 11 20 70 39 38 50
REMARK Flexibility Score: inf
ROOT
ATOM      1  C   UNL A   1      34.724  32.965  28.046  1.00  0.00     0.118 C 
ENDROOT
BRANCH   1   2
ATOM      2  C   UNL A   1      33.791  34.053  28.579  1.00  0.00     0.042 C 
BRANCH   2   3
ATOM      3  C   UNL A   1      34.124  34.480  30.005  1.00  0.00     0.118 C 
BRANCH   3   4
ATOM      4  N   UNL A   1      34.395  33.336  30.850  1.00  0.00    -0.352 N 
ATOM      5  C   UNL A   1      35.512  32.754  31.386  1.00  0.00     0.255 C 
ATOM      6  O   UNL A   1      35.262  31.841  32.173  1.00  0.00    -0.269 OA
ATOM      7  H   UNL A   1      33.571  32.857  31.101  1.00  0.00     0.163 HD
BRANCH   5   8
ATOM      8  C   UNL A   1      36.929  33.179  31.115  1.00  0.00     0.085 A 
ATOM      9  C   UNL A   1      37.694  33.772  32.144  1.00  0.00     0.170 A 
ATOM     10  C   UNL A   1      38.942  34.350  31.865  1.00  0.00     0.201 A 
ATOM     11  C   UNL A   1      37.549  33.038  29.862  1.00  0.00     0.021 A 
ATOM     12  C   UNL A   1      39.476  34.287  30.589  1.00  0.00     0.162 A 
ATOM     13  F   UNL A   1      39.635  34.959  32.840  1.00  0.00    -0.200 F 
ATOM     14  C   UNL A   1      38.800  33.609  29.590  1.00  0.00     0.043 A 
ATOM     15  F   UNL A   1      40.658  34.859  30.318  1.00  0.00    -0.204 F 
BRANCH   9  16
ATOM     16  O   UNL A   1      37.272  33.861  33.449  1.00  0.00    -0.493 OA
ATOM     17  C   UNL A   1      37.864  32.822  34.239  1.00  0.00     0.278 C 
ENDBRANCH   9  16
ENDBRANCH   5   8
ENDBRANCH   3   4
ENDBRANCH   2   3
ENDBRANCH   1   2
BRANCH   1  18
ATOM     18  N   UNL A   1      33.997  31.759  27.660  1.00  0.00    -0.352 N 
ATOM     19  C   UNL A   1      34.439  30.464  27.543  1.00  0.00     0.251 C 
ATOM     20  H   UNL A   1      33.044  31.895  27.451  1.00  0.00     0.163 HD
ATOM     21  O   UNL A   1      33.758  29.634  26.955  1.00  0.00    -0.269 OA
BRANCH  19  22
ATOM     22  C   UNL A   1      35.737  30.084  28.134  1.00  0.00     0.039 A 
ATOM     23  C   UNL A   1      35.781  29.592  29.441  1.00  0.00     0.014 A 
ATOM     24  C   UNL A   1      36.911  30.226  27.391  1.00  0.00     0.014 A 
ATOM     25  C   UNL A   1      37.000  29.173  29.977  1.00  0.00     0.010 A 
ATOM     26  C   UNL A   1      38.106  29.731  27.894  1.00  0.00     0.010 A 
ATOM     27  C   UNL A   1      38.165  29.205  29.193  1.00  0.00    -0.014 A 
BRANCH  27  28
ATOM     28  C   UNL A   1      39.460  28.680  29.692  1.00  0.00     0.031 A 
ATOM     29  C   UNL A   1      40.190  29.400  30.792  1.00  0.00     0.074 A 
ATOM     30  C   UNL A   1      40.037  27.637  29.064  1.00  0.00     0.049 A 
ATOM     31  N   UNL A   1      41.383  29.175  31.275  1.00  0.00    -0.248 NA
ATOM     32  C   UNL A   1      39.501  30.549  31.403  1.00  0.00     0.031 C 
ATOM     33  C   UNL A   1      39.465  26.912  27.928  1.00  0.00     0.029 A 
ATOM     34  N   UNL A   1      41.254  27.034  29.264  1.00  0.00    -0.354 N 
ATOM     35  C   UNL A   1      41.611  30.183  32.204  1.00  0.00     0.074 A 
ATOM     36  C   UNL A   1      40.444  31.037  32.196  1.00  0.00     0.031 C 
ATOM     37  C   UNL A   1      40.331  25.969  27.527  1.00  0.00     0.029 A 
ATOM     38  C   UNL A   1      41.535  26.048  28.348  1.00  0.00     0.049 A 
ATOM     39  H   UNL A   1      41.866  27.283  29.994  1.00  0.00     0.167 HD
ATOM     40  C   UNL A   1      42.687  30.369  33.005  1.00  0.00     0.034 A 
ATOM     41  C   UNL A   1      42.645  25.305  28.171  1.00  0.00     0.034 A 
ATOM     42  C   UNL A   1      43.826  29.492  33.032  1.00  0.00     0.049 A 
ATOM     43  C   UNL A   1      43.806  25.494  29.108  1.00  0.00     0.074 A 
ATOM     44  C   UNL A   1      44.916  29.525  33.882  1.00  0.00     0.029 A 
ATOM     45  N   UNL A   1      44.030  28.435  32.158  1.00  0.00    -0.354 N 
ATOM     46  N   UNL A   1      43.938  26.350  30.092  1.00  0.00    -0.248 NA
ATOM     47  C   UNL A   1      44.954  24.595  28.935  1.00  0.00     0.031 C 
ATOM     48  C   UNL A   1      45.801  28.513  33.495  1.00  0.00     0.029 A 
ATOM     49  C   UNL A   1      45.239  27.819  32.435  1.00  0.00     0.049 A 
ATOM     50  H   UNL A   1      43.409  28.162  31.446  1.00  0.00     0.167 HD
ATOM     51  C   UNL A   1      45.166  26.069  30.680  1.00  0.00     0.074 A 
ATOM     52  C   UNL A   1      45.732  24.954  29.948  1.00  0.00     0.031 C 
ATOM     53  C   UNL A   1      45.772  26.683  31.726  1.00  0.00     0.034 A 
BRANCH  40  54
ATOM     54  C   UNL A   1      42.668  31.554  33.937  1.00  0.00     0.023 A 
ATOM     55  C   UNL A   1      43.201  32.790  33.516  1.00  0.00     0.012 A 
ATOM     56  C   UNL A   1      42.090  31.453  35.218  1.00  0.00     0.148 A 
ATOM     57  C   UNL A   1      43.205  33.892  34.372  1.00  0.00     0.002 A 
ATOM     58  C   UNL A   1      42.050  32.570  36.044  1.00  0.00     0.091 A 
ATOM     59  F   UNL A   1      41.608  30.266  35.611  1.00  0.00    -0.205 F 
ATOM     60  C   UNL A   1      42.622  33.784  35.630  1.00  0.00     0.022 A 
BRANCH  58  61
ATOM     61  S   UNL A   1      41.242  32.556  37.648  1.00  0.00     0.127 S 
ATOM     62  O   UNL A   1      39.891  32.125  37.293  1.00  0.00    -0.237 OA
ATOM     63  O   UNL A   1      42.026  31.562  38.380  1.00  0.00    -0.237 OA
ATOM     64  O   UNL A   1      41.350  33.914  38.163  1.00  0.00    -0.744 OA
ENDBRANCH  58  61
ENDBRANCH  40  54
BRANCH  41  65
ATOM     65  C   UNL A   1      42.680  24.282  27.090  1.00  0.00     0.023 A 
ATOM     66  C   UNL A   1      43.392  24.547  25.904  1.00  0.00     0.012 A 
ATOM     67  C   UNL A   1      42.065  23.026  27.257  1.00  0.00     0.148 A 
ATOM     68  C   UNL A   1      43.467  23.589  24.893  1.00  0.00     0.002 A 
ATOM     69  C   UNL A   1      42.194  22.056  26.272  1.00  0.00     0.091 A 
ATOM     70  F   UNL A   1      41.391  22.797  28.393  1.00  0.00    -0.205 F 
ATOM     71  C   UNL A   1      42.879  22.341  25.080  1.00  0.00     0.022 A 
BRANCH  69  72
ATOM     72  S   UNL A   1      41.593  20.376  26.485  1.00  0.00     0.127 S 
ATOM     73  O   UNL A   1      40.146  20.564  26.411  1.00  0.00    -0.237 OA
ATOM     74  O   UNL A   1      42.188  19.698  25.332  1.00  0.00    -0.237 OA
ATOM     75  O   UNL A   1      42.106  19.932  27.774  1.00  0.00    -0.744 OA
ENDBRANCH  69  72
ENDBRANCH  41  65
BRANCH  53  76
ATOM     76  C   UNL A   1      47.099  26.139  32.186  1.00  0.00     0.023 A 
ATOM     77  C   UNL A   1      48.297  26.634  31.636  1.00  0.00     0.012 A 
ATOM     78  C   UNL A   1      47.155  25.194  33.230  1.00  0.00     0.148 A 
ATOM     79  C   UNL A   1      49.530  26.173  32.096  1.00  0.00     0.002 A 
ATOM     80  C   UNL A   1      48.387  24.781  33.721  1.00  0.00     0.091 A 
ATOM     81  F   UNL A   1      46.003  24.722  33.728  1.00  0.00    -0.205 F 
ATOM     82  C   UNL A   1      49.576  25.258  33.146  1.00  0.00     0.022 A 
BRANCH  80  83
ATOM     83  S   UNL A   1      48.542  23.686  35.136  1.00  0.00     0.127 S 
ATOM     84  O   UNL A   1      47.834  24.438  36.172  1.00  0.00    -0.237 OA
ATOM     85  O   UNL A   1      47.848  22.484  34.674  1.00  0.00    -0.237 OA
ATOM     86  O   UNL A   1      49.971  23.513  35.358  1.00  0.00    -0.744 OA
ENDBRANCH  80  83
ENDBRANCH  53  76
ENDBRANCH  27  28
ENDBRANCH  19  22
ENDBRANCH   1  18
TORSDOF 14
ENDMDL
MODEL 2
REMARK VINA RESULT:     -10.1      4.502     10.246
REMARK SMILES COc1c(C(=O)NCCCNC(=O)c2ccc(-c3c4nc(c(-c5cccc(S(=O)(=O)[O-])c5F)c5ccc([nH]5)c(-c5cccc(S(=O)(=O)[O-])c5F)c5nc(c(-c6cccc(S(=O)(=O)[O-])c6F)c6ccc3[nH]6)C=C5)C=C4)cc2)ccc(F)c1F
REMARK SMILES IDX 10 1 9 2 8 3 7 4 5 5 6 6 4 8 3 9 81 10 77 11 79 12 82 13
REMARK SMILES IDX 78 14 80 15 2 16 1 17 11 18 12 19 13 21 14 22 15 23 76 24
REMARK SMILES IDX 16 25 75 26 17 27 18 28 19 29 69 30 20 31 74 32 68 33 70 34
REMARK SMILES IDX 21 35 73 36 67 37 66 38 22 40 54 41 34 42 53 43 35 44 38 45
REMARK SMILES IDX 52 46 71 47 36 48 37 49 51 51 72 52 39 53 23 54 24 55 32 56
REMARK SMILES IDX 25 57 27 58 33 59 26 60 28 61 29 62 30 63 31 64 55 65 56 66
REMARK SMILES IDX 64 67 57 68 59 69 65 70 58 71 60 72 61 73 62 74 63 75 40 76
REMARK SMILES IDX 41 77 49 78 42 79 44 80 50 81 43 82 45 83 46 84 47 85 48 86
REMARK H PARENT 7 7 11 20 70 39 38 50
REMARK Flexibility Score: inf
ROOT
ATOM      1  C   UNL A   1      32.924  32.295  27.255  1.00  0.00     0.118 C 
ENDROOT
BRANCH   1   2
ATOM      2  C   UNL A   1      31.745  31.650  26.526  1.00  0.00     0.042 C 
BRANCH   2   3
ATOM      3  C   UNL A   1      31.908  30.144  26.341  1.00  0.00     0.118 C 
BRANCH   3   4
ATOM      4  N   UNL A   1      32.530  29.831  25.071  1.00  0.00    -0.352 N 
ATOM      5  C   UNL A   1      32.199  29.083  23.974  1.00  0.00     0.255 C 
ATOM      6  O   UNL A   1      32.992  29.203  23.040  1.00  0.00    -0.269 OA
ATOM      7  H   UNL A   1      33.411  30.263  24.974  1.00  0.00     0.163 HD
BRANCH   5   8
ATOM      8  C   UNL A   1      30.973  28.222  23.847  1.00  0.00     0.085 A 
ATOM      9  C   UNL A   1      29.793  28.757  23.283  1.00  0.00     0.170 A 
ATOM     10  C   UNL A   1      28.588  28.040  23.331  1.00  0.00     0.201 A 
ATOM     11  C   UNL A   1      30.920  26.888  24.285  1.00  0.00     0.021 A 
ATOM     12  C   UNL A   1      28.550  26.765  23.871  1.00  0.00     0.162 A 
ATOM     13  F   UNL A   1      27.462  28.581  22.841  1.00  0.00    -0.200 F 
ATOM     14  C   UNL A   1      29.716  26.171  24.323  1.00  0.00     0.043 A 
ATOM     15  F   UNL A   1      27.395  26.089  23.937  1.00  0.00    -0.204 F 
BRANCH   9  16
ATOM     16  O   UNL A   1      29.727  29.999  22.697  1.00  0.00    -0.493 OA
ATOM     17  C   UNL A   1      29.184  30.957  23.614  1.00  0.00     0.278 C 
ENDBRANCH   9  16
ENDBRANCH   5   8
ENDBRANCH   3   4
ENDBRANCH   2   3
ENDBRANCH   1   2
BRANCH   1  18
ATOM     18  N   UNL A   1      32.677  33.701  27.563  1.00  0.00    -0.352 N 
ATOM     19  C   UNL A   1      33.174  34.480  28.578  1.00  0.00     0.251 C 
ATOM     20  H   UNL A   1      32.060  34.160  26.948  1.00  0.00     0.163 HD
ATOM     21  O   UNL A   1      32.654  35.559  28.835  1.00  0.00    -0.269 OA
BRANCH  19  22
ATOM     22  C   UNL A   1      34.338  34.008  29.353  1.00  0.00     0.039 A 
ATOM     23  C   UNL A   1      34.141  33.146  30.435  1.00  0.00     0.014 A 
ATOM     24  C   UNL A   1      35.624  34.429  29.008  1.00  0.00     0.014 A 
ATOM     25  C   UNL A   1      35.247  32.649  31.128  1.00  0.00     0.010 A 
ATOM     26  C   UNL A   1      36.724  33.869  29.643  1.00  0.00     0.010 A 
ATOM     27  C   UNL A   1      36.548  32.978  30.712  1.00  0.00    -0.014 A 
BRANCH  27  28
ATOM     28  C   UNL A   1      37.748  32.395  31.361  1.00  0.00     0.031 A 
ATOM     29  C   UNL A   1      38.483  31.261  30.702  1.00  0.00     0.074 A 
ATOM     30  C   UNL A   1      38.091  32.797  32.601  1.00  0.00     0.049 A 
ATOM     31  N   UNL A   1      39.468  30.538  31.165  1.00  0.00    -0.248 NA
ATOM     32  C   UNL A   1      38.024  30.863  29.361  1.00  0.00     0.031 C 
ATOM     33  C   UNL A   1      37.399  33.829  33.376  1.00  0.00     0.029 A 
ATOM     34  N   UNL A   1      39.080  32.355  33.443  1.00  0.00    -0.354 N 
ATOM     35  C   UNL A   1      39.711  29.568  30.199  1.00  0.00     0.074 A 
ATOM     36  C   UNL A   1      38.750  29.778  29.139  1.00  0.00     0.031 C 
ATOM     37  C   UNL A   1      37.979  33.934  34.582  1.00  0.00     0.029 A 
ATOM     38  C   UNL A   1      39.055  32.953  34.682  1.00  0.00     0.049 A 
ATOM     39  H   UNL A   1      39.745  31.676  33.186  1.00  0.00     0.167 HD
ATOM     40  C   UNL A   1      40.661  28.602  30.189  1.00  0.00     0.034 A 
ATOM     41  C   UNL A   1      39.797  32.723  35.782  1.00  0.00     0.034 A 
ATOM     42  C   UNL A   1      41.635  28.426  31.231  1.00  0.00     0.049 A 
ATOM     43  C   UNL A   1      40.880  31.682  35.727  1.00  0.00     0.074 A 
ATOM     44  C   UNL A   1      42.707  27.554  31.267  1.00  0.00     0.029 A 
ATOM     45  N   UNL A   1      41.646  29.124  32.430  1.00  0.00    -0.354 N 
ATOM     46  N   UNL A   1      41.202  30.881  34.741  1.00  0.00    -0.248 NA
ATOM     47  C   UNL A   1      41.724  31.537  36.920  1.00  0.00     0.031 C 
ATOM     48  C   UNL A   1      43.342  27.695  32.505  1.00  0.00     0.029 A 
ATOM     49  C   UNL A   1      42.694  28.689  33.222  1.00  0.00     0.049 A 
ATOM     50  H   UNL A   1      41.002  29.825  32.681  1.00  0.00     0.167 HD
ATOM     51  C   UNL A   1      42.309  30.162  35.178  1.00  0.00     0.074 A 
ATOM     52  C   UNL A   1      42.609  30.635  36.515  1.00  0.00     0.031 C 
ATOM     53  C   UNL A   1      43.008  29.196  34.534  1.00  0.00     0.034 A 
BRANCH  40  54
ATOM     54  C   UNL A   1      40.704  27.679  28.999  1.00  0.00     0.023 A 
ATOM     55  C   UNL A   1      39.787  26.612  28.900  1.00  0.00     0.012 A 
ATOM     56  C   UNL A   1      41.631  27.888  27.959  1.00  0.00     0.148 A 
ATOM     57  C   UNL A   1      39.825  25.739  27.813  1.00  0.00     0.002 A 
ATOM     58  C   UNL A   1      41.627  27.046  26.853  1.00  0.00     0.091 A 
ATOM     59  F   UNL A   1      42.510  28.893  28.077  1.00  0.00    -0.205 F 
ATOM     60  C   UNL A   1      40.737  25.962  26.786  1.00  0.00     0.022 A 
BRANCH  58  61
ATOM     61  S   UNL A   1      42.704  27.304  25.438  1.00  0.00     0.127 S 
ATOM     62  O   UNL A   1      44.004  27.475  26.085  1.00  0.00    -0.237 OA
ATOM     63  O   UNL A   1      42.550  26.050  24.702  1.00  0.00    -0.237 OA
ATOM     64  O   UNL A   1      42.187  28.479  24.751  1.00  0.00    -0.744 OA
ENDBRANCH  58  61
ENDBRANCH  40  54
BRANCH  41  65
ATOM     65  C   UNL A   1      39.565  33.537  37.007  1.00  0.00     0.023 A 
ATOM     66  C   UNL A   1      40.048  34.858  37.067  1.00  0.00     0.012 A 
ATOM     67  C   UNL A   1      38.815  33.029  38.086  1.00  0.00     0.148 A 
ATOM     68  C   UNL A   1      39.812  35.650  38.191  1.00  0.00     0.002 A 
ATOM     69  C   UNL A   1      38.533  33.842  39.176  1.00  0.00     0.091 A 
ATOM     70  F   UNL A   1      38.367  31.768  38.008  1.00  0.00    -0.205 F 
ATOM     71  C   UNL A   1      39.046  35.147  39.240  1.00  0.00     0.022 A 
BRANCH  69  72
ATOM     72  S   UNL A   1      37.439  33.330  40.506  1.00  0.00     0.127 S 
ATOM     73  O   UNL A   1      36.244  32.924  39.771  1.00  0.00    -0.237 OA
ATOM     74  O   UNL A   1      38.196  32.232  41.109  1.00  0.00    -0.237 OA
ATOM     75  O   UNL A   1      37.285  34.496  41.365  1.00  0.00    -0.744 OA
ENDBRANCH  69  72
ENDBRANCH  41  65
BRANCH  53  76
ATOM     76  C   UNL A   1      44.203  28.608  35.237  1.00  0.00     0.023 A 
ATOM     77  C   UNL A   1      45.490  29.132  35.007  1.00  0.00     0.012 A 
ATOM     78  C   UNL A   1      44.032  27.588  36.194  1.00  0.00     0.148 A 
ATOM     79  C   UNL A   1      46.592  28.628  35.696  1.00  0.00     0.002 A 
ATOM     80  C   UNL A   1      45.126  27.129  36.916  1.00  0.00     0.091 A 
ATOM     81  F   UNL A   1      42.802  27.090  36.384  1.00  0.00    -0.205 F 
ATOM     82  C   UNL A   1      46.410  27.638  36.658  1.00  0.00     0.022 A 
BRANCH  80  83
ATOM     83  S   UNL A   1      44.970  25.931  38.244  1.00  0.00     0.127 S 
ATOM     84  O   UNL A   1      46.354  25.807  38.698  1.00  0.00    -0.237 OA
ATOM     85  O   UNL A   1      44.081  26.621  39.179  1.00  0.00    -0.237 OA
ATOM     86  O   UNL A   1      44.402  24.732  37.641  1.00  0.00    -0.744 OA
ENDBRANCH  80  83
ENDBRANCH  53  76
ENDBRANCH  27  28
ENDBRANCH  19  22
ENDBRANCH   1  18
TORSDOF 14
ENDMDL
MODEL 3
REMARK VINA RESULT:     -10.0      4.012     10.103
REMARK SMILES COc1c(C(=O)NCCCNC(=O)c2ccc(-c3c4nc(c(-c5cccc(S(=O)(=O)[O-])c5F)c5ccc([nH]5)c(-c5cccc(S(=O)(=O)[O-])c5F)c5nc(c(-c6cccc(S(=O)(=O)[O-])c6F)c6ccc3[nH]6)C=C5)C=C4)cc2)ccc(F)c1F
REMARK SMILES IDX 10 1 9 2 8 3 7 4 5 5 6 6 4 8 3 9 81 10 77 11 79 12 82 13
REMARK SMILES IDX 78 14 80 15 2 16 1 17 11 18 12 19 13 21 14 22 15 23 76 24
REMARK SMILES IDX 16 25 75 26 17 27 18 28 19 29 69 30 20 31 74 32 68 33 70 34
REMARK SMILES IDX 21 35 73 36 67 37 66 38 22 40 54 41 34 42 53 43 35 44 38 45
REMARK SMILES IDX 52 46 71 47 36 48 37 49 51 51 72 52 39 53 23 54 24 55 32 56
REMARK SMILES IDX 25 57 27 58 33 59 26 60 28 61 29 62 30 63 31 64 55 65 56 66
REMARK SMILES IDX 64 67 57 68 59 69 65 70 58 71 60 72 61 73 62 74 63 75 40 76
REMARK SMILES IDX 41 77 49 78 42 79 44 80 50 81 43 82 45 83 46 84 47 85 48 86
REMARK H PARENT 7 7 11 20 70 39 38 50
REMARK Flexibility Score: inf
ROOT
ATOM      1  C   UNL A   1      32.870  32.493  27.337  1.00  0.00     0.118 C 
ENDROOT
BRANCH   1   2
ATOM      2  C   UNL A   1      31.605  31.789  26.843  1.00  0.00     0.042 C 
BRANCH   2   3
ATOM      3  C   UNL A   1      31.891  30.447  26.175  1.00  0.00     0.118 C 
BRANCH   3   4
ATOM      4  N   UNL A   1      31.203  30.332  24.905  1.00  0.00    -0.352 N 
ATOM      5  C   UNL A   1      30.845  29.306  24.073  1.00  0.00     0.255 C 
ATOM      6  O   UNL A   1      30.139  29.662  23.130  1.00  0.00    -0.269 OA
ATOM      7  H   UNL A   1      30.924  31.209  24.554  1.00  0.00     0.163 HD
BRANCH   5   8
ATOM      8  C   UNL A   1      31.208  27.860  24.270  1.00  0.00     0.085 A 
ATOM      9  C   UNL A   1      32.559  27.456  24.184  1.00  0.00     0.170 A 
ATOM     10  C   UNL A   1      32.899  26.095  24.171  1.00  0.00     0.201 A 
ATOM     11  C   UNL A   1      30.258  26.855  24.519  1.00  0.00     0.021 A 
ATOM     12  C   UNL A   1      31.921  25.125  24.311  1.00  0.00     0.162 A 
ATOM     13  F   UNL A   1      34.181  25.723  24.035  1.00  0.00    -0.200 F 
ATOM     14  C   UNL A   1      30.603  25.497  24.514  1.00  0.00     0.043 A 
ATOM     15  F   UNL A   1      32.244  23.824  24.275  1.00  0.00    -0.204 F 
BRANCH   9  16
ATOM     16  O   UNL A   1      33.609  28.336  24.072  1.00  0.00    -0.493 OA
ATOM     17  C   UNL A   1      33.919  28.573  22.694  1.00  0.00     0.278 C 
ENDBRANCH   9  16
ENDBRANCH   5   8
ENDBRANCH   3   4
ENDBRANCH   2   3
ENDBRANCH   1   2
BRANCH   1  18
ATOM     18  N   UNL A   1      32.636  33.905  27.625  1.00  0.00    -0.352 N 
ATOM     19  C   UNL A   1      33.143  34.694  28.628  1.00  0.00     0.251 C 
ATOM     20  H   UNL A   1      32.021  34.361  27.007  1.00  0.00     0.163 HD
ATOM     21  O   UNL A   1      32.633  35.781  28.871  1.00  0.00    -0.269 OA
BRANCH  19  22
ATOM     22  C   UNL A   1      34.306  34.223  29.406  1.00  0.00     0.039 A 
ATOM     23  C   UNL A   1      34.101  33.439  30.544  1.00  0.00     0.014 A 
ATOM     24  C   UNL A   1      35.599  34.569  29.007  1.00  0.00     0.014 A 
ATOM     25  C   UNL A   1      35.202  32.941  31.243  1.00  0.00     0.010 A 
ATOM     26  C   UNL A   1      36.690  34.004  29.652  1.00  0.00     0.010 A 
ATOM     27  C   UNL A   1      36.504  33.189  30.779  1.00  0.00    -0.014 A 
BRANCH  27  28
ATOM     28  C   UNL A   1      37.696  32.599  31.437  1.00  0.00     0.031 A 
ATOM     29  C   UNL A   1      38.429  31.460  30.784  1.00  0.00     0.074 A 
ATOM     30  C   UNL A   1      38.032  32.999  32.679  1.00  0.00     0.049 A 
ATOM     31  N   UNL A   1      39.405  30.730  31.254  1.00  0.00    -0.248 NA
ATOM     32  C   UNL A   1      37.977  31.064  29.440  1.00  0.00     0.031 C 
ATOM     33  C   UNL A   1      37.341  34.035  33.449  1.00  0.00     0.029 A 
ATOM     34  N   UNL A   1      39.012  32.550  33.529  1.00  0.00    -0.354 N 
ATOM     35  C   UNL A   1      39.648  29.758  30.291  1.00  0.00     0.074 A 
ATOM     36  C   UNL A   1      38.697  29.974  29.223  1.00  0.00     0.031 C 
ATOM     37  C   UNL A   1      37.913  34.138  34.659  1.00  0.00     0.029 A 
ATOM     38  C   UNL A   1      38.982  33.150  34.767  1.00  0.00     0.049 A 
ATOM     39  H   UNL A   1      39.674  31.867  33.277  1.00  0.00     0.167 HD
ATOM     40  C   UNL A   1      40.592  28.786  30.288  1.00  0.00     0.034 A 
ATOM     41  C   UNL A   1      39.714  32.915  35.873  1.00  0.00     0.034 A 
ATOM     42  C   UNL A   1      41.558  28.604  31.338  1.00  0.00     0.049 A 
ATOM     43  C   UNL A   1      40.791  31.867  35.826  1.00  0.00     0.074 A 
ATOM     44  C   UNL A   1      42.623  27.725  31.382  1.00  0.00     0.029 A 
ATOM     45  N   UNL A   1      41.564  29.303  32.536  1.00  0.00    -0.354 N 
ATOM     46  N   UNL A   1      41.115  31.063  34.843  1.00  0.00    -0.248 NA
ATOM     47  C   UNL A   1      41.625  31.716  37.025  1.00  0.00     0.031 C 
ATOM     48  C   UNL A   1      43.250  27.862  32.625  1.00  0.00     0.029 A 
ATOM     49  C   UNL A   1      42.603  28.860  33.336  1.00  0.00     0.049 A 
ATOM     50  H   UNL A   1      40.923  30.008  32.782  1.00  0.00     0.167 HD
ATOM     51  C   UNL A   1      42.213  30.337  35.289  1.00  0.00     0.074 A 
ATOM     52  C   UNL A   1      42.507  30.809  36.627  1.00  0.00     0.031 C 
ATOM     53  C   UNL A   1      42.911  29.366  34.650  1.00  0.00     0.034 A 
BRANCH  40  54
ATOM     54  C   UNL A   1      40.638  27.862  29.099  1.00  0.00     0.023 A 
ATOM     55  C   UNL A   1      39.753  26.767  29.021  1.00  0.00     0.012 A 
ATOM     56  C   UNL A   1      41.536  28.097  28.038  1.00  0.00     0.148 A 
ATOM     57  C   UNL A   1      39.794  25.893  27.934  1.00  0.00     0.002 A 
ATOM     58  C   UNL A   1      41.534  27.253  26.934  1.00  0.00     0.091 A 
ATOM     59  F   UNL A   1      42.386  29.129  28.136  1.00  0.00    -0.205 F 
ATOM     60  C   UNL A   1      40.677  26.142  26.888  1.00  0.00     0.022 A 
BRANCH  58  61
ATOM     61  S   UNL A   1      42.572  27.541  25.497  1.00  0.00     0.127 S 
ATOM     62  O   UNL A   1      42.269  26.369  24.676  1.00  0.00    -0.237 OA
ATOM     63  O   UNL A   1      42.039  28.801  24.979  1.00  0.00    -0.237 OA
ATOM     64  O   UNL A   1      43.937  27.619  25.997  1.00  0.00    -0.744 OA
ENDBRANCH  58  61
ENDBRANCH  40  54
BRANCH  41  65
ATOM     65  C   UNL A   1      39.478  33.731  37.096  1.00  0.00     0.023 A 
ATOM     66  C   UNL A   1      39.922  35.067  37.138  1.00  0.00     0.012 A 
ATOM     67  C   UNL A   1      38.763  33.208  38.191  1.00  0.00     0.148 A 
ATOM     68  C   UNL A   1      39.681  35.859  38.260  1.00  0.00     0.002 A 
ATOM     69  C   UNL A   1      38.475  34.021  39.280  1.00  0.00     0.091 A 
ATOM     70  F   UNL A   1      38.352  31.934  38.130  1.00  0.00    -0.205 F 
ATOM     71  C   UNL A   1      38.949  35.342  39.326  1.00  0.00     0.022 A 
BRANCH  69  72
ATOM     72  S   UNL A   1      37.419  33.487  40.632  1.00  0.00     0.127 S 
ATOM     73  O   UNL A   1      36.239  33.006  39.919  1.00  0.00    -0.237 OA
ATOM     74  O   UNL A   1      38.235  32.441  41.252  1.00  0.00    -0.237 OA
ATOM     75  O   UNL A   1      37.216  34.663  41.466  1.00  0.00    -0.744 OA
ENDBRANCH  69  72
ENDBRANCH  41  65
BRANCH  53  76
ATOM     76  C   UNL A   1      44.097  28.771  35.362  1.00  0.00     0.023 A 
ATOM     77  C   UNL A   1      45.382  29.319  35.182  1.00  0.00     0.012 A 
ATOM     78  C   UNL A   1      43.917  27.717  36.280  1.00  0.00     0.148 A 
ATOM     79  C   UNL A   1      46.474  28.807  35.880  1.00  0.00     0.002 A 
ATOM     80  C   UNL A   1      45.000  27.248  37.012  1.00  0.00     0.091 A 
ATOM     81  F   UNL A   1      42.690  27.196  36.423  1.00  0.00    -0.205 F 
ATOM     82  C   UNL A   1      46.282  27.782  36.804  1.00  0.00     0.022 A 
BRANCH  80  83
ATOM     83  S   UNL A   1      44.828  26.003  38.295  1.00  0.00     0.127 S 
ATOM     84  O   UNL A   1      43.877  26.642  39.204  1.00  0.00    -0.237 OA
ATOM     85  O   UNL A   1      44.289  24.865  37.551  1.00  0.00    -0.237 OA
ATOM     86  O   UNL A   1      46.164  25.795  38.838  1.00  0.00    -0.744 OA
ENDBRANCH  80  83
ENDBRANCH  53  76
ENDBRANCH  27  28
ENDBRANCH  19  22
ENDBRANCH   1  18
TORSDOF 14
ENDMDL
