MODEL 1
REMARK VINA RESULT:     -12.2      0.000      0.000
REMARK SMILES CNc1cc(-c2cncc(SCC(=O)NCCCNC(=O)c3ccc(-c4c5nc(c(-c6cccc(S(=O)(=O)[O-])c6F)c6ccc([nH]6)c(-c6cccc(S(=O)(=O)[O-])c6F)c6nc(c(-c7cccc(S(=O)(=O)[O-])c7F)c7ccc4[nH]7)C=C6)C=C5)cc3)n2)c2cc[nH]c2n1
REMARK SMILES IDX 16 1 15 2 13 3 14 4 12 6 11 7 10 8 6 9 7 10 85 11 8 12 9 13
REMARK SMILES IDX 5 14 3 15 4 16 91 17 90 18 86 19 89 20 87 21 88 22 2 24 1 25
REMARK SMILES IDX 17 27 18 28 19 29 20 30 21 32 22 33 23 34 84 35 24 36 83 37
REMARK SMILES IDX 25 38 26 39 27 40 77 41 28 42 82 43 76 44 78 45 29 46 81 47
REMARK SMILES IDX 75 48 74 49 30 51 62 52 42 53 61 54 43 55 46 56 60 57 79 58
REMARK SMILES IDX 44 59 45 60 59 62 80 63 47 64 31 65 32 66 40 67 33 68 35 69
REMARK SMILES IDX 41 70 34 71 36 72 37 73 38 74 39 75 63 76 64 77 72 78 65 79
REMARK SMILES IDX 67 80 73 81 66 82 68 83 69 84 70 85 71 86 48 87 49 88 57 89
REMARK SMILES IDX 50 90 52 91 58 92 51 93 53 94 54 95 55 96 56 97
REMARK H PARENT 15 5 89 23 2 26 19 31 78 50 46 61
REMARK Flexibility Score: inf
ROOT
ATOM      1  C   UNL A   1      35.250  20.955  24.669  1.00  0.00     0.117 C 
ENDROOT
BRANCH   1   2
ATOM      2  N   UNL A   1      34.360  19.905  25.125  1.00  0.00    -0.355 N 
ATOM      3  C   UNL A   1      32.998  19.870  25.200  1.00  0.00     0.230 C 
ATOM      4  O   UNL A   1      32.488  18.779  25.473  1.00  0.00    -0.274 OA
ATOM      5  H   UNL A   1      34.811  19.085  25.429  1.00  0.00     0.163 HD
BRANCH   3   6
ATOM      6  C   UNL A   1      32.139  21.054  24.800  1.00  0.00     0.176 C 
BRANCH   6   7
ATOM      7  S   UNL A   1      32.092  22.431  25.983  1.00  0.00    -0.095 SA
BRANCH   7   8
ATOM      8  C   UNL A   1      32.591  23.821  24.992  1.00  0.00     0.116 A 
ATOM      9  C   UNL A   1      32.954  26.077  24.695  1.00  0.00     0.091 A 
ATOM     10  C   UNL A   1      33.335  25.831  23.377  1.00  0.00     0.140 A 
ATOM     11  N   UNL A   1      32.568  25.065  25.519  1.00  0.00    -0.238 NA
ATOM     12  N   UNL A   1      33.345  24.595  22.832  1.00  0.00    -0.260 NA
ATOM     13  C   UNL A   1      32.972  23.600  23.670  1.00  0.00     0.146 A 
BRANCH   9  14
ATOM     14  C   UNL A   1      32.916  27.431  25.233  1.00  0.00     0.016 A 
ATOM     15  C   UNL A   1      33.694  29.152  26.772  1.00  0.00     0.128 A 
ATOM     16  C   UNL A   1      33.784  27.861  26.255  1.00  0.00     0.058 A 
ATOM     17  N   UNL A   1      32.766  30.042  26.377  1.00  0.00    -0.213 NA
ATOM     18  C   UNL A   1      31.962  29.608  25.393  1.00  0.00     0.140 A 
ATOM     19  C   UNL A   1      31.970  28.365  24.774  1.00  0.00     0.028 A 
ATOM     20  N   UNL A   1      30.973  30.362  24.826  1.00  0.00    -0.346 N 
ATOM     21  C   UNL A   1      30.933  28.396  23.798  1.00  0.00     0.030 A 
ATOM     22  C   UNL A   1      30.341  29.642  23.847  1.00  0.00     0.085 A 
ATOM     23  H   UNL A   1      30.748  31.286  25.082  1.00  0.00     0.167 HD
BRANCH  15  24
ATOM     24  N   UNL A   1      34.558  29.633  27.727  1.00  0.00    -0.373 N 
ATOM     25  C   UNL A   1      35.959  29.317  27.775  1.00  0.00     0.141 C 
ATOM     26  H   UNL A   1      34.194  30.230  28.420  1.00  0.00     0.161 HD
ENDBRANCH  15  24
ENDBRANCH   9  14
ENDBRANCH   7   8
ENDBRANCH   6   7
ENDBRANCH   3   6
ENDBRANCH   1   2
BRANCH   1  27
ATOM     27  C   UNL A   1      36.222  21.403  25.756  1.00  0.00     0.042 C 
BRANCH  27  28
ATOM     28  C   UNL A   1      37.637  21.687  25.256  1.00  0.00     0.118 C 
BRANCH  28  29
ATOM     29  N   UNL A   1      38.625  20.763  25.797  1.00  0.00    -0.352 N 
ATOM     30  C   UNL A   1      39.819  21.013  26.427  1.00  0.00     0.251 C 
ATOM     31  H   UNL A   1      38.402  19.810  25.694  1.00  0.00     0.163 HD
ATOM     32  O   UNL A   1      40.587  20.075  26.650  1.00  0.00    -0.269 OA
BRANCH  30  33
ATOM     33  C   UNL A   1      40.200  22.386  26.822  1.00  0.00     0.039 A 
ATOM     34  C   UNL A   1      41.154  22.558  27.830  1.00  0.00     0.014 A 
ATOM     35  C   UNL A   1      39.608  23.504  26.227  1.00  0.00     0.014 A 
ATOM     36  C   UNL A   1      41.558  23.845  28.195  1.00  0.00     0.010 A 
ATOM     37  C   UNL A   1      40.070  24.782  26.536  1.00  0.00     0.010 A 
ATOM     38  C   UNL A   1      41.047  24.968  27.525  1.00  0.00    -0.014 A 
BRANCH  38  39
ATOM     39  C   UNL A   1      41.538  26.339  27.832  1.00  0.00     0.031 A 
ATOM     40  C   UNL A   1      42.950  26.739  27.497  1.00  0.00     0.074 A 
ATOM     41  C   UNL A   1      40.735  27.199  28.490  1.00  0.00     0.049 A 
ATOM     42  N   UNL A   1      43.566  27.869  27.739  1.00  0.00    -0.248 NA
ATOM     43  C   UNL A   1      43.790  25.733  26.828  1.00  0.00     0.031 C 
ATOM     44  C   UNL A   1      39.373  26.908  28.941  1.00  0.00     0.029 A 
ATOM     45  N   UNL A   1      40.959  28.483  28.924  1.00  0.00    -0.354 N 
ATOM     46  C   UNL A   1      44.869  27.696  27.289  1.00  0.00     0.074 A 
ATOM     47  C   UNL A   1      44.965  26.343  26.786  1.00  0.00     0.031 C 
ATOM     48  C   UNL A   1      38.882  27.978  29.584  1.00  0.00     0.029 A 
ATOM     49  C   UNL A   1      39.904  29.020  29.624  1.00  0.00     0.049 A 
ATOM     50  H   UNL A   1      41.794  28.973  28.748  1.00  0.00     0.167 HD
ATOM     51  C   UNL A   1      45.888  28.590  27.270  1.00  0.00     0.034 A 
ATOM     52  C   UNL A   1      39.776  30.209  30.245  1.00  0.00     0.034 A 
ATOM     53  C   UNL A   1      45.780  29.945  27.740  1.00  0.00     0.049 A 
ATOM     54  C   UNL A   1      40.911  31.195  30.181  1.00  0.00     0.074 A 
ATOM     55  C   UNL A   1      46.726  30.954  27.679  1.00  0.00     0.029 A 
ATOM     56  N   UNL A   1      44.668  30.481  28.370  1.00  0.00    -0.354 N 
ATOM     57  N   UNL A   1      42.081  31.070  29.605  1.00  0.00    -0.248 NA
ATOM     58  C   UNL A   1      40.694  32.500  30.822  1.00  0.00     0.031 C 
ATOM     59  C   UNL A   1      46.199  32.088  28.305  1.00  0.00     0.029 A 
ATOM     60  C   UNL A   1      44.908  31.799  28.719  1.00  0.00     0.049 A 
ATOM     61  H   UNL A   1      43.830  29.994  28.545  1.00  0.00     0.167 HD
ATOM     62  C   UNL A   1      42.726  32.289  29.781  1.00  0.00     0.074 A 
ATOM     63  C   UNL A   1      41.806  33.147  30.500  1.00  0.00     0.031 C 
ATOM     64  C   UNL A   1      43.970  32.660  29.392  1.00  0.00     0.034 A 
BRANCH  51  65
ATOM     65  C   UNL A   1      47.203  28.143  26.684  1.00  0.00     0.023 A 
ATOM     66  C   UNL A   1      48.267  27.792  27.541  1.00  0.00     0.012 A 
ATOM     67  C   UNL A   1      47.368  28.010  25.291  1.00  0.00     0.148 A 
ATOM     68  C   UNL A   1      49.486  27.356  27.021  1.00  0.00     0.002 A 
ATOM     69  C   UNL A   1      48.569  27.528  24.783  1.00  0.00     0.091 A 
ATOM     70  F   UNL A   1      46.352  28.363  24.490  1.00  0.00    -0.205 F 
ATOM     71  C   UNL A   1      49.632  27.214  25.645  1.00  0.00     0.022 A 
BRANCH  69  72
ATOM     72  S   UNL A   1      48.830  27.229  23.031  1.00  0.00     0.127 S 
ATOM     73  O   UNL A   1      50.290  27.194  22.952  1.00  0.00    -0.237 OA
ATOM     74  O   UNL A   1      48.179  25.932  22.840  1.00  0.00    -0.237 OA
ATOM     75  O   UNL A   1      48.193  28.337  22.333  1.00  0.00    -0.744 OA
ENDBRANCH  69  72
ENDBRANCH  51  65
BRANCH  52  76
ATOM     76  C   UNL A   1      38.501  30.554  30.937  1.00  0.00     0.023 A 
ATOM     77  C   UNL A   1      38.278  30.098  32.251  1.00  0.00     0.012 A 
ATOM     78  C   UNL A   1      37.520  31.347  30.310  1.00  0.00     0.148 A 
ATOM     79  C   UNL A   1      37.088  30.398  32.916  1.00  0.00     0.002 A 
ATOM     80  C   UNL A   1      36.364  31.692  30.999  1.00  0.00     0.091 A 
ATOM     81  F   UNL A   1      37.748  31.763  29.056  1.00  0.00    -0.205 F 
ATOM     82  C   UNL A   1      36.137  31.202  32.294  1.00  0.00     0.022 A 
BRANCH  80  83
ATOM     83  S   UNL A   1      35.147  32.832  30.331  1.00  0.00     0.127 S 
ATOM     84  O   UNL A   1      34.645  32.090  29.177  1.00  0.00    -0.237 OA
ATOM     85  O   UNL A   1      34.205  32.951  31.445  1.00  0.00    -0.237 OA
ATOM     86  O   UNL A   1      35.876  34.055  30.029  1.00  0.00    -0.744 OA
ENDBRANCH  80  83
ENDBRANCH  52  76
BRANCH  64  87
ATOM     87  C   UNL A   1      44.407  34.071  29.695  1.00  0.00     0.023 A 
ATOM     88  C   UNL A   1      44.985  34.380  30.942  1.00  0.00     0.012 A 
ATOM     89  C   UNL A   1      44.308  35.076  28.711  1.00  0.00     0.148 A 
ATOM     90  C   UNL A   1      45.424  35.674  31.219  1.00  0.00     0.002 A 
ATOM     91  C   UNL A   1      44.796  36.350  28.976  1.00  0.00     0.091 A 
ATOM     92  F   UNL A   1      43.739  34.767  27.537  1.00  0.00    -0.205 F 
ATOM     93  C   UNL A   1      45.342  36.654  30.233  1.00  0.00     0.022 A 
BRANCH  91  94
ATOM     94  S   UNL A   1      44.823  37.648  27.735  1.00  0.00     0.127 S 
ATOM     95  O   UNL A   1      45.601  37.023  26.666  1.00  0.00    -0.237 OA
ATOM     96  O   UNL A   1      43.400  37.818  27.434  1.00  0.00    -0.237 OA
ATOM     97  O   UNL A   1      45.449  38.800  28.371  1.00  0.00    -0.744 OA
ENDBRANCH  91  94
ENDBRANCH  64  87
ENDBRANCH  38  39
ENDBRANCH  30  33
ENDBRANCH  28  29
ENDBRANCH  27  28
ENDBRANCH   1  27
TORSDOF 17
ENDMDL
MODEL 2
REMARK VINA RESULT:     -12.2      1.850      2.315
REMARK SMILES CNc1cc(-c2cncc(SCC(=O)NCCCNC(=O)c3ccc(-c4c5nc(c(-c6cccc(S(=O)(=O)[O-])c6F)c6ccc([nH]6)c(-c6cccc(S(=O)(=O)[O-])c6F)c6nc(c(-c7cccc(S(=O)(=O)[O-])c7F)c7ccc4[nH]7)C=C6)C=C5)cc3)n2)c2cc[nH]c2n1
REMARK SMILES IDX 16 1 15 2 13 3 14 4 12 6 11 7 10 8 6 9 7 10 85 11 8 12 9 13
REMARK SMILES IDX 5 14 3 15 4 16 91 17 90 18 86 19 89 20 87 21 88 22 2 24 1 25
REMARK SMILES IDX 17 27 18 28 19 29 20 30 21 32 22 33 23 34 84 35 24 36 83 37
REMARK SMILES IDX 25 38 26 39 27 40 77 41 28 42 82 43 76 44 78 45 29 46 81 47
REMARK SMILES IDX 75 48 74 49 30 51 62 52 42 53 61 54 43 55 46 56 60 57 79 58
REMARK SMILES IDX 44 59 45 60 59 62 80 63 47 64 31 65 32 66 40 67 33 68 35 69
REMARK SMILES IDX 41 70 34 71 36 72 37 73 38 74 39 75 63 76 64 77 72 78 65 79
REMARK SMILES IDX 67 80 73 81 66 82 68 83 69 84 70 85 71 86 48 87 49 88 57 89
REMARK SMILES IDX 50 90 52 91 58 92 51 93 53 94 54 95 55 96 56 97
REMARK H PARENT 15 5 89 23 2 26 19 31 78 50 46 61
REMARK Flexibility Score: inf
ROOT
ATOM      1  C   UNL A   1      35.488  21.066  25.087  1.00  0.00     0.117 C 
ENDROOT
BRANCH   1   2
ATOM      2  N   UNL A   1      34.532  20.047  25.475  1.00  0.00    -0.355 N 
ATOM      3  C   UNL A   1      33.212  19.909  25.165  1.00  0.00     0.230 C 
ATOM      4  O   UNL A   1      32.674  18.848  25.498  1.00  0.00    -0.274 OA
ATOM      5  H   UNL A   1      34.896  19.341  26.056  1.00  0.00     0.163 HD
BRANCH   3   6
ATOM      6  C   UNL A   1      32.476  20.919  24.304  1.00  0.00     0.176 C 
BRANCH   6   7
ATOM      7  S   UNL A   1      31.823  22.371  25.175  1.00  0.00    -0.095 SA
BRANCH   7   8
ATOM      8  C   UNL A   1      32.542  23.727  24.277  1.00  0.00     0.116 A 
ATOM      9  C   UNL A   1      32.874  25.980  23.923  1.00  0.00     0.091 A 
ATOM     10  C   UNL A   1      33.660  25.679  22.812  1.00  0.00     0.140 A 
ATOM     11  N   UNL A   1      32.296  24.998  24.668  1.00  0.00    -0.238 NA
ATOM     12  N   UNL A   1      33.898  24.415  22.401  1.00  0.00    -0.260 NA
ATOM     13  C   UNL A   1      33.328  23.451  23.161  1.00  0.00     0.146 A 
BRANCH   9  14
ATOM     14  C   UNL A   1      32.606  27.359  24.311  1.00  0.00     0.016 A 
ATOM     15  C   UNL A   1      33.106  29.362  25.605  1.00  0.00     0.128 A 
ATOM     16  C   UNL A   1      33.415  28.056  25.229  1.00  0.00     0.058 A 
ATOM     17  N   UNL A   1      32.017  30.018  25.168  1.00  0.00    -0.213 NA
ATOM     18  C   UNL A   1      31.273  29.334  24.284  1.00  0.00     0.140 A 
ATOM     19  C   UNL A   1      31.488  28.048  23.806  1.00  0.00     0.028 A 
ATOM     20  N   UNL A   1      30.142  29.826  23.695  1.00  0.00    -0.346 N 
ATOM     21  C   UNL A   1      30.429  27.777  22.893  1.00  0.00     0.030 A 
ATOM     22  C   UNL A   1      29.619  28.893  22.839  1.00  0.00     0.085 A 
ATOM     23  H   UNL A   1      29.760  30.718  23.861  1.00  0.00     0.167 HD
BRANCH  15  24
ATOM     24  N   UNL A   1      33.900  30.100  26.451  1.00  0.00    -0.373 N 
ATOM     25  C   UNL A   1      34.637  29.542  27.552  1.00  0.00     0.141 C 
ATOM     26  H   UNL A   1      33.967  31.069  26.293  1.00  0.00     0.161 HD
ENDBRANCH  15  24
ENDBRANCH   9  14
ENDBRANCH   7   8
ENDBRANCH   6   7
ENDBRANCH   3   6
ENDBRANCH   1   2
BRANCH   1  27
ATOM     27  C   UNL A   1      35.501  22.246  26.053  1.00  0.00     0.042 C 
BRANCH  27  28
ATOM     28  C   UNL A   1      36.781  23.079  26.011  1.00  0.00     0.118 C 
BRANCH  28  29
ATOM     29  N   UNL A   1      37.987  22.270  26.122  1.00  0.00    -0.352 N 
ATOM     30  C   UNL A   1      39.272  22.635  26.439  1.00  0.00     0.251 C 
ATOM     31  H   UNL A   1      37.861  21.311  25.942  1.00  0.00     0.163 HD
ATOM     32  O   UNL A   1      40.180  21.812  26.305  1.00  0.00    -0.269 OA
BRANCH  30  33
ATOM     33  C   UNL A   1      39.581  24.000  26.918  1.00  0.00     0.039 A 
ATOM     34  C   UNL A   1      39.403  24.295  28.273  1.00  0.00     0.014 A 
ATOM     35  C   UNL A   1      40.019  24.996  26.040  1.00  0.00     0.014 A 
ATOM     36  C   UNL A   1      39.723  25.566  28.757  1.00  0.00     0.010 A 
ATOM     37  C   UNL A   1      40.412  26.237  26.538  1.00  0.00     0.010 A 
ATOM     38  C   UNL A   1      40.266  26.538  27.901  1.00  0.00    -0.014 A 
BRANCH  38  39
ATOM     39  C   UNL A   1      40.705  27.863  28.417  1.00  0.00     0.031 A 
ATOM     40  C   UNL A   1      42.168  28.172  28.587  1.00  0.00     0.074 A 
ATOM     41  C   UNL A   1      39.780  28.760  28.813  1.00  0.00     0.049 A 
ATOM     42  N   UNL A   1      42.732  29.249  29.072  1.00  0.00    -0.248 NA
ATOM     43  C   UNL A   1      43.124  27.127  28.185  1.00  0.00     0.031 C 
ATOM     44  C   UNL A   1      38.331  28.553  28.774  1.00  0.00     0.029 A 
ATOM     45  N   UNL A   1      39.919  30.014  29.356  1.00  0.00    -0.354 N 
ATOM     46  C   UNL A   1      44.099  28.998  29.070  1.00  0.00     0.074 A 
ATOM     47  C   UNL A   1      44.279  27.654  28.564  1.00  0.00     0.031 C 
ATOM     48  C   UNL A   1      37.717  29.638  29.269  1.00  0.00     0.029 A 
ATOM     49  C   UNL A   1      38.724  30.605  29.694  1.00  0.00     0.049 A 
ATOM     50  H   UNL A   1      40.792  30.448  29.490  1.00  0.00     0.167 HD
ATOM     51  C   UNL A   1      45.116  29.819  29.431  1.00  0.00     0.034 A 
ATOM     52  C   UNL A   1      38.465  31.784  30.293  1.00  0.00     0.034 A 
ATOM     53  C   UNL A   1      44.936  31.166  29.902  1.00  0.00     0.049 A 
ATOM     54  C   UNL A   1      39.611  32.689  30.654  1.00  0.00     0.074 A 
ATOM     55  C   UNL A   1      45.904  32.106  30.205  1.00  0.00     0.029 A 
ATOM     56  N   UNL A   1      43.709  31.761  30.154  1.00  0.00    -0.354 N 
ATOM     57  N   UNL A   1      40.897  32.498  30.492  1.00  0.00    -0.248 NA
ATOM     58  C   UNL A   1      39.269  33.989  31.249  1.00  0.00     0.031 C 
ATOM     59  C   UNL A   1      45.264  33.259  30.675  1.00  0.00     0.029 A 
ATOM     60  C   UNL A   1      43.895  33.049  30.626  1.00  0.00     0.049 A 
ATOM     61  H   UNL A   1      42.835  31.330  30.019  1.00  0.00     0.167 HD
ATOM     62  C   UNL A   1      41.516  33.664  30.929  1.00  0.00     0.074 A 
ATOM     63  C   UNL A   1      40.460  34.565  31.343  1.00  0.00     0.031 C 
ATOM     64  C   UNL A   1      42.837  33.957  30.991  1.00  0.00     0.034 A 
BRANCH  51  65
ATOM     65  C   UNL A   1      46.523  29.296  29.292  1.00  0.00     0.023 A 
ATOM     66  C   UNL A   1      47.080  28.504  30.318  1.00  0.00     0.012 A 
ATOM     67  C   UNL A   1      47.272  29.534  28.123  1.00  0.00     0.148 A 
ATOM     68  C   UNL A   1      48.371  27.992  30.201  1.00  0.00     0.002 A 
ATOM     69  C   UNL A   1      48.541  28.980  27.993  1.00  0.00     0.091 A 
ATOM     70  F   UNL A   1      46.735  30.303  27.165  1.00  0.00    -0.205 F 
ATOM     71  C   UNL A   1      49.097  28.222  29.036  1.00  0.00     0.022 A 
BRANCH  69  72
ATOM     72  S   UNL A   1      49.524  29.146  26.498  1.00  0.00     0.127 S 
ATOM     73  O   UNL A   1      50.691  28.325  26.821  1.00  0.00    -0.237 OA
ATOM     74  O   UNL A   1      48.638  28.574  25.484  1.00  0.00    -0.237 OA
ATOM     75  O   UNL A   1      49.785  30.571  26.344  1.00  0.00    -0.744 OA
ENDBRANCH  69  72
ENDBRANCH  51  65
BRANCH  52  76
ATOM     76  C   UNL A   1      37.055  32.198  30.540  1.00  0.00     0.023 A 
ATOM     77  C   UNL A   1      36.513  32.083  31.835  1.00  0.00     0.012 A 
ATOM     78  C   UNL A   1      36.256  32.726  29.507  1.00  0.00     0.148 A 
ATOM     79  C   UNL A   1      35.192  32.455  32.090  1.00  0.00     0.002 A 
ATOM     80  C   UNL A   1      34.961  33.150  29.780  1.00  0.00     0.091 A 
ATOM     81  F   UNL A   1      36.788  32.819  28.279  1.00  0.00    -0.205 F 
ATOM     82  C   UNL A   1      34.421  32.996  31.066  1.00  0.00     0.022 A 
BRANCH  80  83
ATOM     83  S   UNL A   1      33.942  33.982  28.559  1.00  0.00     0.127 S 
ATOM     84  O   UNL A   1      32.870  34.530  29.387  1.00  0.00    -0.237 OA
ATOM     85  O   UNL A   1      34.872  34.975  28.018  1.00  0.00    -0.237 OA
ATOM     86  O   UNL A   1      33.544  32.954  27.608  1.00  0.00    -0.744 OA
ENDBRANCH  80  83
ENDBRANCH  52  76
BRANCH  64  87
ATOM     87  C   UNL A   1      43.229  35.325  31.487  1.00  0.00     0.023 A 
ATOM     88  C   UNL A   1      43.470  35.537  32.859  1.00  0.00     0.012 A 
ATOM     89  C   UNL A   1      43.427  36.386  30.579  1.00  0.00     0.148 A 
ATOM     90  C   UNL A   1      43.866  36.791  33.324  1.00  0.00     0.002 A 
ATOM     91  C   UNL A   1      43.873  37.617  31.043  1.00  0.00     0.091 A 
ATOM     92  F   UNL A   1      43.175  36.169  29.280  1.00  0.00    -0.205 F 
ATOM     93  C   UNL A   1      44.080  37.825  32.416  1.00  0.00     0.022 A 
BRANCH  91  94
ATOM     94  S   UNL A   1      44.269  38.977  29.939  1.00  0.00     0.127 S 
ATOM     95  O   UNL A   1      45.337  38.398  29.125  1.00  0.00    -0.237 OA
ATOM     96  O   UNL A   1      43.004  39.179  29.230  1.00  0.00    -0.237 OA
ATOM     97  O   UNL A   1      44.669  40.087  30.794  1.00  0.00    -0.744 OA
ENDBRANCH  91  94
ENDBRANCH  64  87
ENDBRANCH  38  39
ENDBRANCH  30  33
ENDBRANCH  28  29
ENDBRANCH  27  28
ENDBRANCH   1  27
TORSDOF 17
ENDMDL
MODEL 3
REMARK VINA RESULT:     -12.1      4.522      9.723
REMARK SMILES CNc1cc(-c2cncc(SCC(=O)NCCCNC(=O)c3ccc(-c4c5nc(c(-c6cccc(S(=O)(=O)[O-])c6F)c6ccc([nH]6)c(-c6cccc(S(=O)(=O)[O-])c6F)c6nc(c(-c7cccc(S(=O)(=O)[O-])c7F)c7ccc4[nH]7)C=C6)C=C5)cc3)n2)c2cc[nH]c2n1
REMARK SMILES IDX 16 1 15 2 13 3 14 4 12 6 11 7 10 8 6 9 7 10 85 11 8 12 9 13
REMARK SMILES IDX 5 14 3 15 4 16 91 17 90 18 86 19 89 20 87 21 88 22 2 24 1 25
REMARK SMILES IDX 17 27 18 28 19 29 20 30 21 32 22 33 23 34 84 35 24 36 83 37
REMARK SMILES IDX 25 38 26 39 27 40 77 41 28 42 82 43 76 44 78 45 29 46 81 47
REMARK SMILES IDX 75 48 74 49 30 51 62 52 42 53 61 54 43 55 46 56 60 57 79 58
REMARK SMILES IDX 44 59 45 60 59 62 80 63 47 64 31 65 32 66 40 67 33 68 35 69
REMARK SMILES IDX 41 70 34 71 36 72 37 73 38 74 39 75 63 76 64 77 72 78 65 79
REMARK SMILES IDX 67 80 73 81 66 82 68 83 69 84 70 85 71 86 48 87 49 88 57 89
REMARK SMILES IDX 50 90 52 91 58 92 51 93 53 94 54 95 55 96 56 97
REMARK H PARENT 15 5 89 23 2 26 19 31 78 50 46 61
REMARK Flexibility Score: inf
ROOT
ATOM      1  C   UNL A   1      31.505  28.226  26.096  1.00  0.00     0.117 C 
ENDROOT
BRANCH   1   2
ATOM      2  N   UNL A   1      31.207  28.461  24.697  1.00  0.00    -0.355 N 
ATOM      3  C   UNL A   1      30.435  27.751  23.825  1.00  0.00     0.230 C 
ATOM      4  O   UNL A   1      30.220  28.272  22.726  1.00  0.00    -0.274 OA
ATOM      5  H   UNL A   1      31.631  29.263  24.314  1.00  0.00     0.163 HD
BRANCH   3   6
ATOM      6  C   UNL A   1      29.728  26.472  24.232  1.00  0.00     0.176 C 
BRANCH   6   7
ATOM      7  S   UNL A   1      30.381  24.943  23.504  1.00  0.00    -0.095 SA
BRANCH   7   8
ATOM      8  C   UNL A   1      31.298  24.224  24.848  1.00  0.00     0.116 A 
ATOM      9  C   UNL A   1      33.035  22.953  25.672  1.00  0.00     0.091 A 
ATOM     10  C   UNL A   1      32.566  23.171  26.966  1.00  0.00     0.140 A 
ATOM     11  N   UNL A   1      32.394  23.477  24.590  1.00  0.00    -0.238 NA
ATOM     12  N   UNL A   1      31.462  23.900  27.235  1.00  0.00    -0.260 NA
ATOM     13  C   UNL A   1      30.846  24.425  26.150  1.00  0.00     0.146 A 
BRANCH   9  14
ATOM     14  C   UNL A   1      34.207  22.125  25.418  1.00  0.00     0.016 A 
ATOM     15  C   UNL A   1      35.264  19.972  24.990  1.00  0.00     0.128 A 
ATOM     16  C   UNL A   1      34.117  20.739  25.191  1.00  0.00     0.058 A 
ATOM     17  N   UNL A   1      36.508  20.478  25.043  1.00  0.00    -0.213 NA
ATOM     18  C   UNL A   1      36.562  21.804  25.248  1.00  0.00     0.140 A 
ATOM     19  C   UNL A   1      35.500  22.680  25.430  1.00  0.00     0.028 A 
ATOM     20  N   UNL A   1      37.723  22.522  25.307  1.00  0.00    -0.346 N 
ATOM     21  C   UNL A   1      36.072  23.973  25.604  1.00  0.00     0.030 A 
ATOM     22  C   UNL A   1      37.443  23.846  25.516  1.00  0.00     0.085 A 
ATOM     23  H   UNL A   1      38.628  22.144  25.213  1.00  0.00     0.167 HD
BRANCH  15  24
ATOM     24  N   UNL A   1      35.219  18.627  24.706  1.00  0.00    -0.373 N 
ATOM     25  C   UNL A   1      34.014  17.913  24.388  1.00  0.00     0.141 C 
ATOM     26  H   UNL A   1      36.065  18.124  24.723  1.00  0.00     0.161 HD
ENDBRANCH  15  24
ENDBRANCH   9  14
ENDBRANCH   7   8
ENDBRANCH   6   7
ENDBRANCH   3   6
ENDBRANCH   1   2
BRANCH   1  27
ATOM     27  C   UNL A   1      32.801  27.445  26.290  1.00  0.00     0.042 C 
BRANCH  27  28
ATOM     28  C   UNL A   1      34.052  28.317  26.375  1.00  0.00     0.118 C 
BRANCH  28  29
ATOM     29  N   UNL A   1      33.760  29.692  26.759  1.00  0.00    -0.352 N 
ATOM     30  C   UNL A   1      34.436  30.539  27.602  1.00  0.00     0.251 C 
ATOM     31  H   UNL A   1      32.951  30.074  26.348  1.00  0.00     0.163 HD
ATOM     32  O   UNL A   1      33.915  31.608  27.921  1.00  0.00    -0.269 OA
BRANCH  30  33
ATOM     33  C   UNL A   1      35.765  30.176  28.142  1.00  0.00     0.039 A 
ATOM     34  C   UNL A   1      35.834  29.513  29.371  1.00  0.00     0.014 A 
ATOM     35  C   UNL A   1      36.940  30.507  27.463  1.00  0.00     0.014 A 
ATOM     36  C   UNL A   1      37.075  29.126  29.885  1.00  0.00     0.010 A 
ATOM     37  C   UNL A   1      38.169  30.051  27.937  1.00  0.00     0.010 A 
ATOM     38  C   UNL A   1      38.252  29.359  29.154  1.00  0.00    -0.014 A 
BRANCH  38  39
ATOM     39  C   UNL A   1      39.570  28.868  29.638  1.00  0.00     0.031 A 
ATOM     40  C   UNL A   1      40.288  29.575  30.756  1.00  0.00     0.074 A 
ATOM     41  C   UNL A   1      40.163  27.832  29.011  1.00  0.00     0.049 A 
ATOM     42  N   UNL A   1      41.465  29.323  31.270  1.00  0.00    -0.248 NA
ATOM     43  C   UNL A   1      39.608  30.733  31.360  1.00  0.00     0.031 C 
ATOM     44  C   UNL A   1      39.609  27.110  27.863  1.00  0.00     0.029 A 
ATOM     45  N   UNL A   1      41.376  27.225  29.228  1.00  0.00    -0.354 N 
ATOM     46  C   UNL A   1      41.682  30.308  32.226  1.00  0.00     0.074 A 
ATOM     47  C   UNL A   1      40.529  31.181  32.201  1.00  0.00     0.031 C 
ATOM     48  C   UNL A   1      40.476  26.161  27.480  1.00  0.00     0.029 A 
ATOM     49  C   UNL A   1      41.662  26.226  28.328  1.00  0.00     0.049 A 
ATOM     50  H   UNL A   1      41.982  27.481  29.961  1.00  0.00     0.167 HD
ATOM     51  C   UNL A   1      42.734  30.459  33.068  1.00  0.00     0.034 A 
ATOM     52  C   UNL A   1      42.761  25.458  28.187  1.00  0.00     0.034 A 
ATOM     53  C   UNL A   1      43.864  29.570  33.115  1.00  0.00     0.049 A 
ATOM     54  C   UNL A   1      43.900  25.626  29.155  1.00  0.00     0.074 A 
ATOM     55  C   UNL A   1      44.933  29.585  33.993  1.00  0.00     0.029 A 
ATOM     56  N   UNL A   1      44.081  28.517  32.240  1.00  0.00    -0.354 N 
ATOM     57  N   UNL A   1      44.014  26.459  30.159  1.00  0.00    -0.248 NA
ATOM     58  C   UNL A   1      45.048  24.721  28.994  1.00  0.00     0.031 C 
ATOM     59  C   UNL A   1      45.816  28.563  33.626  1.00  0.00     0.029 A 
ATOM     60  C   UNL A   1      45.275  27.885  32.544  1.00  0.00     0.049 A 
ATOM     61  H   UNL A   1      43.476  28.257  31.508  1.00  0.00     0.167 HD
ATOM     62  C   UNL A   1      45.226  26.158  30.772  1.00  0.00     0.074 A 
ATOM     63  C   UNL A   1      45.799  25.049  30.037  1.00  0.00     0.031 C 
ATOM     64  C   UNL A   1      45.814  26.752  31.838  1.00  0.00     0.034 A 
BRANCH  51  65
ATOM     65  C   UNL A   1      42.694  31.610  34.041  1.00  0.00     0.023 A 
ATOM     66  C   UNL A   1      43.281  32.844  33.690  1.00  0.00     0.012 A 
ATOM     67  C   UNL A   1      42.024  31.492  35.276  1.00  0.00     0.148 A 
ATOM     68  C   UNL A   1      43.237  33.927  34.566  1.00  0.00     0.002 A 
ATOM     69  C   UNL A   1      41.943  32.592  36.122  1.00  0.00     0.091 A 
ATOM     70  F   UNL A   1      41.486  30.308  35.601  1.00  0.00    -0.205 F 
ATOM     71  C   UNL A   1      42.560  33.805  35.776  1.00  0.00     0.022 A 
BRANCH  69  72
ATOM     72  S   UNL A   1      41.022  32.563  37.665  1.00  0.00     0.127 S 
ATOM     73  O   UNL A   1      41.902  31.765  38.518  1.00  0.00    -0.237 OA
ATOM     74  O   UNL A   1      40.960  33.983  38.012  1.00  0.00    -0.237 OA
ATOM     75  O   UNL A   1      39.735  31.956  37.354  1.00  0.00    -0.744 OA
ENDBRANCH  69  72
ENDBRANCH  51  65
BRANCH  52  76
ATOM     76  C   UNL A   1      42.813  24.424  27.115  1.00  0.00     0.023 A 
ATOM     77  C   UNL A   1      43.554  24.673  25.943  1.00  0.00     0.012 A 
ATOM     78  C   UNL A   1      42.153  23.188  27.259  1.00  0.00     0.148 A 
ATOM     79  C   UNL A   1      43.609  23.725  24.921  1.00  0.00     0.002 A 
ATOM     80  C   UNL A   1      42.261  22.225  26.263  1.00  0.00     0.091 A 
ATOM     81  F   UNL A   1      41.445  22.974  28.378  1.00  0.00    -0.205 F 
ATOM     82  C   UNL A   1      42.972  22.499  25.085  1.00  0.00     0.022 A 
BRANCH  80  83
ATOM     83  S   UNL A   1      41.588  20.570  26.446  1.00  0.00     0.127 S 
ATOM     84  O   UNL A   1      40.160  20.803  26.240  1.00  0.00    -0.237 OA
ATOM     85  O   UNL A   1      42.257  19.853  25.360  1.00  0.00    -0.237 OA
ATOM     86  O   UNL A   1      41.972  20.132  27.780  1.00  0.00    -0.744 OA
ENDBRANCH  80  83
ENDBRANCH  52  76
BRANCH  64  87
ATOM     87  C   UNL A   1      47.133  26.195  32.311  1.00  0.00     0.023 A 
ATOM     88  C   UNL A   1      47.163  25.209  33.316  1.00  0.00     0.012 A 
ATOM     89  C   UNL A   1      48.339  26.601  31.705  1.00  0.00     0.148 A 
ATOM     90  C   UNL A   1      48.375  24.662  33.737  1.00  0.00     0.002 A 
ATOM     91  C   UNL A   1      49.538  26.014  32.092  1.00  0.00     0.091 A 
ATOM     92  F   UNL A   1      48.292  27.553  30.763  1.00  0.00    -0.205 F 
ATOM     93  C   UNL A   1      49.559  25.054  33.117  1.00  0.00     0.022 A 
BRANCH  91  94
ATOM     94  S   UNL A   1      51.098  26.384  31.283  1.00  0.00     0.127 S 
ATOM     95  O   UNL A   1      51.012  27.834  31.119  1.00  0.00    -0.237 OA
ATOM     96  O   UNL A   1      52.075  25.940  32.279  1.00  0.00    -0.237 OA
ATOM     97  O   UNL A   1      51.103  25.615  30.046  1.00  0.00    -0.744 OA
ENDBRANCH  91  94
ENDBRANCH  64  87
ENDBRANCH  38  39
ENDBRANCH  30  33
ENDBRANCH  28  29
ENDBRANCH  27  28
ENDBRANCH   1  27
TORSDOF 17
ENDMDL
