MODEL 1
REMARK VINA RESULT:     -12.5      0.000      0.000
REMARK SMILES Cc1cc(Br)cc2c1O[C@H](C(F)(F)F)C(C(=O)NCCCNC(=O)c1ccc(-c3c4nc(c(-c5cccc(S(=O)(=O)[O-])c5F)c5ccc([nH]5)c(-c5cccc(S(=O)(=O)[O-])c5F)c5nc(c(-c6cccc(S(=O)(=O)[O-])c6F)c6ccc3[nH]6)C=C5)C=C4)cc1)=C2
REMARK SMILES IDX 21 1 20 2 19 3 18 4 16 5 17 6 15 8 1 9 2 10 3 11 8 12 4 13
REMARK SMILES IDX 7 14 9 15 5 16 6 17 88 18 10 19 11 20 12 21 13 22 14 23
REMARK SMILES IDX 22 24 23 25 24 27 25 28 26 29 87 30 27 31 86 32 28 33 29 34
REMARK SMILES IDX 30 35 80 36 31 37 85 38 79 39 81 40 32 41 84 42 78 43 77 44
REMARK SMILES IDX 33 46 65 47 45 48 64 49 46 50 49 51 63 52 82 53 47 54 48 55
REMARK SMILES IDX 62 57 83 58 50 59 34 60 35 61 43 62 36 63 38 64 44 65 37 66
REMARK SMILES IDX 39 67 40 68 41 69 42 70 66 71 67 72 75 73 68 74 70 75 76 76
REMARK SMILES IDX 69 77 71 78 72 79 73 80 74 81 51 82 52 83 60 84 53 85 55 86
REMARK SMILES IDX 61 87 54 88 56 89 57 90 58 91 59 92
REMARK H PARENT 18 7 22 26 81 45 49 56
REMARK Flexibility Score: inf
ROOT
ATOM      1  C   UNL A   1      33.174  29.100  25.238  1.00  0.00     0.118 C 
ENDROOT
BRANCH   1   2
ATOM      2  C   UNL A   1      33.256  28.982  23.722  1.00  0.00     0.042 C 
BRANCH   2   3
ATOM      3  C   UNL A   1      32.101  28.179  23.149  1.00  0.00     0.118 C 
BRANCH   3   4
ATOM      4  N   UNL A   1      32.526  27.299  22.070  1.00  0.00    -0.352 N 
ATOM      5  C   UNL A   1      32.992  26.034  21.947  1.00  0.00     0.251 C 
ATOM      6  O   UNL A   1      33.212  25.662  20.791  1.00  0.00    -0.270 OA
ATOM      7  H   UNL A   1      32.458  27.744  21.194  1.00  0.00     0.163 HD
BRANCH   5   8
ATOM      8  C   UNL A   1      33.233  25.098  23.083  1.00  0.00     0.067 C 
ATOM      9  C   UNL A   1      33.252  22.555  27.551  1.00  0.00     0.048 C 
ATOM     10  C   UNL A   1      34.146  22.604  26.343  1.00  0.00    -0.007 A 
ATOM     11  C   UNL A   1      35.234  21.729  26.243  1.00  0.00     0.023 A 
ATOM     12  C   UNL A   1      33.874  23.463  25.270  1.00  0.00     0.130 A 
ATOM     13  C   UNL A   1      36.048  21.747  25.110  1.00  0.00     0.019 A 
ATOM     14  C   UNL A   1      34.691  23.487  24.134  1.00  0.00     0.019 A 
ATOM     15  O   UNL A   1      32.807  24.304  25.405  1.00  0.00    -0.475 OA
ATOM     16  Br  UNL A   1      37.521  20.567  25.001  1.00  0.00    -0.051 Br
ATOM     17  C   UNL A   1      35.788  22.625  24.057  1.00  0.00     0.027 A 
ATOM     18  C   UNL A   1      34.405  24.436  23.064  1.00  0.00     0.025 C 
ATOM     19  C   UNL A   1      32.246  24.850  24.185  1.00  0.00     0.314 C 
BRANCH  19  20
ATOM     20  C   UNL A   1      31.066  23.968  23.733  1.00  0.00     0.429 C 
ATOM     21  F   UNL A   1      31.465  23.089  22.781  1.00  0.00    -0.167 F 
ATOM     22  F   UNL A   1      30.546  23.229  24.742  1.00  0.00    -0.167 F 
ATOM     23  F   UNL A   1      30.045  24.688  23.215  1.00  0.00    -0.167 F 
ENDBRANCH  19  20
ENDBRANCH   5   8
ENDBRANCH   3   4
ENDBRANCH   2   3
ENDBRANCH   1   2
BRANCH   1  24
ATOM     24  N   UNL A   1      32.725  30.428  25.654  1.00  0.00    -0.352 N 
ATOM     25  C   UNL A   1      33.106  31.193  26.727  1.00  0.00     0.251 C 
ATOM     26  H   UNL A   1      32.042  30.837  25.074  1.00  0.00     0.163 HD
ATOM     27  O   UNL A   1      32.412  32.148  27.071  1.00  0.00    -0.269 OA
BRANCH  25  28
ATOM     28  C   UNL A   1      34.346  30.871  27.457  1.00  0.00     0.039 A 
ATOM     29  C   UNL A   1      35.325  31.853  27.626  1.00  0.00     0.014 A 
ATOM     30  C   UNL A   1      34.545  29.581  27.954  1.00  0.00     0.014 A 
ATOM     31  C   UNL A   1      36.479  31.551  28.350  1.00  0.00     0.010 A 
ATOM     32  C   UNL A   1      35.638  29.317  28.765  1.00  0.00     0.010 A 
ATOM     33  C   UNL A   1      36.629  30.289  28.949  1.00  0.00    -0.014 A 
BRANCH  33  34
ATOM     34  C   UNL A   1      37.828  29.944  29.747  1.00  0.00     0.031 A 
ATOM     35  C   UNL A   1      38.864  29.017  29.175  1.00  0.00     0.074 A 
ATOM     36  C   UNL A   1      37.942  30.402  31.008  1.00  0.00     0.049 A 
ATOM     37  N   UNL A   1      39.958  28.563  29.728  1.00  0.00    -0.248 NA
ATOM     38  C   UNL A   1      38.624  28.504  27.815  1.00  0.00     0.031 C 
ATOM     39  C   UNL A   1      36.961  31.248  31.690  1.00  0.00     0.029 A 
ATOM     40  N   UNL A   1      38.926  30.212  31.943  1.00  0.00    -0.354 N 
ATOM     41  C   UNL A   1      40.521  27.700  28.797  1.00  0.00     0.074 A 
ATOM     42  C   UNL A   1      39.613  27.636  27.674  1.00  0.00     0.031 C 
ATOM     43  C   UNL A   1      37.410  31.533  32.922  1.00  0.00     0.029 A 
ATOM     44  C   UNL A   1      38.691  30.864  33.129  1.00  0.00     0.049 A 
ATOM     45  H   UNL A   1      39.726  29.660  31.780  1.00  0.00     0.167 HD
ATOM     46  C   UNL A   1      41.710  27.056  28.848  1.00  0.00     0.034 A 
ATOM     47  C   UNL A   1      39.432  30.926  34.253  1.00  0.00     0.034 A 
ATOM     48  C   UNL A   1      42.620  27.157  29.953  1.00  0.00     0.049 A 
ATOM     49  C   UNL A   1      40.753  30.209  34.290  1.00  0.00     0.074 A 
ATOM     50  C   UNL A   1      43.879  26.600  30.083  1.00  0.00     0.029 A 
ATOM     51  N   UNL A   1      42.368  27.860  31.123  1.00  0.00    -0.354 N 
ATOM     52  N   UNL A   1      41.337  29.507  33.347  1.00  0.00    -0.248 NA
ATOM     53  C   UNL A   1      41.532  30.313  35.532  1.00  0.00     0.031 C 
ATOM     54  C   UNL A   1      44.378  26.947  31.344  1.00  0.00     0.029 A 
ATOM     55  C   UNL A   1      43.441  27.742  31.987  1.00  0.00     0.049 A 
ATOM     56  H   UNL A   1      41.546  28.369  31.309  1.00  0.00     0.167 HD
ATOM     57  C   UNL A   1      42.560  29.104  33.870  1.00  0.00     0.074 A 
ATOM     58  C   UNL A   1      42.643  29.661  35.207  1.00  0.00     0.031 C 
ATOM     59  C   UNL A   1      43.520  28.332  33.302  1.00  0.00     0.034 A 
BRANCH  46  60
ATOM     60  C   UNL A   1      42.113  26.249  27.638  1.00  0.00     0.023 A 
ATOM     61  C   UNL A   1      42.792  26.887  26.578  1.00  0.00     0.012 A 
ATOM     62  C   UNL A   1      41.845  24.870  27.553  1.00  0.00     0.148 A 
ATOM     63  C   UNL A   1      43.153  26.179  25.433  1.00  0.00     0.002 A 
ATOM     64  C   UNL A   1      42.255  24.159  26.430  1.00  0.00     0.091 A 
ATOM     65  F   UNL A   1      41.177  24.282  28.556  1.00  0.00    -0.205 F 
ATOM     66  C   UNL A   1      42.894  24.813  25.363  1.00  0.00     0.022 A 
BRANCH  64  67
ATOM     67  S   UNL A   1      42.046  22.381  26.279  1.00  0.00     0.127 S 
ATOM     68  O   UNL A   1      42.739  21.901  27.474  1.00  0.00    -0.237 OA
ATOM     69  O   UNL A   1      40.590  22.237  26.319  1.00  0.00    -0.237 OA
ATOM     70  O   UNL A   1      42.658  22.013  25.010  1.00  0.00    -0.744 OA
ENDBRANCH  64  67
ENDBRANCH  46  60
BRANCH  47  71
ATOM     71  C   UNL A   1      38.978  31.795  35.375  1.00  0.00     0.023 A 
ATOM     72  C   UNL A   1      38.157  31.241  36.376  1.00  0.00     0.012 A 
ATOM     73  C   UNL A   1      39.436  33.121  35.517  1.00  0.00     0.148 A 
ATOM     74  C   UNL A   1      37.793  31.991  37.495  1.00  0.00     0.002 A 
ATOM     75  C   UNL A   1      39.115  33.843  36.662  1.00  0.00     0.091 A 
ATOM     76  F   UNL A   1      40.218  33.628  34.554  1.00  0.00    -0.205 F 
ATOM     77  C   UNL A   1      38.283  33.286  37.644  1.00  0.00     0.022 A 
BRANCH  75  78
ATOM     78  S   UNL A   1      39.811  35.462  37.016  1.00  0.00     0.127 S 
ATOM     79  O   UNL A   1      39.206  35.773  38.309  1.00  0.00    -0.237 OA
ATOM     80  O   UNL A   1      41.243  35.165  37.060  1.00  0.00    -0.237 OA
ATOM     81  O   UNL A   1      39.404  36.321  35.912  1.00  0.00    -0.744 OA
ENDBRANCH  75  78
ENDBRANCH  47  71
BRANCH  59  82
ATOM     82  C   UNL A   1      44.752  28.026  34.114  1.00  0.00     0.023 A 
ATOM     83  C   UNL A   1      45.826  28.938  34.113  1.00  0.00     0.012 A 
ATOM     84  C   UNL A   1      44.793  26.908  34.971  1.00  0.00     0.148 A 
ATOM     85  C   UNL A   1      46.929  28.734  34.941  1.00  0.00     0.002 A 
ATOM     86  C   UNL A   1      45.872  26.740  35.831  1.00  0.00     0.091 A 
ATOM     87  F   UNL A   1      43.767  26.046  34.946  1.00  0.00    -0.205 F 
ATOM     88  C   UNL A   1      46.945  27.646  35.810  1.00  0.00     0.022 A 
BRANCH  86  89
ATOM     89  S   UNL A   1      45.933  25.434  37.063  1.00  0.00     0.127 S 
ATOM     90  O   UNL A   1      47.228  25.683  37.697  1.00  0.00    -0.237 OA
ATOM     91  O   UNL A   1      44.775  25.745  37.901  1.00  0.00    -0.237 OA
ATOM     92  O   UNL A   1      45.833  24.180  36.329  1.00  0.00    -0.744 OA
ENDBRANCH  86  89
ENDBRANCH  59  82
ENDBRANCH  33  34
ENDBRANCH  25  28
ENDBRANCH   1  24
TORSDOF 14
ENDMDL
MODEL 2
REMARK VINA RESULT:     -12.5      5.351      9.890
REMARK SMILES Cc1cc(Br)cc2c1O[C@H](C(F)(F)F)C(C(=O)NCCCNC(=O)c1ccc(-c3c4nc(c(-c5cccc(S(=O)(=O)[O-])c5F)c5ccc([nH]5)c(-c5cccc(S(=O)(=O)[O-])c5F)c5nc(c(-c6cccc(S(=O)(=O)[O-])c6F)c6ccc3[nH]6)C=C5)C=C4)cc1)=C2
REMARK SMILES IDX 21 1 20 2 19 3 18 4 16 5 17 6 15 8 1 9 2 10 3 11 8 12 4 13
REMARK SMILES IDX 7 14 9 15 5 16 6 17 88 18 10 19 11 20 12 21 13 22 14 23
REMARK SMILES IDX 22 24 23 25 24 27 25 28 26 29 87 30 27 31 86 32 28 33 29 34
REMARK SMILES IDX 30 35 80 36 31 37 85 38 79 39 81 40 32 41 84 42 78 43 77 44
REMARK SMILES IDX 33 46 65 47 45 48 64 49 46 50 49 51 63 52 82 53 47 54 48 55
REMARK SMILES IDX 62 57 83 58 50 59 34 60 35 61 43 62 36 63 38 64 44 65 37 66
REMARK SMILES IDX 39 67 40 68 41 69 42 70 66 71 67 72 75 73 68 74 70 75 76 76
REMARK SMILES IDX 69 77 71 78 72 79 73 80 74 81 51 82 52 83 60 84 53 85 55 86
REMARK SMILES IDX 61 87 54 88 56 89 57 90 58 91 59 92
REMARK H PARENT 18 7 22 26 81 45 49 56
REMARK Flexibility Score: inf
ROOT
ATOM      1  C   UNL A   1      35.678  22.447  25.961  1.00  0.00     0.118 C 
ENDROOT
BRANCH   1   2
ATOM      2  C   UNL A   1      34.508  22.073  26.862  1.00  0.00     0.042 C 
BRANCH   2   3
ATOM      3  C   UNL A   1      33.279  21.673  26.062  1.00  0.00     0.118 C 
BRANCH   3   4
ATOM      4  N   UNL A   1      32.053  22.203  26.640  1.00  0.00    -0.352 N 
ATOM      5  C   UNL A   1      31.366  23.368  26.609  1.00  0.00     0.251 C 
ATOM      6  O   UNL A   1      30.311  23.378  27.251  1.00  0.00    -0.270 OA
ATOM      7  H   UNL A   1      31.603  21.535  27.206  1.00  0.00     0.163 HD
BRANCH   5   8
ATOM      8  C   UNL A   1      31.787  24.590  25.864  1.00  0.00     0.067 C 
ATOM      9  C   UNL A   1      33.862  28.015  22.639  1.00  0.00     0.048 C 
ATOM     10  C   UNL A   1      33.159  28.083  23.967  1.00  0.00    -0.007 A 
ATOM     11  C   UNL A   1      32.852  29.326  24.532  1.00  0.00     0.023 A 
ATOM     12  C   UNL A   1      32.736  26.921  24.628  1.00  0.00     0.130 A 
ATOM     13  C   UNL A   1      32.171  29.396  25.748  1.00  0.00     0.019 A 
ATOM     14  C   UNL A   1      32.058  26.988  25.850  1.00  0.00     0.019 A 
ATOM     15  O   UNL A   1      33.057  25.727  24.048  1.00  0.00    -0.475 OA
ATOM     16  Br  UNL A   1      31.778  31.085  26.501  1.00  0.00    -0.051 Br
ATOM     17  C   UNL A   1      31.778  28.235  26.414  1.00  0.00     0.027 A 
ATOM     18  C   UNL A   1      31.684  25.754  26.531  1.00  0.00     0.025 C 
ATOM     19  C   UNL A   1      32.270  24.577  24.443  1.00  0.00     0.314 C 
BRANCH  19  20
ATOM     20  C   UNL A   1      31.124  24.378  23.432  1.00  0.00     0.429 C 
ATOM     21  F   UNL A   1      31.410  24.996  22.259  1.00  0.00    -0.167 F 
ATOM     22  F   UNL A   1      30.906  23.074  23.135  1.00  0.00    -0.167 F 
ATOM     23  F   UNL A   1      29.946  24.875  23.874  1.00  0.00    -0.167 F 
ENDBRANCH  19  20
ENDBRANCH   5   8
ENDBRANCH   3   4
ENDBRANCH   2   3
ENDBRANCH   1   2
BRANCH   1  24
ATOM     24  N   UNL A   1      36.620  21.338  25.808  1.00  0.00    -0.352 N 
ATOM     25  C   UNL A   1      37.990  21.345  25.751  1.00  0.00     0.251 C 
ATOM     26  H   UNL A   1      36.205  20.448  25.734  1.00  0.00     0.163 HD
ATOM     27  O   UNL A   1      38.587  20.356  25.330  1.00  0.00    -0.269 OA
BRANCH  25  28
ATOM     28  C   UNL A   1      38.739  22.534  26.198  1.00  0.00     0.039 A 
ATOM     29  C   UNL A   1      39.868  22.377  27.005  1.00  0.00     0.014 A 
ATOM     30  C   UNL A   1      38.303  23.809  25.833  1.00  0.00     0.014 A 
ATOM     31  C   UNL A   1      40.593  23.504  27.394  1.00  0.00     0.010 A 
ATOM     32  C   UNL A   1      39.086  24.914  26.126  1.00  0.00     0.010 A 
ATOM     33  C   UNL A   1      40.223  24.779  26.932  1.00  0.00    -0.014 A 
BRANCH  33  34
ATOM     34  C   UNL A   1      40.986  25.992  27.302  1.00  0.00     0.031 A 
ATOM     35  C   UNL A   1      40.323  27.075  28.108  1.00  0.00     0.074 A 
ATOM     36  C   UNL A   1      42.244  26.152  26.848  1.00  0.00     0.049 A 
ATOM     37  N   UNL A   1      40.806  28.226  28.495  1.00  0.00    -0.248 NA
ATOM     38  C   UNL A   1      38.920  26.851  28.501  1.00  0.00     0.031 C 
ATOM     39  C   UNL A   1      42.960  25.199  25.998  1.00  0.00     0.029 A 
ATOM     40  N   UNL A   1      43.137  27.175  27.029  1.00  0.00    -0.354 N 
ATOM     41  C   UNL A   1      39.766  28.867  29.155  1.00  0.00     0.074 A 
ATOM     42  C   UNL A   1      38.606  28.011  29.053  1.00  0.00     0.031 C 
ATOM     43  C   UNL A   1      44.195  25.667  25.761  1.00  0.00     0.029 A 
ATOM     44  C   UNL A   1      44.346  26.965  26.412  1.00  0.00     0.049 A 
ATOM     45  H   UNL A   1      42.931  27.985  27.551  1.00  0.00     0.167 HD
ATOM     46  C   UNL A   1      39.785  30.040  29.830  1.00  0.00     0.034 A 
ATOM     47  C   UNL A   1      45.456  27.729  26.385  1.00  0.00     0.034 A 
ATOM     48  C   UNL A   1      40.953  30.864  29.956  1.00  0.00     0.049 A 
ATOM     49  C   UNL A   1      45.462  29.027  27.144  1.00  0.00     0.074 A 
ATOM     50  C   UNL A   1      41.104  32.039  30.669  1.00  0.00     0.029 A 
ATOM     51  N   UNL A   1      42.174  30.601  29.351  1.00  0.00    -0.354 N 
ATOM     52  N   UNL A   1      44.512  29.556  27.879  1.00  0.00    -0.248 NA
ATOM     53  C   UNL A   1      46.697  29.821  27.095  1.00  0.00     0.031 C 
ATOM     54  C   UNL A   1      42.411  32.499  30.474  1.00  0.00     0.029 A 
ATOM     55  C   UNL A   1      43.082  31.597  29.662  1.00  0.00     0.049 A 
ATOM     56  H   UNL A   1      42.366  29.819  28.784  1.00  0.00     0.167 HD
ATOM     57  C   UNL A   1      45.040  30.732  28.399  1.00  0.00     0.074 A 
ATOM     58  C   UNL A   1      46.403  30.825  27.913  1.00  0.00     0.031 C 
ATOM     59  C   UNL A   1      44.447  31.656  29.196  1.00  0.00     0.034 A 
BRANCH  46  60
ATOM     60  C   UNL A   1      38.518  30.453  30.538  1.00  0.00     0.023 A 
ATOM     61  C   UNL A   1      38.303  30.034  31.868  1.00  0.00     0.012 A 
ATOM     62  C   UNL A   1      37.555  31.263  29.908  1.00  0.00     0.148 A 
ATOM     63  C   UNL A   1      37.132  30.372  32.543  1.00  0.00     0.002 A 
ATOM     64  C   UNL A   1      36.412  31.641  30.606  1.00  0.00     0.091 A 
ATOM     65  F   UNL A   1      37.760  31.634  28.636  1.00  0.00    -0.205 F 
ATOM     66  C   UNL A   1      36.191  31.183  31.916  1.00  0.00     0.022 A 
BRANCH  64  67
ATOM     67  S   UNL A   1      35.181  32.753  29.919  1.00  0.00     0.127 S 
ATOM     68  O   UNL A   1      34.614  31.939  28.845  1.00  0.00    -0.237 OA
ATOM     69  O   UNL A   1      34.287  32.966  31.059  1.00  0.00    -0.237 OA
ATOM     70  O   UNL A   1      35.909  33.939  29.489  1.00  0.00    -0.744 OA
ENDBRANCH  64  67
ENDBRANCH  46  60
BRANCH  47  71
ATOM     71  C   UNL A   1      46.678  27.210  25.706  1.00  0.00     0.023 A 
ATOM     72  C   UNL A   1      47.396  26.160  26.308  1.00  0.00     0.012 A 
ATOM     73  C   UNL A   1      47.067  27.668  24.431  1.00  0.00     0.148 A 
ATOM     74  C   UNL A   1      48.485  25.577  25.658  1.00  0.00     0.002 A 
ATOM     75  C   UNL A   1      48.118  27.046  23.765  1.00  0.00     0.091 A 
ATOM     76  F   UNL A   1      46.368  28.667  23.876  1.00  0.00    -0.205 F 
ATOM     77  C   UNL A   1      48.837  26.010  24.382  1.00  0.00     0.022 A 
BRANCH  75  78
ATOM     78  S   UNL A   1      48.556  27.432  22.065  1.00  0.00     0.127 S 
ATOM     79  O   UNL A   1      47.398  28.207  21.626  1.00  0.00    -0.237 OA
ATOM     80  O   UNL A   1      49.784  28.206  22.246  1.00  0.00    -0.237 OA
ATOM     81  O   UNL A   1      48.739  26.150  21.400  1.00  0.00    -0.744 OA
ENDBRANCH  75  78
ENDBRANCH  47  71
BRANCH  59  82
ATOM     82  C   UNL A   1      45.253  32.865  29.596  1.00  0.00     0.023 A 
ATOM     83  C   UNL A   1      46.065  32.805  30.746  1.00  0.00     0.012 A 
ATOM     84  C   UNL A   1      45.304  34.005  28.770  1.00  0.00     0.148 A 
ATOM     85  C   UNL A   1      46.905  33.868  31.075  1.00  0.00     0.002 A 
ATOM     86  C   UNL A   1      46.182  35.038  29.077  1.00  0.00     0.091 A 
ATOM     87  F   UNL A   1      44.513  34.047  27.689  1.00  0.00    -0.205 F 
ATOM     88  C   UNL A   1      46.975  34.976  30.235  1.00  0.00     0.022 A 
BRANCH  86  89
ATOM     89  S   UNL A   1      46.425  36.454  27.999  1.00  0.00     0.127 S 
ATOM     90  O   UNL A   1      45.108  37.089  28.039  1.00  0.00    -0.237 OA
ATOM     91  O   UNL A   1      47.480  37.193  28.693  1.00  0.00    -0.237 OA
ATOM     92  O   UNL A   1      46.815  35.914  26.703  1.00  0.00    -0.744 OA
ENDBRANCH  86  89
ENDBRANCH  59  82
ENDBRANCH  33  34
ENDBRANCH  25  28
ENDBRANCH   1  24
TORSDOF 14
ENDMDL
MODEL 3
REMARK VINA RESULT:     -12.4      1.266      7.706
REMARK SMILES Cc1cc(Br)cc2c1O[C@H](C(F)(F)F)C(C(=O)NCCCNC(=O)c1ccc(-c3c4nc(c(-c5cccc(S(=O)(=O)[O-])c5F)c5ccc([nH]5)c(-c5cccc(S(=O)(=O)[O-])c5F)c5nc(c(-c6cccc(S(=O)(=O)[O-])c6F)c6ccc3[nH]6)C=C5)C=C4)cc1)=C2
REMARK SMILES IDX 21 1 20 2 19 3 18 4 16 5 17 6 15 8 1 9 2 10 3 11 8 12 4 13
REMARK SMILES IDX 7 14 9 15 5 16 6 17 88 18 10 19 11 20 12 21 13 22 14 23
REMARK SMILES IDX 22 24 23 25 24 27 25 28 26 29 87 30 27 31 86 32 28 33 29 34
REMARK SMILES IDX 30 35 80 36 31 37 85 38 79 39 81 40 32 41 84 42 78 43 77 44
REMARK SMILES IDX 33 46 65 47 45 48 64 49 46 50 49 51 63 52 82 53 47 54 48 55
REMARK SMILES IDX 62 57 83 58 50 59 34 60 35 61 43 62 36 63 38 64 44 65 37 66
REMARK SMILES IDX 39 67 40 68 41 69 42 70 66 71 67 72 75 73 68 74 70 75 76 76
REMARK SMILES IDX 69 77 71 78 72 79 73 80 74 81 51 82 52 83 60 84 53 85 55 86
REMARK SMILES IDX 61 87 54 88 56 89 57 90 58 91 59 92
REMARK H PARENT 18 7 22 26 81 45 49 56
REMARK Flexibility Score: inf
ROOT
ATOM      1  C   UNL A   1      32.874  29.145  25.658  1.00  0.00     0.118 C 
ENDROOT
BRANCH   1   2
ATOM      2  C   UNL A   1      33.216  28.966  24.186  1.00  0.00     0.042 C 
BRANCH   2   3
ATOM      3  C   UNL A   1      32.068  28.350  23.404  1.00  0.00     0.118 C 
BRANCH   3   4
ATOM      4  N   UNL A   1      32.535  27.521  22.303  1.00  0.00    -0.352 N 
ATOM      5  C   UNL A   1      33.019  26.268  22.142  1.00  0.00     0.251 C 
ATOM      6  O   UNL A   1      33.278  25.947  20.978  1.00  0.00    -0.270 OA
ATOM      7  H   UNL A   1      32.489  28.002  21.445  1.00  0.00     0.163 HD
BRANCH   5   8
ATOM      8  C   UNL A   1      33.237  25.287  23.244  1.00  0.00     0.067 C 
ATOM      9  C   UNL A   1      33.191  22.589  27.620  1.00  0.00     0.048 C 
ATOM     10  C   UNL A   1      34.086  22.659  26.415  1.00  0.00    -0.007 A 
ATOM     11  C   UNL A   1      35.152  21.761  26.284  1.00  0.00     0.023 A 
ATOM     12  C   UNL A   1      33.836  23.561  25.372  1.00  0.00     0.130 A 
ATOM     13  C   UNL A   1      35.968  21.800  25.152  1.00  0.00     0.019 A 
ATOM     14  C   UNL A   1      34.654  23.605  24.238  1.00  0.00     0.019 A 
ATOM     15  O   UNL A   1      32.789  24.423  25.536  1.00  0.00    -0.475 OA
ATOM     16  Br  UNL A   1      37.412  20.588  25.002  1.00  0.00    -0.051 Br
ATOM     17  C   UNL A   1      35.729  22.719  24.131  1.00  0.00     0.027 A 
ATOM     18  C   UNL A   1      34.392  24.597  23.201  1.00  0.00     0.025 C 
ATOM     19  C   UNL A   1      32.243  25.025  24.337  1.00  0.00     0.314 C 
BRANCH  19  20
ATOM     20  C   UNL A   1      31.042  24.188  23.855  1.00  0.00     0.429 C 
ATOM     21  F   UNL A   1      30.002  24.992  23.524  1.00  0.00    -0.167 F 
ATOM     22  F   UNL A   1      31.323  23.452  22.752  1.00  0.00    -0.167 F 
ATOM     23  F   UNL A   1      30.600  23.321  24.794  1.00  0.00    -0.167 F 
ENDBRANCH  19  20
ENDBRANCH   5   8
ENDBRANCH   3   4
ENDBRANCH   2   3
ENDBRANCH   1   2
BRANCH   1  24
ATOM     24  N   UNL A   1      32.580  30.542  25.980  1.00  0.00    -0.352 N 
ATOM     25  C   UNL A   1      33.108  31.355  26.950  1.00  0.00     0.251 C 
ATOM     26  H   UNL A   1      31.896  30.964  25.410  1.00  0.00     0.163 HD
ATOM     27  O   UNL A   1      32.532  32.399  27.250  1.00  0.00    -0.269 OA
BRANCH  25  28
ATOM     28  C   UNL A   1      34.364  30.976  27.623  1.00  0.00     0.039 A 
ATOM     29  C   UNL A   1      35.345  31.943  27.852  1.00  0.00     0.014 A 
ATOM     30  C   UNL A   1      34.575  29.651  28.007  1.00  0.00     0.014 A 
ATOM     31  C   UNL A   1      36.516  31.586  28.523  1.00  0.00     0.010 A 
ATOM     32  C   UNL A   1      35.685  29.323  28.770  1.00  0.00     0.010 A 
ATOM     33  C   UNL A   1      36.680  30.279  29.013  1.00  0.00    -0.014 A 
BRANCH  33  34
ATOM     34  C   UNL A   1      37.896  29.872  29.752  1.00  0.00     0.031 A 
ATOM     35  C   UNL A   1      38.153  30.422  31.128  1.00  0.00     0.074 A 
ATOM     36  C   UNL A   1      38.801  29.073  29.156  1.00  0.00     0.049 A 
ATOM     37  N   UNL A   1      39.175  30.221  31.918  1.00  0.00    -0.248 NA
ATOM     38  C   UNL A   1      37.145  31.348  31.676  1.00  0.00     0.031 C 
ATOM     39  C   UNL A   1      38.690  28.540  27.797  1.00  0.00     0.029 A 
ATOM     40  N   UNL A   1      39.996  28.580  29.611  1.00  0.00    -0.354 N 
ATOM     41  C   UNL A   1      38.945  31.008  33.039  1.00  0.00     0.074 A 
ATOM     42  C   UNL A   1      37.724  31.744  32.798  1.00  0.00     0.031 C 
ATOM     43  C   UNL A   1      39.755  27.766  27.542  1.00  0.00     0.029 A 
ATOM     44  C   UNL A   1      40.639  27.773  28.704  1.00  0.00     0.049 A 
ATOM     45  H   UNL A   1      40.359  28.784  30.504  1.00  0.00     0.167 HD
ATOM     46  C   UNL A   1      39.656  31.075  34.188  1.00  0.00     0.034 A 
ATOM     47  C   UNL A   1      41.805  27.105  28.803  1.00  0.00     0.034 A 
ATOM     48  C   UNL A   1      40.846  30.310  34.430  1.00  0.00     0.049 A 
ATOM     49  C   UNL A   1      42.581  27.187  30.088  1.00  0.00     0.074 A 
ATOM     50  C   UNL A   1      41.611  30.251  35.581  1.00  0.00     0.029 A 
ATOM     51  N   UNL A   1      41.448  29.471  33.503  1.00  0.00    -0.354 N 
ATOM     52  N   UNL A   1      42.279  27.828  31.194  1.00  0.00    -0.248 NA
ATOM     53  C   UNL A   1      43.840  26.434  30.156  1.00  0.00     0.031 C 
ATOM     54  C   UNL A   1      42.690  29.394  35.340  1.00  0.00     0.029 A 
ATOM     55  C   UNL A   1      42.583  28.899  34.049  1.00  0.00     0.049 A 
ATOM     56  H   UNL A   1      41.116  29.307  32.591  1.00  0.00     0.167 HD
ATOM     57  C   UNL A   1      43.297  27.539  32.095  1.00  0.00     0.074 A 
ATOM     58  C   UNL A   1      44.213  26.645  31.413  1.00  0.00     0.031 C 
ATOM     59  C   UNL A   1      43.465  27.983  33.365  1.00  0.00     0.034 A 
BRANCH  46  60
ATOM     60  C   UNL A   1      39.114  31.955  35.287  1.00  0.00     0.023 A 
ATOM     61  C   UNL A   1      39.243  33.356  35.175  1.00  0.00     0.012 A 
ATOM     62  C   UNL A   1      38.464  31.412  36.411  1.00  0.00     0.148 A 
ATOM     63  C   UNL A   1      38.780  34.199  36.185  1.00  0.00     0.002 A 
ATOM     64  C   UNL A   1      37.958  32.262  37.390  1.00  0.00     0.091 A 
ATOM     65  F   UNL A   1      38.371  30.078  36.517  1.00  0.00    -0.205 F 
ATOM     66  C   UNL A   1      38.130  33.652  37.287  1.00  0.00     0.022 A 
BRANCH  64  67
ATOM     67  S   UNL A   1      37.028  31.664  38.805  1.00  0.00     0.127 S 
ATOM     68  O   UNL A   1      37.992  31.846  39.889  1.00  0.00    -0.237 OA
ATOM     69  O   UNL A   1      35.892  32.586  38.839  1.00  0.00    -0.237 OA
ATOM     70  O   UNL A   1      36.680  30.283  38.500  1.00  0.00    -0.744 OA
ENDBRANCH  64  67
ENDBRANCH  46  60
BRANCH  47  71
ATOM     71  C   UNL A   1      42.230  26.216  27.685  1.00  0.00     0.023 A 
ATOM     72  C   UNL A   1      43.196  26.683  26.773  1.00  0.00     0.012 A 
ATOM     73  C   UNL A   1      41.772  24.887  27.580  1.00  0.00     0.148 A 
ATOM     74  C   UNL A   1      43.696  25.848  25.773  1.00  0.00     0.002 A 
ATOM     75  C   UNL A   1      42.314  24.043  26.617  1.00  0.00     0.091 A 
ATOM     76  F   UNL A   1      40.853  24.463  28.459  1.00  0.00    -0.205 F 
ATOM     77  C   UNL A   1      43.265  24.525  25.704  1.00  0.00     0.022 A 
BRANCH  75  78
ATOM     78  S   UNL A   1      41.934  22.289  26.536  1.00  0.00     0.127 S 
ATOM     79  O   UNL A   1      42.704  21.868  25.368  1.00  0.00    -0.237 OA
ATOM     80  O   UNL A   1      42.450  21.815  27.820  1.00  0.00    -0.237 OA
ATOM     81  O   UNL A   1      40.487  22.202  26.395  1.00  0.00    -0.744 OA
ENDBRANCH  75  78
ENDBRANCH  47  71
BRANCH  59  82
ATOM     82  C   UNL A   1      44.689  27.526  34.117  1.00  0.00     0.023 A 
ATOM     83  C   UNL A   1      45.840  28.337  34.124  1.00  0.00     0.012 A 
ATOM     84  C   UNL A   1      44.653  26.365  34.916  1.00  0.00     0.148 A 
ATOM     85  C   UNL A   1      46.945  27.992  34.902  1.00  0.00     0.002 A 
ATOM     86  C   UNL A   1      45.738  26.056  35.728  1.00  0.00     0.091 A 
ATOM     87  F   UNL A   1      43.553  25.600  34.884  1.00  0.00    -0.205 F 
ATOM     88  C   UNL A   1      46.888  26.862  35.715  1.00  0.00     0.022 A 
BRANCH  86  89
ATOM     89  S   UNL A   1      45.717  24.686  36.890  1.00  0.00     0.127 S 
ATOM     90  O   UNL A   1      45.658  23.534  35.992  1.00  0.00    -0.237 OA
ATOM     91  O   UNL A   1      46.994  24.853  37.586  1.00  0.00    -0.237 OA
ATOM     92  O   UNL A   1      44.540  24.883  37.727  1.00  0.00    -0.744 OA
ENDBRANCH  86  89
ENDBRANCH  59  82
ENDBRANCH  33  34
ENDBRANCH  25  28
ENDBRANCH   1  24
TORSDOF 14
ENDMDL
