MODEL 1
REMARK VINA RESULT:     -12.0      0.000      0.000
REMARK SMILES Cc1ccc(C#N)cc1Nc1cc(C)c(N)c(C(=O)NCCCNC(=O)c2ccc(-c3c4nc(c(-c5cccc(S(=O)(=O)[O-])c5F)c5ccc([nH]5)c(-c5cccc(S(=O)(=O)[O-])c5F)c5nc(c(-c6cccc(S(=O)(=O)[O-])c6F)c6ccc3[nH]6)C=C5)C=C4)cc2)c1
REMARK SMILES IDX 22 1 21 2 20 3 18 4 19 5 17 7 11 8 12 9 90 10 13 11 14 12
REMARK SMILES IDX 15 13 10 14 9 16 1 17 2 18 3 19 4 20 8 21 5 22 6 23 7 24
REMARK SMILES IDX 16 25 23 28 24 29 25 30 26 32 27 33 28 34 89 35 29 36 88 37
REMARK SMILES IDX 30 38 31 39 32 40 82 41 33 42 87 43 81 44 83 45 34 46 86 47
REMARK SMILES IDX 80 48 79 49 35 51 67 52 47 53 66 54 48 55 51 56 65 57 84 58
REMARK SMILES IDX 49 59 50 60 64 62 85 63 52 64 36 65 37 66 45 67 38 68 40 69
REMARK SMILES IDX 46 70 39 71 41 72 42 73 43 74 44 75 68 76 69 77 77 78 70 79
REMARK SMILES IDX 72 80 78 81 71 82 73 83 74 84 75 85 76 86 53 87 54 88 62 89
REMARK SMILES IDX 55 90 57 91 63 92 56 93 58 94 59 95 60 96 61 97
REMARK H PARENT 20 6 10 15 16 26 16 27 24 31 83 50 51 61
REMARK Flexibility Score: inf
ROOT
ATOM      1  C   UNL A   1      34.667  21.705  26.877  1.00  0.00     0.042 C 
ENDROOT
BRANCH   1   2
ATOM      2  C   UNL A   1      34.083  22.786  27.784  1.00  0.00     0.118 C 
BRANCH   2   3
ATOM      3  N   UNL A   1      32.639  22.661  27.851  1.00  0.00    -0.352 N 
ATOM      4  C   UNL A   1      31.612  22.899  26.972  1.00  0.00     0.253 C 
ATOM      5  O   UNL A   1      30.476  22.740  27.432  1.00  0.00    -0.269 OA
ATOM      6  H   UNL A   1      32.324  22.331  28.723  1.00  0.00     0.163 HD
BRANCH   4   7
ATOM      7  C   UNL A   1      31.789  23.279  25.527  1.00  0.00     0.065 A 
ATOM      8  C   UNL A   1      32.200  24.970  23.812  1.00  0.00     0.040 A 
ATOM      9  C   UNL A   1      32.283  23.969  22.851  1.00  0.00     0.031 A 
ATOM     10  C   UNL A   1      31.873  24.614  25.121  1.00  0.00     0.042 A 
ATOM     11  C   UNL A   1      32.097  22.615  23.190  1.00  0.00    -0.025 A 
ATOM     12  C   UNL A   1      32.192  21.620  22.064  1.00  0.00     0.047 C 
ATOM     13  C   UNL A   1      31.864  22.255  24.537  1.00  0.00     0.047 A 
BRANCH   8  14
ATOM     14  N   UNL A   1      32.575  26.292  23.506  1.00  0.00    -0.355 N 
ATOM     15  H   UNL A   1      32.893  26.450  22.588  1.00  0.00     0.167 HD
BRANCH  14  16
ATOM     16  C   UNL A   1      32.552  27.422  24.361  1.00  0.00     0.043 A 
ATOM     17  C   UNL A   1      30.257  28.158  23.475  1.00  0.00     0.046 C 
ATOM     18  C   UNL A   1      31.449  28.301  24.384  1.00  0.00    -0.027 A 
ATOM     19  C   UNL A   1      31.459  29.414  25.249  1.00  0.00     0.007 A 
ATOM     20  C   UNL A   1      32.535  29.657  26.101  1.00  0.00     0.020 A 
ATOM     21  C   UNL A   1      33.618  27.675  25.249  1.00  0.00     0.045 A 
ATOM     22  C   UNL A   1      33.621  28.787  26.100  1.00  0.00     0.054 A 
BRANCH  22  23
ATOM     23  C   UNL A   1      34.752  29.049  26.943  1.00  0.00     0.099 C 
ATOM     24  N   UNL A   1      35.659  29.277  27.628  1.00  0.00    -0.192 NA
ENDBRANCH  22  23
ENDBRANCH  14  16
ENDBRANCH   8  14
BRANCH  13  25
ATOM     25  N   UNL A   1      31.874  20.904  24.908  1.00  0.00    -0.398 N 
ATOM     26  H   UNL A   1      32.205  20.223  24.278  1.00  0.00     0.156 HD
ATOM     27  H   UNL A   1      31.551  20.634  25.798  1.00  0.00     0.156 HD
ENDBRANCH  13  25
ENDBRANCH   4   7
ENDBRANCH   2   3
ENDBRANCH   1   2
BRANCH   1  28
ATOM     28  C   UNL A   1      35.813  22.229  26.019  1.00  0.00     0.118 C 
BRANCH  28  29
ATOM     29  N   UNL A   1      36.817  21.200  25.761  1.00  0.00    -0.352 N 
ATOM     30  C   UNL A   1      38.189  21.273  25.762  1.00  0.00     0.251 C 
ATOM     31  H   UNL A   1      36.451  20.310  25.552  1.00  0.00     0.163 HD
ATOM     32  O   UNL A   1      38.842  20.358  25.270  1.00  0.00    -0.269 OA
BRANCH  30  33
ATOM     33  C   UNL A   1      38.864  22.453  26.336  1.00  0.00     0.039 A 
ATOM     34  C   UNL A   1      38.379  23.734  26.076  1.00  0.00     0.014 A 
ATOM     35  C   UNL A   1      39.990  22.283  27.147  1.00  0.00     0.014 A 
ATOM     36  C   UNL A   1      39.128  24.839  26.445  1.00  0.00     0.010 A 
ATOM     37  C   UNL A   1      40.673  23.405  27.628  1.00  0.00     0.010 A 
ATOM     38  C   UNL A   1      40.277  24.693  27.238  1.00  0.00    -0.014 A 
BRANCH  38  39
ATOM     39  C   UNL A   1      41.010  25.915  27.659  1.00  0.00     0.031 A 
ATOM     40  C   UNL A   1      42.415  26.183  27.194  1.00  0.00     0.074 A 
ATOM     41  C   UNL A   1      40.360  26.826  28.413  1.00  0.00     0.049 A 
ATOM     42  N   UNL A   1      43.149  27.248  27.396  1.00  0.00    -0.248 NA
ATOM     43  C   UNL A   1      43.092  25.137  26.409  1.00  0.00     0.031 C 
ATOM     44  C   UNL A   1      39.003  26.664  28.944  1.00  0.00     0.029 A 
ATOM     45  N   UNL A   1      40.732  28.075  28.838  1.00  0.00    -0.354 N 
ATOM     46  C   UNL A   1      44.374  26.990  26.793  1.00  0.00     0.074 A 
ATOM     47  C   UNL A   1      44.297  25.663  26.228  1.00  0.00     0.031 C 
ATOM     48  C   UNL A   1      38.634  27.791  29.566  1.00  0.00     0.029 A 
ATOM     49  C   UNL A   1      39.749  28.730  29.542  1.00  0.00     0.049 A 
ATOM     50  H   UNL A   1      41.618  28.466  28.657  1.00  0.00     0.167 HD
ATOM     51  C   UNL A   1      45.455  27.797  26.705  1.00  0.00     0.034 A 
ATOM     52  C   UNL A   1      39.739  29.946  30.120  1.00  0.00     0.034 A 
ATOM     53  C   UNL A   1      45.515  29.130  27.237  1.00  0.00     0.049 A 
ATOM     54  C   UNL A   1      40.956  30.814  30.013  1.00  0.00     0.074 A 
ATOM     55  C   UNL A   1      46.557  30.037  27.150  1.00  0.00     0.029 A 
ATOM     56  N   UNL A   1      44.504  29.744  27.957  1.00  0.00    -0.354 N 
ATOM     57  N   UNL A   1      42.073  30.577  29.373  1.00  0.00    -0.248 NA
ATOM     58  C   UNL A   1      40.913  32.118  30.690  1.00  0.00     0.031 C 
ATOM     59  C   UNL A   1      46.188  31.188  27.845  1.00  0.00     0.029 A 
ATOM     60  C   UNL A   1      44.902  31.014  28.330  1.00  0.00     0.049 A 
ATOM     61  H   UNL A   1      43.633  29.337  28.170  1.00  0.00     0.167 HD
ATOM     62  C   UNL A   1      42.858  31.707  29.548  1.00  0.00     0.074 A 
ATOM     63  C   UNL A   1      42.087  32.635  30.350  1.00  0.00     0.031 C 
ATOM     64  C   UNL A   1      44.108  31.946  29.088  1.00  0.00     0.034 A 
BRANCH  51  65
ATOM     65  C   UNL A   1      46.668  27.299  25.968  1.00  0.00     0.023 A 
ATOM     66  C   UNL A   1      46.808  27.584  24.596  1.00  0.00     0.012 A 
ATOM     67  C   UNL A   1      47.728  26.682  26.663  1.00  0.00     0.148 A 
ATOM     68  C   UNL A   1      47.988  27.265  23.925  1.00  0.00     0.002 A 
ATOM     69  C   UNL A   1      48.909  26.390  25.994  1.00  0.00     0.091 A 
ATOM     70  F   UNL A   1      47.567  26.420  27.968  1.00  0.00    -0.205 F 
ATOM     71  C   UNL A   1      49.043  26.682  24.625  1.00  0.00     0.022 A 
BRANCH  69  72
ATOM     72  S   UNL A   1      50.341  25.675  26.809  1.00  0.00     0.127 S 
ATOM     73  O   UNL A   1      51.259  25.496  25.684  1.00  0.00    -0.237 OA
ATOM     74  O   UNL A   1      50.721  26.733  27.744  1.00  0.00    -0.237 OA
ATOM     75  O   UNL A   1      49.880  24.441  27.430  1.00  0.00    -0.744 OA
ENDBRANCH  69  72
ENDBRANCH  51  65
BRANCH  52  76
ATOM     76  C   UNL A   1      38.510  30.408  30.819  1.00  0.00     0.023 A 
ATOM     77  C   UNL A   1      38.352  30.149  32.192  1.00  0.00     0.012 A 
ATOM     78  C   UNL A   1      37.544  31.177  30.141  1.00  0.00     0.148 A 
ATOM     79  C   UNL A   1      37.247  30.650  32.882  1.00  0.00     0.002 A 
ATOM     80  C   UNL A   1      36.466  31.702  30.841  1.00  0.00     0.091 A 
ATOM     81  F   UNL A   1      37.726  31.413  28.834  1.00  0.00    -0.205 F 
ATOM     82  C   UNL A   1      36.312  31.435  32.210  1.00  0.00     0.022 A 
BRANCH  80  83
ATOM     83  S   UNL A   1      35.256  32.789  30.081  1.00  0.00     0.127 S 
ATOM     84  O   UNL A   1      34.365  33.071  31.204  1.00  0.00    -0.237 OA
ATOM     85  O   UNL A   1      36.090  33.914  29.657  1.00  0.00    -0.237 OA
ATOM     86  O   UNL A   1      34.663  32.026  28.991  1.00  0.00    -0.744 OA
ENDBRANCH  80  83
ENDBRANCH  52  76
BRANCH  64  87
ATOM     87  C   UNL A   1      44.743  33.272  29.389  1.00  0.00     0.023 A 
ATOM     88  C   UNL A   1      45.565  33.409  30.523  1.00  0.00     0.012 A 
ATOM     89  C   UNL A   1      44.664  34.320  28.450  1.00  0.00     0.148 A 
ATOM     90  C   UNL A   1      46.311  34.570  30.712  1.00  0.00     0.002 A 
ATOM     91  C   UNL A   1      45.434  35.460  28.629  1.00  0.00     0.091 A 
ATOM     92  F   UNL A   1      43.872  34.156  27.379  1.00  0.00    -0.205 F 
ATOM     93  C   UNL A   1      46.260  35.587  29.759  1.00  0.00     0.022 A 
BRANCH  91  94
ATOM     94  S   UNL A   1      45.484  36.793  27.427  1.00  0.00     0.127 S 
ATOM     95  O   UNL A   1      46.121  36.137  26.284  1.00  0.00    -0.237 OA
ATOM     96  O   UNL A   1      44.065  37.096  27.244  1.00  0.00    -0.237 OA
ATOM     97  O   UNL A   1      46.267  37.860  28.034  1.00  0.00    -0.744 OA
ENDBRANCH  91  94
ENDBRANCH  64  87
ENDBRANCH  38  39
ENDBRANCH  30  33
ENDBRANCH  28  29
ENDBRANCH   1  28
TORSDOF 17
ENDMDL
MODEL 2
REMARK VINA RESULT:     -11.9      4.805     10.189
REMARK SMILES Cc1ccc(C#N)cc1Nc1cc(C)c(N)c(C(=O)NCCCNC(=O)c2ccc(-c3c4nc(c(-c5cccc(S(=O)(=O)[O-])c5F)c5ccc([nH]5)c(-c5cccc(S(=O)(=O)[O-])c5F)c5nc(c(-c6cccc(S(=O)(=O)[O-])c6F)c6ccc3[nH]6)C=C5)C=C4)cc2)c1
REMARK SMILES IDX 22 1 21 2 20 3 18 4 19 5 17 7 11 8 12 9 90 10 13 11 14 12
REMARK SMILES IDX 15 13 10 14 9 16 1 17 2 18 3 19 4 20 8 21 5 22 6 23 7 24
REMARK SMILES IDX 16 25 23 28 24 29 25 30 26 32 27 33 28 34 89 35 29 36 88 37
REMARK SMILES IDX 30 38 31 39 32 40 82 41 33 42 87 43 81 44 83 45 34 46 86 47
REMARK SMILES IDX 80 48 79 49 35 51 67 52 47 53 66 54 48 55 51 56 65 57 84 58
REMARK SMILES IDX 49 59 50 60 64 62 85 63 52 64 36 65 37 66 45 67 38 68 40 69
REMARK SMILES IDX 46 70 39 71 41 72 42 73 43 74 44 75 68 76 69 77 77 78 70 79
REMARK SMILES IDX 72 80 78 81 71 82 73 83 74 84 75 85 76 86 53 87 54 88 62 89
REMARK SMILES IDX 55 90 57 91 63 92 56 93 58 94 59 95 60 96 61 97
REMARK H PARENT 20 6 10 15 16 26 16 27 24 31 83 50 51 61
REMARK Flexibility Score: inf
ROOT
ATOM      1  C   UNL A   1      31.532  28.440  27.078  1.00  0.00     0.042 C 
ENDROOT
BRANCH   1   2
ATOM      2  C   UNL A   1      31.676  26.936  26.859  1.00  0.00     0.118 C 
BRANCH   2   3
ATOM      3  N   UNL A   1      31.057  26.548  25.605  1.00  0.00    -0.352 N 
ATOM      4  C   UNL A   1      31.269  25.537  24.702  1.00  0.00     0.253 C 
ATOM      5  O   UNL A   1      30.566  25.581  23.686  1.00  0.00    -0.269 OA
ATOM      6  H   UNL A   1      30.319  27.144  25.343  1.00  0.00     0.163 HD
BRANCH   4   7
ATOM      7  C   UNL A   1      32.233  24.398  24.897  1.00  0.00     0.065 A 
ATOM      8  C   UNL A   1      32.664  22.031  25.323  1.00  0.00     0.040 A 
ATOM      9  C   UNL A   1      34.019  22.243  25.099  1.00  0.00     0.031 A 
ATOM     10  C   UNL A   1      31.804  23.130  25.299  1.00  0.00     0.042 A 
ATOM     11  C   UNL A   1      34.519  23.524  24.799  1.00  0.00    -0.025 A 
ATOM     12  C   UNL A   1      36.006  23.637  24.594  1.00  0.00     0.047 C 
ATOM     13  C   UNL A   1      33.625  24.614  24.679  1.00  0.00     0.047 A 
BRANCH   8  14
ATOM     14  N   UNL A   1      32.149  20.726  25.430  1.00  0.00    -0.355 N 
ATOM     15  H   UNL A   1      31.539  20.561  26.186  1.00  0.00     0.167 HD
BRANCH  14  16
ATOM     16  C   UNL A   1      32.404  19.619  24.583  1.00  0.00     0.043 A 
ATOM     17  C   UNL A   1      31.803  20.972  22.485  1.00  0.00     0.046 C 
ATOM     18  C   UNL A   1      32.276  19.724  23.182  1.00  0.00    -0.027 A 
ATOM     19  C   UNL A   1      32.541  18.603  22.369  1.00  0.00     0.007 A 
ATOM     20  C   UNL A   1      32.945  17.389  22.922  1.00  0.00     0.020 A 
ATOM     21  C   UNL A   1      32.837  18.388  25.117  1.00  0.00     0.045 A 
ATOM     22  C   UNL A   1      33.091  17.278  24.301  1.00  0.00     0.054 A 
BRANCH  22  23
ATOM     23  C   UNL A   1      33.468  16.023  24.885  1.00  0.00     0.099 C 
ATOM     24  N   UNL A   1      33.770  15.017  25.374  1.00  0.00    -0.192 NA
ENDBRANCH  22  23
ENDBRANCH  14  16
ENDBRANCH   8  14
BRANCH  13  25
ATOM     25  N   UNL A   1      34.089  25.843  24.191  1.00  0.00    -0.398 N 
ATOM     26  H   UNL A   1      35.043  25.958  23.976  1.00  0.00     0.156 HD
ATOM     27  H   UNL A   1      33.463  26.591  24.063  1.00  0.00     0.156 HD
ENDBRANCH  13  25
ENDBRANCH   4   7
ENDBRANCH   2   3
ENDBRANCH   1   2
BRANCH   1  28
ATOM     28  C   UNL A   1      32.458  29.246  26.173  1.00  0.00     0.118 C 
BRANCH  28  29
ATOM     29  N   UNL A   1      32.241  30.684  26.311  1.00  0.00    -0.352 N 
ATOM     30  C   UNL A   1      32.915  31.619  27.058  1.00  0.00     0.251 C 
ATOM     31  H   UNL A   1      31.490  31.041  25.783  1.00  0.00     0.163 HD
ATOM     32  O   UNL A   1      32.415  32.726  27.233  1.00  0.00    -0.269 OA
BRANCH  30  33
ATOM     33  C   UNL A   1      34.221  31.282  27.658  1.00  0.00     0.039 A 
ATOM     34  C   UNL A   1      34.504  29.968  28.027  1.00  0.00     0.014 A 
ATOM     35  C   UNL A   1      35.176  32.284  27.851  1.00  0.00     0.014 A 
ATOM     36  C   UNL A   1      35.641  29.694  28.771  1.00  0.00     0.010 A 
ATOM     37  C   UNL A   1      36.383  31.977  28.488  1.00  0.00     0.010 A 
ATOM     38  C   UNL A   1      36.604  30.690  28.999  1.00  0.00    -0.014 A 
BRANCH  38  39
ATOM     39  C   UNL A   1      37.835  30.329  29.749  1.00  0.00     0.031 A 
ATOM     40  C   UNL A   1      38.056  30.797  31.161  1.00  0.00     0.074 A 
ATOM     41  C   UNL A   1      38.725  29.503  29.161  1.00  0.00     0.049 A 
ATOM     42  N   UNL A   1      39.030  30.486  31.978  1.00  0.00    -0.248 NA
ATOM     43  C   UNL A   1      37.073  31.730  31.739  1.00  0.00     0.031 C 
ATOM     44  C   UNL A   1      38.629  29.004  27.786  1.00  0.00     0.029 A 
ATOM     45  N   UNL A   1      39.865  28.914  29.646  1.00  0.00    -0.354 N 
ATOM     46  C   UNL A   1      38.797  31.202  33.145  1.00  0.00     0.074 A 
ATOM     47  C   UNL A   1      37.596  31.978  32.934  1.00  0.00     0.031 C 
ATOM     48  C   UNL A   1      39.625  28.137  27.559  1.00  0.00     0.029 A 
ATOM     49  C   UNL A   1      40.472  28.071  28.744  1.00  0.00     0.049 A 
ATOM     50  H   UNL A   1      40.215  29.077  30.552  1.00  0.00     0.167 HD
ATOM     51  C   UNL A   1      39.510  31.196  34.294  1.00  0.00     0.034 A 
ATOM     52  C   UNL A   1      41.593  27.333  28.845  1.00  0.00     0.034 A 
ATOM     53  C   UNL A   1      40.683  30.396  34.512  1.00  0.00     0.049 A 
ATOM     54  C   UNL A   1      42.367  27.353  30.127  1.00  0.00     0.074 A 
ATOM     55  C   UNL A   1      41.440  30.291  35.666  1.00  0.00     0.029 A 
ATOM     56  N   UNL A   1      41.271  29.573  33.567  1.00  0.00    -0.354 N 
ATOM     57  N   UNL A   1      42.084  27.980  31.241  1.00  0.00    -0.248 NA
ATOM     58  C   UNL A   1      43.604  26.561  30.178  1.00  0.00     0.031 C 
ATOM     59  C   UNL A   1      42.507  29.430  35.408  1.00  0.00     0.029 A 
ATOM     60  C   UNL A   1      42.389  28.966  34.107  1.00  0.00     0.049 A 
ATOM     61  H   UNL A   1      40.942  29.440  32.649  1.00  0.00     0.167 HD
ATOM     62  C   UNL A   1      43.090  27.641  32.134  1.00  0.00     0.074 A 
ATOM     63  C   UNL A   1      43.990  26.747  31.434  1.00  0.00     0.031 C 
ATOM     64  C   UNL A   1      43.251  28.042  33.416  1.00  0.00     0.034 A 
BRANCH  51  65
ATOM     65  C   UNL A   1      39.035  32.043  35.442  1.00  0.00     0.023 A 
ATOM     66  C   UNL A   1      38.168  31.484  36.401  1.00  0.00     0.012 A 
ATOM     67  C   UNL A   1      39.561  33.334  35.647  1.00  0.00     0.148 A 
ATOM     68  C   UNL A   1      37.832  32.197  37.551  1.00  0.00     0.002 A 
ATOM     69  C   UNL A   1      39.242  34.028  36.808  1.00  0.00     0.091 A 
ATOM     70  F   UNL A   1      40.382  33.843  34.718  1.00  0.00    -0.205 F 
ATOM     71  C   UNL A   1      38.380  33.461  37.761  1.00  0.00     0.022 A 
BRANCH  69  72
ATOM     72  S   UNL A   1      39.922  35.645  37.194  1.00  0.00     0.127 S 
ATOM     73  O   UNL A   1      39.173  35.995  38.402  1.00  0.00    -0.237 OA
ATOM     74  O   UNL A   1      41.334  35.338  37.420  1.00  0.00    -0.237 OA
ATOM     75  O   UNL A   1      39.652  36.486  36.037  1.00  0.00    -0.744 OA
ENDBRANCH  69  72
ENDBRANCH  51  65
BRANCH  52  76
ATOM     76  C   UNL A   1      42.014  26.492  27.692  1.00  0.00     0.023 A 
ATOM     77  C   UNL A   1      42.895  27.018  26.731  1.00  0.00     0.012 A 
ATOM     78  C   UNL A   1      41.608  25.145  27.600  1.00  0.00     0.148 A 
ATOM     79  C   UNL A   1      43.368  26.215  25.692  1.00  0.00     0.002 A 
ATOM     80  C   UNL A   1      42.111  24.343  26.584  1.00  0.00     0.091 A 
ATOM     81  F   UNL A   1      40.774  24.670  28.534  1.00  0.00    -0.205 F 
ATOM     82  C   UNL A   1      42.985  24.877  25.625  1.00  0.00     0.022 A 
BRANCH  80  83
ATOM     83  S   UNL A   1      41.740  22.591  26.463  1.00  0.00     0.127 S 
ATOM     84  O   UNL A   1      42.350  22.074  27.685  1.00  0.00    -0.237 OA
ATOM     85  O   UNL A   1      40.277  22.596  26.457  1.00  0.00    -0.237 OA
ATOM     86  O   UNL A   1      42.351  22.138  25.220  1.00  0.00    -0.744 OA
ENDBRANCH  80  83
ENDBRANCH  52  76
BRANCH  64  87
ATOM     87  C   UNL A   1      44.418  27.509  34.195  1.00  0.00     0.023 A 
ATOM     88  C   UNL A   1      45.565  28.306  34.364  1.00  0.00     0.012 A 
ATOM     89  C   UNL A   1      44.297  26.295  34.901  1.00  0.00     0.148 A 
ATOM     90  C   UNL A   1      46.574  27.907  35.239  1.00  0.00     0.002 A 
ATOM     91  C   UNL A   1      45.291  25.920  35.793  1.00  0.00     0.091 A 
ATOM     92  F   UNL A   1      43.190  25.560  34.717  1.00  0.00    -0.205 F 
ATOM     93  C   UNL A   1      46.430  26.724  35.964  1.00  0.00     0.022 A 
BRANCH  91  94
ATOM     94  S   UNL A   1      45.166  24.450  36.818  1.00  0.00     0.127 S 
ATOM     95  O   UNL A   1      44.395  23.553  35.956  1.00  0.00    -0.237 OA
ATOM     96  O   UNL A   1      46.570  24.076  36.990  1.00  0.00    -0.237 OA
ATOM     97  O   UNL A   1      44.486  24.861  38.038  1.00  0.00    -0.744 OA
ENDBRANCH  91  94
ENDBRANCH  64  87
ENDBRANCH  38  39
ENDBRANCH  30  33
ENDBRANCH  28  29
ENDBRANCH   1  28
TORSDOF 17
ENDMDL
MODEL 3
REMARK VINA RESULT:     -11.9      5.005     10.096
REMARK SMILES Cc1ccc(C#N)cc1Nc1cc(C)c(N)c(C(=O)NCCCNC(=O)c2ccc(-c3c4nc(c(-c5cccc(S(=O)(=O)[O-])c5F)c5ccc([nH]5)c(-c5cccc(S(=O)(=O)[O-])c5F)c5nc(c(-c6cccc(S(=O)(=O)[O-])c6F)c6ccc3[nH]6)C=C5)C=C4)cc2)c1
REMARK SMILES IDX 22 1 21 2 20 3 18 4 19 5 17 7 11 8 12 9 90 10 13 11 14 12
REMARK SMILES IDX 15 13 10 14 9 16 1 17 2 18 3 19 4 20 8 21 5 22 6 23 7 24
REMARK SMILES IDX 16 25 23 28 24 29 25 30 26 32 27 33 28 34 89 35 29 36 88 37
REMARK SMILES IDX 30 38 31 39 32 40 82 41 33 42 87 43 81 44 83 45 34 46 86 47
REMARK SMILES IDX 80 48 79 49 35 51 67 52 47 53 66 54 48 55 51 56 65 57 84 58
REMARK SMILES IDX 49 59 50 60 64 62 85 63 52 64 36 65 37 66 45 67 38 68 40 69
REMARK SMILES IDX 46 70 39 71 41 72 42 73 43 74 44 75 68 76 69 77 77 78 70 79
REMARK SMILES IDX 72 80 78 81 71 82 73 83 74 84 75 85 76 86 53 87 54 88 62 89
REMARK SMILES IDX 55 90 57 91 63 92 56 93 58 94 59 95 60 96 61 97
REMARK H PARENT 20 6 10 15 16 26 16 27 24 31 83 50 51 61
REMARK Flexibility Score: inf
ROOT
ATOM      1  C   UNL A   1      31.777  29.436  26.747  1.00  0.00     0.042 C 
ENDROOT
BRANCH   1   2
ATOM      2  C   UNL A   1      32.055  28.175  27.563  1.00  0.00     0.118 C 
BRANCH   2   3
ATOM      3  N   UNL A   1      31.050  27.165  27.285  1.00  0.00    -0.352 N 
ATOM      4  C   UNL A   1      30.883  26.222  26.303  1.00  0.00     0.253 C 
ATOM      5  O   UNL A   1      29.831  25.574  26.366  1.00  0.00    -0.269 OA
ATOM      6  H   UNL A   1      30.326  27.153  27.952  1.00  0.00     0.163 HD
BRANCH   4   7
ATOM      7  C   UNL A   1      31.890  25.912  25.229  1.00  0.00     0.065 A 
ATOM      8  C   UNL A   1      34.047  24.992  24.543  1.00  0.00     0.040 A 
ATOM      9  C   UNL A   1      33.700  25.184  23.211  1.00  0.00     0.031 A 
ATOM     10  C   UNL A   1      33.168  25.435  25.532  1.00  0.00     0.042 A 
ATOM     11  C   UNL A   1      32.467  25.763  22.853  1.00  0.00    -0.025 A 
ATOM     12  C   UNL A   1      32.208  25.939  21.380  1.00  0.00     0.047 C 
ATOM     13  C   UNL A   1      31.541  26.118  23.861  1.00  0.00     0.047 A 
BRANCH   8  14
ATOM     14  N   UNL A   1      35.187  24.241  24.887  1.00  0.00    -0.355 N 
ATOM     15  H   UNL A   1      35.987  24.759  25.135  1.00  0.00     0.167 HD
BRANCH  14  16
ATOM     16  C   UNL A   1      35.322  22.831  24.918  1.00  0.00     0.043 A 
ATOM     17  C   UNL A   1      37.885  22.988  24.961  1.00  0.00     0.046 C 
ATOM     18  C   UNL A   1      36.591  22.218  24.985  1.00  0.00    -0.027 A 
ATOM     19  C   UNL A   1      36.688  20.812  25.016  1.00  0.00     0.007 A 
ATOM     20  C   UNL A   1      35.549  20.008  24.999  1.00  0.00     0.020 A 
ATOM     21  C   UNL A   1      34.184  21.998  24.927  1.00  0.00     0.045 A 
ATOM     22  C   UNL A   1      34.292  20.602  24.951  1.00  0.00     0.054 A 
BRANCH  22  23
ATOM     23  C   UNL A   1      33.113  19.785  24.893  1.00  0.00     0.099 C 
ATOM     24  N   UNL A   1      32.165  19.119  24.864  1.00  0.00    -0.192 NA
ENDBRANCH  22  23
ENDBRANCH  14  16
ENDBRANCH   8  14
BRANCH  13  25
ATOM     25  N   UNL A   1      30.244  26.510  23.506  1.00  0.00    -0.398 N 
ATOM     26  H   UNL A   1      30.063  27.446  23.260  1.00  0.00     0.156 HD
ATOM     27  H   UNL A   1      29.513  25.850  23.503  1.00  0.00     0.156 HD
ENDBRANCH  13  25
ENDBRANCH   4   7
ENDBRANCH   2   3
ENDBRANCH   1   2
BRANCH   1  28
ATOM     28  C   UNL A   1      33.053  30.208  26.429  1.00  0.00     0.118 C 
BRANCH  28  29
ATOM     29  N   UNL A   1      32.936  31.622  26.777  1.00  0.00    -0.352 N 
ATOM     30  C   UNL A   1      33.682  32.393  27.636  1.00  0.00     0.251 C 
ATOM     31  H   UNL A   1      32.205  32.101  26.323  1.00  0.00     0.163 HD
ATOM     32  O   UNL A   1      33.262  33.493  27.979  1.00  0.00    -0.269 OA
BRANCH  30  33
ATOM     33  C   UNL A   1      34.969  31.887  28.152  1.00  0.00     0.039 A 
ATOM     34  C   UNL A   1      35.065  30.585  28.641  1.00  0.00     0.014 A 
ATOM     35  C   UNL A   1      36.095  32.715  28.145  1.00  0.00     0.014 A 
ATOM     36  C   UNL A   1      36.212  30.185  29.307  1.00  0.00     0.010 A 
ATOM     37  C   UNL A   1      37.294  32.261  28.703  1.00  0.00     0.010 A 
ATOM     38  C   UNL A   1      37.348  31.010  29.335  1.00  0.00    -0.014 A 
BRANCH  38  39
ATOM     39  C   UNL A   1      38.574  30.508  30.008  1.00  0.00     0.031 A 
ATOM     40  C   UNL A   1      38.937  30.948  31.400  1.00  0.00     0.074 A 
ATOM     41  C   UNL A   1      39.323  29.584  29.373  1.00  0.00     0.049 A 
ATOM     42  N   UNL A   1      39.918  30.526  32.157  1.00  0.00    -0.248 NA
ATOM     43  C   UNL A   1      38.108  31.989  32.031  1.00  0.00     0.031 C 
ATOM     44  C   UNL A   1      39.083  29.098  28.010  1.00  0.00     0.029 A 
ATOM     45  N   UNL A   1      40.415  28.866  29.789  1.00  0.00    -0.354 N 
ATOM     46  C   UNL A   1      39.844  31.265  33.330  1.00  0.00     0.074 A 
ATOM     47  C   UNL A   1      38.731  32.175  33.189  1.00  0.00     0.031 C 
ATOM     48  C   UNL A   1      39.955  28.121  27.728  1.00  0.00     0.029 A 
ATOM     49  C   UNL A   1      40.862  27.958  28.858  1.00  0.00     0.049 A 
ATOM     50  H   UNL A   1      40.838  28.988  30.670  1.00  0.00     0.167 HD
ATOM     51  C   UNL A   1      40.623  31.176  34.432  1.00  0.00     0.034 A 
ATOM     52  C   UNL A   1      41.894  27.094  28.894  1.00  0.00     0.034 A 
ATOM     53  C   UNL A   1      41.706  30.245  34.583  1.00  0.00     0.049 A 
ATOM     54  C   UNL A   1      42.745  27.025  30.125  1.00  0.00     0.074 A 
ATOM     55  C   UNL A   1      42.518  30.053  35.687  1.00  0.00     0.029 A 
ATOM     56  N   UNL A   1      42.134  29.359  33.609  1.00  0.00    -0.354 N 
ATOM     57  N   UNL A   1      42.607  27.681  31.249  1.00  0.00    -0.248 NA
ATOM     58  C   UNL A   1      43.882  26.094  30.104  1.00  0.00     0.031 C 
ATOM     59  C   UNL A   1      43.459  29.074  35.370  1.00  0.00     0.029 A 
ATOM     60  C   UNL A   1      43.206  28.626  34.082  1.00  0.00     0.049 A 
ATOM     61  H   UNL A   1      41.734  29.265  32.714  1.00  0.00     0.167 HD
ATOM     62  C   UNL A   1      43.622  27.227  32.080  1.00  0.00     0.074 A 
ATOM     63  C   UNL A   1      44.365  26.234  31.332  1.00  0.00     0.031 C 
ATOM     64  C   UNL A   1      43.908  27.608  33.346  1.00  0.00     0.034 A 
BRANCH  51  65
ATOM     65  C   UNL A   1      40.323  32.074  35.601  1.00  0.00     0.023 A 
ATOM     66  C   UNL A   1      41.069  33.256  35.774  1.00  0.00     0.012 A 
ATOM     67  C   UNL A   1      39.215  31.821  36.434  1.00  0.00     0.148 A 
ATOM     68  C   UNL A   1      40.714  34.177  36.759  1.00  0.00     0.002 A 
ATOM     69  C   UNL A   1      38.853  32.755  37.396  1.00  0.00     0.091 A 
ATOM     70  F   UNL A   1      38.524  30.687  36.249  1.00  0.00    -0.205 F 
ATOM     71  C   UNL A   1      39.599  33.934  37.559  1.00  0.00     0.022 A 
BRANCH  69  72
ATOM     72  S   UNL A   1      37.414  32.558  38.453  1.00  0.00     0.127 S 
ATOM     73  O   UNL A   1      36.347  33.071  37.593  1.00  0.00    -0.237 OA
ATOM     74  O   UNL A   1      37.384  31.111  38.663  1.00  0.00    -0.237 OA
ATOM     75  O   UNL A   1      37.676  33.349  39.647  1.00  0.00    -0.744 OA
ENDBRANCH  69  72
ENDBRANCH  51  65
BRANCH  52  76
ATOM     76  C   UNL A   1      42.140  26.209  27.724  1.00  0.00     0.023 A 
ATOM     77  C   UNL A   1      42.843  26.705  26.611  1.00  0.00     0.012 A 
ATOM     78  C   UNL A   1      41.752  24.855  27.753  1.00  0.00     0.148 A 
ATOM     79  C   UNL A   1      43.158  25.864  25.543  1.00  0.00     0.002 A 
ATOM     80  C   UNL A   1      42.101  24.016  26.703  1.00  0.00     0.091 A 
ATOM     81  F   UNL A   1      41.089  24.410  28.829  1.00  0.00    -0.205 F 
ATOM     82  C   UNL A   1      42.798  24.519  25.594  1.00  0.00     0.022 A 
BRANCH  80  83
ATOM     83  S   UNL A   1      41.750  22.255  26.716  1.00  0.00     0.127 S 
ATOM     84  O   UNL A   1      42.111  21.872  25.352  1.00  0.00    -0.237 OA
ATOM     85  O   UNL A   1      42.664  21.776  27.753  1.00  0.00    -0.237 OA
ATOM     86  O   UNL A   1      40.337  22.131  27.045  1.00  0.00    -0.744 OA
ENDBRANCH  80  83
ENDBRANCH  52  76
BRANCH  64  87
ATOM     87  C   UNL A   1      45.053  26.942  34.054  1.00  0.00     0.023 A 
ATOM     88  C   UNL A   1      46.335  27.519  34.000  1.00  0.00     0.012 A 
ATOM     89  C   UNL A   1      44.810  25.851  34.912  1.00  0.00     0.148 A 
ATOM     90  C   UNL A   1      47.361  27.025  34.804  1.00  0.00     0.002 A 
ATOM     91  C   UNL A   1      45.828  25.384  35.731  1.00  0.00     0.091 A 
ATOM     92  F   UNL A   1      43.576  25.325  34.939  1.00  0.00    -0.205 F 
ATOM     93  C   UNL A   1      47.104  25.970  35.679  1.00  0.00     0.022 A 
BRANCH  91  94
ATOM     94  S   UNL A   1      45.578  24.076  36.935  1.00  0.00     0.127 S 
ATOM     95  O   UNL A   1      44.484  24.621  37.741  1.00  0.00    -0.237 OA
ATOM     96  O   UNL A   1      45.207  22.944  36.087  1.00  0.00    -0.237 OA
ATOM     97  O   UNL A   1      46.842  23.926  37.642  1.00  0.00    -0.744 OA
ENDBRANCH  91  94
ENDBRANCH  64  87
ENDBRANCH  38  39
ENDBRANCH  30  33
ENDBRANCH  28  29
ENDBRANCH   1  28
TORSDOF 17
ENDMDL
