MODEL 1
REMARK VINA RESULT:     -12.0      0.000      0.000
REMARK SMILES O=C(NCCCNC(=O)c1ccc2nc(Cl)sc2c1)c1ccc(-c2c3nc(c(-c4cccc(S(=O)(=O)[O-])c4F)c4ccc([nH]4)c(-c4cccc(S(=O)(=O)[O-])c4F)c4nc(c(-c5cccc(S(=O)(=O)[O-])c5F)c5ccc2[nH]5)C=C4)C=C3)cc1
REMARK SMILES IDX 1 1 2 2 3 3 20 5 21 6 82 7 22 8 81 9 23 10 24 11 25 12 75 13
REMARK SMILES IDX 26 14 80 15 74 16 76 17 27 18 79 19 73 20 72 21 28 23 60 24
REMARK SMILES IDX 40 25 59 26 41 27 44 28 58 29 77 30 42 31 43 32 57 34 78 35
REMARK SMILES IDX 45 36 29 37 30 38 38 39 31 40 33 41 39 42 32 43 34 44 35 45
REMARK SMILES IDX 36 46 37 47 61 48 62 49 70 50 63 51 65 52 71 53 64 54 66 55
REMARK SMILES IDX 67 56 68 57 69 58 46 59 47 60 55 61 48 62 50 63 56 64 49 65
REMARK SMILES IDX 51 66 52 67 53 68 54 69 4 70 5 71 6 72 7 73 8 74 9 76 10 77
REMARK SMILES IDX 11 78 19 79 12 80 18 81 13 82 17 83 14 84 15 85 16 86
REMARK H PARENT 3 4 76 22 44 33 7 75
REMARK Flexibility Score: inf
ROOT
ATOM      1  O   UNL A   1      43.017  22.099  28.528  1.00  0.00    -0.269 OA
ATOM      2  C   UNL A   1      42.109  22.575  27.843  1.00  0.00     0.251 C 
ATOM      3  N   UNL A   1      41.349  21.696  27.122  1.00  0.00    -0.352 N 
ATOM      4  H   UNL A   1      41.413  20.763  27.434  1.00  0.00     0.163 HD
ENDROOT
BRANCH   2   5
ATOM      5  C   UNL A   1      41.880  24.040  27.853  1.00  0.00     0.039 A 
ATOM      6  C   UNL A   1      42.920  24.841  27.360  1.00  0.00     0.014 A 
ATOM      7  C   UNL A   1      40.775  24.648  28.460  1.00  0.00     0.014 A 
ATOM      8  C   UNL A   1      42.859  26.227  27.470  1.00  0.00     0.010 A 
ATOM      9  C   UNL A   1      40.704  26.044  28.554  1.00  0.00     0.010 A 
ATOM     10  C   UNL A   1      41.748  26.837  28.063  1.00  0.00    -0.014 A 
BRANCH  10  11
ATOM     11  C   UNL A   1      41.733  28.308  28.096  1.00  0.00     0.031 A 
ATOM     12  C   UNL A   1      40.387  28.951  27.988  1.00  0.00     0.074 A 
ATOM     13  C   UNL A   1      42.714  28.986  28.728  1.00  0.00     0.049 A 
ATOM     14  N   UNL A   1      39.573  29.081  28.994  1.00  0.00    -0.248 NA
ATOM     15  C   UNL A   1      39.780  29.271  26.696  1.00  0.00     0.031 C 
ATOM     16  C   UNL A   1      43.325  28.547  29.991  1.00  0.00     0.029 A 
ATOM     17  N   UNL A   1      43.176  30.269  28.551  1.00  0.00    -0.354 N 
ATOM     18  C   UNL A   1      38.340  29.449  28.484  1.00  0.00     0.074 A 
ATOM     19  C   UNL A   1      38.518  29.560  27.053  1.00  0.00     0.031 C 
ATOM     20  C   UNL A   1      43.936  29.605  30.563  1.00  0.00     0.029 A 
ATOM     21  C   UNL A   1      43.885  30.743  29.653  1.00  0.00     0.049 A 
ATOM     22  H   UNL A   1      43.021  30.796  27.734  1.00  0.00     0.167 HD
ATOM     23  C   UNL A   1      37.244  29.651  29.267  1.00  0.00     0.034 A 
ATOM     24  C   UNL A   1      43.963  32.059  29.998  1.00  0.00     0.034 A 
ATOM     25  C   UNL A   1      37.471  29.515  30.676  1.00  0.00     0.049 A 
ATOM     26  C   UNL A   1      42.608  32.230  30.654  1.00  0.00     0.074 A 
ATOM     27  C   UNL A   1      37.333  28.531  31.631  1.00  0.00     0.029 A 
ATOM     28  N   UNL A   1      38.080  30.557  31.335  1.00  0.00    -0.354 N 
ATOM     29  N   UNL A   1      42.258  31.779  31.834  1.00  0.00    -0.248 NA
ATOM     30  C   UNL A   1      41.484  32.552  29.772  1.00  0.00     0.031 C 
ATOM     31  C   UNL A   1      38.279  28.859  32.655  1.00  0.00     0.029 A 
ATOM     32  C   UNL A   1      38.950  30.011  32.246  1.00  0.00     0.049 A 
ATOM     33  H   UNL A   1      37.921  31.516  31.181  1.00  0.00     0.167 HD
ATOM     34  C   UNL A   1      40.907  31.439  31.710  1.00  0.00     0.074 A 
ATOM     35  C   UNL A   1      40.490  31.965  30.425  1.00  0.00     0.031 C 
ATOM     36  C   UNL A   1      40.238  30.599  32.555  1.00  0.00     0.034 A 
BRANCH  23  37
ATOM     37  C   UNL A   1      35.946  30.177  28.782  1.00  0.00     0.023 A 
ATOM     38  C   UNL A   1      35.194  29.333  27.941  1.00  0.00     0.012 A 
ATOM     39  C   UNL A   1      35.554  31.517  28.951  1.00  0.00     0.148 A 
ATOM     40  C   UNL A   1      34.093  29.820  27.242  1.00  0.00     0.002 A 
ATOM     41  C   UNL A   1      34.446  31.996  28.252  1.00  0.00     0.091 A 
ATOM     42  F   UNL A   1      36.287  32.305  29.750  1.00  0.00    -0.205 F 
ATOM     43  C   UNL A   1      33.724  31.152  27.391  1.00  0.00     0.022 A 
BRANCH  41  44
ATOM     44  S   UNL A   1      33.879  33.700  28.354  1.00  0.00     0.127 S 
ATOM     45  O   UNL A   1      34.924  34.411  27.613  1.00  0.00    -0.237 OA
ATOM     46  O   UNL A   1      32.589  33.629  27.662  1.00  0.00    -0.237 OA
ATOM     47  O   UNL A   1      33.793  34.015  29.768  1.00  0.00    -0.744 OA
ENDBRANCH  41  44
ENDBRANCH  23  37
BRANCH  24  48
ATOM     48  C   UNL A   1      44.499  32.944  28.900  1.00  0.00     0.023 A 
ATOM     49  C   UNL A   1      43.759  34.123  28.619  1.00  0.00     0.012 A 
ATOM     50  C   UNL A   1      45.676  32.735  28.159  1.00  0.00     0.148 A 
ATOM     51  C   UNL A   1      44.239  35.117  27.764  1.00  0.00     0.002 A 
ATOM     52  C   UNL A   1      46.178  33.749  27.338  1.00  0.00     0.091 A 
ATOM     53  F   UNL A   1      46.320  31.567  28.276  1.00  0.00    -0.205 F 
ATOM     54  C   UNL A   1      45.469  34.944  27.150  1.00  0.00     0.022 A 
BRANCH  52  55
ATOM     55  S   UNL A   1      47.786  33.639  26.539  1.00  0.00     0.127 S 
ATOM     56  O   UNL A   1      47.879  32.214  26.225  1.00  0.00    -0.237 OA
ATOM     57  O   UNL A   1      47.590  34.512  25.383  1.00  0.00    -0.237 OA
ATOM     58  O   UNL A   1      48.746  34.110  27.526  1.00  0.00    -0.744 OA
ENDBRANCH  52  55
ENDBRANCH  24  48
BRANCH  36  59
ATOM     59  C   UNL A   1      40.965  30.133  33.779  1.00  0.00     0.023 A 
ATOM     60  C   UNL A   1      41.072  31.019  34.865  1.00  0.00     0.012 A 
ATOM     61  C   UNL A   1      41.429  28.808  33.919  1.00  0.00     0.148 A 
ATOM     62  C   UNL A   1      41.595  30.589  36.084  1.00  0.00     0.002 A 
ATOM     63  C   UNL A   1      41.926  28.377  35.146  1.00  0.00     0.091 A 
ATOM     64  F   UNL A   1      41.344  27.978  32.868  1.00  0.00    -0.205 F 
ATOM     65  C   UNL A   1      42.007  29.267  36.228  1.00  0.00     0.022 A 
BRANCH  63  66
ATOM     66  S   UNL A   1      42.430  26.681  35.459  1.00  0.00     0.127 S 
ATOM     67  O   UNL A   1      41.152  25.969  35.419  1.00  0.00    -0.237 OA
ATOM     68  O   UNL A   1      43.307  26.411  34.319  1.00  0.00    -0.237 OA
ATOM     69  O   UNL A   1      43.089  26.679  36.757  1.00  0.00    -0.744 OA
ENDBRANCH  63  66
ENDBRANCH  36  59
ENDBRANCH  10  11
ENDBRANCH   2   5
BRANCH   3  70
ATOM     70  C   UNL A   1      40.467  21.881  25.985  1.00  0.00     0.118 C 
BRANCH  70  71
ATOM     71  C   UNL A   1      39.085  22.373  26.433  1.00  0.00     0.042 C 
BRANCH  71  72
ATOM     72  C   UNL A   1      37.891  21.736  25.715  1.00  0.00     0.118 C 
BRANCH  72  73
ATOM     73  N   UNL A   1      37.686  22.252  24.372  1.00  0.00    -0.352 N 
ATOM     74  C   UNL A   1      36.592  22.864  23.817  1.00  0.00     0.251 C 
ATOM     75  H   UNL A   1      38.455  22.147  23.766  1.00  0.00     0.163 HD
ATOM     76  O   UNL A   1      36.577  23.136  22.620  1.00  0.00    -0.269 OA
BRANCH  74  77
ATOM     77  C   UNL A   1      35.402  23.202  24.629  1.00  0.00     0.041 A 
ATOM     78  C   UNL A   1      35.274  24.443  25.257  1.00  0.00     0.016 A 
ATOM     79  C   UNL A   1      34.351  22.273  24.655  1.00  0.00     0.035 A 
ATOM     80  C   UNL A   1      34.111  24.756  25.972  1.00  0.00     0.031 A 
ATOM     81  C   UNL A   1      33.186  22.606  25.363  1.00  0.00     0.057 A 
ATOM     82  C   UNL A   1      33.048  23.830  26.029  1.00  0.00     0.083 A 
ATOM     83  S   UNL A   1      31.740  21.688  25.575  1.00  0.00    -0.102 S 
ATOM     84  N   UNL A   1      31.841  24.018  26.684  1.00  0.00    -0.225 NA
ATOM     85  C   UNL A   1      31.101  22.956  26.501  1.00  0.00     0.184 A 
ATOM     86  Cl  UNL A   1      29.519  22.819  27.157  1.00  0.00    -0.050 Cl
ENDBRANCH  74  77
ENDBRANCH  72  73
ENDBRANCH  71  72
ENDBRANCH  70  71
ENDBRANCH   3  70
TORSDOF 13
ENDMDL
MODEL 2
REMARK VINA RESULT:     -11.6      5.680     11.903
REMARK SMILES O=C(NCCCNC(=O)c1ccc2nc(Cl)sc2c1)c1ccc(-c2c3nc(c(-c4cccc(S(=O)(=O)[O-])c4F)c4ccc([nH]4)c(-c4cccc(S(=O)(=O)[O-])c4F)c4nc(c(-c5cccc(S(=O)(=O)[O-])c5F)c5ccc2[nH]5)C=C4)C=C3)cc1
REMARK SMILES IDX 1 1 2 2 3 3 20 5 21 6 82 7 22 8 81 9 23 10 24 11 25 12 75 13
REMARK SMILES IDX 26 14 80 15 74 16 76 17 27 18 79 19 73 20 72 21 28 23 60 24
REMARK SMILES IDX 40 25 59 26 41 27 44 28 58 29 77 30 42 31 43 32 57 34 78 35
REMARK SMILES IDX 45 36 29 37 30 38 38 39 31 40 33 41 39 42 32 43 34 44 35 45
REMARK SMILES IDX 36 46 37 47 61 48 62 49 70 50 63 51 65 52 71 53 64 54 66 55
REMARK SMILES IDX 67 56 68 57 69 58 46 59 47 60 55 61 48 62 50 63 56 64 49 65
REMARK SMILES IDX 51 66 52 67 53 68 54 69 4 70 5 71 6 72 7 73 8 74 9 76 10 77
REMARK SMILES IDX 11 78 19 79 12 80 18 81 13 82 17 83 14 84 15 85 16 86
REMARK H PARENT 3 4 76 22 44 33 7 75
REMARK Flexibility Score: inf
ROOT
ATOM      1  O   UNL A   1      45.011  35.307  25.767  1.00  0.00    -0.269 OA
ATOM      2  C   UNL A   1      44.520  35.964  26.688  1.00  0.00     0.251 C 
ATOM      3  N   UNL A   1      44.516  37.324  26.547  1.00  0.00    -0.352 N 
ATOM      4  H   UNL A   1      44.642  37.630  25.620  1.00  0.00     0.163 HD
ENDROOT
BRANCH   2   5
ATOM      5  C   UNL A   1      43.953  35.259  27.863  1.00  0.00     0.039 A 
ATOM      6  C   UNL A   1      44.839  34.465  28.606  1.00  0.00     0.014 A 
ATOM      7  C   UNL A   1      42.586  35.222  28.161  1.00  0.00     0.014 A 
ATOM      8  C   UNL A   1      44.369  33.649  29.630  1.00  0.00     0.010 A 
ATOM      9  C   UNL A   1      42.115  34.416  29.205  1.00  0.00     0.010 A 
ATOM     10  C   UNL A   1      43.004  33.624  29.939  1.00  0.00    -0.014 A 
BRANCH  10  11
ATOM     11  C   UNL A   1      42.591  32.775  31.069  1.00  0.00     0.031 A 
ATOM     12  C   UNL A   1      41.198  32.987  31.570  1.00  0.00     0.074 A 
ATOM     13  C   UNL A   1      43.160  31.566  31.256  1.00  0.00     0.049 A 
ATOM     14  N   UNL A   1      40.148  32.467  31.005  1.00  0.00    -0.248 NA
ATOM     15  C   UNL A   1      40.883  33.984  32.592  1.00  0.00     0.031 C 
ATOM     16  C   UNL A   1      43.518  30.655  30.159  1.00  0.00     0.029 A 
ATOM     17  N   UNL A   1      43.294  30.804  32.393  1.00  0.00    -0.354 N 
ATOM     18  C   UNL A   1      39.036  33.088  31.547  1.00  0.00     0.074 A 
ATOM     19  C   UNL A   1      39.542  34.019  32.532  1.00  0.00     0.031 C 
ATOM     20  C   UNL A   1      43.658  29.411  30.663  1.00  0.00     0.029 A 
ATOM     21  C   UNL A   1      43.543  29.461  32.116  1.00  0.00     0.049 A 
ATOM     22  H   UNL A   1      43.221  31.168  33.304  1.00  0.00     0.167 HD
ATOM     23  C   UNL A   1      37.763  32.797  31.163  1.00  0.00     0.034 A 
ATOM     24  C   UNL A   1      43.177  28.435  32.935  1.00  0.00     0.034 A 
ATOM     25  C   UNL A   1      37.646  31.748  30.192  1.00  0.00     0.049 A 
ATOM     26  C   UNL A   1      41.703  28.350  32.592  1.00  0.00     0.074 A 
ATOM     27  C   UNL A   1      37.532  31.646  28.823  1.00  0.00     0.029 A 
ATOM     28  N   UNL A   1      37.765  30.450  30.629  1.00  0.00    -0.354 N 
ATOM     29  N   UNL A   1      41.194  27.859  31.488  1.00  0.00    -0.248 NA
ATOM     30  C   UNL A   1      40.802  29.233  33.334  1.00  0.00     0.031 C 
ATOM     31  C   UNL A   1      38.060  30.357  28.492  1.00  0.00     0.029 A 
ATOM     32  C   UNL A   1      38.484  29.764  29.681  1.00  0.00     0.049 A 
ATOM     33  H   UNL A   1      37.403  30.081  31.467  1.00  0.00     0.167 HD
ATOM     34  C   UNL A   1      40.061  28.638  31.231  1.00  0.00     0.074 A 
ATOM     35  C   UNL A   1      39.866  29.446  32.419  1.00  0.00     0.031 C 
ATOM     36  C   UNL A   1      39.444  28.732  30.015  1.00  0.00     0.034 A 
BRANCH  23  37
ATOM     37  C   UNL A   1      36.543  33.335  31.809  1.00  0.00     0.023 A 
ATOM     38  C   UNL A   1      36.220  32.822  33.081  1.00  0.00     0.012 A 
ATOM     39  C   UNL A   1      35.616  34.150  31.134  1.00  0.00     0.148 A 
ATOM     40  C   UNL A   1      34.979  33.076  33.659  1.00  0.00     0.002 A 
ATOM     41  C   UNL A   1      34.377  34.405  31.722  1.00  0.00     0.091 A 
ATOM     42  F   UNL A   1      35.940  34.622  29.922  1.00  0.00    -0.205 F 
ATOM     43  C   UNL A   1      34.055  33.859  32.977  1.00  0.00     0.022 A 
BRANCH  41  44
ATOM     44  S   UNL A   1      33.098  35.393  30.934  1.00  0.00     0.127 S 
ATOM     45  O   UNL A   1      32.841  34.633  29.708  1.00  0.00    -0.237 OA
ATOM     46  O   UNL A   1      32.018  35.330  31.923  1.00  0.00    -0.237 OA
ATOM     47  O   UNL A   1      33.667  36.713  30.741  1.00  0.00    -0.744 OA
ENDBRANCH  41  44
ENDBRANCH  23  37
BRANCH  24  48
ATOM     48  C   UNL A   1      43.724  28.553  34.336  1.00  0.00     0.023 A 
ATOM     49  C   UNL A   1      44.185  29.837  34.730  1.00  0.00     0.012 A 
ATOM     50  C   UNL A   1      43.782  27.529  35.298  1.00  0.00     0.148 A 
ATOM     51  C   UNL A   1      44.539  30.129  36.048  1.00  0.00     0.002 A 
ATOM     52  C   UNL A   1      44.093  27.831  36.627  1.00  0.00     0.091 A 
ATOM     53  F   UNL A   1      43.508  26.272  34.928  1.00  0.00    -0.205 F 
ATOM     54  C   UNL A   1      44.457  29.131  37.006  1.00  0.00     0.022 A 
BRANCH  52  55
ATOM     55  S   UNL A   1      43.969  26.617  37.949  1.00  0.00     0.127 S 
ATOM     56  O   UNL A   1      44.824  25.537  37.458  1.00  0.00    -0.237 OA
ATOM     57  O   UNL A   1      44.514  27.368  39.078  1.00  0.00    -0.237 OA
ATOM     58  O   UNL A   1      42.556  26.282  38.041  1.00  0.00    -0.744 OA
ENDBRANCH  52  55
ENDBRANCH  24  48
BRANCH  36  59
ATOM     59  C   UNL A   1      39.928  27.822  28.928  1.00  0.00     0.023 A 
ATOM     60  C   UNL A   1      39.284  26.584  28.762  1.00  0.00     0.012 A 
ATOM     61  C   UNL A   1      40.913  28.218  27.998  1.00  0.00     0.148 A 
ATOM     62  C   UNL A   1      39.582  25.767  27.672  1.00  0.00     0.002 A 
ATOM     63  C   UNL A   1      41.187  27.412  26.898  1.00  0.00     0.091 A 
ATOM     64  F   UNL A   1      41.538  29.392  28.178  1.00  0.00    -0.205 F 
ATOM     65  C   UNL A   1      40.521  26.187  26.734  1.00  0.00     0.022 A 
BRANCH  63  66
ATOM     66  S   UNL A   1      42.335  27.883  25.598  1.00  0.00     0.127 S 
ATOM     67  O   UNL A   1      43.596  28.003  26.331  1.00  0.00    -0.237 OA
ATOM     68  O   UNL A   1      42.265  26.729  24.700  1.00  0.00    -0.237 OA
ATOM     69  O   UNL A   1      41.835  29.130  25.037  1.00  0.00    -0.744 OA
ENDBRANCH  63  66
ENDBRANCH  36  59
ENDBRANCH  10  11
ENDBRANCH   2   5
BRANCH   3  70
ATOM     70  C   UNL A   1      44.361  38.399  27.511  1.00  0.00     0.118 C 
BRANCH  70  71
ATOM     71  C   UNL A   1      42.988  39.067  27.375  1.00  0.00     0.042 C 
BRANCH  71  72
ATOM     72  C   UNL A   1      42.869  40.114  26.262  1.00  0.00     0.118 C 
BRANCH  72  73
ATOM     73  N   UNL A   1      43.595  41.340  26.547  1.00  0.00    -0.352 N 
ATOM     74  C   UNL A   1      43.895  42.400  25.731  1.00  0.00     0.251 C 
ATOM     75  H   UNL A   1      43.923  41.422  27.472  1.00  0.00     0.163 HD
ATOM     76  O   UNL A   1      44.619  43.306  26.136  1.00  0.00    -0.269 OA
BRANCH  74  77
ATOM     77  C   UNL A   1      43.373  42.483  24.349  1.00  0.00     0.041 A 
ATOM     78  C   UNL A   1      42.097  42.021  24.021  1.00  0.00     0.016 A 
ATOM     79  C   UNL A   1      44.164  43.147  23.399  1.00  0.00     0.035 A 
ATOM     80  C   UNL A   1      41.608  42.165  22.716  1.00  0.00     0.031 A 
ATOM     81  C   UNL A   1      43.655  43.296  22.099  1.00  0.00     0.057 A 
ATOM     82  C   UNL A   1      42.392  42.811  21.737  1.00  0.00     0.083 A 
ATOM     83  S   UNL A   1      44.375  44.056  20.728  1.00  0.00    -0.102 S 
ATOM     84  N   UNL A   1      42.024  43.033  20.420  1.00  0.00    -0.225 NA
ATOM     85  C   UNL A   1      42.995  43.674  19.821  1.00  0.00     0.184 A 
ATOM     86  Cl  UNL A   1      42.903  44.140  18.170  1.00  0.00    -0.050 Cl
ENDBRANCH  74  77
ENDBRANCH  72  73
ENDBRANCH  71  72
ENDBRANCH  70  71
ENDBRANCH   3  70
TORSDOF 13
ENDMDL
MODEL 3
REMARK VINA RESULT:     -11.6      1.904      2.292
REMARK SMILES O=C(NCCCNC(=O)c1ccc2nc(Cl)sc2c1)c1ccc(-c2c3nc(c(-c4cccc(S(=O)(=O)[O-])c4F)c4ccc([nH]4)c(-c4cccc(S(=O)(=O)[O-])c4F)c4nc(c(-c5cccc(S(=O)(=O)[O-])c5F)c5ccc2[nH]5)C=C4)C=C3)cc1
REMARK SMILES IDX 1 1 2 2 3 3 20 5 21 6 82 7 22 8 81 9 23 10 24 11 25 12 75 13
REMARK SMILES IDX 26 14 80 15 74 16 76 17 27 18 79 19 73 20 72 21 28 23 60 24
REMARK SMILES IDX 40 25 59 26 41 27 44 28 58 29 77 30 42 31 43 32 57 34 78 35
REMARK SMILES IDX 45 36 29 37 30 38 38 39 31 40 33 41 39 42 32 43 34 44 35 45
REMARK SMILES IDX 36 46 37 47 61 48 62 49 70 50 63 51 65 52 71 53 64 54 66 55
REMARK SMILES IDX 67 56 68 57 69 58 46 59 47 60 55 61 48 62 50 63 56 64 49 65
REMARK SMILES IDX 51 66 52 67 53 68 54 69 4 70 5 71 6 72 7 73 8 74 9 76 10 77
REMARK SMILES IDX 11 78 19 79 12 80 18 81 13 82 17 83 14 84 15 85 16 86
REMARK H PARENT 3 4 76 22 44 33 7 75
REMARK Flexibility Score: inf
ROOT
ATOM      1  O   UNL A   1      42.408  21.266  27.713  1.00  0.00    -0.269 OA
ATOM      2  C   UNL A   1      41.564  22.112  27.408  1.00  0.00     0.251 C 
ATOM      3  N   UNL A   1      40.368  21.651  26.932  1.00  0.00    -0.352 N 
ATOM      4  H   UNL A   1      40.191  20.705  27.143  1.00  0.00     0.163 HD
ENDROOT
BRANCH   2   5
ATOM      5  C   UNL A   1      41.876  23.551  27.587  1.00  0.00     0.039 A 
ATOM      6  C   UNL A   1      40.971  24.297  28.356  1.00  0.00     0.014 A 
ATOM      7  C   UNL A   1      42.910  24.210  26.913  1.00  0.00     0.014 A 
ATOM      8  C   UNL A   1      41.097  25.680  28.452  1.00  0.00     0.010 A 
ATOM      9  C   UNL A   1      43.048  25.600  27.025  1.00  0.00     0.010 A 
ATOM     10  C   UNL A   1      42.140  26.338  27.791  1.00  0.00    -0.014 A 
BRANCH  10  11
ATOM     11  C   UNL A   1      42.236  27.795  27.983  1.00  0.00     0.031 A 
ATOM     12  C   UNL A   1      40.940  28.541  27.978  1.00  0.00     0.074 A 
ATOM     13  C   UNL A   1      43.275  28.326  28.659  1.00  0.00     0.049 A 
ATOM     14  N   UNL A   1      40.155  28.620  29.011  1.00  0.00    -0.248 NA
ATOM     15  C   UNL A   1      40.338  29.044  26.743  1.00  0.00     0.031 C 
ATOM     16  C   UNL A   1      43.873  27.708  29.853  1.00  0.00     0.029 A 
ATOM     17  N   UNL A   1      43.829  29.583  28.611  1.00  0.00    -0.354 N 
ATOM     18  C   UNL A   1      38.945  29.131  28.575  1.00  0.00     0.074 A 
ATOM     19  C   UNL A   1      39.108  29.384  27.161  1.00  0.00     0.031 C 
ATOM     20  C   UNL A   1      44.571  28.650  30.520  1.00  0.00     0.029 A 
ATOM     21  C   UNL A   1      44.591  29.882  29.740  1.00  0.00     0.049 A 
ATOM     22  H   UNL A   1      43.701  30.206  27.860  1.00  0.00     0.167 HD
ATOM     23  C   UNL A   1      37.880  29.325  29.402  1.00  0.00     0.034 A 
ATOM     24  C   UNL A   1      44.773  31.143  30.222  1.00  0.00     0.034 A 
ATOM     25  C   UNL A   1      38.120  29.019  30.782  1.00  0.00     0.049 A 
ATOM     26  C   UNL A   1      43.445  31.340  30.926  1.00  0.00     0.074 A 
ATOM     27  C   UNL A   1      37.924  27.950  31.628  1.00  0.00     0.029 A 
ATOM     28  N   UNL A   1      38.816  29.936  31.534  1.00  0.00    -0.354 N 
ATOM     29  N   UNL A   1      43.082  30.788  32.059  1.00  0.00    -0.248 NA
ATOM     30  C   UNL A   1      42.335  31.837  30.112  1.00  0.00     0.031 C 
ATOM     31  C   UNL A   1      38.909  28.094  32.658  1.00  0.00     0.029 A 
ATOM     32  C   UNL A   1      39.658  29.232  32.359  1.00  0.00     0.049 A 
ATOM     33  H   UNL A   1      38.728  30.915  31.488  1.00  0.00     0.167 HD
ATOM     34  C   UNL A   1      41.708  30.564  31.932  1.00  0.00     0.074 A 
ATOM     35  C   UNL A   1      41.310  31.256  30.722  1.00  0.00     0.031 C 
ATOM     36  C   UNL A   1      40.991  29.687  32.698  1.00  0.00     0.034 A 
BRANCH  23  37
ATOM     37  C   UNL A   1      36.618  29.994  29.008  1.00  0.00     0.023 A 
ATOM     38  C   UNL A   1      35.782  29.296  28.115  1.00  0.00     0.012 A 
ATOM     39  C   UNL A   1      36.338  31.337  29.315  1.00  0.00     0.148 A 
ATOM     40  C   UNL A   1      34.708  29.932  27.498  1.00  0.00     0.002 A 
ATOM     41  C   UNL A   1      35.256  31.966  28.699  1.00  0.00     0.091 A 
ATOM     42  F   UNL A   1      37.150  31.985  30.163  1.00  0.00    -0.205 F 
ATOM     43  C   UNL A   1      34.450  31.268  27.784  1.00  0.00     0.022 A 
BRANCH  41  44
ATOM     44  S   UNL A   1      34.829  33.690  28.979  1.00  0.00     0.127 S 
ATOM     45  O   UNL A   1      36.148  34.329  28.999  1.00  0.00    -0.237 OA
ATOM     46  O   UNL A   1      34.027  33.998  27.791  1.00  0.00    -0.237 OA
ATOM     47  O   UNL A   1      34.098  33.729  30.231  1.00  0.00    -0.744 OA
ENDBRANCH  41  44
ENDBRANCH  23  37
BRANCH  24  48
ATOM     48  C   UNL A   1      45.355  32.101  29.213  1.00  0.00     0.023 A 
ATOM     49  C   UNL A   1      46.713  32.472  29.402  1.00  0.00     0.012 A 
ATOM     50  C   UNL A   1      44.699  32.627  28.086  1.00  0.00     0.148 A 
ATOM     51  C   UNL A   1      47.427  33.197  28.447  1.00  0.00     0.002 A 
ATOM     52  C   UNL A   1      45.425  33.315  27.109  1.00  0.00     0.091 A 
ATOM     53  F   UNL A   1      43.381  32.435  27.952  1.00  0.00    -0.205 F 
ATOM     54  C   UNL A   1      46.789  33.588  27.280  1.00  0.00     0.022 A 
BRANCH  52  55
ATOM     55  S   UNL A   1      44.699  33.819  25.542  1.00  0.00     0.127 S 
ATOM     56  O   UNL A   1      43.631  34.720  25.971  1.00  0.00    -0.237 OA
ATOM     57  O   UNL A   1      45.836  34.474  24.898  1.00  0.00    -0.237 OA
ATOM     58  O   UNL A   1      44.242  32.591  24.909  1.00  0.00    -0.744 OA
ENDBRANCH  52  55
ENDBRANCH  24  48
BRANCH  36  59
ATOM     59  C   UNL A   1      41.701  29.039  33.846  1.00  0.00     0.023 A 
ATOM     60  C   UNL A   1      41.631  29.659  35.106  1.00  0.00     0.012 A 
ATOM     61  C   UNL A   1      42.324  27.778  33.730  1.00  0.00     0.148 A 
ATOM     62  C   UNL A   1      42.135  29.023  36.240  1.00  0.00     0.002 A 
ATOM     63  C   UNL A   1      42.802  27.137  34.869  1.00  0.00     0.091 A 
ATOM     64  F   UNL A   1      42.406  27.206  32.519  1.00  0.00    -0.205 F 
ATOM     65  C   UNL A   1      42.706  27.758  36.124  1.00  0.00     0.022 A 
BRANCH  63  66
ATOM     66  S   UNL A   1      43.502  25.482  34.842  1.00  0.00     0.127 S 
ATOM     67  O   UNL A   1      44.262  25.450  36.092  1.00  0.00    -0.237 OA
ATOM     68  O   UNL A   1      42.300  24.646  34.845  1.00  0.00    -0.237 OA
ATOM     69  O   UNL A   1      44.309  25.394  33.634  1.00  0.00    -0.744 OA
ENDBRANCH  63  66
ENDBRANCH  36  59
ENDBRANCH  10  11
ENDBRANCH   2   5
BRANCH   3  70
ATOM     70  C   UNL A   1      39.311  22.296  26.174  1.00  0.00     0.118 C 
BRANCH  70  71
ATOM     71  C   UNL A   1      38.401  21.259  25.504  1.00  0.00     0.042 C 
BRANCH  71  72
ATOM     72  C   UNL A   1      37.335  21.825  24.561  1.00  0.00     0.118 C 
BRANCH  72  73
ATOM     73  N   UNL A   1      36.084  21.087  24.600  1.00  0.00    -0.352 N 
ATOM     74  C   UNL A   1      34.794  21.539  24.715  1.00  0.00     0.251 C 
ATOM     75  H   UNL A   1      36.177  20.110  24.532  1.00  0.00     0.163 HD
ATOM     76  O   UNL A   1      33.868  20.741  24.837  1.00  0.00    -0.269 OA
BRANCH  74  77
ATOM     77  C   UNL A   1      34.478  22.984  24.706  1.00  0.00     0.041 A 
ATOM     78  C   UNL A   1      34.697  23.787  25.827  1.00  0.00     0.016 A 
ATOM     79  C   UNL A   1      34.053  23.546  23.492  1.00  0.00     0.035 A 
ATOM     80  C   UNL A   1      34.441  25.163  25.771  1.00  0.00     0.031 A 
ATOM     81  C   UNL A   1      33.815  24.928  23.447  1.00  0.00     0.057 A 
ATOM     82  C   UNL A   1      33.995  25.749  24.568  1.00  0.00     0.083 A 
ATOM     83  S   UNL A   1      33.295  25.901  22.121  1.00  0.00    -0.102 S 
ATOM     84  N   UNL A   1      33.722  27.093  24.372  1.00  0.00    -0.225 NA
ATOM     85  C   UNL A   1      33.351  27.262  23.128  1.00  0.00     0.184 A 
ATOM     86  Cl  UNL A   1      32.937  28.807  22.500  1.00  0.00    -0.050 Cl
ENDBRANCH  74  77
ENDBRANCH  72  73
ENDBRANCH  71  72
ENDBRANCH  70  71
ENDBRANCH   3  70
TORSDOF 13
ENDMDL
