MODEL 1
REMARK VINA RESULT:      -8.7      0.000      0.000
REMARK SMILES CCN(C(=O)c1ccccc1C(=O)NCCCNC(=O)c1ccc(-c2c3nc(c(-c4cccc(S(=O)(=O)[O-])c4F)c4ccc([nH]4)c(-c4cccc(S(=O)(=O)[O-])c4F)c4nc(c(-c5cccc(S(=O)(=O)[O-])c5F)c5ccc2[nH]5)C=C4)C=C3)cc1)[C@H](CCO)c1ccccc1
REMARK SMILES IDX 12 1 13 2 14 3 11 5 6 6 7 7 8 8 10 9 9 10 4 11 5 12 3 13
REMARK SMILES IDX 2 14 1 15 84 16 88 17 89 18 93 19 90 20 92 21 91 22 85 23
REMARK SMILES IDX 86 24 87 25 15 27 16 28 17 29 18 30 19 31 20 33 21 34 22 35
REMARK SMILES IDX 83 36 23 37 82 38 24 39 25 40 26 41 76 42 27 43 81 44 75 45
REMARK SMILES IDX 77 46 28 47 80 48 74 49 73 50 29 52 61 53 41 54 60 55 42 56
REMARK SMILES IDX 45 57 59 58 78 59 43 60 44 61 58 63 79 64 46 65 30 66 31 67
REMARK SMILES IDX 39 68 32 69 34 70 40 71 33 72 35 73 36 74 37 75 38 76 62 77
REMARK SMILES IDX 63 78 71 79 64 80 66 81 72 82 65 83 67 84 68 85 69 86 70 87
REMARK SMILES IDX 47 88 48 89 56 90 49 91 51 92 57 93 50 94 52 95 53 96 54 97
REMARK SMILES IDX 55 98
REMARK H PARENT 14 4 87 26 18 32 77 51 45 62
REMARK Flexibility Score: inf
ROOT
ATOM      1  C   UNL A   1      46.587  27.180  24.786  1.00  0.00     0.252 C 
ATOM      2  O   UNL A   1      45.644  27.841  24.357  1.00  0.00    -0.269 OA
ATOM      3  N   UNL A   1      47.869  27.630  24.612  1.00  0.00    -0.352 N 
ATOM      4  H   UNL A   1      47.997  28.406  24.021  1.00  0.00     0.163 HD
ENDROOT
BRANCH   1   5
ATOM      5  C   UNL A   1      46.335  25.816  25.326  1.00  0.00     0.052 A 
ATOM      6  C   UNL A   1      45.862  25.461  26.610  1.00  0.00     0.052 A 
ATOM      7  C   UNL A   1      45.897  24.101  26.970  1.00  0.00     0.014 A 
ATOM      8  C   UNL A   1      46.281  23.114  26.057  1.00  0.00     0.001 A 
ATOM      9  C   UNL A   1      46.668  24.805  24.399  1.00  0.00     0.014 A 
ATOM     10  C   UNL A   1      46.634  23.461  24.759  1.00  0.00     0.001 A 
BRANCH   6  11
ATOM     11  C   UNL A   1      45.382  26.399  27.695  1.00  0.00     0.255 C 
ATOM     12  O   UNL A   1      46.209  27.201  28.134  1.00  0.00    -0.269 OA
BRANCH  11  13
ATOM     13  N   UNL A   1      44.032  26.416  28.101  1.00  0.00    -0.332 N 
BRANCH  13  14
ATOM     14  C   UNL A   1      43.723  26.462  29.536  1.00  0.00     0.117 C 
ATOM     15  C   UNL A   1      43.804  25.138  30.287  1.00  0.00     0.027 C 
ENDBRANCH  13  14
BRANCH  13  16
ATOM     16  C   UNL A   1      42.951  26.417  27.021  1.00  0.00     0.118 C 
BRANCH  16  17
ATOM     17  C   UNL A   1      42.004  25.195  27.049  1.00  0.00    -0.025 A 
ATOM     18  C   UNL A   1      42.404  23.575  26.308  1.00  0.00     0.006 A 
ATOM     19  C   UNL A   1      40.333  25.532  27.597  1.00  0.00     0.006 A 
ATOM     20  C   UNL A   1      41.081  22.302  26.182  1.00  0.00     0.000 A 
ATOM     21  C   UNL A   1      39.008  24.347  27.332  1.00  0.00     0.000 A 
ATOM     22  C   UNL A   1      39.349  22.749  26.600  1.00  0.00     0.000 A 
ENDBRANCH  16  17
BRANCH  16  23
ATOM     23  C   UNL A   1      42.132  27.732  26.847  1.00  0.00     0.058 C 
BRANCH  23  24
ATOM     24  C   UNL A   1      42.017  28.457  25.490  1.00  0.00     0.158 C 
BRANCH  24  25
ATOM     25  O   UNL A   1      42.738  27.868  24.419  1.00  0.00    -0.396 OA
ATOM     26  H   UNL A   1      42.667  28.433  23.633  1.00  0.00     0.210 HD
ENDBRANCH  24  25
ENDBRANCH  23  24
ENDBRANCH  16  23
ENDBRANCH  13  16
ENDBRANCH  11  13
ENDBRANCH   6  11
ENDBRANCH   1   5
BRANCH   3  27
ATOM     27  C   UNL A   1      49.047  27.067  25.217  1.00  0.00     0.118 C 
BRANCH  27  28
ATOM     28  C   UNL A   1      50.318  27.006  24.407  1.00  0.00     0.042 C 
BRANCH  28  29
ATOM     29  C   UNL A   1      51.502  25.920  25.007  1.00  0.00     0.118 C 
BRANCH  29  30
ATOM     30  N   UNL A   1      52.771  25.947  26.661  1.00  0.00    -0.352 N 
ATOM     31  C   UNL A   1      53.012  26.298  28.120  1.00  0.00     0.251 C 
ATOM     32  H   UNL A   1      53.612  25.537  26.351  1.00  0.00     0.163 HD
ATOM     33  O   UNL A   1      54.191  26.307  28.499  1.00  0.00    -0.269 OA
BRANCH  31  34
ATOM     34  C   UNL A   1      51.956  26.576  29.197  1.00  0.00     0.039 A 
ATOM     35  C   UNL A   1      52.094  27.364  30.360  1.00  0.00     0.014 A 
ATOM     36  C   UNL A   1      50.689  26.113  28.905  1.00  0.00     0.014 A 
ATOM     37  C   UNL A   1      50.934  27.870  31.046  1.00  0.00     0.010 A 
ATOM     38  C   UNL A   1      49.603  26.838  29.385  1.00  0.00     0.010 A 
ATOM     39  C   UNL A   1      49.654  27.691  30.497  1.00  0.00    -0.014 A 
BRANCH  39  40
ATOM     40  C   UNL A   1      48.303  28.249  30.925  1.00  0.00     0.031 A 
ATOM     41  C   UNL A   1      47.488  27.430  31.947  1.00  0.00     0.074 A 
ATOM     42  C   UNL A   1      47.650  29.235  30.259  1.00  0.00     0.049 A 
ATOM     43  N   UNL A   1      46.200  27.427  32.190  1.00  0.00    -0.248 NA
ATOM     44  C   UNL A   1      48.213  26.364  32.673  1.00  0.00     0.031 C 
ATOM     45  C   UNL A   1      48.186  30.033  29.156  1.00  0.00     0.029 A 
ATOM     46  N   UNL A   1      46.342  29.682  30.367  1.00  0.00    -0.354 N 
ATOM     47  C   UNL A   1      45.970  26.294  32.974  1.00  0.00     0.074 A 
ATOM     48  C   UNL A   1      47.217  25.577  33.045  1.00  0.00     0.031 C 
ATOM     49  C   UNL A   1      47.227  30.856  28.689  1.00  0.00     0.029 A 
ATOM     50  C   UNL A   1      45.989  30.639  29.434  1.00  0.00     0.049 A 
ATOM     51  H   UNL A   1      45.718  29.346  31.050  1.00  0.00     0.167 HD
ATOM     52  C   UNL A   1      44.856  25.892  33.634  1.00  0.00     0.034 A 
ATOM     53  C   UNL A   1      44.812  31.266  29.197  1.00  0.00     0.034 A 
ATOM     54  C   UNL A   1      43.647  26.662  33.652  1.00  0.00     0.049 A 
ATOM     55  C   UNL A   1      43.605  30.930  30.041  1.00  0.00     0.074 A 
ATOM     56  C   UNL A   1      42.522  26.483  34.434  1.00  0.00     0.029 A 
ATOM     57  N   UNL A   1      43.412  27.757  32.842  1.00  0.00    -0.354 N 
ATOM     58  N   UNL A   1      43.467  29.976  30.931  1.00  0.00    -0.248 NA
ATOM     59  C   UNL A   1      42.408  31.775  29.886  1.00  0.00     0.031 C 
ATOM     60  C   UNL A   1      41.576  27.436  34.046  1.00  0.00     0.029 A 
ATOM     61  C   UNL A   1      42.149  28.255  33.085  1.00  0.00     0.049 A 
ATOM     62  H   UNL A   1      44.050  28.126  32.189  1.00  0.00     0.167 HD
ATOM     63  C   UNL A   1      42.199  30.140  31.478  1.00  0.00     0.074 A 
ATOM     64  C   UNL A   1      41.601  31.280  30.816  1.00  0.00     0.031 C 
ATOM     65  C   UNL A   1      41.589  29.418  32.449  1.00  0.00     0.034 A 
BRANCH  52  66
ATOM     66  C   UNL A   1      44.915  24.614  34.449  1.00  0.00     0.023 A 
ATOM     67  C   UNL A   1      44.611  23.371  33.849  1.00  0.00     0.012 A 
ATOM     68  C   UNL A   1      45.312  24.632  35.803  1.00  0.00     0.148 A 
ATOM     69  C   UNL A   1      44.623  22.189  34.590  1.00  0.00     0.002 A 
ATOM     70  C   UNL A   1      45.388  23.441  36.518  1.00  0.00     0.091 A 
ATOM     71  F   UNL A   1      45.596  25.812  36.371  1.00  0.00    -0.205 F 
ATOM     72  C   UNL A   1      45.021  22.223  35.922  1.00  0.00     0.022 A 
BRANCH  70  73
ATOM     73  S   UNL A   1      45.981  23.357  38.212  1.00  0.00     0.127 S 
ATOM     74  O   UNL A   1      47.300  23.980  38.093  1.00  0.00    -0.237 OA
ATOM     75  O   UNL A   1      44.989  24.162  38.923  1.00  0.00    -0.237 OA
ATOM     76  O   UNL A   1      45.992  21.945  38.567  1.00  0.00    -0.744 OA
ENDBRANCH  70  73
ENDBRANCH  52  66
BRANCH  53  77
ATOM     77  C   UNL A   1      44.738  32.360  28.176  1.00  0.00     0.023 A 
ATOM     78  C   UNL A   1      44.347  32.048  26.856  1.00  0.00     0.012 A 
ATOM     79  C   UNL A   1      44.992  33.704  28.508  1.00  0.00     0.148 A 
ATOM     80  C   UNL A   1      44.219  33.047  25.889  1.00  0.00     0.002 A 
ATOM     81  C   UNL A   1      44.812  34.702  27.553  1.00  0.00     0.091 A 
ATOM     82  F   UNL A   1      45.378  33.982  29.760  1.00  0.00    -0.205 F 
ATOM     83  C   UNL A   1      44.437  34.376  26.240  1.00  0.00     0.022 A 
BRANCH  81  84
ATOM     84  S   UNL A   1      44.949  36.453  27.940  1.00  0.00     0.127 S 
ATOM     85  O   UNL A   1      46.341  36.557  28.373  1.00  0.00    -0.237 OA
ATOM     86  O   UNL A   1      44.660  37.066  26.644  1.00  0.00    -0.237 OA
ATOM     87  O   UNL A   1      43.952  36.709  28.970  1.00  0.00    -0.744 OA
ENDBRANCH  81  84
ENDBRANCH  53  77
BRANCH  65  88
ATOM     88  C   UNL A   1      40.242  29.866  32.941  1.00  0.00     0.023 A 
ATOM     89  C   UNL A   1      39.065  29.252  32.478  1.00  0.00     0.012 A 
ATOM     90  C   UNL A   1      40.173  30.816  33.983  1.00  0.00     0.148 A 
ATOM     91  C   UNL A   1      37.831  29.594  33.032  1.00  0.00     0.002 A 
ATOM     92  C   UNL A   1      38.951  31.105  34.569  1.00  0.00     0.091 A 
ATOM     93  F   UNL A   1      41.310  31.391  34.397  1.00  0.00    -0.205 F 
ATOM     94  C   UNL A   1      37.776  30.505  34.086  1.00  0.00     0.022 A 
BRANCH  92  95
ATOM     95  S   UNL A   1      38.802  32.177  36.001  1.00  0.00     0.127 S 
ATOM     96  O   UNL A   1      39.632  31.478  36.981  1.00  0.00    -0.237 OA
ATOM     97  O   UNL A   1      39.364  33.432  35.505  1.00  0.00    -0.237 OA
ATOM     98  O   UNL A   1      37.381  32.231  36.323  1.00  0.00    -0.744 OA
ENDBRANCH  92  95
ENDBRANCH  65  88
ENDBRANCH  39  40
ENDBRANCH  31  34
ENDBRANCH  29  30
ENDBRANCH  28  29
ENDBRANCH  27  28
ENDBRANCH   3  27
TORSDOF 21
ENDMDL
MODEL 2
REMARK VINA RESULT:      -8.4      3.606     11.385
REMARK SMILES CCN(C(=O)c1ccccc1C(=O)NCCCNC(=O)c1ccc(-c2c3nc(c(-c4cccc(S(=O)(=O)[O-])c4F)c4ccc([nH]4)c(-c4cccc(S(=O)(=O)[O-])c4F)c4nc(c(-c5cccc(S(=O)(=O)[O-])c5F)c5ccc2[nH]5)C=C4)C=C3)cc1)[C@H](CCO)c1ccccc1
REMARK SMILES IDX 12 1 13 2 14 3 11 5 6 6 7 7 8 8 10 9 9 10 4 11 5 12 3 13
REMARK SMILES IDX 2 14 1 15 84 16 88 17 89 18 93 19 90 20 92 21 91 22 85 23
REMARK SMILES IDX 86 24 87 25 15 27 16 28 17 29 18 30 19 31 20 33 21 34 22 35
REMARK SMILES IDX 83 36 23 37 82 38 24 39 25 40 26 41 76 42 27 43 81 44 75 45
REMARK SMILES IDX 77 46 28 47 80 48 74 49 73 50 29 52 61 53 41 54 60 55 42 56
REMARK SMILES IDX 45 57 59 58 78 59 43 60 44 61 58 63 79 64 46 65 30 66 31 67
REMARK SMILES IDX 39 68 32 69 34 70 40 71 33 72 35 73 36 74 37 75 38 76 62 77
REMARK SMILES IDX 63 78 71 79 64 80 66 81 72 82 65 83 67 84 68 85 69 86 70 87
REMARK SMILES IDX 47 88 48 89 56 90 49 91 51 92 57 93 50 94 52 95 53 96 54 97
REMARK SMILES IDX 55 98
REMARK H PARENT 14 4 87 26 18 32 77 51 45 62
REMARK Flexibility Score: inf
ROOT
ATOM      1  C   UNL A   1      43.974  27.735  27.573  1.00  0.00     0.252 C 
ATOM      2  O   UNL A   1      44.903  28.105  26.857  1.00  0.00    -0.269 OA
ATOM      3  N   UNL A   1      42.867  28.528  27.716  1.00  0.00    -0.352 N 
ATOM      4  H   UNL A   1      42.916  29.438  27.347  1.00  0.00     0.163 HD
ENDROOT
BRANCH   1   5
ATOM      5  C   UNL A   1      44.143  26.518  28.413  1.00  0.00     0.052 A 
ATOM      6  C   UNL A   1      43.689  25.205  28.147  1.00  0.00     0.052 A 
ATOM      7  C   UNL A   1      43.782  24.256  29.182  1.00  0.00     0.014 A 
ATOM      8  C   UNL A   1      44.403  24.561  30.399  1.00  0.00     0.001 A 
ATOM      9  C   UNL A   1      44.814  26.795  29.624  1.00  0.00     0.014 A 
ATOM     10  C   UNL A   1      44.950  25.820  30.608  1.00  0.00     0.001 A 
BRANCH   6  11
ATOM     11  C   UNL A   1      43.031  24.709  26.880  1.00  0.00     0.255 C 
ATOM     12  O   UNL A   1      42.122  25.405  26.423  1.00  0.00    -0.269 OA
BRANCH  11  13
ATOM     13  N   UNL A   1      43.510  23.565  26.208  1.00  0.00    -0.332 N 
BRANCH  13  14
ATOM     14  C   UNL A   1      42.957  22.251  26.562  1.00  0.00     0.117 C 
ATOM     15  C   UNL A   1      41.526  21.978  26.114  1.00  0.00     0.027 C 
ENDBRANCH  13  14
BRANCH  13  16
ATOM     16  C   UNL A   1      44.564  23.753  25.119  1.00  0.00     0.118 C 
BRANCH  16  17
ATOM     17  C   UNL A   1      45.867  24.440  25.587  1.00  0.00    -0.025 A 
ATOM     18  C   UNL A   1      46.713  24.065  27.161  1.00  0.00     0.006 A 
ATOM     19  C   UNL A   1      46.369  25.867  24.629  1.00  0.00     0.006 A 
ATOM     20  C   UNL A   1      48.098  25.145  27.708  1.00  0.00     0.000 A 
ATOM     21  C   UNL A   1      47.615  27.008  25.239  1.00  0.00     0.000 A 
ATOM     22  C   UNL A   1      48.464  26.689  26.783  1.00  0.00     0.000 A 
ENDBRANCH  16  17
BRANCH  16  23
ATOM     23  C   UNL A   1      44.894  22.509  24.238  1.00  0.00     0.058 C 
BRANCH  23  24
ATOM     24  C   UNL A   1      46.094  21.586  24.535  1.00  0.00     0.158 C 
BRANCH  24  25
ATOM     25  O   UNL A   1      46.019  20.855  25.748  1.00  0.00    -0.396 OA
ATOM     26  H   UNL A   1      46.907  20.766  26.127  1.00  0.00     0.210 HD
ENDBRANCH  24  25
ENDBRANCH  23  24
ENDBRANCH  16  23
ENDBRANCH  13  16
ENDBRANCH  11  13
ENDBRANCH   6  11
ENDBRANCH   1   5
BRANCH   3  27
ATOM     27  C   UNL A   1      41.637  28.146  28.358  1.00  0.00     0.118 C 
BRANCH  27  28
ATOM     28  C   UNL A   1      40.336  28.660  27.795  1.00  0.00     0.042 C 
BRANCH  28  29
ATOM     29  C   UNL A   1      38.934  28.150  28.641  1.00  0.00     0.118 C 
BRANCH  29  30
ATOM     30  N   UNL A   1      38.366  28.204  30.647  1.00  0.00    -0.352 N 
ATOM     31  C   UNL A   1      38.744  28.120  32.116  1.00  0.00     0.251 C 
ATOM     32  H   UNL A   1      37.393  28.358  30.637  1.00  0.00     0.163 HD
ATOM     33  O   UNL A   1      37.815  27.946  32.916  1.00  0.00    -0.269 OA
BRANCH  31  34
ATOM     34  C   UNL A   1      40.138  28.296  32.730  1.00  0.00     0.039 A 
ATOM     35  C   UNL A   1      40.474  28.398  34.098  1.00  0.00     0.014 A 
ATOM     36  C   UNL A   1      41.186  28.195  31.837  1.00  0.00     0.014 A 
ATOM     37  C   UNL A   1      41.818  28.143  34.545  1.00  0.00     0.010 A 
ATOM     38  C   UNL A   1      42.387  27.665  32.298  1.00  0.00     0.010 A 
ATOM     39  C   UNL A   1      42.784  27.667  33.643  1.00  0.00    -0.014 A 
BRANCH  39  40
ATOM     40  C   UNL A   1      44.207  27.177  33.881  1.00  0.00     0.031 A 
ATOM     41  C   UNL A   1      45.354  27.998  33.258  1.00  0.00     0.074 A 
ATOM     42  C   UNL A   1      44.509  25.933  34.333  1.00  0.00     0.049 A 
ATOM     43  N   UNL A   1      46.578  27.640  32.951  1.00  0.00    -0.248 NA
ATOM     44  C   UNL A   1      45.015  29.355  32.776  1.00  0.00     0.031 C 
ATOM     45  C   UNL A   1      43.556  24.938  34.826  1.00  0.00     0.029 A 
ATOM     46  N   UNL A   1      45.720  25.259  34.374  1.00  0.00    -0.354 N 
ATOM     47  C   UNL A   1      47.075  28.664  32.142  1.00  0.00     0.074 A 
ATOM     48  C   UNL A   1      45.985  29.573  31.904  1.00  0.00     0.031 C 
ATOM     49  C   UNL A   1      44.207  23.793  35.109  1.00  0.00     0.029 A 
ATOM     50  C   UNL A   1      45.627  23.947  34.799  1.00  0.00     0.049 A 
ATOM     51  H   UNL A   1      46.574  25.679  34.122  1.00  0.00     0.167 HD
ATOM     52  C   UNL A   1      48.329  28.886  31.676  1.00  0.00     0.034 A 
ATOM     53  C   UNL A   1      46.564  22.977  34.922  1.00  0.00     0.034 A 
ATOM     54  C   UNL A   1      49.438  28.040  32.004  1.00  0.00     0.049 A 
ATOM     55  C   UNL A   1      47.998  23.275  34.550  1.00  0.00     0.074 A 
ATOM     56  C   UNL A   1      50.784  28.253  31.775  1.00  0.00     0.029 A 
ATOM     57  N   UNL A   1      49.319  26.813  32.630  1.00  0.00    -0.354 N 
ATOM     58  N   UNL A   1      48.488  24.342  33.965  1.00  0.00    -0.248 NA
ATOM     59  C   UNL A   1      49.014  22.263  34.888  1.00  0.00     0.031 C 
ATOM     60  C   UNL A   1      51.476  27.118  32.205  1.00  0.00     0.029 A 
ATOM     61  C   UNL A   1      50.566  26.241  32.777  1.00  0.00     0.049 A 
ATOM     62  H   UNL A   1      48.473  26.408  32.926  1.00  0.00     0.167 HD
ATOM     63  C   UNL A   1      49.865  24.156  33.917  1.00  0.00     0.074 A 
ATOM     64  C   UNL A   1      50.137  22.870  34.525  1.00  0.00     0.031 C 
ATOM     65  C   UNL A   1      50.820  24.982  33.425  1.00  0.00     0.034 A 
BRANCH  52  66
ATOM     66  C   UNL A   1      48.583  30.124  30.836  1.00  0.00     0.023 A 
ATOM     67  C   UNL A   1      49.087  31.300  31.434  1.00  0.00     0.012 A 
ATOM     68  C   UNL A   1      48.362  30.115  29.443  1.00  0.00     0.148 A 
ATOM     69  C   UNL A   1      49.292  32.460  30.687  1.00  0.00     0.002 A 
ATOM     70  C   UNL A   1      48.634  31.254  28.691  1.00  0.00     0.091 A 
ATOM     71  F   UNL A   1      47.880  29.000  28.878  1.00  0.00    -0.205 F 
ATOM     72  C   UNL A   1      49.075  32.433  29.313  1.00  0.00     0.022 A 
BRANCH  70  73
ATOM     73  S   UNL A   1      48.481  31.301  26.902  1.00  0.00     0.127 S 
ATOM     74  O   UNL A   1      49.370  30.210  26.501  1.00  0.00    -0.237 OA
ATOM     75  O   UNL A   1      47.058  31.028  26.710  1.00  0.00    -0.237 OA
ATOM     76  O   UNL A   1      48.909  32.632  26.494  1.00  0.00    -0.744 OA
ENDBRANCH  70  73
ENDBRANCH  52  66
BRANCH  53  77
ATOM     77  C   UNL A   1      46.199  21.654  35.523  1.00  0.00     0.023 A 
ATOM     78  C   UNL A   1      45.777  20.605  34.678  1.00  0.00     0.012 A 
ATOM     79  C   UNL A   1      46.320  21.407  36.904  1.00  0.00     0.148 A 
ATOM     80  C   UNL A   1      45.477  19.342  35.196  1.00  0.00     0.002 A 
ATOM     81  C   UNL A   1      46.069  20.132  37.406  1.00  0.00     0.091 A 
ATOM     82  F   UNL A   1      46.706  22.417  37.694  1.00  0.00    -0.205 F 
ATOM     83  C   UNL A   1      45.636  19.101  36.556  1.00  0.00     0.022 A 
BRANCH  81  84
ATOM     84  S   UNL A   1      46.363  19.690  39.124  1.00  0.00     0.127 S 
ATOM     85  O   UNL A   1      45.781  18.352  39.194  1.00  0.00    -0.237 OA
ATOM     86  O   UNL A   1      47.824  19.730  39.195  1.00  0.00    -0.237 OA
ATOM     87  O   UNL A   1      45.688  20.709  39.916  1.00  0.00    -0.744 OA
ENDBRANCH  81  84
ENDBRANCH  53  77
BRANCH  65  88
ATOM     88  C   UNL A   1      52.263  24.593  33.587  1.00  0.00     0.023 A 
ATOM     89  C   UNL A   1      52.951  23.932  32.554  1.00  0.00     0.012 A 
ATOM     90  C   UNL A   1      52.965  25.021  34.734  1.00  0.00     0.148 A 
ATOM     91  C   UNL A   1      54.320  23.685  32.670  1.00  0.00     0.002 A 
ATOM     92  C   UNL A   1      54.334  24.826  34.814  1.00  0.00     0.091 A 
ATOM     93  F   UNL A   1      52.280  25.640  35.706  1.00  0.00    -0.205 F 
ATOM     94  C   UNL A   1      55.013  24.146  33.789  1.00  0.00     0.022 A 
BRANCH  92  95
ATOM     95  S   UNL A   1      55.321  25.484  36.161  1.00  0.00     0.127 S 
ATOM     96  O   UNL A   1      55.163  26.925  35.967  1.00  0.00    -0.237 OA
ATOM     97  O   UNL A   1      54.636  24.946  37.336  1.00  0.00    -0.237 OA
ATOM     98  O   UNL A   1      56.674  24.979  35.960  1.00  0.00    -0.744 OA
ENDBRANCH  92  95
ENDBRANCH  65  88
ENDBRANCH  39  40
ENDBRANCH  31  34
ENDBRANCH  29  30
ENDBRANCH  28  29
ENDBRANCH  27  28
ENDBRANCH   3  27
TORSDOF 21
ENDMDL
MODEL 3
REMARK VINA RESULT:      -8.2      9.993     14.858
REMARK SMILES CCN(C(=O)c1ccccc1C(=O)NCCCNC(=O)c1ccc(-c2c3nc(c(-c4cccc(S(=O)(=O)[O-])c4F)c4ccc([nH]4)c(-c4cccc(S(=O)(=O)[O-])c4F)c4nc(c(-c5cccc(S(=O)(=O)[O-])c5F)c5ccc2[nH]5)C=C4)C=C3)cc1)[C@H](CCO)c1ccccc1
REMARK SMILES IDX 12 1 13 2 14 3 11 5 6 6 7 7 8 8 10 9 9 10 4 11 5 12 3 13
REMARK SMILES IDX 2 14 1 15 84 16 88 17 89 18 93 19 90 20 92 21 91 22 85 23
REMARK SMILES IDX 86 24 87 25 15 27 16 28 17 29 18 30 19 31 20 33 21 34 22 35
REMARK SMILES IDX 83 36 23 37 82 38 24 39 25 40 26 41 76 42 27 43 81 44 75 45
REMARK SMILES IDX 77 46 28 47 80 48 74 49 73 50 29 52 61 53 41 54 60 55 42 56
REMARK SMILES IDX 45 57 59 58 78 59 43 60 44 61 58 63 79 64 46 65 30 66 31 67
REMARK SMILES IDX 39 68 32 69 34 70 40 71 33 72 35 73 36 74 37 75 38 76 62 77
REMARK SMILES IDX 63 78 71 79 64 80 66 81 72 82 65 83 67 84 68 85 69 86 70 87
REMARK SMILES IDX 47 88 48 89 56 90 49 91 51 92 57 93 50 94 52 95 53 96 54 97
REMARK SMILES IDX 55 98
REMARK H PARENT 14 4 87 26 18 32 77 51 45 62
REMARK Flexibility Score: inf
ROOT
ATOM      1  C   UNL A   1      45.646  41.103  25.742  1.00  0.00     0.252 C 
ATOM      2  O   UNL A   1      46.739  40.647  25.412  1.00  0.00    -0.269 OA
ATOM      3  N   UNL A   1      44.597  40.255  25.978  1.00  0.00    -0.352 N 
ATOM      4  H   UNL A   1      44.721  39.309  25.737  1.00  0.00     0.163 HD
ENDROOT
BRANCH   1   5
ATOM      5  C   UNL A   1      45.429  42.576  25.703  1.00  0.00     0.052 A 
ATOM      6  C   UNL A   1      44.881  43.349  24.654  1.00  0.00     0.052 A 
ATOM      7  C   UNL A   1      44.965  44.750  24.758  1.00  0.00     0.014 A 
ATOM      8  C   UNL A   1      45.470  45.368  25.907  1.00  0.00     0.001 A 
ATOM      9  C   UNL A   1      45.886  43.213  26.877  1.00  0.00     0.014 A 
ATOM     10  C   UNL A   1      45.899  44.600  26.982  1.00  0.00     0.001 A 
BRANCH   6  11
ATOM     11  C   UNL A   1      44.271  42.837  23.369  1.00  0.00     0.255 C 
ATOM     12  O   UNL A   1      43.154  42.324  23.456  1.00  0.00    -0.269 OA
BRANCH  11  13
ATOM     13  N   UNL A   1      44.910  43.035  22.127  1.00  0.00    -0.332 N 
BRANCH  13  14
ATOM     14  C   UNL A   1      46.123  42.265  21.823  1.00  0.00     0.117 C 
ATOM     15  C   UNL A   1      47.432  42.826  22.366  1.00  0.00     0.027 C 
ENDBRANCH  13  14
BRANCH  13  16
ATOM     16  C   UNL A   1      44.288  44.024  21.143  1.00  0.00     0.118 C 
BRANCH  16  17
ATOM     17  C   UNL A   1      45.286  45.009  20.493  1.00  0.00    -0.025 A 
ATOM     18  C   UNL A   1      46.354  44.595  19.071  1.00  0.00     0.006 A 
ATOM     19  C   UNL A   1      45.570  46.525  21.403  1.00  0.00     0.006 A 
ATOM     20  C   UNL A   1      47.678  45.773  18.578  1.00  0.00     0.000 A 
ATOM     21  C   UNL A   1      46.958  47.598  21.018  1.00  0.00     0.000 A 
ATOM     22  C   UNL A   1      48.040  47.227  19.639  1.00  0.00     0.000 A 
ENDBRANCH  16  17
BRANCH  16  23
ATOM     23  C   UNL A   1      43.331  43.432  20.063  1.00  0.00     0.058 C 
BRANCH  23  24
ATOM     24  C   UNL A   1      41.822  43.233  20.320  1.00  0.00     0.158 C 
BRANCH  24  25
ATOM     25  O   UNL A   1      41.348  43.703  21.572  1.00  0.00    -0.396 OA
ATOM     26  H   UNL A   1      42.059  44.180  22.028  1.00  0.00     0.210 HD
ENDBRANCH  24  25
ENDBRANCH  23  24
ENDBRANCH  16  23
ENDBRANCH  13  16
ENDBRANCH  11  13
ENDBRANCH   6  11
ENDBRANCH   1   5
BRANCH   3  27
ATOM     27  C   UNL A   1      43.328  40.626  26.547  1.00  0.00     0.118 C 
BRANCH  27  28
ATOM     28  C   UNL A   1      43.018  40.200  27.961  1.00  0.00     0.042 C 
BRANCH  28  29
ATOM     29  C   UNL A   1      43.584  41.271  29.175  1.00  0.00     0.118 C 
BRANCH  29  30
ATOM     30  N   UNL A   1      44.866  41.047  30.804  1.00  0.00    -0.352 N 
ATOM     31  C   UNL A   1      45.189  40.387  32.134  1.00  0.00     0.251 C 
ATOM     32  H   UNL A   1      45.619  41.657  30.628  1.00  0.00     0.163 HD
ATOM     33  O   UNL A   1      46.067  40.927  32.820  1.00  0.00    -0.269 OA
BRANCH  31  34
ATOM     34  C   UNL A   1      44.600  39.087  32.695  1.00  0.00     0.039 A 
ATOM     35  C   UNL A   1      45.256  37.850  32.880  1.00  0.00     0.014 A 
ATOM     36  C   UNL A   1      43.323  39.197  33.208  1.00  0.00     0.014 A 
ATOM     37  C   UNL A   1      44.721  36.862  33.780  1.00  0.00     0.010 A 
ATOM     38  C   UNL A   1      42.979  38.383  34.281  1.00  0.00     0.010 A 
ATOM     39  C   UNL A   1      43.608  37.166  34.581  1.00  0.00    -0.014 A 
BRANCH  39  40
ATOM     40  C   UNL A   1      42.951  36.378  35.707  1.00  0.00     0.031 A 
ATOM     41  C   UNL A   1      41.859  35.360  35.319  1.00  0.00     0.074 A 
ATOM     42  C   UNL A   1      43.043  36.718  37.017  1.00  0.00     0.049 A 
ATOM     43  N   UNL A   1      40.882  34.858  36.033  1.00  0.00    -0.248 NA
ATOM     44  C   UNL A   1      41.774  34.991  33.889  1.00  0.00     0.031 C 
ATOM     45  C   UNL A   1      43.904  37.759  37.581  1.00  0.00     0.029 A 
ATOM     46  N   UNL A   1      42.331  36.267  38.118  1.00  0.00    -0.354 N 
ATOM     47  C   UNL A   1      40.025  34.245  35.117  1.00  0.00     0.074 A 
ATOM     48  C   UNL A   1      40.528  34.556  33.805  1.00  0.00     0.031 C 
ATOM     49  C   UNL A   1      43.667  37.872  38.903  1.00  0.00     0.029 A 
ATOM     50  C   UNL A   1      42.619  36.932  39.295  1.00  0.00     0.049 A 
ATOM     51  H   UNL A   1      41.675  35.534  38.065  1.00  0.00     0.167 HD
ATOM     52  C   UNL A   1      38.949  33.444  35.318  1.00  0.00     0.034 A 
ATOM     53  C   UNL A   1      42.104  36.809  40.542  1.00  0.00     0.034 A 
ATOM     54  C   UNL A   1      38.514  33.045  36.624  1.00  0.00     0.049 A 
ATOM     55  C   UNL A   1      41.010  35.801  40.800  1.00  0.00     0.074 A 
ATOM     56  C   UNL A   1      37.580  32.087  36.967  1.00  0.00     0.029 A 
ATOM     57  N   UNL A   1      38.989  33.593  37.801  1.00  0.00    -0.354 N 
ATOM     58  N   UNL A   1      40.344  35.074  39.935  1.00  0.00    -0.248 NA
ATOM     59  C   UNL A   1      40.622  35.560  42.201  1.00  0.00     0.031 C 
ATOM     60  C   UNL A   1      37.441  32.104  38.358  1.00  0.00     0.029 A 
ATOM     61  C   UNL A   1      38.352  33.012  38.877  1.00  0.00     0.049 A 
ATOM     62  H   UNL A   1      39.678  34.293  37.862  1.00  0.00     0.167 HD
ATOM     63  C   UNL A   1      39.505  34.255  40.683  1.00  0.00     0.074 A 
ATOM     64  C   UNL A   1      39.738  34.578  42.076  1.00  0.00     0.031 C 
ATOM     65  C   UNL A   1      38.630  33.313  40.256  1.00  0.00     0.034 A 
BRANCH  52  66
ATOM     66  C   UNL A   1      38.223  32.885  34.109  1.00  0.00     0.023 A 
ATOM     67  C   UNL A   1      38.763  31.792  33.395  1.00  0.00     0.012 A 
ATOM     68  C   UNL A   1      36.981  33.414  33.697  1.00  0.00     0.148 A 
ATOM     69  C   UNL A   1      38.131  31.288  32.258  1.00  0.00     0.002 A 
ATOM     70  C   UNL A   1      36.322  32.862  32.604  1.00  0.00     0.091 A 
ATOM     71  F   UNL A   1      36.473  34.453  34.373  1.00  0.00    -0.205 F 
ATOM     72  C   UNL A   1      36.905  31.817  31.869  1.00  0.00     0.022 A 
BRANCH  70  73
ATOM     73  S   UNL A   1      34.692  33.402  32.074  1.00  0.00     0.127 S 
ATOM     74  O   UNL A   1      33.884  33.107  33.258  1.00  0.00    -0.237 OA
ATOM     75  O   UNL A   1      34.909  34.826  31.825  1.00  0.00    -0.237 OA
ATOM     76  O   UNL A   1      34.370  32.616  30.891  1.00  0.00    -0.744 OA
ENDBRANCH  70  73
ENDBRANCH  52  66
BRANCH  53  77
ATOM     77  C   UNL A   1      42.690  37.595  41.675  1.00  0.00     0.023 A 
ATOM     78  C   UNL A   1      43.809  37.083  42.366  1.00  0.00     0.012 A 
ATOM     79  C   UNL A   1      42.191  38.862  42.036  1.00  0.00     0.148 A 
ATOM     80  C   UNL A   1      44.413  37.809  43.395  1.00  0.00     0.002 A 
ATOM     81  C   UNL A   1      42.830  39.604  43.027  1.00  0.00     0.091 A 
ATOM     82  F   UNL A   1      41.119  39.327  41.382  1.00  0.00    -0.205 F 
ATOM     83  C   UNL A   1      43.933  39.075  43.716  1.00  0.00     0.022 A 
BRANCH  81  84
ATOM     84  S   UNL A   1      42.364  41.293  43.427  1.00  0.00     0.127 S 
ATOM     85  O   UNL A   1      42.281  41.905  42.103  1.00  0.00    -0.237 OA
ATOM     86  O   UNL A   1      41.077  41.096  44.095  1.00  0.00    -0.237 OA
ATOM     87  O   UNL A   1      43.423  41.803  44.287  1.00  0.00    -0.744 OA
ENDBRANCH  81  84
ENDBRANCH  53  77
BRANCH  65  88
ATOM     88  C   UNL A   1      37.909  32.483  41.281  1.00  0.00     0.023 A 
ATOM     89  C   UNL A   1      38.522  31.355  41.854  1.00  0.00     0.012 A 
ATOM     90  C   UNL A   1      36.662  32.926  41.770  1.00  0.00     0.148 A 
ATOM     91  C   UNL A   1      37.892  30.665  42.891  1.00  0.00     0.002 A 
ATOM     92  C   UNL A   1      36.071  32.272  42.839  1.00  0.00     0.091 A 
ATOM     93  F   UNL A   1      36.098  33.999  41.197  1.00  0.00    -0.205 F 
ATOM     94  C   UNL A   1      36.678  31.133  43.393  1.00  0.00     0.022 A 
BRANCH  92  95
ATOM     95  S   UNL A   1      34.570  32.870  43.621  1.00  0.00     0.127 S 
ATOM     96  O   UNL A   1      34.914  34.265  43.894  1.00  0.00    -0.237 OA
ATOM     97  O   UNL A   1      33.577  32.680  42.565  1.00  0.00    -0.237 OA
ATOM     98  O   UNL A   1      34.370  32.042  44.804  1.00  0.00    -0.744 OA
ENDBRANCH  92  95
ENDBRANCH  65  88
ENDBRANCH  39  40
ENDBRANCH  31  34
ENDBRANCH  29  30
ENDBRANCH  28  29
ENDBRANCH  27  28
ENDBRANCH   3  27
TORSDOF 21
ENDMDL
