MODEL 1
REMARK VINA RESULT:     -13.8      0.000      0.000
REMARK SMILES O=C(Cc1c(C(=O)c2cc3c(cn2)CCCC3)[nH]c2cc(Cl)ccc12)NCCCNC(=O)c1ccc(-c2c3nc(c(-c4cccc(S(=O)(=O)[O-])c4F)c4ccc([nH]4)c(-c4cccc(S(=O)(=O)[O-])c4F)c4nc(c(-c5cccc(S(=O)(=O)[O-])c5F)c5ccc2[nH]5)C=C4)C=C3)cc1
REMARK SMILES IDX 28 1 27 2 26 3 1 4 2 5 3 7 4 8 5 9 25 10 18 11 19 12 24 13
REMARK SMILES IDX 20 15 23 16 21 17 22 18 6 19 7 20 8 21 9 22 13 23 10 24
REMARK SMILES IDX 12 25 11 26 17 27 14 28 16 29 15 30 29 31 30 32 31 33 32 35
REMARK SMILES IDX 33 36 34 37 95 38 35 39 94 40 36 41 37 42 38 43 88 44 39 45
REMARK SMILES IDX 93 46 87 47 89 48 40 49 92 50 86 51 85 52 41 54 73 55 53 56
REMARK SMILES IDX 72 57 54 58 57 59 71 60 90 61 55 62 56 63 70 65 91 66 58 67
REMARK SMILES IDX 42 68 43 69 51 70 44 71 46 72 52 73 45 74 47 75 48 76 49 77
REMARK SMILES IDX 50 78 74 79 75 80 83 81 76 82 78 83 84 84 77 85 79 86 80 87
REMARK SMILES IDX 81 88 82 89 59 90 60 91 68 92 61 93 63 94 69 95 62 96 64 97
REMARK SMILES IDX 65 98 66 99 67 100
REMARK H PARENT 26 6 18 14 30 34 89 53 57 64
REMARK Flexibility Score: inf
ROOT
ATOM      1  C   UNL A   1      31.867  30.369  25.830  1.00  0.00     0.042 C 
ENDROOT
BRANCH   1   2
ATOM      2  C   UNL A   1      31.595  28.878  25.741  1.00  0.00     0.117 C 
BRANCH   2   3
ATOM      3  N   UNL A   1      32.794  28.066  25.700  1.00  0.00    -0.356 N 
ATOM      4  O   UNL A   1      31.908  26.284  26.838  1.00  0.00    -0.275 OA
ATOM      5  C   UNL A   1      32.777  26.744  26.099  1.00  0.00     0.224 C 
ATOM      6  H   UNL A   1      33.636  28.463  25.382  1.00  0.00     0.163 HD
BRANCH   5   7
ATOM      7  C   UNL A   1      33.956  25.896  25.649  1.00  0.00     0.138 C 
BRANCH   7   8
ATOM      8  C   UNL A   1      33.676  24.724  24.734  1.00  0.00    -0.002 A 
ATOM      9  C   UNL A   1      33.324  24.699  23.382  1.00  0.00     0.093 A 
ATOM     10  C   UNL A   1      33.581  23.364  25.196  1.00  0.00     0.004 A 
ATOM     11  N   UNL A   1      33.346  23.376  22.992  1.00  0.00    -0.351 N 
ATOM     12  C   UNL A   1      33.340  22.555  24.090  1.00  0.00     0.048 A 
ATOM     13  C   UNL A   1      33.632  22.757  26.470  1.00  0.00     0.012 A 
ATOM     14  H   UNL A   1      33.363  23.066  22.058  1.00  0.00     0.167 HD
ATOM     15  C   UNL A   1      33.129  21.173  24.182  1.00  0.00     0.047 A 
ATOM     16  C   UNL A   1      33.392  21.381  26.590  1.00  0.00     0.021 A 
ATOM     17  C   UNL A   1      33.140  20.609  25.460  1.00  0.00     0.043 A 
ATOM     18  Cl  UNL A   1      32.811  18.927  25.637  1.00  0.00    -0.084 Cl
BRANCH   9  19
ATOM     19  C   UNL A   1      32.925  25.785  22.499  1.00  0.00     0.227 C 
ATOM     20  O   UNL A   1      33.660  26.277  21.647  1.00  0.00    -0.285 OA
BRANCH  19  21
ATOM     21  C   UNL A   1      31.621  26.442  22.739  1.00  0.00     0.113 A 
ATOM     22  C   UNL A   1      31.436  27.719  22.230  1.00  0.00     0.036 A 
ATOM     23  N   UNL A   1      30.703  25.762  23.466  1.00  0.00    -0.252 NA
ATOM     24  C   UNL A   1      30.210  28.345  22.448  1.00  0.00    -0.041 A 
ATOM     25  C   UNL A   1      29.505  26.371  23.620  1.00  0.00     0.115 A 
ATOM     26  C   UNL A   1      29.209  27.651  23.146  1.00  0.00    -0.026 A 
ATOM     27  C   UNL A   1      30.013  29.765  21.985  1.00  0.00     0.036 C 
ATOM     28  C   UNL A   1      27.824  28.220  23.304  1.00  0.00     0.037 C 
ATOM     29  C   UNL A   1      28.544  30.154  21.866  1.00  0.00     0.005 C 
ATOM     30  C   UNL A   1      27.774  29.737  23.115  1.00  0.00     0.005 C 
ENDBRANCH  19  21
ENDBRANCH   9  19
ENDBRANCH   7   8
ENDBRANCH   5   7
ENDBRANCH   2   3
ENDBRANCH   1   2
BRANCH   1  31
ATOM     31  C   UNL A   1      32.418  30.834  27.171  1.00  0.00     0.118 C 
BRANCH  31  32
ATOM     32  N   UNL A   1      32.512  32.282  27.310  1.00  0.00    -0.352 N 
ATOM     33  C   UNL A   1      33.569  33.061  27.739  1.00  0.00     0.251 C 
ATOM     34  H   UNL A   1      31.701  32.780  27.058  1.00  0.00     0.163 HD
ATOM     35  O   UNL A   1      33.426  34.269  27.852  1.00  0.00    -0.269 OA
BRANCH  33  36
ATOM     36  C   UNL A   1      34.855  32.417  28.111  1.00  0.00     0.039 A 
ATOM     37  C   UNL A   1      34.909  31.073  28.476  1.00  0.00     0.014 A 
ATOM     38  C   UNL A   1      36.019  33.192  28.132  1.00  0.00     0.014 A 
ATOM     39  C   UNL A   1      36.070  30.560  29.049  1.00  0.00     0.010 A 
ATOM     40  C   UNL A   1      37.210  32.647  28.628  1.00  0.00     0.010 A 
ATOM     41  C   UNL A   1      37.229  31.346  29.152  1.00  0.00    -0.014 A 
BRANCH  41  42
ATOM     42  C   UNL A   1      38.433  30.790  29.830  1.00  0.00     0.031 A 
ATOM     43  C   UNL A   1      38.781  31.190  31.242  1.00  0.00     0.074 A 
ATOM     44  C   UNL A   1      39.187  29.872  29.194  1.00  0.00     0.049 A 
ATOM     45  N   UNL A   1      39.761  30.760  31.998  1.00  0.00    -0.248 NA
ATOM     46  C   UNL A   1      37.930  32.201  31.893  1.00  0.00     0.031 C 
ATOM     47  C   UNL A   1      38.972  29.413  27.821  1.00  0.00     0.029 A 
ATOM     48  N   UNL A   1      40.268  29.144  29.623  1.00  0.00    -0.354 N 
ATOM     49  C   UNL A   1      39.671  31.474  33.187  1.00  0.00     0.074 A 
ATOM     50  C   UNL A   1      38.543  32.369  33.057  1.00  0.00     0.031 C 
ATOM     51  C   UNL A   1      39.856  28.445  27.538  1.00  0.00     0.029 A 
ATOM     52  C   UNL A   1      40.729  28.244  28.692  1.00  0.00     0.049 A 
ATOM     53  H   UNL A   1      40.675  29.255  30.512  1.00  0.00     0.167 HD
ATOM     54  C   UNL A   1      40.440  31.375  34.298  1.00  0.00     0.034 A 
ATOM     55  C   UNL A   1      41.736  27.351  28.752  1.00  0.00     0.034 A 
ATOM     56  C   UNL A   1      41.515  30.436  34.464  1.00  0.00     0.049 A 
ATOM     57  C   UNL A   1      42.551  27.239  30.008  1.00  0.00     0.074 A 
ATOM     58  C   UNL A   1      42.310  30.234  35.580  1.00  0.00     0.029 A 
ATOM     59  N   UNL A   1      41.940  29.538  33.501  1.00  0.00    -0.354 N 
ATOM     60  N   UNL A   1      42.396  27.869  31.146  1.00  0.00    -0.248 NA
ATOM     61  C   UNL A   1      43.672  26.287  29.994  1.00  0.00     0.031 C 
ATOM     62  C   UNL A   1      43.214  29.207  35.291  1.00  0.00     0.029 A 
ATOM     63  C   UNL A   1      42.983  28.776  33.995  1.00  0.00     0.049 A 
ATOM     64  H   UNL A   1      41.555  29.453  32.597  1.00  0.00     0.167 HD
ATOM     65  C   UNL A   1      43.393  27.388  31.985  1.00  0.00     0.074 A 
ATOM     66  C   UNL A   1      44.133  26.395  31.235  1.00  0.00     0.031 C 
ATOM     67  C   UNL A   1      43.684  27.758  33.255  1.00  0.00     0.034 A 
BRANCH  54  68
ATOM     68  C   UNL A   1      40.111  32.264  35.465  1.00  0.00     0.023 A 
ATOM     69  C   UNL A   1      40.757  33.511  35.579  1.00  0.00     0.012 A 
ATOM     70  C   UNL A   1      39.098  31.919  36.380  1.00  0.00     0.148 A 
ATOM     71  C   UNL A   1      40.406  34.401  36.592  1.00  0.00     0.002 A 
ATOM     72  C   UNL A   1      38.735  32.821  37.373  1.00  0.00     0.091 A 
ATOM     73  F   UNL A   1      38.509  30.721  36.258  1.00  0.00    -0.205 F 
ATOM     74  C   UNL A   1      39.389  34.060  37.482  1.00  0.00     0.022 A 
BRANCH  72  75
ATOM     75  S   UNL A   1      37.405  32.504  38.538  1.00  0.00     0.127 S 
ATOM     76  O   UNL A   1      37.779  33.370  39.656  1.00  0.00    -0.237 OA
ATOM     77  O   UNL A   1      36.227  32.949  37.791  1.00  0.00    -0.237 OA
ATOM     78  O   UNL A   1      37.445  31.077  38.818  1.00  0.00    -0.744 OA
ENDBRANCH  72  75
ENDBRANCH  54  68
BRANCH  55  79
ATOM     79  C   UNL A   1      41.975  26.449  27.595  1.00  0.00     0.023 A 
ATOM     80  C   UNL A   1      42.776  26.900  26.528  1.00  0.00     0.012 A 
ATOM     81  C   UNL A   1      41.492  25.127  27.588  1.00  0.00     0.148 A 
ATOM     82  C   UNL A   1      43.090  26.047  25.471  1.00  0.00     0.002 A 
ATOM     83  C   UNL A   1      41.847  24.270  26.554  1.00  0.00     0.091 A 
ATOM     84  F   UNL A   1      40.724  24.728  28.610  1.00  0.00    -0.205 F 
ATOM     85  C   UNL A   1      42.637  24.730  25.489  1.00  0.00     0.022 A 
BRANCH  83  86
ATOM     86  S   UNL A   1      41.414  22.526  26.553  1.00  0.00     0.127 S 
ATOM     87  O   UNL A   1      39.961  22.579  26.419  1.00  0.00    -0.237 OA
ATOM     88  O   UNL A   1      42.125  22.041  25.370  1.00  0.00    -0.237 OA
ATOM     89  O   UNL A   1      41.911  21.995  27.815  1.00  0.00    -0.744 OA
ENDBRANCH  83  86
ENDBRANCH  55  79
BRANCH  67  90
ATOM     90  C   UNL A   1      44.857  27.105  33.929  1.00  0.00     0.023 A 
ATOM     91  C   UNL A   1      46.120  27.720  33.840  1.00  0.00     0.012 A 
ATOM     92  C   UNL A   1      44.689  25.966  34.739  1.00  0.00     0.148 A 
ATOM     93  C   UNL A   1      47.207  27.205  34.545  1.00  0.00     0.002 A 
ATOM     94  C   UNL A   1      45.771  25.474  35.461  1.00  0.00     0.091 A 
ATOM     95  F   UNL A   1      43.477  25.396  34.796  1.00  0.00    -0.205 F 
ATOM     96  C   UNL A   1      47.030  26.091  35.363  1.00  0.00     0.022 A 
BRANCH  94  97
ATOM     97  S   UNL A   1      45.629  24.087  36.593  1.00  0.00     0.127 S 
ATOM     98  O   UNL A   1      45.229  23.007  35.692  1.00  0.00    -0.237 OA
ATOM     99  O   UNL A   1      46.992  23.972  37.115  1.00  0.00    -0.237 OA
ATOM    100  O   UNL A   1      44.632  24.473  37.582  1.00  0.00    -0.744 OA
ENDBRANCH  94  97
ENDBRANCH  67  90
ENDBRANCH  41  42
ENDBRANCH  33  36
ENDBRANCH  31  32
ENDBRANCH   1  31
TORSDOF 16
ENDMDL
MODEL 2
REMARK VINA RESULT:     -13.6      5.102     10.433
REMARK SMILES O=C(Cc1c(C(=O)c2cc3c(cn2)CCCC3)[nH]c2cc(Cl)ccc12)NCCCNC(=O)c1ccc(-c2c3nc(c(-c4cccc(S(=O)(=O)[O-])c4F)c4ccc([nH]4)c(-c4cccc(S(=O)(=O)[O-])c4F)c4nc(c(-c5cccc(S(=O)(=O)[O-])c5F)c5ccc2[nH]5)C=C4)C=C3)cc1
REMARK SMILES IDX 28 1 27 2 26 3 1 4 2 5 3 7 4 8 5 9 25 10 18 11 19 12 24 13
REMARK SMILES IDX 20 15 23 16 21 17 22 18 6 19 7 20 8 21 9 22 13 23 10 24
REMARK SMILES IDX 12 25 11 26 17 27 14 28 16 29 15 30 29 31 30 32 31 33 32 35
REMARK SMILES IDX 33 36 34 37 95 38 35 39 94 40 36 41 37 42 38 43 88 44 39 45
REMARK SMILES IDX 93 46 87 47 89 48 40 49 92 50 86 51 85 52 41 54 73 55 53 56
REMARK SMILES IDX 72 57 54 58 57 59 71 60 90 61 55 62 56 63 70 65 91 66 58 67
REMARK SMILES IDX 42 68 43 69 51 70 44 71 46 72 52 73 45 74 47 75 48 76 49 77
REMARK SMILES IDX 50 78 74 79 75 80 83 81 76 82 78 83 84 84 77 85 79 86 80 87
REMARK SMILES IDX 81 88 82 89 59 90 60 91 68 92 61 93 63 94 69 95 62 96 64 97
REMARK SMILES IDX 65 98 66 99 67 100
REMARK H PARENT 26 6 18 14 30 34 89 53 57 64
REMARK Flexibility Score: inf
ROOT
ATOM      1  C   UNL A   1      36.491  20.850  24.962  1.00  0.00     0.042 C 
ENDROOT
BRANCH   1   2
ATOM      2  C   UNL A   1      35.502  21.789  24.297  1.00  0.00     0.117 C 
BRANCH   2   3
ATOM      3  N   UNL A   1      35.350  23.058  24.980  1.00  0.00    -0.356 N 
ATOM      4  O   UNL A   1      34.833  24.272  23.105  1.00  0.00    -0.275 OA
ATOM      5  C   UNL A   1      34.837  24.163  24.331  1.00  0.00     0.224 C 
ATOM      6  H   UNL A   1      35.617  23.133  25.924  1.00  0.00     0.163 HD
BRANCH   5   7
ATOM      7  C   UNL A   1      34.356  25.298  25.222  1.00  0.00     0.138 C 
BRANCH   7   8
ATOM      8  C   UNL A   1      32.913  25.735  25.095  1.00  0.00    -0.002 A 
ATOM      9  C   UNL A   1      31.743  25.126  25.554  1.00  0.00     0.093 A 
ATOM     10  C   UNL A   1      32.493  26.854  24.293  1.00  0.00     0.004 A 
ATOM     11  N   UNL A   1      30.715  26.016  25.318  1.00  0.00    -0.351 N 
ATOM     12  C   UNL A   1      31.114  26.979  24.427  1.00  0.00     0.048 A 
ATOM     13  C   UNL A   1      33.164  27.743  23.425  1.00  0.00     0.012 A 
ATOM     14  H   UNL A   1      29.823  25.966  25.730  1.00  0.00     0.167 HD
ATOM     15  C   UNL A   1      30.359  27.931  23.731  1.00  0.00     0.047 A 
ATOM     16  C   UNL A   1      32.425  28.683  22.694  1.00  0.00     0.021 A 
ATOM     17  C   UNL A   1      31.044  28.766  22.845  1.00  0.00     0.043 A 
ATOM     18  Cl  UNL A   1      30.154  29.905  21.907  1.00  0.00    -0.084 Cl
BRANCH   9  19
ATOM     19  C   UNL A   1      31.536  23.797  26.113  1.00  0.00     0.227 C 
ATOM     20  O   UNL A   1      31.289  23.586  27.297  1.00  0.00    -0.285 OA
BRANCH  19  21
ATOM     21  C   UNL A   1      31.790  22.625  25.247  1.00  0.00     0.113 A 
ATOM     22  C   UNL A   1      32.132  21.428  25.861  1.00  0.00     0.036 A 
ATOM     23  N   UNL A   1      31.699  22.806  23.908  1.00  0.00    -0.252 NA
ATOM     24  C   UNL A   1      32.369  20.317  25.055  1.00  0.00    -0.041 A 
ATOM     25  C   UNL A   1      31.885  21.699  23.151  1.00  0.00     0.115 A 
ATOM     26  C   UNL A   1      32.228  20.446  23.664  1.00  0.00    -0.026 A 
ATOM     27  C   UNL A   1      32.830  19.031  25.688  1.00  0.00     0.036 C 
ATOM     28  C   UNL A   1      32.346  19.256  22.749  1.00  0.00     0.037 C 
ATOM     29  C   UNL A   1      32.609  17.815  24.794  1.00  0.00     0.005 C 
ATOM     30  C   UNL A   1      33.109  18.090  23.379  1.00  0.00     0.005 C 
ENDBRANCH  19  21
ENDBRANCH   9  19
ENDBRANCH   7   8
ENDBRANCH   5   7
ENDBRANCH   2   3
ENDBRANCH   1   2
BRANCH   1  31
ATOM     31  C   UNL A   1      37.859  21.460  25.237  1.00  0.00     0.118 C 
BRANCH  31  32
ATOM     32  N   UNL A   1      38.873  20.495  25.645  1.00  0.00    -0.352 N 
ATOM     33  C   UNL A   1      40.005  20.677  26.416  1.00  0.00     0.251 C 
ATOM     34  H   UNL A   1      38.730  19.575  25.325  1.00  0.00     0.163 HD
ATOM     35  O   UNL A   1      40.776  19.746  26.591  1.00  0.00    -0.269 OA
BRANCH  33  36
ATOM     36  C   UNL A   1      40.303  22.018  26.981  1.00  0.00     0.039 A 
ATOM     37  C   UNL A   1      39.681  23.164  26.486  1.00  0.00     0.014 A 
ATOM     38  C   UNL A   1      41.255  22.127  27.999  1.00  0.00     0.014 A 
ATOM     39  C   UNL A   1      40.152  24.420  26.860  1.00  0.00     0.010 A 
ATOM     40  C   UNL A   1      41.664  23.393  28.438  1.00  0.00     0.010 A 
ATOM     41  C   UNL A   1      41.163  24.551  27.826  1.00  0.00    -0.014 A 
BRANCH  41  42
ATOM     42  C   UNL A   1      41.690  25.905  28.155  1.00  0.00     0.031 A 
ATOM     43  C   UNL A   1      43.057  26.339  27.690  1.00  0.00     0.074 A 
ATOM     44  C   UNL A   1      40.909  26.774  28.826  1.00  0.00     0.049 A 
ATOM     45  N   UNL A   1      43.645  27.499  27.843  1.00  0.00    -0.248 NA
ATOM     46  C   UNL A   1      43.875  25.351  26.965  1.00  0.00     0.031 C 
ATOM     47  C   UNL A   1      39.576  26.475  29.351  1.00  0.00     0.029 A 
ATOM     48  N   UNL A   1      41.112  28.089  29.163  1.00  0.00    -0.354 N 
ATOM     49  C   UNL A   1      44.908  27.368  27.276  1.00  0.00     0.074 A 
ATOM     50  C   UNL A   1      45.007  26.015  26.776  1.00  0.00     0.031 C 
ATOM     51  C   UNL A   1      39.058  27.586  29.894  1.00  0.00     0.029 A 
ATOM     52  C   UNL A   1      40.037  28.665  29.798  1.00  0.00     0.049 A 
ATOM     53  H   UNL A   1      41.946  28.573  28.968  1.00  0.00     0.167 HD
ATOM     54  C   UNL A   1      45.886  28.297  27.158  1.00  0.00     0.034 A 
ATOM     55  C   UNL A   1      39.851  29.920  30.250  1.00  0.00     0.034 A 
ATOM     56  C   UNL A   1      45.768  29.665  27.584  1.00  0.00     0.049 A 
ATOM     57  C   UNL A   1      40.939  30.940  30.075  1.00  0.00     0.074 A 
ATOM     58  C   UNL A   1      46.694  30.686  27.451  1.00  0.00     0.029 A 
ATOM     59  N   UNL A   1      44.660  30.207  28.211  1.00  0.00    -0.354 N 
ATOM     60  N   UNL A   1      42.092  30.813  29.465  1.00  0.00    -0.248 NA
ATOM     61  C   UNL A   1      40.699  32.276  30.639  1.00  0.00     0.031 C 
ATOM     62  C   UNL A   1      46.142  31.849  27.996  1.00  0.00     0.029 A 
ATOM     63  C   UNL A   1      44.875  31.549  28.470  1.00  0.00     0.049 A 
ATOM     64  H   UNL A   1      43.840  29.711  28.439  1.00  0.00     0.167 HD
ATOM     65  C   UNL A   1      42.713  32.051  29.567  1.00  0.00     0.074 A 
ATOM     66  C   UNL A   1      41.799  32.924  30.274  1.00  0.00     0.031 C 
ATOM     67  C   UNL A   1      43.942  32.421  29.134  1.00  0.00     0.034 A 
BRANCH  54  68
ATOM     68  C   UNL A   1      47.165  27.893  26.478  1.00  0.00     0.023 A 
ATOM     69  C   UNL A   1      48.203  27.333  27.249  1.00  0.00     0.012 A 
ATOM     70  C   UNL A   1      47.299  27.964  25.078  1.00  0.00     0.148 A 
ATOM     71  C   UNL A   1      49.361  26.857  26.638  1.00  0.00     0.002 A 
ATOM     72  C   UNL A   1      48.447  27.466  24.473  1.00  0.00     0.091 A 
ATOM     73  F   UNL A   1      46.303  28.514  24.368  1.00  0.00    -0.205 F 
ATOM     74  C   UNL A   1      49.479  26.915  25.251  1.00  0.00     0.022 A 
BRANCH  72  75
ATOM     75  S   UNL A   1      48.677  27.444  22.691  1.00  0.00     0.127 S 
ATOM     76  O   UNL A   1      48.594  26.012  22.401  1.00  0.00    -0.237 OA
ATOM     77  O   UNL A   1      47.533  28.227  22.222  1.00  0.00    -0.237 OA
ATOM     78  O   UNL A   1      49.975  28.053  22.445  1.00  0.00    -0.744 OA
ENDBRANCH  72  75
ENDBRANCH  54  68
BRANCH  55  79
ATOM     79  C   UNL A   1      38.542  30.287  30.853  1.00  0.00     0.023 A 
ATOM     80  C   UNL A   1      38.319  30.022  32.218  1.00  0.00     0.012 A 
ATOM     81  C   UNL A   1      37.560  30.969  30.109  1.00  0.00     0.148 A 
ATOM     82  C   UNL A   1      37.136  30.432  32.833  1.00  0.00     0.002 A 
ATOM     83  C   UNL A   1      36.405  31.415  30.740  1.00  0.00     0.091 A 
ATOM     84  F   UNL A   1      37.795  31.198  28.810  1.00  0.00    -0.205 F 
ATOM     85  C   UNL A   1      36.186  31.139  32.099  1.00  0.00     0.022 A 
BRANCH  83  86
ATOM     86  S   UNL A   1      35.184  32.437  29.908  1.00  0.00     0.127 S 
ATOM     87  O   UNL A   1      34.251  32.729  30.993  1.00  0.00    -0.237 OA
ATOM     88  O   UNL A   1      35.994  33.574  29.469  1.00  0.00    -0.237 OA
ATOM     89  O   UNL A   1      34.656  31.619  28.825  1.00  0.00    -0.744 OA
ENDBRANCH  83  86
ENDBRANCH  55  79
BRANCH  67  90
ATOM     90  C   UNL A   1      44.395  33.825  29.415  1.00  0.00     0.023 A 
ATOM     91  C   UNL A   1      44.996  34.110  30.656  1.00  0.00     0.012 A 
ATOM     92  C   UNL A   1      44.337  34.821  28.421  1.00  0.00     0.148 A 
ATOM     93  C   UNL A   1      45.531  35.373  30.907  1.00  0.00     0.002 A 
ATOM     94  C   UNL A   1      44.898  36.069  28.669  1.00  0.00     0.091 A 
ATOM     95  F   UNL A   1      43.749  34.524  27.253  1.00  0.00    -0.205 F 
ATOM     96  C   UNL A   1      45.491  36.347  29.913  1.00  0.00     0.022 A 
BRANCH  94  97
ATOM     97  S   UNL A   1      44.956  37.367  27.429  1.00  0.00     0.127 S 
ATOM     98  O   UNL A   1      45.556  38.469  28.180  1.00  0.00    -0.237 OA
ATOM     99  O   UNL A   1      45.826  36.781  26.408  1.00  0.00    -0.237 OA
ATOM    100  O   UNL A   1      43.580  37.581  27.004  1.00  0.00    -0.744 OA
ENDBRANCH  94  97
ENDBRANCH  67  90
ENDBRANCH  41  42
ENDBRANCH  33  36
ENDBRANCH  31  32
ENDBRANCH   1  31
TORSDOF 16
ENDMDL
MODEL 3
REMARK VINA RESULT:     -13.5      4.956      9.758
REMARK SMILES O=C(Cc1c(C(=O)c2cc3c(cn2)CCCC3)[nH]c2cc(Cl)ccc12)NCCCNC(=O)c1ccc(-c2c3nc(c(-c4cccc(S(=O)(=O)[O-])c4F)c4ccc([nH]4)c(-c4cccc(S(=O)(=O)[O-])c4F)c4nc(c(-c5cccc(S(=O)(=O)[O-])c5F)c5ccc2[nH]5)C=C4)C=C3)cc1
REMARK SMILES IDX 28 1 27 2 26 3 1 4 2 5 3 7 4 8 5 9 25 10 18 11 19 12 24 13
REMARK SMILES IDX 20 15 23 16 21 17 22 18 6 19 7 20 8 21 9 22 13 23 10 24
REMARK SMILES IDX 12 25 11 26 17 27 14 28 16 29 15 30 29 31 30 32 31 33 32 35
REMARK SMILES IDX 33 36 34 37 95 38 35 39 94 40 36 41 37 42 38 43 88 44 39 45
REMARK SMILES IDX 93 46 87 47 89 48 40 49 92 50 86 51 85 52 41 54 73 55 53 56
REMARK SMILES IDX 72 57 54 58 57 59 71 60 90 61 55 62 56 63 70 65 91 66 58 67
REMARK SMILES IDX 42 68 43 69 51 70 44 71 46 72 52 73 45 74 47 75 48 76 49 77
REMARK SMILES IDX 50 78 74 79 75 80 83 81 76 82 78 83 84 84 77 85 79 86 80 87
REMARK SMILES IDX 81 88 82 89 59 90 60 91 68 92 61 93 63 94 69 95 62 96 64 97
REMARK SMILES IDX 65 98 66 99 67 100
REMARK H PARENT 26 6 18 14 30 34 89 53 57 64
REMARK Flexibility Score: inf
ROOT
ATOM      1  C   UNL A   1      37.107  22.202  23.378  1.00  0.00     0.042 C 
ENDROOT
BRANCH   1   2
ATOM      2  C   UNL A   1      36.177  23.348  23.024  1.00  0.00     0.117 C 
BRANCH   2   3
ATOM      3  N   UNL A   1      34.846  23.215  23.584  1.00  0.00    -0.356 N 
ATOM      4  O   UNL A   1      33.730  23.496  21.602  1.00  0.00    -0.275 OA
ATOM      5  C   UNL A   1      33.735  23.115  22.772  1.00  0.00     0.224 C 
ATOM      6  H   UNL A   1      34.734  23.197  24.561  1.00  0.00     0.163 HD
BRANCH   5   7
ATOM      7  C   UNL A   1      32.470  22.588  23.432  1.00  0.00     0.138 C 
BRANCH   7   8
ATOM      8  C   UNL A   1      32.622  21.579  24.549  1.00  0.00    -0.002 A 
ATOM      9  C   UNL A   1      32.928  21.767  25.899  1.00  0.00     0.093 A 
ATOM     10  C   UNL A   1      32.616  20.155  24.335  1.00  0.00     0.004 A 
ATOM     11  N   UNL A   1      32.783  20.539  26.512  1.00  0.00    -0.351 N 
ATOM     12  C   UNL A   1      32.755  19.539  25.574  1.00  0.00     0.048 A 
ATOM     13  C   UNL A   1      32.555  19.338  23.185  1.00  0.00     0.012 A 
ATOM     14  H   UNL A   1      32.711  20.402  27.484  1.00  0.00     0.167 HD
ATOM     15  C   UNL A   1      32.851  18.151  25.734  1.00  0.00     0.047 A 
ATOM     16  C   UNL A   1      32.682  17.949  23.317  1.00  0.00     0.021 A 
ATOM     17  C   UNL A   1      32.833  17.371  24.575  1.00  0.00     0.043 A 
ATOM     18  Cl  UNL A   1      33.025  15.664  24.708  1.00  0.00    -0.084 Cl
BRANCH   9  19
ATOM     19  C   UNL A   1      33.390  22.958  26.597  1.00  0.00     0.227 C 
ATOM     20  O   UNL A   1      34.188  22.936  27.529  1.00  0.00    -0.285 OA
BRANCH  19  21
ATOM     21  C   UNL A   1      32.750  24.253  26.275  1.00  0.00     0.113 A 
ATOM     22  C   UNL A   1      33.575  25.320  25.952  1.00  0.00     0.036 A 
ATOM     23  N   UNL A   1      31.399  24.316  26.347  1.00  0.00    -0.252 NA
ATOM     24  C   UNL A   1      32.982  26.543  25.644  1.00  0.00    -0.041 A 
ATOM     25  C   UNL A   1      30.846  25.501  25.995  1.00  0.00     0.115 A 
ATOM     26  C   UNL A   1      31.581  26.637  25.649  1.00  0.00    -0.026 A 
ATOM     27  C   UNL A   1      33.855  27.741  25.378  1.00  0.00     0.036 C 
ATOM     28  C   UNL A   1      30.877  27.891  25.203  1.00  0.00     0.037 C 
ATOM     29  C   UNL A   1      33.129  28.851  24.625  1.00  0.00     0.005 C 
ATOM     30  C   UNL A   1      31.770  29.131  25.259  1.00  0.00     0.005 C 
ENDBRANCH  19  21
ENDBRANCH   9  19
ENDBRANCH   7   8
ENDBRANCH   5   7
ENDBRANCH   2   3
ENDBRANCH   1   2
BRANCH   1  31
ATOM     31  C   UNL A   1      37.062  21.776  24.839  1.00  0.00     0.118 C 
BRANCH  31  32
ATOM     32  N   UNL A   1      37.989  20.704  25.179  1.00  0.00    -0.352 N 
ATOM     33  C   UNL A   1      39.146  20.743  25.933  1.00  0.00     0.251 C 
ATOM     34  H   UNL A   1      37.756  19.818  24.818  1.00  0.00     0.163 HD
ATOM     35  O   UNL A   1      39.831  19.739  26.047  1.00  0.00    -0.269 OA
BRANCH  33  36
ATOM     36  C   UNL A   1      39.576  22.022  26.555  1.00  0.00     0.039 A 
ATOM     37  C   UNL A   1      39.007  23.237  26.174  1.00  0.00     0.014 A 
ATOM     38  C   UNL A   1      40.598  22.001  27.509  1.00  0.00     0.014 A 
ATOM     39  C   UNL A   1      39.590  24.432  26.589  1.00  0.00     0.010 A 
ATOM     40  C   UNL A   1      41.125  23.205  27.993  1.00  0.00     0.010 A 
ATOM     41  C   UNL A   1      40.669  24.431  27.488  1.00  0.00    -0.014 A 
BRANCH  41  42
ATOM     42  C   UNL A   1      41.312  25.722  27.859  1.00  0.00     0.031 A 
ATOM     43  C   UNL A   1      42.703  26.061  27.384  1.00  0.00     0.074 A 
ATOM     44  C   UNL A   1      40.618  26.624  28.581  1.00  0.00     0.049 A 
ATOM     45  N   UNL A   1      43.388  27.162  27.571  1.00  0.00    -0.248 NA
ATOM     46  C   UNL A   1      43.423  25.041  26.603  1.00  0.00     0.031 C 
ATOM     47  C   UNL A   1      39.274  26.414  29.120  1.00  0.00     0.029 A 
ATOM     48  N   UNL A   1      40.935  27.903  28.965  1.00  0.00    -0.354 N 
ATOM     49  C   UNL A   1      44.625  26.951  26.974  1.00  0.00     0.074 A 
ATOM     50  C   UNL A   1      44.603  25.616  26.418  1.00  0.00     0.031 C 
ATOM     51  C   UNL A   1      38.860  27.541  29.718  1.00  0.00     0.029 A 
ATOM     52  C   UNL A   1      39.923  28.539  29.645  1.00  0.00     0.049 A 
ATOM     53  H   UNL A   1      41.803  28.325  28.773  1.00  0.00     0.167 HD
ATOM     54  C   UNL A   1      45.675  27.800  26.872  1.00  0.00     0.034 A 
ATOM     55  C   UNL A   1      39.850  29.786  30.150  1.00  0.00     0.034 A 
ATOM     56  C   UNL A   1      45.679  29.154  27.355  1.00  0.00     0.049 A 
ATOM     57  C   UNL A   1      41.016  30.718  29.993  1.00  0.00     0.074 A 
ATOM     58  C   UNL A   1      46.684  30.100  27.244  1.00  0.00     0.029 A 
ATOM     59  N   UNL A   1      44.630  29.760  28.026  1.00  0.00    -0.354 N 
ATOM     60  N   UNL A   1      42.143  30.522  29.355  1.00  0.00    -0.248 NA
ATOM     61  C   UNL A   1      40.897  32.045  30.615  1.00  0.00     0.031 C 
ATOM     62  C   UNL A   1      46.239  31.281  27.845  1.00  0.00     0.029 A 
ATOM     63  C   UNL A   1      44.961  31.067  28.334  1.00  0.00     0.049 A 
ATOM     64  H   UNL A   1      43.775  29.324  28.250  1.00  0.00     0.167 HD
ATOM     65  C   UNL A   1      42.867  31.700  29.494  1.00  0.00     0.074 A 
ATOM     66  C   UNL A   1      42.041  32.615  30.254  1.00  0.00     0.031 C 
ATOM     67  C   UNL A   1      44.115  31.985  29.051  1.00  0.00     0.034 A 
BRANCH  54  68
ATOM     68  C   UNL A   1      46.903  27.321  26.150  1.00  0.00     0.023 A 
ATOM     69  C   UNL A   1      47.062  27.634  24.786  1.00  0.00     0.012 A 
ATOM     70  C   UNL A   1      47.941  26.661  26.838  1.00  0.00     0.148 A 
ATOM     71  C   UNL A   1      48.232  27.290  24.112  1.00  0.00     0.002 A 
ATOM     72  C   UNL A   1      49.115  26.343  26.165  1.00  0.00     0.091 A 
ATOM     73  F   UNL A   1      47.759  26.361  28.132  1.00  0.00    -0.205 F 
ATOM     74  C   UNL A   1      49.261  26.654  24.803  1.00  0.00     0.022 A 
BRANCH  72  75
ATOM     75  S   UNL A   1      50.521  25.570  26.973  1.00  0.00     0.127 S 
ATOM     76  O   UNL A   1      51.432  25.365  25.848  1.00  0.00    -0.237 OA
ATOM     77  O   UNL A   1      50.942  26.607  27.917  1.00  0.00    -0.237 OA
ATOM     78  O   UNL A   1      50.014  24.354  27.590  1.00  0.00    -0.744 OA
ENDBRANCH  72  75
ENDBRANCH  54  68
BRANCH  55  79
ATOM     79  C   UNL A   1      38.586  30.233  30.794  1.00  0.00     0.023 A 
ATOM     80  C   UNL A   1      38.419  30.044  32.179  1.00  0.00     0.012 A 
ATOM     81  C   UNL A   1      37.597  30.919  30.064  1.00  0.00     0.148 A 
ATOM     82  C   UNL A   1      37.284  30.531  32.827  1.00  0.00     0.002 A 
ATOM     83  C   UNL A   1      36.491  31.440  30.724  1.00  0.00     0.091 A 
ATOM     84  F   UNL A   1      37.777  31.075  28.746  1.00  0.00    -0.205 F 
ATOM     85  C   UNL A   1      36.328  31.239  32.104  1.00  0.00     0.022 A 
BRANCH  83  86
ATOM     86  S   UNL A   1      35.272  32.470  29.900  1.00  0.00     0.127 S 
ATOM     87  O   UNL A   1      34.325  32.733  30.981  1.00  0.00    -0.237 OA
ATOM     88  O   UNL A   1      36.078  33.621  29.492  1.00  0.00    -0.237 OA
ATOM     89  O   UNL A   1      34.760  31.670  28.796  1.00  0.00    -0.744 OA
ENDBRANCH  83  86
ENDBRANCH  55  79
BRANCH  67  90
ATOM     90  C   UNL A   1      44.688  33.334  29.378  1.00  0.00     0.023 A 
ATOM     91  C   UNL A   1      45.460  33.480  30.546  1.00  0.00     0.012 A 
ATOM     92  C   UNL A   1      44.566  34.413  28.482  1.00  0.00     0.148 A 
ATOM     93  C   UNL A   1      46.101  34.686  30.822  1.00  0.00     0.002 A 
ATOM     94  C   UNL A   1      45.230  35.605  28.750  1.00  0.00     0.091 A 
ATOM     95  F   UNL A   1      43.815  34.249  27.383  1.00  0.00    -0.205 F 
ATOM     96  C   UNL A   1      45.995  35.743  29.921  1.00  0.00     0.022 A 
BRANCH  94  97
ATOM     97  S   UNL A   1      45.211  37.000  27.619  1.00  0.00     0.127 S 
ATOM     98  O   UNL A   1      45.956  36.469  26.479  1.00  0.00    -0.237 OA
ATOM     99  O   UNL A   1      43.779  37.184  27.380  1.00  0.00    -0.237 OA
ATOM    100  O   UNL A   1      45.855  38.100  28.324  1.00  0.00    -0.744 OA
ENDBRANCH  94  97
ENDBRANCH  67  90
ENDBRANCH  41  42
ENDBRANCH  33  36
ENDBRANCH  31  32
ENDBRANCH   1  31
TORSDOF 16
ENDMDL
