MODEL 1
REMARK VINA RESULT:     -10.9      0.000      0.000
REMARK SMILES COC(=O)[C@@H]1CN(C(=O)OC(C)(C)C)C[C@@H]1C(=O)NCCCNC(=O)c1ccc(-c2c3nc(c(-c4cccc(S(=O)(=O)[O-])c4F)c4ccc([nH]4)c(-c4cccc(S(=O)(=O)[O-])c4F)c4nc(c(-c5cccc(S(=O)(=O)[O-])c5F)c5ccc2[nH]5)C=C4)C=C3)cc1
REMARK SMILES IDX 21 1 20 2 19 3 17 4 18 5 16 7 5 8 6 9 7 10 15 11 3 12 4 13
REMARK SMILES IDX 2 14 1 15 8 16 9 17 10 18 11 19 12 20 13 21 14 22 22 23
REMARK SMILES IDX 23 24 24 25 25 27 26 28 27 29 88 30 28 31 87 32 29 33 30 34
REMARK SMILES IDX 31 35 81 36 32 37 86 38 80 39 82 40 33 41 85 42 79 43 78 44
REMARK SMILES IDX 34 46 66 47 46 48 65 49 47 50 50 51 64 52 83 53 48 54 49 55
REMARK SMILES IDX 63 57 84 58 51 59 35 60 36 61 44 62 37 63 39 64 45 65 38 66
REMARK SMILES IDX 40 67 41 68 42 69 43 70 67 71 68 72 76 73 69 74 71 75 77 76
REMARK SMILES IDX 70 77 72 78 73 79 74 80 75 81 52 82 53 83 61 84 54 85 56 86
REMARK SMILES IDX 62 87 55 88 57 89 58 90 59 91 60 92
REMARK H PARENT 19 6 23 26 82 45 50 56
REMARK Flexibility Score: inf
ROOT
ATOM      1  C   UNL A   1      33.118  28.075  27.083  1.00  0.00     0.042 C 
ENDROOT
BRANCH   1   2
ATOM      2  C   UNL A   1      31.739  27.714  26.541  1.00  0.00     0.117 C 
BRANCH   2   3
ATOM      3  N   UNL A   1      31.302  26.394  26.967  1.00  0.00    -0.356 N 
ATOM      4  C   UNL A   1      31.785  25.165  26.624  1.00  0.00     0.225 C 
ATOM      5  O   UNL A   1      31.260  24.167  27.115  1.00  0.00    -0.275 OA
ATOM      6  H   UNL A   1      30.545  26.386  27.597  1.00  0.00     0.163 HD
BRANCH   4   7
ATOM      7  C   UNL A   1      32.983  25.082  25.695  1.00  0.00     0.114 C 
ATOM      8  C   UNL A   1      32.662  24.658  24.251  1.00  0.00     0.133 C 
ATOM      9  C   UNL A   1      32.725  23.139  24.298  1.00  0.00     0.139 C 
ATOM     10  N   UNL A   1      33.784  22.887  25.259  1.00  0.00    -0.306 N 
ATOM     11  C   UNL A   1      33.928  23.988  26.192  1.00  0.00     0.137 C 
BRANCH   8  12
ATOM     12  C   UNL A   1      31.367  25.171  23.676  1.00  0.00     0.311 C 
ATOM     13  O   UNL A   1      30.463  24.463  23.254  1.00  0.00    -0.252 OA
BRANCH  12  14
ATOM     14  O   UNL A   1      31.420  26.530  23.569  1.00  0.00    -0.469 OA
ATOM     15  C   UNL A   1      30.237  27.127  23.039  1.00  0.00     0.282 C 
ENDBRANCH  12  14
ENDBRANCH   8  12
BRANCH  10  16
ATOM     16  C   UNL A   1      34.611  21.795  25.308  1.00  0.00     0.410 C 
ATOM     17  O   UNL A   1      34.279  20.692  24.890  1.00  0.00    -0.224 OA
BRANCH  16  18
ATOM     18  O   UNL A   1      35.802  22.074  25.899  1.00  0.00    -0.444 OA
BRANCH  18  19
ATOM     19  C   UNL A   1      37.002  22.221  25.095  1.00  0.00     0.106 C 
ATOM     20  C   UNL A   1      37.771  20.898  24.993  1.00  0.00     0.056 C 
ATOM     21  C   UNL A   1      36.687  22.810  23.715  1.00  0.00     0.056 C 
ATOM     22  C   UNL A   1      37.875  23.227  25.863  1.00  0.00     0.056 C 
ENDBRANCH  18  19
ENDBRANCH  16  18
ENDBRANCH  10  16
ENDBRANCH   4   7
ENDBRANCH   2   3
ENDBRANCH   1   2
BRANCH   1  23
ATOM     23  C   UNL A   1      33.940  28.979  26.168  1.00  0.00     0.118 C 
BRANCH  23  24
ATOM     24  N   UNL A   1      33.991  30.361  26.625  1.00  0.00    -0.352 N 
ATOM     25  C   UNL A   1      34.848  30.977  27.504  1.00  0.00     0.251 C 
ATOM     26  H   UNL A   1      33.299  30.949  26.242  1.00  0.00     0.163 HD
ATOM     27  O   UNL A   1      34.611  32.127  27.866  1.00  0.00    -0.269 OA
BRANCH  25  28
ATOM     28  C   UNL A   1      36.035  30.267  28.034  1.00  0.00     0.039 A 
ATOM     29  C   UNL A   1      37.210  30.261  27.276  1.00  0.00     0.014 A 
ATOM     30  C   UNL A   1      35.992  29.590  29.255  1.00  0.00     0.014 A 
ATOM     31  C   UNL A   1      38.357  29.639  27.775  1.00  0.00     0.010 A 
ATOM     32  C   UNL A   1      37.157  29.041  29.786  1.00  0.00     0.010 A 
ATOM     33  C   UNL A   1      38.353  29.057  29.052  1.00  0.00    -0.014 A 
BRANCH  33  34
ATOM     34  C   UNL A   1      39.590  28.480  29.645  1.00  0.00     0.031 A 
ATOM     35  C   UNL A   1      40.339  29.217  30.723  1.00  0.00     0.074 A 
ATOM     36  C   UNL A   1      40.087  27.327  29.153  1.00  0.00     0.049 A 
ATOM     37  N   UNL A   1      41.457  28.893  31.319  1.00  0.00    -0.248 NA
ATOM     38  C   UNL A   1      39.769  30.496  31.174  1.00  0.00     0.031 C 
ATOM     39  C   UNL A   1      39.493  26.546  28.065  1.00  0.00     0.029 A 
ATOM     40  N   UNL A   1      41.214  26.620  29.489  1.00  0.00    -0.354 N 
ATOM     41  C   UNL A   1      41.741  29.937  32.191  1.00  0.00     0.074 A 
ATOM     42  C   UNL A   1      40.699  30.926  32.014  1.00  0.00     0.031 C 
ATOM     43  C   UNL A   1      40.250  25.463  27.836  1.00  0.00     0.029 A 
ATOM     44  C   UNL A   1      41.403  25.490  28.729  1.00  0.00     0.049 A 
ATOM     45  H   UNL A   1      41.829  26.897  30.206  1.00  0.00     0.167 HD
ATOM     46  C   UNL A   1      42.757  30.055  33.081  1.00  0.00     0.034 A 
ATOM     47  C   UNL A   1      42.397  24.579  28.744  1.00  0.00     0.034 A 
ATOM     48  C   UNL A   1      43.781  29.061  33.269  1.00  0.00     0.049 A 
ATOM     49  C   UNL A   1      43.518  24.733  29.736  1.00  0.00     0.074 A 
ATOM     50  C   UNL A   1      44.814  29.053  34.191  1.00  0.00     0.029 A 
ATOM     51  N   UNL A   1      43.913  27.905  32.515  1.00  0.00    -0.354 N 
ATOM     52  N   UNL A   1      43.691  25.656  30.650  1.00  0.00    -0.248 NA
ATOM     53  C   UNL A   1      44.564  23.699  29.720  1.00  0.00     0.031 C 
ATOM     54  C   UNL A   1      45.591  27.912  33.967  1.00  0.00     0.029 A 
ATOM     55  C   UNL A   1      45.017  27.185  32.936  1.00  0.00     0.049 A 
ATOM     56  H   UNL A   1      43.308  27.636  31.785  1.00  0.00     0.167 HD
ATOM     57  C   UNL A   1      44.839  25.293  31.346  1.00  0.00     0.074 A 
ATOM     58  C   UNL A   1      45.310  24.057  30.757  1.00  0.00     0.031 C 
ATOM     59  C   UNL A   1      45.452  25.931  32.374  1.00  0.00     0.034 A 
BRANCH  46  60
ATOM     60  C   UNL A   1      42.785  31.291  33.946  1.00  0.00     0.023 A 
ATOM     61  C   UNL A   1      43.385  32.471  33.456  1.00  0.00     0.012 A 
ATOM     62  C   UNL A   1      42.195  31.299  35.224  1.00  0.00     0.148 A 
ATOM     63  C   UNL A   1      43.444  33.620  34.244  1.00  0.00     0.002 A 
ATOM     64  C   UNL A   1      42.213  32.463  35.984  1.00  0.00     0.091 A 
ATOM     65  F   UNL A   1      41.644  30.166  35.683  1.00  0.00    -0.205 F 
ATOM     66  C   UNL A   1      42.851  33.619  35.502  1.00  0.00     0.022 A 
BRANCH  64  67
ATOM     67  S   UNL A   1      41.404  32.590  37.582  1.00  0.00     0.127 S 
ATOM     68  O   UNL A   1      40.037  32.187  37.254  1.00  0.00    -0.237 OA
ATOM     69  O   UNL A   1      42.150  31.617  38.383  1.00  0.00    -0.237 OA
ATOM     70  O   UNL A   1      41.565  33.973  38.006  1.00  0.00    -0.744 OA
ENDBRANCH  64  67
ENDBRANCH  46  60
BRANCH  47  71
ATOM     71  C   UNL A   1      42.342  23.399  27.833  1.00  0.00     0.023 A 
ATOM     72  C   UNL A   1      41.260  22.502  27.934  1.00  0.00     0.012 A 
ATOM     73  C   UNL A   1      43.334  23.172  26.859  1.00  0.00     0.148 A 
ATOM     74  C   UNL A   1      41.183  21.384  27.106  1.00  0.00     0.002 A 
ATOM     75  C   UNL A   1      43.222  22.087  26.000  1.00  0.00     0.091 A 
ATOM     76  F   UNL A   1      44.357  24.034  26.784  1.00  0.00    -0.205 F 
ATOM     77  C   UNL A   1      42.158  21.180  26.133  1.00  0.00     0.022 A 
BRANCH  75  78
ATOM     78  S   UNL A   1      44.359  21.812  24.636  1.00  0.00     0.127 S 
ATOM     79  O   UNL A   1      43.984  22.881  23.714  1.00  0.00    -0.237 OA
ATOM     80  O   UNL A   1      45.657  21.989  25.289  1.00  0.00    -0.237 OA
ATOM     81  O   UNL A   1      44.099  20.458  24.170  1.00  0.00    -0.744 OA
ENDBRANCH  75  78
ENDBRANCH  47  71
BRANCH  59  82
ATOM     82  C   UNL A   1      46.678  25.283  32.967  1.00  0.00     0.023 A 
ATOM     83  C   UNL A   1      47.960  25.642  32.508  1.00  0.00     0.012 A 
ATOM     84  C   UNL A   1      46.557  24.365  34.030  1.00  0.00     0.148 A 
ATOM     85  C   UNL A   1      49.102  25.070  33.070  1.00  0.00     0.002 A 
ATOM     86  C   UNL A   1      47.700  23.839  34.622  1.00  0.00     0.091 A 
ATOM     87  F   UNL A   1      45.328  24.022  34.442  1.00  0.00    -0.205 F 
ATOM     88  C   UNL A   1      48.972  24.179  34.134  1.00  0.00     0.022 A 
BRANCH  86  89
ATOM     89  S   UNL A   1      47.635  22.764  36.059  1.00  0.00     0.127 S 
ATOM     90  O   UNL A   1      46.744  23.509  36.948  1.00  0.00    -0.237 OA
ATOM     91  O   UNL A   1      47.058  21.541  35.503  1.00  0.00    -0.237 OA
ATOM     92  O   UNL A   1      49.009  22.630  36.525  1.00  0.00    -0.744 OA
ENDBRANCH  86  89
ENDBRANCH  59  82
ENDBRANCH  33  34
ENDBRANCH  25  28
ENDBRANCH  23  24
ENDBRANCH   1  23
TORSDOF 18
ENDMDL
MODEL 2
REMARK VINA RESULT:     -10.9      3.346      8.959
REMARK SMILES COC(=O)[C@@H]1CN(C(=O)OC(C)(C)C)C[C@@H]1C(=O)NCCCNC(=O)c1ccc(-c2c3nc(c(-c4cccc(S(=O)(=O)[O-])c4F)c4ccc([nH]4)c(-c4cccc(S(=O)(=O)[O-])c4F)c4nc(c(-c5cccc(S(=O)(=O)[O-])c5F)c5ccc2[nH]5)C=C4)C=C3)cc1
REMARK SMILES IDX 21 1 20 2 19 3 17 4 18 5 16 7 5 8 6 9 7 10 15 11 3 12 4 13
REMARK SMILES IDX 2 14 1 15 8 16 9 17 10 18 11 19 12 20 13 21 14 22 22 23
REMARK SMILES IDX 23 24 24 25 25 27 26 28 27 29 88 30 28 31 87 32 29 33 30 34
REMARK SMILES IDX 31 35 81 36 32 37 86 38 80 39 82 40 33 41 85 42 79 43 78 44
REMARK SMILES IDX 34 46 66 47 46 48 65 49 47 50 50 51 64 52 83 53 48 54 49 55
REMARK SMILES IDX 63 57 84 58 51 59 35 60 36 61 44 62 37 63 39 64 45 65 38 66
REMARK SMILES IDX 40 67 41 68 42 69 43 70 67 71 68 72 76 73 69 74 71 75 77 76
REMARK SMILES IDX 70 77 72 78 73 79 74 80 75 81 52 82 53 83 61 84 54 85 56 86
REMARK SMILES IDX 62 87 55 88 57 89 58 90 59 91 60 92
REMARK H PARENT 19 6 23 26 82 45 50 56
REMARK Flexibility Score: inf
ROOT
ATOM      1  C   UNL A   1      31.561  31.796  26.554  1.00  0.00     0.042 C 
ENDROOT
BRANCH   1   2
ATOM      2  C   UNL A   1      31.869  30.448  25.911  1.00  0.00     0.117 C 
BRANCH   2   3
ATOM      3  N   UNL A   1      31.527  29.330  26.775  1.00  0.00    -0.356 N 
ATOM      4  C   UNL A   1      31.806  28.002  26.632  1.00  0.00     0.225 C 
ATOM      5  O   UNL A   1      31.417  27.221  27.498  1.00  0.00    -0.275 OA
ATOM      6  H   UNL A   1      31.016  29.566  27.583  1.00  0.00     0.163 HD
BRANCH   4   7
ATOM      7  C   UNL A   1      32.630  27.552  25.438  1.00  0.00     0.114 C 
ATOM      8  C   UNL A   1      31.829  26.900  24.298  1.00  0.00     0.133 C 
ATOM      9  C   UNL A   1      31.778  25.430  24.687  1.00  0.00     0.139 C 
ATOM     10  N   UNL A   1      33.066  25.218  25.324  1.00  0.00    -0.306 N 
ATOM     11  C   UNL A   1      33.592  26.449  25.881  1.00  0.00     0.137 C 
BRANCH   8  12
ATOM     12  C   UNL A   1      30.464  27.478  24.025  1.00  0.00     0.311 C 
ATOM     13  O   UNL A   1      30.259  28.560  23.490  1.00  0.00    -0.252 OA
BRANCH  12  14
ATOM     14  O   UNL A   1      29.510  26.684  24.590  1.00  0.00    -0.469 OA
ATOM     15  C   UNL A   1      28.299  26.591  23.838  1.00  0.00     0.282 C 
ENDBRANCH  12  14
ENDBRANCH   8  12
BRANCH  10  16
ATOM     16  C   UNL A   1      33.773  24.045  25.386  1.00  0.00     0.410 C 
ATOM     17  O   UNL A   1      34.535  23.779  26.309  1.00  0.00    -0.224 OA
BRANCH  16  18
ATOM     18  O   UNL A   1      33.556  23.252  24.306  1.00  0.00    -0.444 OA
BRANCH  18  19
ATOM     19  C   UNL A   1      33.037  21.907  24.475  1.00  0.00     0.106 C 
ATOM     20  C   UNL A   1      34.158  20.915  24.809  1.00  0.00     0.056 C 
ATOM     21  C   UNL A   1      31.908  21.866  25.512  1.00  0.00     0.056 C 
ATOM     22  C   UNL A   1      32.451  21.529  23.105  1.00  0.00     0.056 C 
ENDBRANCH  18  19
ENDBRANCH  16  18
ENDBRANCH  10  16
ENDBRANCH   4   7
ENDBRANCH   2   3
ENDBRANCH   1   2
BRANCH   1  23
ATOM     23  C   UNL A   1      32.748  32.445  27.264  1.00  0.00     0.118 C 
BRANCH  23  24
ATOM     24  N   UNL A   1      32.514  33.841  27.608  1.00  0.00    -0.352 N 
ATOM     25  C   UNL A   1      33.103  34.633  28.564  1.00  0.00     0.251 C 
ATOM     26  H   UNL A   1      31.823  34.290  27.069  1.00  0.00     0.163 HD
ATOM     27  O   UNL A   1      32.640  35.749  28.786  1.00  0.00    -0.269 OA
BRANCH  25  28
ATOM     28  C   UNL A   1      34.268  34.149  29.341  1.00  0.00     0.039 A 
ATOM     29  C   UNL A   1      34.040  33.437  30.522  1.00  0.00     0.014 A 
ATOM     30  C   UNL A   1      35.577  34.412  28.929  1.00  0.00     0.014 A 
ATOM     31  C   UNL A   1      35.121  32.929  31.249  1.00  0.00     0.010 A 
ATOM     32  C   UNL A   1      36.647  33.837  29.610  1.00  0.00     0.010 A 
ATOM     33  C   UNL A   1      36.433  33.091  30.778  1.00  0.00    -0.014 A 
BRANCH  33  34
ATOM     34  C   UNL A   1      37.589  32.471  31.481  1.00  0.00     0.031 A 
ATOM     35  C   UNL A   1      38.341  31.326  30.857  1.00  0.00     0.074 A 
ATOM     36  C   UNL A   1      37.912  32.887  32.722  1.00  0.00     0.049 A 
ATOM     37  N   UNL A   1      39.338  30.632  31.341  1.00  0.00    -0.248 NA
ATOM     38  C   UNL A   1      37.898  30.887  29.524  1.00  0.00     0.031 C 
ATOM     39  C   UNL A   1      37.224  33.945  33.466  1.00  0.00     0.029 A 
ATOM     40  N   UNL A   1      38.890  32.459  33.585  1.00  0.00    -0.354 N 
ATOM     41  C   UNL A   1      39.624  29.660  30.391  1.00  0.00     0.074 A 
ATOM     42  C   UNL A   1      38.665  29.826  29.320  1.00  0.00     0.031 C 
ATOM     43  C   UNL A   1      37.810  34.094  34.664  1.00  0.00     0.029 A 
ATOM     44  C   UNL A   1      38.887  33.119  34.792  1.00  0.00     0.049 A 
ATOM     45  H   UNL A   1      39.532  31.747  33.362  1.00  0.00     0.167 HD
ATOM     46  C   UNL A   1      40.611  28.730  30.390  1.00  0.00     0.034 A 
ATOM     47  C   UNL A   1      39.661  32.954  35.883  1.00  0.00     0.034 A 
ATOM     48  C   UNL A   1      41.576  28.580  31.447  1.00  0.00     0.049 A 
ATOM     49  C   UNL A   1      40.747  31.913  35.862  1.00  0.00     0.074 A 
ATOM     50  C   UNL A   1      42.655  27.715  31.512  1.00  0.00     0.029 A 
ATOM     51  N   UNL A   1      41.572  29.299  32.633  1.00  0.00    -0.354 N 
ATOM     52  N   UNL A   1      41.090  31.097  34.895  1.00  0.00    -0.248 NA
ATOM     53  C   UNL A   1      41.572  31.791  37.073  1.00  0.00     0.031 C 
ATOM     54  C   UNL A   1      43.280  27.887  32.751  1.00  0.00     0.029 A 
ATOM     55  C   UNL A   1      42.618  28.888  33.442  1.00  0.00     0.049 A 
ATOM     56  H   UNL A   1      40.919  30.000  32.866  1.00  0.00     0.167 HD
ATOM     57  C   UNL A   1      42.197  30.397  35.362  1.00  0.00     0.074 A 
ATOM     58  C   UNL A   1      42.475  30.896  36.694  1.00  0.00     0.031 C 
ATOM     59  C   UNL A   1      42.914  29.423  34.748  1.00  0.00     0.034 A 
BRANCH  46  60
ATOM     60  C   UNL A   1      40.716  27.827  29.186  1.00  0.00     0.023 A 
ATOM     61  C   UNL A   1      39.911  26.670  29.109  1.00  0.00     0.012 A 
ATOM     62  C   UNL A   1      41.581  28.135  28.118  1.00  0.00     0.148 A 
ATOM     63  C   UNL A   1      40.006  25.808  28.018  1.00  0.00     0.002 A 
ATOM     64  C   UNL A   1      41.632  27.297  27.010  1.00  0.00     0.091 A 
ATOM     65  F   UNL A   1      42.351  29.228  28.213  1.00  0.00    -0.205 F 
ATOM     66  C   UNL A   1      40.858  26.126  26.965  1.00  0.00     0.022 A 
BRANCH  64  67
ATOM     67  S   UNL A   1      42.636  27.662  25.565  1.00  0.00     0.127 S 
ATOM     68  O   UNL A   1      42.416  26.471  24.745  1.00  0.00    -0.237 OA
ATOM     69  O   UNL A   1      42.006  28.880  25.052  1.00  0.00    -0.237 OA
ATOM     70  O   UNL A   1      43.994  27.843  26.056  1.00  0.00    -0.744 OA
ENDBRANCH  64  67
ENDBRANCH  46  60
BRANCH  47  71
ATOM     71  C   UNL A   1      39.483  33.845  37.066  1.00  0.00     0.023 A 
ATOM     72  C   UNL A   1      39.927  35.181  36.994  1.00  0.00     0.012 A 
ATOM     73  C   UNL A   1      38.861  33.390  38.245  1.00  0.00     0.148 A 
ATOM     74  C   UNL A   1      39.785  36.037  38.086  1.00  0.00     0.002 A 
ATOM     75  C   UNL A   1      38.672  34.265  39.309  1.00  0.00     0.091 A 
ATOM     76  F   UNL A   1      38.451  32.115  38.294  1.00  0.00    -0.205 F 
ATOM     77  C   UNL A   1      39.151  35.583  39.239  1.00  0.00     0.022 A 
BRANCH  75  78
ATOM     78  S   UNL A   1      37.756  33.808  40.784  1.00  0.00     0.127 S 
ATOM     79  O   UNL A   1      38.664  32.855  41.418  1.00  0.00    -0.237 OA
ATOM     80  O   UNL A   1      37.635  35.095  41.472  1.00  0.00    -0.237 OA
ATOM     81  O   UNL A   1      36.494  33.256  40.313  1.00  0.00    -0.744 OA
ENDBRANCH  75  78
ENDBRANCH  47  71
BRANCH  59  82
ATOM     82  C   UNL A   1      44.102  28.858  35.485  1.00  0.00     0.023 A 
ATOM     83  C   UNL A   1      45.386  29.398  35.277  1.00  0.00     0.012 A 
ATOM     84  C   UNL A   1      43.930  27.832  36.435  1.00  0.00     0.148 A 
ATOM     85  C   UNL A   1      46.486  28.901  35.975  1.00  0.00     0.002 A 
ATOM     86  C   UNL A   1      45.022  27.378  37.167  1.00  0.00     0.091 A 
ATOM     87  F   UNL A   1      42.704  27.317  36.607  1.00  0.00    -0.205 F 
ATOM     88  C   UNL A   1      46.303  27.901  36.927  1.00  0.00     0.022 A 
BRANCH  86  89
ATOM     89  S   UNL A   1      44.866  26.166  38.482  1.00  0.00     0.127 S 
ATOM     90  O   UNL A   1      44.325  25.013  37.763  1.00  0.00    -0.237 OA
ATOM     91  O   UNL A   1      46.251  26.013  38.927  1.00  0.00    -0.237 OA
ATOM     92  O   UNL A   1      43.974  26.756  39.472  1.00  0.00    -0.744 OA
ENDBRANCH  86  89
ENDBRANCH  59  82
ENDBRANCH  33  34
ENDBRANCH  25  28
ENDBRANCH  23  24
ENDBRANCH   1  23
TORSDOF 18
ENDMDL
MODEL 3
REMARK VINA RESULT:     -10.9      4.594      9.808
REMARK SMILES COC(=O)[C@@H]1CN(C(=O)OC(C)(C)C)C[C@@H]1C(=O)NCCCNC(=O)c1ccc(-c2c3nc(c(-c4cccc(S(=O)(=O)[O-])c4F)c4ccc([nH]4)c(-c4cccc(S(=O)(=O)[O-])c4F)c4nc(c(-c5cccc(S(=O)(=O)[O-])c5F)c5ccc2[nH]5)C=C4)C=C3)cc1
REMARK SMILES IDX 21 1 20 2 19 3 17 4 18 5 16 7 5 8 6 9 7 10 15 11 3 12 4 13
REMARK SMILES IDX 2 14 1 15 8 16 9 17 10 18 11 19 12 20 13 21 14 22 22 23
REMARK SMILES IDX 23 24 24 25 25 27 26 28 27 29 88 30 28 31 87 32 29 33 30 34
REMARK SMILES IDX 31 35 81 36 32 37 86 38 80 39 82 40 33 41 85 42 79 43 78 44
REMARK SMILES IDX 34 46 66 47 46 48 65 49 47 50 50 51 64 52 83 53 48 54 49 55
REMARK SMILES IDX 63 57 84 58 51 59 35 60 36 61 44 62 37 63 39 64 45 65 38 66
REMARK SMILES IDX 40 67 41 68 42 69 43 70 67 71 68 72 76 73 69 74 71 75 77 76
REMARK SMILES IDX 70 77 72 78 73 79 74 80 75 81 52 82 53 83 61 84 54 85 56 86
REMARK SMILES IDX 62 87 55 88 57 89 58 90 59 91 60 92
REMARK H PARENT 19 6 23 26 82 45 50 56
REMARK Flexibility Score: inf
ROOT
ATOM      1  C   UNL A   1      36.025  23.518  25.305  1.00  0.00     0.042 C 
ENDROOT
BRANCH   1   2
ATOM      2  C   UNL A   1      34.892  22.938  24.466  1.00  0.00     0.117 C 
BRANCH   2   3
ATOM      3  N   UNL A   1      34.565  23.772  23.320  1.00  0.00    -0.356 N 
ATOM      4  C   UNL A   1      33.825  24.917  23.260  1.00  0.00     0.225 C 
ATOM      5  O   UNL A   1      33.678  25.468  22.171  1.00  0.00    -0.275 OA
ATOM      6  H   UNL A   1      34.932  23.465  22.460  1.00  0.00     0.163 HD
BRANCH   4   7
ATOM      7  C   UNL A   1      33.259  25.491  24.547  1.00  0.00     0.114 C 
ATOM      8  C   UNL A   1      31.750  25.274  24.752  1.00  0.00     0.133 C 
ATOM      9  C   UNL A   1      31.116  26.473  24.060  1.00  0.00     0.139 C 
ATOM     10  N   UNL A   1      32.072  27.537  24.314  1.00  0.00    -0.306 N 
ATOM     11  C   UNL A   1      33.407  27.012  24.525  1.00  0.00     0.137 C 
BRANCH   8  12
ATOM     12  C   UNL A   1      31.191  23.960  24.270  1.00  0.00     0.311 C 
ATOM     13  O   UNL A   1      30.594  23.803  23.213  1.00  0.00    -0.252 OA
BRANCH  12  14
ATOM     14  O   UNL A   1      31.329  23.019  25.246  1.00  0.00    -0.469 OA
ATOM     15  C   UNL A   1      30.901  23.445  26.541  1.00  0.00     0.282 C 
ENDBRANCH  12  14
ENDBRANCH   8  12
BRANCH  10  16
ATOM     16  C   UNL A   1      31.808  28.879  24.404  1.00  0.00     0.410 C 
ATOM     17  O   UNL A   1      30.855  29.406  23.842  1.00  0.00    -0.224 OA
BRANCH  16  18
ATOM     18  O   UNL A   1      32.734  29.540  25.144  1.00  0.00    -0.444 OA
BRANCH  18  19
ATOM     19  C   UNL A   1      32.441  29.921  26.514  1.00  0.00     0.106 C 
ATOM     20  C   UNL A   1      31.686  31.255  26.572  1.00  0.00     0.056 C 
ATOM     21  C   UNL A   1      31.697  28.809  27.263  1.00  0.00     0.056 C 
ATOM     22  C   UNL A   1      33.814  30.118  27.177  1.00  0.00     0.056 C 
ENDBRANCH  18  19
ENDBRANCH  16  18
ENDBRANCH  10  16
ENDBRANCH   4   7
ENDBRANCH   2   3
ENDBRANCH   1   2
BRANCH   1  23
ATOM     23  C   UNL A   1      37.420  23.296  24.723  1.00  0.00     0.118 C 
BRANCH  23  24
ATOM     24  N   UNL A   1      38.232  22.385  25.518  1.00  0.00    -0.352 N 
ATOM     25  C   UNL A   1      39.239  22.643  26.417  1.00  0.00     0.251 C 
ATOM     26  H   UNL A   1      38.026  21.430  25.391  1.00  0.00     0.163 HD
ATOM     27  O   UNL A   1      39.898  21.707  26.862  1.00  0.00    -0.269 OA
BRANCH  25  28
ATOM     28  C   UNL A   1      39.550  24.029  26.834  1.00  0.00     0.039 A 
ATOM     29  C   UNL A   1      39.247  24.422  28.142  1.00  0.00     0.014 A 
ATOM     30  C   UNL A   1      40.112  24.948  25.946  1.00  0.00     0.014 A 
ATOM     31  C   UNL A   1      39.574  25.710  28.575  1.00  0.00     0.010 A 
ATOM     32  C   UNL A   1      40.510  26.202  26.402  1.00  0.00     0.010 A 
ATOM     33  C   UNL A   1      40.244  26.599  27.722  1.00  0.00    -0.014 A 
BRANCH  33  34
ATOM     34  C   UNL A   1      40.692  27.937  28.195  1.00  0.00     0.031 A 
ATOM     35  C   UNL A   1      42.158  28.274  28.265  1.00  0.00     0.074 A 
ATOM     36  C   UNL A   1      39.779  28.824  28.640  1.00  0.00     0.049 A 
ATOM     37  N   UNL A   1      42.734  29.366  28.695  1.00  0.00    -0.248 NA
ATOM     38  C   UNL A   1      43.100  27.238  27.813  1.00  0.00     0.031 C 
ATOM     39  C   UNL A   1      38.333  28.598  28.685  1.00  0.00     0.029 A 
ATOM     40  N   UNL A   1      39.933  30.086  29.157  1.00  0.00    -0.354 N 
ATOM     41  C   UNL A   1      44.101  29.142  28.596  1.00  0.00     0.074 A 
ATOM     42  C   UNL A   1      44.269  27.790  28.105  1.00  0.00     0.031 C 
ATOM     43  C   UNL A   1      37.732  29.689  29.185  1.00  0.00     0.029 A 
ATOM     44  C   UNL A   1      38.749  30.675  29.534  1.00  0.00     0.049 A 
ATOM     45  H   UNL A   1      40.808  30.527  29.250  1.00  0.00     0.167 HD
ATOM     46  C   UNL A   1      45.127  29.988  28.860  1.00  0.00     0.034 A 
ATOM     47  C   UNL A   1      38.507  31.873  30.102  1.00  0.00     0.034 A 
ATOM     48  C   UNL A   1      44.957  31.337  29.329  1.00  0.00     0.049 A 
ATOM     49  C   UNL A   1      39.662  32.794  30.392  1.00  0.00     0.074 A 
ATOM     50  C   UNL A   1      45.927  32.297  29.562  1.00  0.00     0.029 A 
ATOM     51  N   UNL A   1      43.740  31.917  29.654  1.00  0.00    -0.354 N 
ATOM     52  N   UNL A   1      40.939  32.615  30.158  1.00  0.00    -0.248 NA
ATOM     53  C   UNL A   1      39.337  34.095  30.994  1.00  0.00     0.031 C 
ATOM     54  C   UNL A   1      45.299  33.442  30.062  1.00  0.00     0.029 A 
ATOM     55  C   UNL A   1      43.933  33.213  30.099  1.00  0.00     0.049 A 
ATOM     56  H   UNL A   1      42.864  31.470  29.578  1.00  0.00     0.167 HD
ATOM     57  C   UNL A   1      41.566  33.795  30.543  1.00  0.00     0.074 A 
ATOM     58  C   UNL A   1      40.524  34.687  31.011  1.00  0.00     0.031 C 
ATOM     59  C   UNL A   1      42.885  34.109  30.520  1.00  0.00     0.034 A 
BRANCH  46  60
ATOM     60  C   UNL A   1      46.527  29.484  28.608  1.00  0.00     0.023 A 
ATOM     61  C   UNL A   1      47.139  29.720  27.358  1.00  0.00     0.012 A 
ATOM     62  C   UNL A   1      47.249  28.806  29.610  1.00  0.00     0.148 A 
ATOM     63  C   UNL A   1      48.423  29.246  27.093  1.00  0.00     0.002 A 
ATOM     64  C   UNL A   1      48.548  28.381  29.355  1.00  0.00     0.091 A 
ATOM     65  F   UNL A   1      46.648  28.575  30.786  1.00  0.00    -0.205 F 
ATOM     66  C   UNL A   1      49.129  28.585  28.093  1.00  0.00     0.022 A 
BRANCH  64  67
ATOM     67  S   UNL A   1      49.572  27.595  30.603  1.00  0.00     0.127 S 
ATOM     68  O   UNL A   1      48.842  26.351  30.843  1.00  0.00    -0.237 OA
ATOM     69  O   UNL A   1      50.844  27.429  29.897  1.00  0.00    -0.237 OA
ATOM     70  O   UNL A   1      49.619  28.520  31.726  1.00  0.00    -0.744 OA
ENDBRANCH  64  67
ENDBRANCH  46  60
BRANCH  47  71
ATOM     71  C   UNL A   1      37.105  32.302  30.373  1.00  0.00     0.023 A 
ATOM     72  C   UNL A   1      36.536  32.035  31.635  1.00  0.00     0.012 A 
ATOM     73  C   UNL A   1      36.343  32.988  29.407  1.00  0.00     0.148 A 
ATOM     74  C   UNL A   1      35.223  32.412  31.917  1.00  0.00     0.002 A 
ATOM     75  C   UNL A   1      35.056  33.410  29.715  1.00  0.00     0.091 A 
ATOM     76  F   UNL A   1      36.902  33.227  28.213  1.00  0.00    -0.205 F 
ATOM     77  C   UNL A   1      34.487  33.107  30.962  1.00  0.00     0.022 A 
BRANCH  75  78
ATOM     78  S   UNL A   1      34.077  34.419  28.597  1.00  0.00     0.127 S 
ATOM     79  O   UNL A   1      33.997  33.565  27.414  1.00  0.00    -0.237 OA
ATOM     80  O   UNL A   1      32.825  34.562  29.341  1.00  0.00    -0.237 OA
ATOM     81  O   UNL A   1      34.821  35.659  28.428  1.00  0.00    -0.744 OA
ENDBRANCH  75  78
ENDBRANCH  47  71
BRANCH  59  82
ATOM     82  C   UNL A   1      43.283  35.493  30.969  1.00  0.00     0.023 A 
ATOM     83  C   UNL A   1      43.572  35.741  32.325  1.00  0.00     0.012 A 
ATOM     84  C   UNL A   1      43.434  36.533  30.029  1.00  0.00     0.148 A 
ATOM     85  C   UNL A   1      43.969  37.010  32.745  1.00  0.00     0.002 A 
ATOM     86  C   UNL A   1      43.882  37.781  30.447  1.00  0.00     0.091 A 
ATOM     87  F   UNL A   1      43.138  36.283  28.746  1.00  0.00    -0.205 F 
ATOM     88  C   UNL A   1      44.135  38.026  31.806  1.00  0.00     0.022 A 
BRANCH  86  89
ATOM     89  S   UNL A   1      44.221  39.118  29.297  1.00  0.00     0.127 S 
ATOM     90  O   UNL A   1      45.251  38.525  28.445  1.00  0.00    -0.237 OA
ATOM     91  O   UNL A   1      42.924  39.303  28.648  1.00  0.00    -0.237 OA
ATOM     92  O   UNL A   1      44.659  40.247  30.109  1.00  0.00    -0.744 OA
ENDBRANCH  86  89
ENDBRANCH  59  82
ENDBRANCH  33  34
ENDBRANCH  25  28
ENDBRANCH  23  24
ENDBRANCH   1  23
TORSDOF 18
ENDMDL
