MODEL 1
REMARK VINA RESULT:     -11.5      0.000      0.000
REMARK SMILES O=C(CCCN1C(=O)C(=O)/C(=C(\[O-])c2ccccc2)[C@H]1c1ccc([N+](=O)[O-])cc1)NCCCNC(=O)c1ccc(-c2c3nc(c(-c4cccc(S(=O)(=O)[O-])c4F)c4ccc([nH]4)c(-c4cccc(S(=O)(=O)[O-])c4F)c4nc(c(-c5cccc(S(=O)(=O)[O-])c5F)c5ccc2[nH]5)C=C4)C=C3)cc1
REMARK SMILES IDX 31 1 30 2 1 3 2 4 3 6 4 7 5 8 6 9 7 10 20 11 8 12 9 13 11 14
REMARK SMILES IDX 10 15 12 16 13 17 21 18 22 19 29 20 23 21 28 22 24 23 25 24
REMARK SMILES IDX 26 25 27 26 14 27 15 28 19 29 16 30 18 31 17 32 32 33 33 34
REMARK SMILES IDX 34 35 35 36 36 38 37 39 38 40 99 41 39 42 98 43 40 44 41 45
REMARK SMILES IDX 42 46 92 47 43 48 97 49 91 50 93 51 44 52 96 53 90 54 89 55
REMARK SMILES IDX 45 57 77 58 57 59 76 60 58 61 61 62 75 63 94 64 59 65 60 66
REMARK SMILES IDX 74 68 95 69 62 70 46 71 47 72 55 73 48 74 50 75 56 76 49 77
REMARK SMILES IDX 51 78 52 79 53 80 54 81 78 82 79 83 87 84 80 85 82 86 88 87
REMARK SMILES IDX 81 88 83 89 84 90 85 91 86 92 63 93 64 94 72 95 65 96 67 97
REMARK SMILES IDX 73 98 66 99 68 100 69 101 70 102 71 103
REMARK H PARENT 30 5 34 37 93 56 61 67
REMARK Flexibility Score: inf
ROOT
ATOM      1  C   UNL A   1      34.798  21.801  26.447  1.00  0.00     0.117 C 
ENDROOT
BRANCH   1   2
ATOM      2  N   UNL A   1      33.500  22.408  26.234  1.00  0.00    -0.356 N 
ATOM      3  O   UNL A   1      33.600  22.288  23.942  1.00  0.00    -0.275 OA
ATOM      4  C   UNL A   1      32.993  22.581  24.968  1.00  0.00     0.220 C 
ATOM      5  H   UNL A   1      32.972  22.703  27.010  1.00  0.00     0.163 HD
BRANCH   4   6
ATOM      6  C   UNL A   1      31.576  23.104  24.913  1.00  0.00     0.102 C 
BRANCH   6   7
ATOM      7  C   UNL A   1      30.949  22.831  23.549  1.00  0.00     0.031 C 
BRANCH   7   8
ATOM      8  C   UNL A   1      30.514  24.072  22.774  1.00  0.00     0.121 C 
BRANCH   8   9
ATOM      9  N   UNL A   1      31.464  25.177  22.733  1.00  0.00    -0.325 N 
ATOM     10  C   UNL A   1      32.600  25.100  21.957  1.00  0.00     0.295 C 
ATOM     11  C   UNL A   1      31.496  26.280  23.697  1.00  0.00     0.150 C 
ATOM     12  O   UNL A   1      32.801  24.372  21.013  1.00  0.00    -0.265 OA
ATOM     13  C   UNL A   1      33.615  26.059  22.564  1.00  0.00     0.248 C 
ATOM     14  C   UNL A   1      32.943  26.732  23.694  1.00  0.00     0.025 C 
ATOM     15  O   UNL A   1      34.759  26.221  22.203  1.00  0.00    -0.283 OA
ATOM     16  C   UNL A   1      33.594  27.617  24.466  1.00  0.00    -0.092 C 
ATOM     17  O   UNL A   1      34.923  27.952  24.303  1.00  0.00    -0.872 OA
BRANCH  11  18
ATOM     18  C   UNL A   1      30.493  27.374  23.341  1.00  0.00    -0.020 A 
ATOM     19  C   UNL A   1      29.155  27.353  23.784  1.00  0.00     0.013 A 
ATOM     20  C   UNL A   1      30.905  28.448  22.532  1.00  0.00     0.013 A 
ATOM     21  C   UNL A   1      28.252  28.353  23.408  1.00  0.00     0.086 A 
ATOM     22  C   UNL A   1      30.024  29.481  22.194  1.00  0.00     0.086 A 
ATOM     23  C   UNL A   1      28.696  29.419  22.623  1.00  0.00     0.269 A 
BRANCH  23  24
ATOM     24  N   UNL A   1      27.761  30.477  22.237  1.00  0.00     0.062 N 
ATOM     25  O   UNL A   1      27.042  30.962  23.122  1.00  0.00    -0.258 OA
ATOM     26  O   UNL A   1      27.739  30.817  21.046  1.00  0.00    -0.258 OA
ENDBRANCH  23  24
ENDBRANCH  11  18
BRANCH  16  27
ATOM     27  C   UNL A   1      32.896  28.442  25.462  1.00  0.00    -0.033 A 
ATOM     28  C   UNL A   1      32.669  29.793  25.166  1.00  0.00     0.007 A 
ATOM     29  C   UNL A   1      32.391  27.911  26.655  1.00  0.00     0.007 A 
ATOM     30  C   UNL A   1      31.906  30.590  26.020  1.00  0.00     0.001 A 
ATOM     31  C   UNL A   1      31.626  28.709  27.510  1.00  0.00     0.001 A 
ATOM     32  C   UNL A   1      31.376  30.042  27.185  1.00  0.00     0.000 A 
ENDBRANCH  16  27
ENDBRANCH   8   9
ENDBRANCH   7   8
ENDBRANCH   6   7
ENDBRANCH   4   6
ENDBRANCH   1   2
BRANCH   1  33
ATOM     33  C   UNL A   1      35.947  22.801  26.520  1.00  0.00     0.042 C 
BRANCH  33  34
ATOM     34  C   UNL A   1      37.048  22.638  25.477  1.00  0.00     0.118 C 
BRANCH  34  35
ATOM     35  N   UNL A   1      37.930  21.505  25.706  1.00  0.00    -0.352 N 
ATOM     36  C   UNL A   1      39.206  21.500  26.215  1.00  0.00     0.251 C 
ATOM     37  H   UNL A   1      37.564  20.623  25.463  1.00  0.00     0.163 HD
ATOM     38  O   UNL A   1      39.829  20.443  26.288  1.00  0.00    -0.269 OA
BRANCH  36  39
ATOM     39  C   UNL A   1      39.848  22.766  26.637  1.00  0.00     0.039 A 
ATOM     40  C   UNL A   1      39.558  23.931  25.920  1.00  0.00     0.014 A 
ATOM     41  C   UNL A   1      40.732  22.817  27.720  1.00  0.00     0.014 A 
ATOM     42  C   UNL A   1      40.116  25.149  26.316  1.00  0.00     0.010 A 
ATOM     43  C   UNL A   1      41.239  24.044  28.149  1.00  0.00     0.010 A 
ATOM     44  C   UNL A   1      40.946  25.222  27.447  1.00  0.00    -0.014 A 
BRANCH  44  45
ATOM     45  C   UNL A   1      41.502  26.529  27.890  1.00  0.00     0.031 A 
ATOM     46  C   UNL A   1      42.937  26.889  27.609  1.00  0.00     0.074 A 
ATOM     47  C   UNL A   1      40.726  27.385  28.584  1.00  0.00     0.049 A 
ATOM     48  N   UNL A   1      43.571  28.006  27.864  1.00  0.00    -0.248 NA
ATOM     49  C   UNL A   1      43.777  25.855  26.980  1.00  0.00     0.031 C 
ATOM     50  C   UNL A   1      39.348  27.123  29.007  1.00  0.00     0.029 A 
ATOM     51  N   UNL A   1      40.986  28.644  29.065  1.00  0.00    -0.354 N 
ATOM     52  C   UNL A   1      44.882  27.803  27.451  1.00  0.00     0.074 A 
ATOM     53  C   UNL A   1      44.965  26.443  26.965  1.00  0.00     0.031 C 
ATOM     54  C   UNL A   1      38.881  28.192  29.672  1.00  0.00     0.029 A 
ATOM     55  C   UNL A   1      39.924  29.212  29.730  1.00  0.00     0.049 A 
ATOM     56  H   UNL A   1      41.852  29.098  28.947  1.00  0.00     0.167 HD
ATOM     57  C   UNL A   1      45.918  28.678  27.441  1.00  0.00     0.034 A 
ATOM     58  C   UNL A   1      39.797  30.425  30.304  1.00  0.00     0.034 A 
ATOM     59  C   UNL A   1      45.827  30.044  27.883  1.00  0.00     0.049 A 
ATOM     60  C   UNL A   1      40.935  31.406  30.207  1.00  0.00     0.074 A 
ATOM     61  C   UNL A   1      46.795  31.030  27.840  1.00  0.00     0.029 A 
ATOM     62  N   UNL A   1      44.700  30.618  28.451  1.00  0.00    -0.354 N 
ATOM     63  N   UNL A   1      42.111  31.256  29.647  1.00  0.00    -0.248 NA
ATOM     64  C   UNL A   1      40.710  32.744  30.777  1.00  0.00     0.031 C 
ATOM     65  C   UNL A   1      46.257  32.200  28.389  1.00  0.00     0.029 A 
ATOM     66  C   UNL A   1      44.947  31.946  28.758  1.00  0.00     0.049 A 
ATOM     67  H   UNL A   1      43.848  30.150  28.611  1.00  0.00     0.167 HD
ATOM     68  C   UNL A   1      42.745  32.488  29.755  1.00  0.00     0.074 A 
ATOM     69  C   UNL A   1      41.817  33.380  30.418  1.00  0.00     0.031 C 
ATOM     70  C   UNL A   1      43.992  32.843  29.355  1.00  0.00     0.034 A 
BRANCH  57  71
ATOM     71  C   UNL A   1      47.227  28.202  26.868  1.00  0.00     0.023 A 
ATOM     72  C   UNL A   1      48.283  27.872  27.744  1.00  0.00     0.012 A 
ATOM     73  C   UNL A   1      47.401  28.028  25.482  1.00  0.00     0.148 A 
ATOM     74  C   UNL A   1      49.500  27.410  27.248  1.00  0.00     0.002 A 
ATOM     75  C   UNL A   1      48.604  27.526  24.997  1.00  0.00     0.091 A 
ATOM     76  F   UNL A   1      46.395  28.366  24.662  1.00  0.00    -0.205 F 
ATOM     77  C   UNL A   1      49.657  27.227  25.877  1.00  0.00     0.022 A 
BRANCH  75  78
ATOM     78  S   UNL A   1      48.878  27.181  23.255  1.00  0.00     0.127 S 
ATOM     79  O   UNL A   1      48.255  28.342  22.622  1.00  0.00    -0.237 OA
ATOM     80  O   UNL A   1      50.338  27.151  23.170  1.00  0.00    -0.237 OA
ATOM     81  O   UNL A   1      48.231  25.902  22.995  1.00  0.00    -0.744 OA
ENDBRANCH  75  78
ENDBRANCH  57  71
BRANCH  58  82
ATOM     82  C   UNL A   1      38.502  30.821  30.928  1.00  0.00     0.023 A 
ATOM     83  C   UNL A   1      38.279  30.538  32.290  1.00  0.00     0.012 A 
ATOM     84  C   UNL A   1      37.506  31.492  30.194  1.00  0.00     0.148 A 
ATOM     85  C   UNL A   1      37.074  30.885  32.902  1.00  0.00     0.002 A 
ATOM     86  C   UNL A   1      36.329  31.881  30.822  1.00  0.00     0.091 A 
ATOM     87  F   UNL A   1      37.732  31.740  28.896  1.00  0.00    -0.205 F 
ATOM     88  C   UNL A   1      36.103  31.564  32.171  1.00  0.00     0.022 A 
BRANCH  86  89
ATOM     89  S   UNL A   1      35.080  32.871  29.992  1.00  0.00     0.127 S 
ATOM     90  O   UNL A   1      34.566  31.932  28.999  1.00  0.00    -0.237 OA
ATOM     91  O   UNL A   1      34.157  33.178  31.085  1.00  0.00    -0.237 OA
ATOM     92  O   UNL A   1      35.788  34.029  29.464  1.00  0.00    -0.744 OA
ENDBRANCH  86  89
ENDBRANCH  58  82
BRANCH  70  93
ATOM     93  C   UNL A   1      44.418  34.272  29.580  1.00  0.00     0.023 A 
ATOM     94  C   UNL A   1      45.065  34.631  30.779  1.00  0.00     0.012 A 
ATOM     95  C   UNL A   1      44.233  35.244  28.576  1.00  0.00     0.148 A 
ATOM     96  C   UNL A   1      45.487  35.943  30.991  1.00  0.00     0.002 A 
ATOM     97  C   UNL A   1      44.698  36.538  28.777  1.00  0.00     0.091 A 
ATOM     98  F   UNL A   1      43.595  34.892  27.450  1.00  0.00    -0.205 F 
ATOM     99  C   UNL A   1      45.315  36.893  29.987  1.00  0.00     0.022 A 
BRANCH  97 100
ATOM    100  S   UNL A   1      44.598  37.792  27.494  1.00  0.00     0.127 S 
ATOM    101  O   UNL A   1      45.682  37.395  26.598  1.00  0.00    -0.237 OA
ATOM    102  O   UNL A   1      43.253  37.585  26.953  1.00  0.00    -0.237 OA
ATOM    103  O   UNL A   1      44.776  39.068  28.177  1.00  0.00    -0.744 OA
ENDBRANCH  97 100
ENDBRANCH  70  93
ENDBRANCH  44  45
ENDBRANCH  36  39
ENDBRANCH  34  35
ENDBRANCH  33  34
ENDBRANCH   1  33
TORSDOF 19
ENDMDL
MODEL 2
REMARK VINA RESULT:     -11.2      2.119      2.471
REMARK SMILES O=C(CCCN1C(=O)C(=O)/C(=C(\[O-])c2ccccc2)[C@H]1c1ccc([N+](=O)[O-])cc1)NCCCNC(=O)c1ccc(-c2c3nc(c(-c4cccc(S(=O)(=O)[O-])c4F)c4ccc([nH]4)c(-c4cccc(S(=O)(=O)[O-])c4F)c4nc(c(-c5cccc(S(=O)(=O)[O-])c5F)c5ccc2[nH]5)C=C4)C=C3)cc1
REMARK SMILES IDX 31 1 30 2 1 3 2 4 3 6 4 7 5 8 6 9 7 10 20 11 8 12 9 13 11 14
REMARK SMILES IDX 10 15 12 16 13 17 21 18 22 19 29 20 23 21 28 22 24 23 25 24
REMARK SMILES IDX 26 25 27 26 14 27 15 28 19 29 16 30 18 31 17 32 32 33 33 34
REMARK SMILES IDX 34 35 35 36 36 38 37 39 38 40 99 41 39 42 98 43 40 44 41 45
REMARK SMILES IDX 42 46 92 47 43 48 97 49 91 50 93 51 44 52 96 53 90 54 89 55
REMARK SMILES IDX 45 57 77 58 57 59 76 60 58 61 61 62 75 63 94 64 59 65 60 66
REMARK SMILES IDX 74 68 95 69 62 70 46 71 47 72 55 73 48 74 50 75 56 76 49 77
REMARK SMILES IDX 51 78 52 79 53 80 54 81 78 82 79 83 87 84 80 85 82 86 88 87
REMARK SMILES IDX 81 88 83 89 84 90 85 91 86 92 63 93 64 94 72 95 65 96 67 97
REMARK SMILES IDX 73 98 66 99 68 100 69 101 70 102 71 103
REMARK H PARENT 30 5 34 37 93 56 61 67
REMARK Flexibility Score: inf
ROOT
ATOM      1  C   UNL A   1      35.848  21.368  25.913  1.00  0.00     0.117 C 
ENDROOT
BRANCH   1   2
ATOM      2  N   UNL A   1      34.498  21.173  25.424  1.00  0.00    -0.356 N 
ATOM      3  O   UNL A   1      34.752  22.540  23.595  1.00  0.00    -0.275 OA
ATOM      4  C   UNL A   1      34.066  21.774  24.266  1.00  0.00     0.220 C 
ATOM      5  H   UNL A   1      33.879  20.601  25.932  1.00  0.00     0.163 HD
BRANCH   4   6
ATOM      6  C   UNL A   1      32.681  21.371  23.816  1.00  0.00     0.102 C 
BRANCH   6   7
ATOM      7  C   UNL A   1      32.262  22.157  22.576  1.00  0.00     0.031 C 
BRANCH   7   8
ATOM      8  C   UNL A   1      31.316  23.325  22.836  1.00  0.00     0.121 C 
BRANCH   8   9
ATOM      9  N   UNL A   1      31.885  24.662  22.709  1.00  0.00    -0.325 N 
ATOM     10  C   UNL A   1      32.807  24.943  21.723  1.00  0.00     0.295 C 
ATOM     11  C   UNL A   1      31.808  25.699  23.740  1.00  0.00     0.150 C 
ATOM     12  O   UNL A   1      33.002  24.332  20.698  1.00  0.00    -0.265 OA
ATOM     13  C   UNL A   1      33.614  26.141  22.204  1.00  0.00     0.248 C 
ATOM     14  C   UNL A   1      33.034  26.556  23.497  1.00  0.00     0.025 C 
ATOM     15  O   UNL A   1      34.563  26.642  21.644  1.00  0.00    -0.283 OA
ATOM     16  C   UNL A   1      33.556  27.572  24.202  1.00  0.00    -0.092 C 
ATOM     17  O   UNL A   1      34.672  28.287  23.815  1.00  0.00    -0.872 OA
BRANCH  11  18
ATOM     18  C   UNL A   1      30.485  26.459  23.682  1.00  0.00    -0.020 A 
ATOM     19  C   UNL A   1      29.297  25.965  24.257  1.00  0.00     0.013 A 
ATOM     20  C   UNL A   1      30.434  27.701  23.023  1.00  0.00     0.013 A 
ATOM     21  C   UNL A   1      28.094  26.671  24.153  1.00  0.00     0.086 A 
ATOM     22  C   UNL A   1      29.248  28.439  22.958  1.00  0.00     0.086 A 
ATOM     23  C   UNL A   1      28.079  27.911  23.512  1.00  0.00     0.269 A 
BRANCH  23  24
ATOM     24  N   UNL A   1      26.827  28.663  23.412  1.00  0.00     0.062 N 
ATOM     25  O   UNL A   1      26.892  29.848  23.055  1.00  0.00    -0.258 OA
ATOM     26  O   UNL A   1      25.777  28.070  23.700  1.00  0.00    -0.258 OA
ENDBRANCH  23  24
ENDBRANCH  11  18
BRANCH  16  27
ATOM     27  C   UNL A   1      32.879  28.128  25.383  1.00  0.00    -0.033 A 
ATOM     28  C   UNL A   1      32.510  29.480  25.363  1.00  0.00     0.007 A 
ATOM     29  C   UNL A   1      32.531  27.342  26.488  1.00  0.00     0.007 A 
ATOM     30  C   UNL A   1      31.759  30.027  26.403  1.00  0.00     0.001 A 
ATOM     31  C   UNL A   1      31.779  27.891  27.529  1.00  0.00     0.001 A 
ATOM     32  C   UNL A   1      31.384  29.227  27.480  1.00  0.00     0.000 A 
ENDBRANCH  16  27
ENDBRANCH   8   9
ENDBRANCH   7   8
ENDBRANCH   6   7
ENDBRANCH   4   6
ENDBRANCH   1   2
BRANCH   1  33
ATOM     33  C   UNL A   1      36.183  22.816  26.250  1.00  0.00     0.042 C 
BRANCH  33  34
ATOM     34  C   UNL A   1      37.540  23.322  25.771  1.00  0.00     0.118 C 
BRANCH  34  35
ATOM     35  N   UNL A   1      38.602  22.329  25.816  1.00  0.00    -0.352 N 
ATOM     36  C   UNL A   1      39.887  22.467  26.284  1.00  0.00     0.251 C 
ATOM     37  H   UNL A   1      38.369  21.439  25.463  1.00  0.00     0.163 HD
ATOM     38  O   UNL A   1      40.672  21.526  26.192  1.00  0.00    -0.269 OA
BRANCH  36  39
ATOM     39  C   UNL A   1      40.339  23.754  26.860  1.00  0.00     0.039 A 
ATOM     40  C   UNL A   1      40.123  24.924  26.127  1.00  0.00     0.014 A 
ATOM     41  C   UNL A   1      40.977  23.819  28.103  1.00  0.00     0.014 A 
ATOM     42  C   UNL A   1      40.502  26.160  26.658  1.00  0.00     0.010 A 
ATOM     43  C   UNL A   1      41.298  25.059  28.657  1.00  0.00     0.010 A 
ATOM     44  C   UNL A   1      41.075  26.242  27.938  1.00  0.00    -0.014 A 
BRANCH  44  45
ATOM     45  C   UNL A   1      41.437  27.563  28.518  1.00  0.00     0.031 A 
ATOM     46  C   UNL A   1      42.880  27.968  28.669  1.00  0.00     0.074 A 
ATOM     47  C   UNL A   1      40.465  28.393  28.948  1.00  0.00     0.049 A 
ATOM     48  N   UNL A   1      43.376  29.102  29.092  1.00  0.00    -0.248 NA
ATOM     49  C   UNL A   1      43.898  26.962  28.321  1.00  0.00     0.031 C 
ATOM     50  C   UNL A   1      39.032  28.087  28.949  1.00  0.00     0.029 A 
ATOM     51  N   UNL A   1      40.535  29.657  29.478  1.00  0.00    -0.354 N 
ATOM     52  C   UNL A   1      44.757  28.941  29.085  1.00  0.00     0.074 A 
ATOM     53  C   UNL A   1      45.019  27.586  28.652  1.00  0.00     0.031 C 
ATOM     54  C   UNL A   1      38.359  29.140  29.442  1.00  0.00     0.029 A 
ATOM     55  C   UNL A   1      39.308  30.191  29.798  1.00  0.00     0.049 A 
ATOM     56  H   UNL A   1      41.383  30.138  29.616  1.00  0.00     0.167 HD
ATOM     57  C   UNL A   1      45.722  29.847  29.375  1.00  0.00     0.034 A 
ATOM     58  C   UNL A   1      38.981  31.397  30.303  1.00  0.00     0.034 A 
ATOM     59  C   UNL A   1      45.464  31.208  29.763  1.00  0.00     0.049 A 
ATOM     60  C   UNL A   1      40.067  32.412  30.539  1.00  0.00     0.074 A 
ATOM     61  C   UNL A   1      46.373  32.224  30.001  1.00  0.00     0.029 A 
ATOM     62  N   UNL A   1      44.204  31.745  29.971  1.00  0.00    -0.354 N 
ATOM     63  N   UNL A   1      41.359  32.300  30.350  1.00  0.00    -0.248 NA
ATOM     64  C   UNL A   1      39.644  33.741  31.010  1.00  0.00     0.031 C 
ATOM     65  C   UNL A   1      45.662  33.375  30.361  1.00  0.00     0.029 A 
ATOM     66  C   UNL A   1      44.309  33.079  30.330  1.00  0.00     0.049 A 
ATOM     67  H   UNL A   1      43.357  31.252  29.877  1.00  0.00     0.167 HD
ATOM     68  C   UNL A   1      41.897  33.551  30.633  1.00  0.00     0.074 A 
ATOM     69  C   UNL A   1      40.789  34.412  30.989  1.00  0.00     0.031 C 
ATOM     70  C   UNL A   1      43.195  33.945  30.616  1.00  0.00     0.034 A 
BRANCH  57  71
ATOM     71  C   UNL A   1      47.156  29.413  29.214  1.00  0.00     0.023 A 
ATOM     72  C   UNL A   1      47.876  28.981  30.348  1.00  0.00     0.012 A 
ATOM     73  C   UNL A   1      47.775  29.378  27.950  1.00  0.00     0.148 A 
ATOM     74  C   UNL A   1      49.197  28.554  30.232  1.00  0.00     0.002 A 
ATOM     75  C   UNL A   1      49.080  28.911  27.836  1.00  0.00     0.091 A 
ATOM     76  F   UNL A   1      47.084  29.812  26.886  1.00  0.00    -0.205 F 
ATOM     77  C   UNL A   1      49.795  28.509  28.976  1.00  0.00     0.022 A 
BRANCH  75  78
ATOM     78  S   UNL A   1      49.912  28.741  26.252  1.00  0.00     0.127 S 
ATOM     79  O   UNL A   1      50.505  30.067  26.086  1.00  0.00    -0.237 OA
ATOM     80  O   UNL A   1      50.875  27.673  26.521  1.00  0.00    -0.237 OA
ATOM     81  O   UNL A   1      48.875  28.393  25.292  1.00  0.00    -0.744 OA
ENDBRANCH  75  78
ENDBRANCH  57  71
BRANCH  58  82
ATOM     82  C   UNL A   1      37.549  31.751  30.516  1.00  0.00     0.023 A 
ATOM     83  C   UNL A   1      36.936  31.434  31.745  1.00  0.00     0.012 A 
ATOM     84  C   UNL A   1      36.800  32.416  29.527  1.00  0.00     0.148 A 
ATOM     85  C   UNL A   1      35.595  31.741  31.973  1.00  0.00     0.002 A 
ATOM     86  C   UNL A   1      35.478  32.766  29.780  1.00  0.00     0.091 A 
ATOM     87  F   UNL A   1      37.396  32.698  28.360  1.00  0.00    -0.205 F 
ATOM     88  C   UNL A   1      34.869  32.415  30.995  1.00  0.00     0.022 A 
BRANCH  86  89
ATOM     89  S   UNL A   1      34.508  33.747  28.628  1.00  0.00     0.127 S 
ATOM     90  O   UNL A   1      34.416  32.852  27.478  1.00  0.00    -0.237 OA
ATOM     91  O   UNL A   1      33.258  33.934  29.364  1.00  0.00    -0.237 OA
ATOM     92  O   UNL A   1      35.269  34.971  28.422  1.00  0.00    -0.744 OA
ENDBRANCH  86  89
ENDBRANCH  58  82
BRANCH  70  93
ATOM     93  C   UNL A   1      43.492  35.385  30.947  1.00  0.00     0.023 A 
ATOM     94  C   UNL A   1      43.705  36.315  29.910  1.00  0.00     0.012 A 
ATOM     95  C   UNL A   1      43.500  35.828  32.285  1.00  0.00     0.148 A 
ATOM     96  C   UNL A   1      43.956  37.655  30.201  1.00  0.00     0.002 A 
ATOM     97  C   UNL A   1      43.706  37.175  32.564  1.00  0.00     0.091 A 
ATOM     98  F   UNL A   1      43.319  34.928  33.262  1.00  0.00    -0.205 F 
ATOM     99  C   UNL A   1      43.945  38.087  31.525  1.00  0.00     0.022 A 
BRANCH  97 100
ATOM    100  S   UNL A   1      43.612  37.823  34.237  1.00  0.00     0.127 S 
ATOM    101  O   UNL A   1      42.236  37.500  34.609  1.00  0.00    -0.237 OA
ATOM    102  O   UNL A   1      44.632  37.040  34.938  1.00  0.00    -0.237 OA
ATOM    103  O   UNL A   1      43.921  39.243  34.126  1.00  0.00    -0.744 OA
ENDBRANCH  97 100
ENDBRANCH  70  93
ENDBRANCH  44  45
ENDBRANCH  36  39
ENDBRANCH  34  35
ENDBRANCH  33  34
ENDBRANCH   1  33
TORSDOF 19
ENDMDL
MODEL 3
REMARK VINA RESULT:     -11.1      3.134      5.071
REMARK SMILES O=C(CCCN1C(=O)C(=O)/C(=C(\[O-])c2ccccc2)[C@H]1c1ccc([N+](=O)[O-])cc1)NCCCNC(=O)c1ccc(-c2c3nc(c(-c4cccc(S(=O)(=O)[O-])c4F)c4ccc([nH]4)c(-c4cccc(S(=O)(=O)[O-])c4F)c4nc(c(-c5cccc(S(=O)(=O)[O-])c5F)c5ccc2[nH]5)C=C4)C=C3)cc1
REMARK SMILES IDX 31 1 30 2 1 3 2 4 3 6 4 7 5 8 6 9 7 10 20 11 8 12 9 13 11 14
REMARK SMILES IDX 10 15 12 16 13 17 21 18 22 19 29 20 23 21 28 22 24 23 25 24
REMARK SMILES IDX 26 25 27 26 14 27 15 28 19 29 16 30 18 31 17 32 32 33 33 34
REMARK SMILES IDX 34 35 35 36 36 38 37 39 38 40 99 41 39 42 98 43 40 44 41 45
REMARK SMILES IDX 42 46 92 47 43 48 97 49 91 50 93 51 44 52 96 53 90 54 89 55
REMARK SMILES IDX 45 57 77 58 57 59 76 60 58 61 61 62 75 63 94 64 59 65 60 66
REMARK SMILES IDX 74 68 95 69 62 70 46 71 47 72 55 73 48 74 50 75 56 76 49 77
REMARK SMILES IDX 51 78 52 79 53 80 54 81 78 82 79 83 87 84 80 85 82 86 88 87
REMARK SMILES IDX 81 88 83 89 84 90 85 91 86 92 63 93 64 94 72 95 65 96 67 97
REMARK SMILES IDX 73 98 66 99 68 100 69 101 70 102 71 103
REMARK H PARENT 30 5 34 37 93 56 61 67
REMARK Flexibility Score: inf
ROOT
ATOM      1  C   UNL A   1      41.147  20.286  27.810  1.00  0.00     0.117 C 
ENDROOT
BRANCH   1   2
ATOM      2  N   UNL A   1      40.771  21.666  27.579  1.00  0.00    -0.356 N 
ATOM      3  O   UNL A   1      39.204  21.177  25.971  1.00  0.00    -0.275 OA
ATOM      4  C   UNL A   1      39.791  21.995  26.673  1.00  0.00     0.220 C 
ATOM      5  H   UNL A   1      41.226  22.380  28.080  1.00  0.00     0.163 HD
BRANCH   4   6
ATOM      6  C   UNL A   1      39.417  23.459  26.641  1.00  0.00     0.102 C 
BRANCH   6   7
ATOM      7  C   UNL A   1      37.902  23.633  26.587  1.00  0.00     0.031 C 
BRANCH   7   8
ATOM      8  C   UNL A   1      37.310  23.738  25.185  1.00  0.00     0.121 C 
BRANCH   8   9
ATOM      9  N   UNL A   1      35.962  23.211  25.009  1.00  0.00    -0.325 N 
ATOM     10  C   UNL A   1      35.679  21.893  25.296  1.00  0.00     0.295 C 
ATOM     11  C   UNL A   1      34.903  23.876  24.245  1.00  0.00     0.150 C 
ATOM     12  O   UNL A   1      36.307  21.139  26.001  1.00  0.00    -0.265 OA
ATOM     13  C   UNL A   1      34.448  21.519  24.481  1.00  0.00     0.248 C 
ATOM     14  C   UNL A   1      34.019  22.741  23.770  1.00  0.00     0.025 C 
ATOM     15  O   UNL A   1      33.934  20.425  24.412  1.00  0.00    -0.283 OA
ATOM     16  C   UNL A   1      32.973  22.727  22.929  1.00  0.00    -0.092 C 
ATOM     17  O   UNL A   1      32.237  21.598  22.631  1.00  0.00    -0.872 OA
BRANCH  11  18
ATOM     18  C   UNL A   1      34.181  24.932  25.079  1.00  0.00    -0.020 A 
ATOM     19  C   UNL A   1      33.379  24.607  26.191  1.00  0.00     0.013 A 
ATOM     20  C   UNL A   1      34.307  26.289  24.727  1.00  0.00     0.013 A 
ATOM     21  C   UNL A   1      32.702  25.598  26.910  1.00  0.00     0.086 A 
ATOM     22  C   UNL A   1      33.676  27.292  25.471  1.00  0.00     0.086 A 
ATOM     23  C   UNL A   1      32.864  26.938  26.551  1.00  0.00     0.269 A 
BRANCH  23  24
ATOM     24  N   UNL A   1      32.171  27.982  27.308  1.00  0.00     0.062 N 
ATOM     25  O   UNL A   1      32.744  29.072  27.446  1.00  0.00    -0.258 OA
ATOM     26  O   UNL A   1      31.055  27.707  27.774  1.00  0.00    -0.258 OA
ENDBRANCH  23  24
ENDBRANCH  11  18
BRANCH  16  27
ATOM     27  C   UNL A   1      32.408  23.964  22.371  1.00  0.00    -0.033 A 
ATOM     28  C   UNL A   1      31.343  24.574  23.047  1.00  0.00     0.007 A 
ATOM     29  C   UNL A   1      32.941  24.587  21.236  1.00  0.00     0.007 A 
ATOM     30  C   UNL A   1      30.850  25.811  22.631  1.00  0.00     0.001 A 
ATOM     31  C   UNL A   1      32.448  25.826  20.819  1.00  0.00     0.001 A 
ATOM     32  C   UNL A   1      31.412  26.441  21.523  1.00  0.00     0.000 A 
ENDBRANCH  16  27
ENDBRANCH   8   9
ENDBRANCH   7   8
ENDBRANCH   6   7
ENDBRANCH   4   6
ENDBRANCH   1   2
BRANCH   1  33
ATOM     33  C   UNL A   1      42.381  19.841  27.032  1.00  0.00     0.042 C 
BRANCH  33  34
ATOM     34  C   UNL A   1      42.234  19.778  25.515  1.00  0.00     0.118 C 
BRANCH  34  35
ATOM     35  N   UNL A   1      43.454  19.428  24.806  1.00  0.00    -0.352 N 
ATOM     36  C   UNL A   1      44.572  20.198  24.590  1.00  0.00     0.251 C 
ATOM     37  H   UNL A   1      43.484  18.518  24.430  1.00  0.00     0.163 HD
ATOM     38  O   UNL A   1      45.497  19.752  23.916  1.00  0.00    -0.269 OA
BRANCH  36  39
ATOM     39  C   UNL A   1      44.648  21.575  25.132  1.00  0.00     0.039 A 
ATOM     40  C   UNL A   1      45.049  21.746  26.460  1.00  0.00     0.014 A 
ATOM     41  C   UNL A   1      44.323  22.690  24.353  1.00  0.00     0.014 A 
ATOM     42  C   UNL A   1      45.168  23.033  26.991  1.00  0.00     0.010 A 
ATOM     43  C   UNL A   1      44.502  23.975  24.867  1.00  0.00     0.010 A 
ATOM     44  C   UNL A   1      44.916  24.161  26.194  1.00  0.00    -0.014 A 
BRANCH  44  45
ATOM     45  C   UNL A   1      45.087  25.530  26.751  1.00  0.00     0.031 A 
ATOM     46  C   UNL A   1      46.442  26.189  26.772  1.00  0.00     0.074 A 
ATOM     47  C   UNL A   1      44.027  26.174  27.277  1.00  0.00     0.049 A 
ATOM     48  N   UNL A   1      46.763  27.397  27.160  1.00  0.00    -0.248 NA
ATOM     49  C   UNL A   1      47.587  25.381  26.321  1.00  0.00     0.031 C 
ATOM     50  C   UNL A   1      42.678  25.616  27.408  1.00  0.00     0.029 A 
ATOM     51  N   UNL A   1      43.916  27.434  27.812  1.00  0.00    -0.354 N 
ATOM     52  C   UNL A   1      48.143  27.487  27.023  1.00  0.00     0.074 A 
ATOM     53  C   UNL A   1      48.604  26.198  26.554  1.00  0.00     0.031 C 
ATOM     54  C   UNL A   1      41.875  26.534  27.972  1.00  0.00     0.029 A 
ATOM     55  C   UNL A   1      42.649  27.740  28.249  1.00  0.00     0.049 A 
ATOM     56  H   UNL A   1      44.674  28.060  27.876  1.00  0.00     0.167 HD
ATOM     57  C   UNL A   1      48.953  28.553  27.232  1.00  0.00     0.034 A 
ATOM     58  C   UNL A   1      42.158  28.871  28.795  1.00  0.00     0.034 A 
ATOM     59  C   UNL A   1      48.492  29.849  27.657  1.00  0.00     0.049 A 
ATOM     60  C   UNL A   1      43.062  30.067  28.940  1.00  0.00     0.074 A 
ATOM     61  C   UNL A   1      49.221  31.012  27.820  1.00  0.00     0.029 A 
ATOM     62  N   UNL A   1      47.180  30.151  27.986  1.00  0.00    -0.354 N 
ATOM     63  N   UNL A   1      44.330  30.188  28.631  1.00  0.00    -0.248 NA
ATOM     64  C   UNL A   1      42.452  31.301  29.461  1.00  0.00     0.031 C 
ATOM     65  C   UNL A   1      48.351  32.019  28.256  1.00  0.00     0.029 A 
ATOM     66  C   UNL A   1      47.077  31.484  28.347  1.00  0.00     0.049 A 
ATOM     67  H   UNL A   1      46.430  29.513  27.965  1.00  0.00     0.167 HD
ATOM     68  C   UNL A   1      44.658  31.517  28.876  1.00  0.00     0.074 A 
ATOM     69  C   UNL A   1      43.451  32.167  29.342  1.00  0.00     0.031 C 
ATOM     70  C   UNL A   1      45.856  32.138  28.743  1.00  0.00     0.034 A 
BRANCH  57  71
ATOM     71  C   UNL A   1      50.420  28.384  26.935  1.00  0.00     0.023 A 
ATOM     72  C   UNL A   1      50.897  28.669  25.638  1.00  0.00     0.012 A 
ATOM     73  C   UNL A   1      51.332  28.001  27.937  1.00  0.00     0.148 A 
ATOM     74  C   UNL A   1      52.252  28.542  25.334  1.00  0.00     0.002 A 
ATOM     75  C   UNL A   1      52.688  27.918  27.637  1.00  0.00     0.091 A 
ATOM     76  F   UNL A   1      50.860  27.714  29.158  1.00  0.00    -0.205 F 
ATOM     77  C   UNL A   1      53.147  28.177  26.335  1.00  0.00     0.022 A 
BRANCH  75  78
ATOM     78  S   UNL A   1      53.931  27.532  28.875  1.00  0.00     0.127 S 
ATOM     79  O   UNL A   1      55.103  27.260  28.044  1.00  0.00    -0.237 OA
ATOM     80  O   UNL A   1      54.003  28.776  29.642  1.00  0.00    -0.237 OA
ATOM     81  O   UNL A   1      53.413  26.392  29.620  1.00  0.00    -0.744 OA
ENDBRANCH  75  78
ENDBRANCH  57  71
BRANCH  58  82
ATOM     82  C   UNL A   1      40.712  28.963  29.143  1.00  0.00     0.023 A 
ATOM     83  C   UNL A   1      39.759  29.061  28.110  1.00  0.00     0.012 A 
ATOM     84  C   UNL A   1      40.274  28.930  30.480  1.00  0.00     0.148 A 
ATOM     85  C   UNL A   1      38.399  29.160  28.402  1.00  0.00     0.002 A 
ATOM     86  C   UNL A   1      38.914  28.977  30.763  1.00  0.00     0.091 A 
ATOM     87  F   UNL A   1      41.196  28.850  31.450  1.00  0.00    -0.205 F 
ATOM     88  C   UNL A   1      37.975  29.109  29.727  1.00  0.00     0.022 A 
BRANCH  86  89
ATOM     89  S   UNL A   1      38.273  28.788  32.431  1.00  0.00     0.127 S 
ATOM     90  O   UNL A   1      38.730  27.445  32.776  1.00  0.00    -0.237 OA
ATOM     91  O   UNL A   1      38.952  29.871  33.144  1.00  0.00    -0.237 OA
ATOM     92  O   UNL A   1      36.832  28.959  32.317  1.00  0.00    -0.744 OA
ENDBRANCH  86  89
ENDBRANCH  58  82
BRANCH  70  93
ATOM     93  C   UNL A   1      45.920  33.610  29.061  1.00  0.00     0.023 A 
ATOM     94  C   UNL A   1      46.296  34.034  30.351  1.00  0.00     0.012 A 
ATOM     95  C   UNL A   1      45.668  34.573  28.063  1.00  0.00     0.148 A 
ATOM     96  C   UNL A   1      46.384  35.392  30.653  1.00  0.00     0.002 A 
ATOM     97  C   UNL A   1      45.803  35.924  28.360  1.00  0.00     0.091 A 
ATOM     98  F   UNL A   1      45.289  34.155  26.847  1.00  0.00    -0.205 F 
ATOM     99  C   UNL A   1      46.149  36.336  29.657  1.00  0.00     0.022 A 
BRANCH  97 100
ATOM    100  S   UNL A   1      45.609  37.195  27.106  1.00  0.00     0.127 S 
ATOM    101  O   UNL A   1      44.183  37.104  26.801  1.00  0.00    -0.237 OA
ATOM    102  O   UNL A   1      46.002  38.410  27.822  1.00  0.00    -0.237 OA
ATOM    103  O   UNL A   1      46.513  36.821  26.025  1.00  0.00    -0.744 OA
ENDBRANCH  97 100
ENDBRANCH  70  93
ENDBRANCH  44  45
ENDBRANCH  36  39
ENDBRANCH  34  35
ENDBRANCH  33  34
ENDBRANCH   1  33
TORSDOF 19
ENDMDL
