MODEL 1
REMARK VINA RESULT:     -11.2      0.000      0.000
REMARK SMILES O=C(CN(CC(F)(F)F)C(=O)CC[C@H]1CCC[NH2+]C1)NCCCNC(=O)c1ccc(-c2c3nc(c(-c4cccc(S(=O)(=O)[O-])c4F)c4ccc([nH]4)c(-c4cccc(S(=O)(=O)[O-])c4F)c4nc(c(-c5cccc(S(=O)(=O)[O-])c5F)c5ccc2[nH]5)C=C4)C=C3)cc1
REMARK SMILES IDX 21 1 20 2 1 3 2 4 3 6 4 7 5 8 6 9 7 10 8 11 9 12 10 13 11 14
REMARK SMILES IDX 12 15 13 16 14 17 15 18 19 19 16 20 18 21 17 22 22 25 23 26
REMARK SMILES IDX 24 27 25 28 26 30 27 31 28 32 89 33 29 34 88 35 30 36 31 37
REMARK SMILES IDX 32 38 82 39 33 40 87 41 81 42 83 43 34 44 86 45 80 46 79 47
REMARK SMILES IDX 35 49 67 50 47 51 66 52 48 53 51 54 65 55 84 56 49 57 50 58
REMARK SMILES IDX 64 60 85 61 52 62 36 63 37 64 45 65 38 66 40 67 46 68 39 69
REMARK SMILES IDX 41 70 42 71 43 72 44 73 68 74 69 75 77 76 70 77 72 78 78 79
REMARK SMILES IDX 71 80 73 81 74 82 75 83 76 84 53 85 54 86 62 87 55 88 57 89
REMARK SMILES IDX 63 90 56 91 58 92 59 93 60 94 61 95
REMARK H PARENT 20 5 18 23 18 24 24 29 83 48 51 59
REMARK Flexibility Score: inf
ROOT
ATOM      1  C   UNL A   1      33.584  29.097  24.598  1.00  0.00     0.117 C 
ENDROOT
BRANCH   1   2
ATOM      2  N   UNL A   1      33.664  27.779  23.984  1.00  0.00    -0.354 N 
ATOM      3  O   UNL A   1      33.736  26.596  25.945  1.00  0.00    -0.273 OA
ATOM      4  C   UNL A   1      33.550  26.617  24.728  1.00  0.00     0.239 C 
ATOM      5  H   UNL A   1      33.802  27.712  23.011  1.00  0.00     0.163 HD
BRANCH   4   6
ATOM      6  C   UNL A   1      33.369  25.297  23.932  1.00  0.00     0.219 C 
BRANCH   6   7
ATOM      7  N   UNL A   1      32.213  24.448  24.276  1.00  0.00    -0.324 N 
BRANCH   7   8
ATOM      8  C   UNL A   1      32.415  23.410  25.304  1.00  0.00     0.235 C 
BRANCH   8   9
ATOM      9  C   UNL A   1      31.613  23.480  26.610  1.00  0.00     0.406 C 
ATOM     10  F   UNL A   1      30.336  23.072  26.462  1.00  0.00    -0.169 F 
ATOM     11  F   UNL A   1      32.184  22.661  27.530  1.00  0.00    -0.169 F 
ATOM     12  F   UNL A   1      31.602  24.724  27.128  1.00  0.00    -0.169 F 
ENDBRANCH   8   9
ENDBRANCH   7   8
BRANCH   7  13
ATOM     13  C   UNL A   1      30.949  24.862  23.856  1.00  0.00     0.223 C 
ATOM     14  O   UNL A   1      30.253  24.152  23.128  1.00  0.00    -0.275 OA
BRANCH  13  15
ATOM     15  C   UNL A   1      30.381  26.190  24.359  1.00  0.00     0.101 C 
BRANCH  15  16
ATOM     16  C   UNL A   1      29.091  26.670  23.665  1.00  0.00     0.019 C 
BRANCH  16  17
ATOM     17  C   UNL A   1      28.892  28.194  23.414  1.00  0.00     0.045 C 
ATOM     18  C   UNL A   1      29.908  28.727  22.400  1.00  0.00     0.015 C 
ATOM     19  C   UNL A   1      27.428  28.576  23.127  1.00  0.00     0.264 C 
ATOM     20  C   UNL A   1      29.549  30.039  21.717  1.00  0.00     0.062 C 
ATOM     21  N   UNL A   1      27.278  29.947  22.649  1.00  0.00    -0.346 N 
ATOM     22  C   UNL A   1      28.061  30.212  21.449  1.00  0.00     0.260 C 
ATOM     23  H   UNL A   1      26.293  30.113  22.439  1.00  0.00     0.346 HD
ATOM     24  H   UNL A   1      27.617  30.568  23.382  1.00  0.00     0.346 HD
ENDBRANCH  16  17
ENDBRANCH  15  16
ENDBRANCH  13  15
ENDBRANCH   7  13
ENDBRANCH   6   7
ENDBRANCH   4   6
ENDBRANCH   1   2
BRANCH   1  25
ATOM     25  C   UNL A   1      32.168  29.550  24.951  1.00  0.00     0.042 C 
BRANCH  25  26
ATOM     26  C   UNL A   1      31.950  29.978  26.401  1.00  0.00     0.118 C 
BRANCH  26  27
ATOM     27  N   UNL A   1      31.883  31.424  26.584  1.00  0.00    -0.352 N 
ATOM     28  C   UNL A   1      32.731  32.290  27.238  1.00  0.00     0.251 C 
ATOM     29  H   UNL A   1      31.100  31.853  26.170  1.00  0.00     0.163 HD
ATOM     30  O   UNL A   1      32.401  33.469  27.353  1.00  0.00    -0.269 OA
BRANCH  28  31
ATOM     31  C   UNL A   1      34.015  31.832  27.826  1.00  0.00     0.039 A 
ATOM     32  C   UNL A   1      35.016  32.781  28.071  1.00  0.00     0.014 A 
ATOM     33  C   UNL A   1      34.263  30.487  28.105  1.00  0.00     0.014 A 
ATOM     34  C   UNL A   1      36.224  32.394  28.664  1.00  0.00     0.010 A 
ATOM     35  C   UNL A   1      35.439  30.114  28.763  1.00  0.00     0.010 A 
ATOM     36  C   UNL A   1      36.433  31.061  29.055  1.00  0.00    -0.014 A 
BRANCH  36  37
ATOM     37  C   UNL A   1      37.658  30.653  29.797  1.00  0.00     0.031 A 
ATOM     38  C   UNL A   1      38.641  29.685  29.192  1.00  0.00     0.074 A 
ATOM     39  C   UNL A   1      37.847  31.086  31.061  1.00  0.00     0.049 A 
ATOM     40  N   UNL A   1      39.723  29.168  29.719  1.00  0.00    -0.248 NA
ATOM     41  C   UNL A   1      38.362  29.217  27.825  1.00  0.00     0.031 C 
ATOM     42  C   UNL A   1      36.939  31.970  31.797  1.00  0.00     0.029 A 
ATOM     43  N   UNL A   1      38.848  30.818  31.964  1.00  0.00    -0.354 N 
ATOM     44  C   UNL A   1      40.232  28.291  28.768  1.00  0.00     0.074 A 
ATOM     45  C   UNL A   1      39.325  28.323  27.641  1.00  0.00     0.031 C 
ATOM     46  C   UNL A   1      37.424  32.171  33.031  1.00  0.00     0.029 A 
ATOM     47  C   UNL A   1      38.655  31.404  33.194  1.00  0.00     0.049 A 
ATOM     48  H   UNL A   1      39.630  30.259  31.750  1.00  0.00     0.167 HD
ATOM     49  C   UNL A   1      41.362  27.544  28.814  1.00  0.00     0.034 A 
ATOM     50  C   UNL A   1      39.374  31.324  34.332  1.00  0.00     0.034 A 
ATOM     51  C   UNL A   1      42.283  27.537  29.921  1.00  0.00     0.049 A 
ATOM     52  C   UNL A   1      40.636  30.504  34.350  1.00  0.00     0.074 A 
ATOM     53  C   UNL A   1      43.497  26.879  30.023  1.00  0.00     0.029 A 
ATOM     54  N   UNL A   1      42.090  28.203  31.120  1.00  0.00    -0.354 N 
ATOM     55  N   UNL A   1      41.178  29.802  33.385  1.00  0.00    -0.248 NA
ATOM     56  C   UNL A   1      41.403  30.492  35.605  1.00  0.00     0.031 C 
ATOM     57  C   UNL A   1      44.020  27.118  31.298  1.00  0.00     0.029 A 
ATOM     58  C   UNL A   1      43.153  27.959  31.975  1.00  0.00     0.049 A 
ATOM     59  H   UNL A   1      41.311  28.766  31.334  1.00  0.00     0.167 HD
ATOM     60  C   UNL A   1      42.367  29.299  33.902  1.00  0.00     0.074 A 
ATOM     61  C   UNL A   1      42.475  29.792  35.258  1.00  0.00     0.031 C 
ATOM     62  C   UNL A   1      43.280  28.493  33.307  1.00  0.00     0.034 A 
BRANCH  49  63
ATOM     63  C   UNL A   1      41.694  26.696  27.613  1.00  0.00     0.023 A 
ATOM     64  C   UNL A   1      42.304  27.286  26.486  1.00  0.00     0.012 A 
ATOM     65  C   UNL A   1      41.466  25.305  27.622  1.00  0.00     0.148 A 
ATOM     66  C   UNL A   1      42.645  26.517  25.376  1.00  0.00     0.002 A 
ATOM     67  C   UNL A   1      41.852  24.536  26.531  1.00  0.00     0.091 A 
ATOM     68  F   UNL A   1      40.871  24.762  28.694  1.00  0.00    -0.205 F 
ATOM     69  C   UNL A   1      42.430  25.142  25.402  1.00  0.00     0.022 A 
BRANCH  67  70
ATOM     70  S   UNL A   1      41.693  22.747  26.496  1.00  0.00     0.127 S 
ATOM     71  O   UNL A   1      40.242  22.580  26.495  1.00  0.00    -0.237 OA
ATOM     72  O   UNL A   1      42.350  22.404  25.236  1.00  0.00    -0.237 OA
ATOM     73  O   UNL A   1      42.377  22.260  27.690  1.00  0.00    -0.744 OA
ENDBRANCH  67  70
ENDBRANCH  49  63
BRANCH  50  74
ATOM     74  C   UNL A   1      38.943  32.082  35.542  1.00  0.00     0.023 A 
ATOM     75  C   UNL A   1      39.175  33.469  35.610  1.00  0.00     0.012 A 
ATOM     76  C   UNL A   1      38.294  31.441  36.613  1.00  0.00     0.148 A 
ATOM     77  C   UNL A   1      38.800  34.199  36.739  1.00  0.00     0.002 A 
ATOM     78  C   UNL A   1      37.871  32.183  37.711  1.00  0.00     0.091 A 
ATOM     79  F   UNL A   1      38.092  30.118  36.534  1.00  0.00    -0.205 F 
ATOM     80  C   UNL A   1      38.140  33.558  37.784  1.00  0.00     0.022 A 
BRANCH  78  81
ATOM     81  S   UNL A   1      36.902  31.468  39.042  1.00  0.00     0.127 S 
ATOM     82  O   UNL A   1      35.732  32.340  39.062  1.00  0.00    -0.237 OA
ATOM     83  O   UNL A   1      36.657  30.115  38.543  1.00  0.00    -0.237 OA
ATOM     84  O   UNL A   1      37.753  31.527  40.225  1.00  0.00    -0.744 OA
ENDBRANCH  78  81
ENDBRANCH  50  74
BRANCH  62  85
ATOM     85  C   UNL A   1      44.509  28.121  34.098  1.00  0.00     0.023 A 
ATOM     86  C   UNL A   1      45.669  28.918  34.020  1.00  0.00     0.012 A 
ATOM     87  C   UNL A   1      44.488  27.018  34.975  1.00  0.00     0.148 A 
ATOM     88  C   UNL A   1      46.799  28.601  34.774  1.00  0.00     0.002 A 
ATOM     89  C   UNL A   1      45.599  26.740  35.763  1.00  0.00     0.091 A 
ATOM     90  F   UNL A   1      43.382  26.261  35.023  1.00  0.00    -0.205 F 
ATOM     91  C   UNL A   1      46.760  27.522  35.653  1.00  0.00     0.022 A 
BRANCH  89  92
ATOM     92  S   UNL A   1      45.606  25.432  36.994  1.00  0.00     0.127 S 
ATOM     93  O   UNL A   1      45.449  24.240  36.162  1.00  0.00    -0.237 OA
ATOM     94  O   UNL A   1      46.930  25.584  37.598  1.00  0.00    -0.237 OA
ATOM     95  O   UNL A   1      44.496  25.717  37.892  1.00  0.00    -0.744 OA
ENDBRANCH  89  92
ENDBRANCH  62  85
ENDBRANCH  36  37
ENDBRANCH  28  31
ENDBRANCH  26  27
ENDBRANCH  25  26
ENDBRANCH   1  25
TORSDOF 20
ENDMDL
MODEL 2
REMARK VINA RESULT:     -11.1      2.315      8.477
REMARK SMILES O=C(CN(CC(F)(F)F)C(=O)CC[C@H]1CCC[NH2+]C1)NCCCNC(=O)c1ccc(-c2c3nc(c(-c4cccc(S(=O)(=O)[O-])c4F)c4ccc([nH]4)c(-c4cccc(S(=O)(=O)[O-])c4F)c4nc(c(-c5cccc(S(=O)(=O)[O-])c5F)c5ccc2[nH]5)C=C4)C=C3)cc1
REMARK SMILES IDX 21 1 20 2 1 3 2 4 3 6 4 7 5 8 6 9 7 10 8 11 9 12 10 13 11 14
REMARK SMILES IDX 12 15 13 16 14 17 15 18 19 19 16 20 18 21 17 22 22 25 23 26
REMARK SMILES IDX 24 27 25 28 26 30 27 31 28 32 89 33 29 34 88 35 30 36 31 37
REMARK SMILES IDX 32 38 82 39 33 40 87 41 81 42 83 43 34 44 86 45 80 46 79 47
REMARK SMILES IDX 35 49 67 50 47 51 66 52 48 53 51 54 65 55 84 56 49 57 50 58
REMARK SMILES IDX 64 60 85 61 52 62 36 63 37 64 45 65 38 66 40 67 46 68 39 69
REMARK SMILES IDX 41 70 42 71 43 72 44 73 68 74 69 75 77 76 70 77 72 78 78 79
REMARK SMILES IDX 71 80 73 81 74 82 75 83 76 84 53 85 54 86 62 87 55 88 57 89
REMARK SMILES IDX 63 90 56 91 58 92 59 93 60 94 61 95
REMARK H PARENT 20 5 18 23 18 24 24 29 83 48 51 59
REMARK Flexibility Score: inf
ROOT
ATOM      1  C   UNL A   1      31.417  27.613  25.356  1.00  0.00     0.117 C 
ENDROOT
BRANCH   1   2
ATOM      2  N   UNL A   1      31.654  26.290  24.795  1.00  0.00    -0.354 N 
ATOM      3  O   UNL A   1      30.730  25.114  26.531  1.00  0.00    -0.273 OA
ATOM      4  C   UNL A   1      31.118  25.147  25.363  1.00  0.00     0.239 C 
ATOM      5  H   UNL A   1      32.213  26.205  23.988  1.00  0.00     0.163 HD
BRANCH   4   6
ATOM      6  C   UNL A   1      31.206  23.846  24.522  1.00  0.00     0.219 C 
BRANCH   6   7
ATOM      7  N   UNL A   1      32.522  23.186  24.425  1.00  0.00    -0.324 N 
BRANCH   7   8
ATOM      8  C   UNL A   1      33.490  23.437  25.508  1.00  0.00     0.235 C 
BRANCH   8   9
ATOM      9  C   UNL A   1      34.732  24.292  25.224  1.00  0.00     0.406 C 
ATOM     10  F   UNL A   1      34.782  24.734  23.951  1.00  0.00    -0.169 F 
ATOM     11  F   UNL A   1      34.711  25.391  26.022  1.00  0.00    -0.169 F 
ATOM     12  F   UNL A   1      35.873  23.624  25.485  1.00  0.00    -0.169 F 
ENDBRANCH   8   9
ENDBRANCH   7   8
BRANCH   7  13
ATOM     13  C   UNL A   1      32.665  22.144  23.509  1.00  0.00     0.223 C 
ATOM     14  O   UNL A   1      32.517  22.331  22.300  1.00  0.00    -0.275 OA
BRANCH  13  15
ATOM     15  C   UNL A   1      33.080  20.756  24.000  1.00  0.00     0.101 C 
BRANCH  15  16
ATOM     16  C   UNL A   1      32.259  19.577  23.441  1.00  0.00     0.019 C 
BRANCH  16  17
ATOM     17  C   UNL A   1      32.487  18.153  24.028  1.00  0.00     0.045 C 
ATOM     18  C   UNL A   1      33.479  17.355  23.177  1.00  0.00     0.015 C 
ATOM     19  C   UNL A   1      32.786  18.159  25.538  1.00  0.00     0.264 C 
ATOM     20  C   UNL A   1      34.145  16.169  23.860  1.00  0.00     0.062 C 
ATOM     21  N   UNL A   1      33.243  16.866  26.037  1.00  0.00    -0.346 N 
ATOM     22  C   UNL A   1      34.428  16.383  25.340  1.00  0.00     0.260 C 
ATOM     23  H   UNL A   1      33.462  16.957  27.029  1.00  0.00     0.346 HD
ATOM     24  H   UNL A   1      32.495  16.192  25.877  1.00  0.00     0.346 HD
ENDBRANCH  16  17
ENDBRANCH  15  16
ENDBRANCH  13  15
ENDBRANCH   7  13
ENDBRANCH   6   7
ENDBRANCH   4   6
ENDBRANCH   1   2
BRANCH   1  25
ATOM     25  C   UNL A   1      32.625  28.232  26.057  1.00  0.00     0.042 C 
BRANCH  25  26
ATOM     26  C   UNL A   1      33.185  29.501  25.415  1.00  0.00     0.118 C 
BRANCH  26  27
ATOM     27  N   UNL A   1      32.831  30.725  26.125  1.00  0.00    -0.352 N 
ATOM     28  C   UNL A   1      33.428  31.350  27.197  1.00  0.00     0.251 C 
ATOM     29  H   UNL A   1      32.029  31.180  25.781  1.00  0.00     0.163 HD
ATOM     30  O   UNL A   1      32.874  32.328  27.698  1.00  0.00    -0.269 OA
BRANCH  28  31
ATOM     31  C   UNL A   1      34.706  30.863  27.774  1.00  0.00     0.039 A 
ATOM     32  C   UNL A   1      35.785  31.751  27.861  1.00  0.00     0.014 A 
ATOM     33  C   UNL A   1      34.871  29.542  28.197  1.00  0.00     0.014 A 
ATOM     34  C   UNL A   1      36.993  31.340  28.438  1.00  0.00     0.010 A 
ATOM     35  C   UNL A   1      36.050  29.154  28.839  1.00  0.00     0.010 A 
ATOM     36  C   UNL A   1      37.125  30.048  28.972  1.00  0.00    -0.014 A 
BRANCH  36  37
ATOM     37  C   UNL A   1      38.356  29.631  29.700  1.00  0.00     0.031 A 
ATOM     38  C   UNL A   1      38.696  30.220  31.044  1.00  0.00     0.074 A 
ATOM     39  C   UNL A   1      39.223  28.781  29.110  1.00  0.00     0.049 A 
ATOM     40  N   UNL A   1      39.757  30.025  31.787  1.00  0.00    -0.248 NA
ATOM     41  C   UNL A   1      37.732  31.170  31.619  1.00  0.00     0.031 C 
ATOM     42  C   UNL A   1      39.054  28.190  27.780  1.00  0.00     0.029 A 
ATOM     43  N   UNL A   1      40.433  28.291  29.537  1.00  0.00    -0.354 N 
ATOM     44  C   UNL A   1      39.606  30.850  32.896  1.00  0.00     0.074 A 
ATOM     45  C   UNL A   1      38.365  31.571  32.714  1.00  0.00     0.031 C 
ATOM     46  C   UNL A   1      40.116  27.418  27.503  1.00  0.00     0.029 A 
ATOM     47  C   UNL A   1      41.062  27.486  28.613  1.00  0.00     0.049 A 
ATOM     48  H   UNL A   1      40.815  28.495  30.421  1.00  0.00     0.167 HD
ATOM     49  C   UNL A   1      40.412  30.981  33.977  1.00  0.00     0.034 A 
ATOM     50  C   UNL A   1      42.267  26.883  28.645  1.00  0.00     0.034 A 
ATOM     51  C   UNL A   1      41.630  30.240  34.175  1.00  0.00     0.049 A 
ATOM     52  C   UNL A   1      43.133  27.029  29.866  1.00  0.00     0.074 A 
ATOM     53  C   UNL A   1      42.468  30.243  35.277  1.00  0.00     0.029 A 
ATOM     54  N   UNL A   1      42.195  29.378  33.248  1.00  0.00    -0.354 N 
ATOM     55  N   UNL A   1      42.898  27.696  30.970  1.00  0.00    -0.248 NA
ATOM     56  C   UNL A   1      44.416  26.310  29.861  1.00  0.00     0.031 C 
ATOM     57  C   UNL A   1      43.558  29.410  35.003  1.00  0.00     0.029 A 
ATOM     58  C   UNL A   1      43.378  28.856  33.746  1.00  0.00     0.049 A 
ATOM     59  H   UNL A   1      41.812  29.168  32.366  1.00  0.00     0.167 HD
ATOM     60  C   UNL A   1      43.983  27.446  31.804  1.00  0.00     0.074 A 
ATOM     61  C   UNL A   1      44.865  26.551  31.085  1.00  0.00     0.031 C 
ATOM     62  C   UNL A   1      44.228  27.926  33.048  1.00  0.00     0.034 A 
BRANCH  49  63
ATOM     63  C   UNL A   1      39.984  31.938  35.061  1.00  0.00     0.023 A 
ATOM     64  C   UNL A   1      40.361  33.295  34.986  1.00  0.00     0.012 A 
ATOM     65  C   UNL A   1      39.151  31.513  36.116  1.00  0.00     0.148 A 
ATOM     66  C   UNL A   1      39.953  34.203  35.961  1.00  0.00     0.002 A 
ATOM     67  C   UNL A   1      38.708  32.433  37.058  1.00  0.00     0.091 A 
ATOM     68  F   UNL A   1      38.814  30.217  36.181  1.00  0.00    -0.205 F 
ATOM     69  C   UNL A   1      39.119  33.775  36.990  1.00  0.00     0.022 A 
BRANCH  67  70
ATOM     70  S   UNL A   1      37.567  32.003  38.377  1.00  0.00     0.127 S 
ATOM     71  O   UNL A   1      38.388  32.231  39.564  1.00  0.00    -0.237 OA
ATOM     72  O   UNL A   1      36.491  32.973  38.182  1.00  0.00    -0.237 OA
ATOM     73  O   UNL A   1      37.184  30.615  38.140  1.00  0.00    -0.744 OA
ENDBRANCH  67  70
ENDBRANCH  49  63
BRANCH  50  74
ATOM     74  C   UNL A   1      42.709  26.042  27.495  1.00  0.00     0.023 A 
ATOM     75  C   UNL A   1      43.576  26.589  26.528  1.00  0.00     0.012 A 
ATOM     76  C   UNL A   1      42.291  24.705  27.363  1.00  0.00     0.148 A 
ATOM     77  C   UNL A   1      43.989  25.831  25.432  1.00  0.00     0.002 A 
ATOM     78  C   UNL A   1      42.752  23.937  26.300  1.00  0.00     0.091 A 
ATOM     79  F   UNL A   1      41.458  24.206  28.288  1.00  0.00    -0.205 F 
ATOM     80  C   UNL A   1      43.585  24.503  25.323  1.00  0.00     0.022 A 
BRANCH  78  81
ATOM     81  S   UNL A   1      42.389  22.185  26.147  1.00  0.00     0.127 S 
ATOM     82  O   UNL A   1      40.949  22.197  25.912  1.00  0.00    -0.237 OA
ATOM     83  O   UNL A   1      43.201  21.809  24.989  1.00  0.00    -0.237 OA
ATOM     84  O   UNL A   1      42.819  21.582  27.402  1.00  0.00    -0.744 OA
ENDBRANCH  78  81
ENDBRANCH  50  74
BRANCH  62  85
ATOM     85  C   UNL A   1      45.481  27.460  33.745  1.00  0.00     0.023 A 
ATOM     86  C   UNL A   1      46.657  28.235  33.681  1.00  0.00     0.012 A 
ATOM     87  C   UNL A   1      45.471  26.286  34.524  1.00  0.00     0.148 A 
ATOM     88  C   UNL A   1      47.810  27.830  34.351  1.00  0.00     0.002 A 
ATOM     89  C   UNL A   1      46.609  25.916  35.232  1.00  0.00     0.091 A 
ATOM     90  F   UNL A   1      44.349  25.552  34.559  1.00  0.00    -0.205 F 
ATOM     91  C   UNL A   1      47.783  26.678  35.136  1.00  0.00     0.022 A 
BRANCH  89  92
ATOM     92  S   UNL A   1      46.637  24.505  36.344  1.00  0.00     0.127 S 
ATOM     93  O   UNL A   1      46.370  23.399  35.428  1.00  0.00    -0.237 OA
ATOM     94  O   UNL A   1      48.004  24.551  36.864  1.00  0.00    -0.237 OA
ATOM     95  O   UNL A   1      45.603  24.755  37.339  1.00  0.00    -0.744 OA
ENDBRANCH  89  92
ENDBRANCH  62  85
ENDBRANCH  36  37
ENDBRANCH  28  31
ENDBRANCH  26  27
ENDBRANCH  25  26
ENDBRANCH   1  25
TORSDOF 20
ENDMDL
MODEL 3
REMARK VINA RESULT:     -10.9      5.414     10.306
REMARK SMILES O=C(CN(CC(F)(F)F)C(=O)CC[C@H]1CCC[NH2+]C1)NCCCNC(=O)c1ccc(-c2c3nc(c(-c4cccc(S(=O)(=O)[O-])c4F)c4ccc([nH]4)c(-c4cccc(S(=O)(=O)[O-])c4F)c4nc(c(-c5cccc(S(=O)(=O)[O-])c5F)c5ccc2[nH]5)C=C4)C=C3)cc1
REMARK SMILES IDX 21 1 20 2 1 3 2 4 3 6 4 7 5 8 6 9 7 10 8 11 9 12 10 13 11 14
REMARK SMILES IDX 12 15 13 16 14 17 15 18 19 19 16 20 18 21 17 22 22 25 23 26
REMARK SMILES IDX 24 27 25 28 26 30 27 31 28 32 89 33 29 34 88 35 30 36 31 37
REMARK SMILES IDX 32 38 82 39 33 40 87 41 81 42 83 43 34 44 86 45 80 46 79 47
REMARK SMILES IDX 35 49 67 50 47 51 66 52 48 53 51 54 65 55 84 56 49 57 50 58
REMARK SMILES IDX 64 60 85 61 52 62 36 63 37 64 45 65 38 66 40 67 46 68 39 69
REMARK SMILES IDX 41 70 42 71 43 72 44 73 68 74 69 75 77 76 70 77 72 78 78 79
REMARK SMILES IDX 71 80 73 81 74 82 75 83 76 84 53 85 54 86 62 87 55 88 57 89
REMARK SMILES IDX 63 90 56 91 58 92 59 93 60 94 61 95
REMARK H PARENT 20 5 18 23 18 24 24 29 83 48 51 59
REMARK Flexibility Score: inf
ROOT
ATOM      1  C   UNL A   1      35.338  21.209  25.557  1.00  0.00     0.117 C 
ENDROOT
BRANCH   1   2
ATOM      2  N   UNL A   1      34.416  21.753  24.568  1.00  0.00    -0.354 N 
ATOM      3  O   UNL A   1      33.074  19.900  24.436  1.00  0.00    -0.273 OA
ATOM      4  C   UNL A   1      33.244  21.101  24.225  1.00  0.00     0.239 C 
ATOM      5  H   UNL A   1      34.633  22.608  24.131  1.00  0.00     0.163 HD
BRANCH   4   6
ATOM      6  C   UNL A   1      32.221  21.908  23.382  1.00  0.00     0.219 C 
BRANCH   6   7
ATOM      7  N   UNL A   1      31.805  23.226  23.896  1.00  0.00    -0.324 N 
BRANCH   7   8
ATOM      8  C   UNL A   1      31.188  23.270  25.234  1.00  0.00     0.235 C 
BRANCH   8   9
ATOM      9  C   UNL A   1      31.939  23.950  26.387  1.00  0.00     0.406 C 
ATOM     10  F   UNL A   1      33.210  24.268  26.067  1.00  0.00    -0.169 F 
ATOM     11  F   UNL A   1      31.311  25.111  26.706  1.00  0.00    -0.169 F 
ATOM     12  F   UNL A   1      31.960  23.184  27.495  1.00  0.00    -0.169 F 
ENDBRANCH   8   9
ENDBRANCH   7   8
BRANCH   7  13
ATOM     13  C   UNL A   1      32.288  24.363  23.248  1.00  0.00     0.223 C 
ATOM     14  O   UNL A   1      33.480  24.478  22.961  1.00  0.00    -0.275 OA
BRANCH  13  15
ATOM     15  C   UNL A   1      31.313  25.463  22.822  1.00  0.00     0.101 C 
BRANCH  15  16
ATOM     16  C   UNL A   1      31.958  26.791  22.377  1.00  0.00     0.019 C 
BRANCH  16  17
ATOM     17  C   UNL A   1      32.181  27.912  23.433  1.00  0.00     0.045 C 
ATOM     18  C   UNL A   1      31.293  27.700  24.663  1.00  0.00     0.015 C 
ATOM     19  C   UNL A   1      33.667  28.169  23.743  1.00  0.00     0.264 C 
ATOM     20  C   UNL A   1      31.728  28.414  25.935  1.00  0.00     0.062 C 
ATOM     21  N   UNL A   1      33.869  29.033  24.902  1.00  0.00    -0.346 N 
ATOM     22  C   UNL A   1      33.237  28.512  26.107  1.00  0.00     0.260 C 
ATOM     23  H   UNL A   1      34.871  29.122  25.072  1.00  0.00     0.346 HD
ATOM     24  H   UNL A   1      33.441  29.934  24.693  1.00  0.00     0.346 HD
ENDBRANCH  16  17
ENDBRANCH  15  16
ENDBRANCH  13  15
ENDBRANCH   7  13
ENDBRANCH   6   7
ENDBRANCH   4   6
ENDBRANCH   1   2
BRANCH   1  25
ATOM     25  C   UNL A   1      36.492  20.398  24.971  1.00  0.00     0.042 C 
BRANCH  25  26
ATOM     26  C   UNL A   1      37.883  21.007  25.137  1.00  0.00     0.118 C 
BRANCH  26  27
ATOM     27  N   UNL A   1      38.863  20.090  25.708  1.00  0.00    -0.352 N 
ATOM     28  C   UNL A   1      40.028  20.333  26.402  1.00  0.00     0.251 C 
ATOM     29  H   UNL A   1      38.658  19.137  25.575  1.00  0.00     0.163 HD
ATOM     30  O   UNL A   1      40.755  19.383  26.690  1.00  0.00    -0.269 OA
BRANCH  28  31
ATOM     31  C   UNL A   1      40.437  21.707  26.787  1.00  0.00     0.039 A 
ATOM     32  C   UNL A   1      41.298  21.869  27.879  1.00  0.00     0.014 A 
ATOM     33  C   UNL A   1      39.960  22.836  26.118  1.00  0.00     0.014 A 
ATOM     34  C   UNL A   1      41.740  23.146  28.246  1.00  0.00     0.010 A 
ATOM     35  C   UNL A   1      40.458  24.102  26.438  1.00  0.00     0.010 A 
ATOM     36  C   UNL A   1      41.357  24.274  27.502  1.00  0.00    -0.014 A 
BRANCH  36  37
ATOM     37  C   UNL A   1      41.912  25.624  27.800  1.00  0.00     0.031 A 
ATOM     38  C   UNL A   1      41.077  26.667  28.495  1.00  0.00     0.074 A 
ATOM     39  C   UNL A   1      43.148  25.947  27.363  1.00  0.00     0.049 A 
ATOM     40  N   UNL A   1      41.372  27.912  28.773  1.00  0.00    -0.248 NA
ATOM     41  C   UNL A   1      39.723  26.268  28.913  1.00  0.00     0.031 C 
ATOM     42  C   UNL A   1      44.039  25.058  26.614  1.00  0.00     0.029 A 
ATOM     43  N   UNL A   1      43.857  27.121  27.458  1.00  0.00    -0.354 N 
ATOM     44  C   UNL A   1      40.236  28.455  29.362  1.00  0.00     0.074 A 
ATOM     45  C   UNL A   1      39.234  27.410  29.376  1.00  0.00     0.031 C 
ATOM     46  C   UNL A   1      45.172  25.715  26.322  1.00  0.00     0.029 A 
ATOM     47  C   UNL A   1      45.078  27.082  26.824  1.00  0.00     0.049 A 
ATOM     48  H   UNL A   1      43.523  27.915  27.935  1.00  0.00     0.167 HD
ATOM     49  C   UNL A   1      40.048  29.698  29.868  1.00  0.00     0.034 A 
ATOM     50  C   UNL A   1      46.012  28.039  26.650  1.00  0.00     0.034 A 
ATOM     51  C   UNL A   1      41.055  30.726  29.885  1.00  0.00     0.049 A 
ATOM     52  C   UNL A   1      45.786  29.405  27.239  1.00  0.00     0.074 A 
ATOM     53  C   UNL A   1      40.984  31.988  30.452  1.00  0.00     0.029 A 
ATOM     54  N   UNL A   1      42.306  30.623  29.299  1.00  0.00    -0.354 N 
ATOM     55  N   UNL A   1      44.763  29.848  27.927  1.00  0.00    -0.248 NA
ATOM     56  C   UNL A   1      46.861  30.393  27.057  1.00  0.00     0.031 C 
ATOM     57  C   UNL A   1      42.180  32.660  30.177  1.00  0.00     0.029 A 
ATOM     58  C   UNL A   1      43.011  31.803  29.475  1.00  0.00     0.049 A 
ATOM     59  H   UNL A   1      42.644  29.829  28.825  1.00  0.00     0.167 HD
ATOM     60  C   UNL A   1      45.086  31.150  28.293  1.00  0.00     0.074 A 
ATOM     61  C   UNL A   1      46.408  31.417  27.768  1.00  0.00     0.031 C 
ATOM     62  C   UNL A   1      44.347  32.046  28.993  1.00  0.00     0.034 A 
BRANCH  49  63
ATOM     63  C   UNL A   1      38.708  30.009  30.486  1.00  0.00     0.023 A 
ATOM     64  C   UNL A   1      38.426  29.578  31.799  1.00  0.00     0.012 A 
ATOM     65  C   UNL A   1      37.755  30.786  29.797  1.00  0.00     0.148 A 
ATOM     66  C   UNL A   1      37.206  29.879  32.401  1.00  0.00     0.002 A 
ATOM     67  C   UNL A   1      36.560  31.123  30.421  1.00  0.00     0.091 A 
ATOM     68  F   UNL A   1      38.033  31.175  28.544  1.00  0.00    -0.205 F 
ATOM     69  C   UNL A   1      36.278  30.660  31.717  1.00  0.00     0.022 A 
BRANCH  67  70
ATOM     70  S   UNL A   1      35.332  32.191  29.659  1.00  0.00     0.127 S 
ATOM     71  O   UNL A   1      34.811  31.331  28.599  1.00  0.00    -0.237 OA
ATOM     72  O   UNL A   1      34.405  32.431  30.764  1.00  0.00    -0.237 OA
ATOM     73  O   UNL A   1      36.055  33.374  29.204  1.00  0.00    -0.744 OA
ENDBRANCH  67  70
ENDBRANCH  49  63
BRANCH  50  74
ATOM     74  C   UNL A   1      47.275  27.724  25.921  1.00  0.00     0.023 A 
ATOM     75  C   UNL A   1      48.415  27.330  26.648  1.00  0.00     0.012 A 
ATOM     76  C   UNL A   1      47.347  27.799  24.518  1.00  0.00     0.148 A 
ATOM     77  C   UNL A   1      49.615  27.050  25.993  1.00  0.00     0.002 A 
ATOM     78  C   UNL A   1      48.528  27.463  23.866  1.00  0.00     0.091 A 
ATOM     79  F   UNL A   1      46.253  28.186  23.845  1.00  0.00    -0.205 F 
ATOM     80  C   UNL A   1      49.669  27.107  24.602  1.00  0.00     0.022 A 
BRANCH  78  81
ATOM     81  S   UNL A   1      48.654  27.383  22.077  1.00  0.00     0.127 S 
ATOM     82  O   UNL A   1      49.952  28.007  21.840  1.00  0.00    -0.237 OA
ATOM     83  O   UNL A   1      48.608  25.941  21.837  1.00  0.00    -0.237 OA
ATOM     84  O   UNL A   1      47.500  28.114  21.568  1.00  0.00    -0.744 OA
ENDBRANCH  78  81
ENDBRANCH  50  74
BRANCH  62  85
ATOM     85  C   UNL A   1      44.962  33.393  29.278  1.00  0.00     0.023 A 
ATOM     86  C   UNL A   1      45.681  33.605  30.471  1.00  0.00     0.012 A 
ATOM     87  C   UNL A   1      44.885  34.429  28.326  1.00  0.00     0.148 A 
ATOM     88  C   UNL A   1      46.282  34.837  30.728  1.00  0.00     0.002 A 
ATOM     89  C   UNL A   1      45.531  35.637  28.565  1.00  0.00     0.091 A 
ATOM     90  F   UNL A   1      44.182  34.216  27.205  1.00  0.00    -0.205 F 
ATOM     91  C   UNL A   1      46.218  35.847  29.771  1.00  0.00     0.022 A 
BRANCH  89  92
ATOM     92  S   UNL A   1      45.587  36.959  27.350  1.00  0.00     0.127 S 
ATOM     93  O   UNL A   1      44.172  37.296  27.212  1.00  0.00    -0.237 OA
ATOM     94  O   UNL A   1      46.392  37.971  28.033  1.00  0.00    -0.237 OA
ATOM     95  O   UNL A   1      46.211  36.390  26.163  1.00  0.00    -0.744 OA
ENDBRANCH  89  92
ENDBRANCH  62  85
ENDBRANCH  36  37
ENDBRANCH  28  31
ENDBRANCH  26  27
ENDBRANCH  25  26
ENDBRANCH   1  25
TORSDOF 20
ENDMDL
