MODEL 1
REMARK VINA RESULT:     -11.9      0.000      0.000
REMARK SMILES COCCn1cc(NC(=O)N[C@H]2C=C[C@H](C(=O)NCCCNC(=O)c3ccc(-c4c5nc(c(-c6cccc(S(=O)(=O)[O-])c6F)c6ccc([nH]6)c(-c6cccc(S(=O)(=O)[O-])c6F)c6nc(c(-c7cccc(S(=O)(=O)[O-])c7F)c7ccc4[nH]7)C=C6)C=C5)cc3)C2)cn1
REMARK SMILES IDX 19 1 18 2 16 3 17 4 15 6 12 7 13 8 88 9 14 10 11 11 8 12
REMARK SMILES IDX 9 13 10 15 7 17 5 18 6 19 90 20 89 21 4 22 3 23 2 24 1 25
REMARK SMILES IDX 20 26 21 27 22 28 23 29 24 31 25 32 26 33 87 34 27 35 86 36
REMARK SMILES IDX 28 37 29 38 30 39 80 40 31 41 85 42 79 43 81 44 32 45 84 46
REMARK SMILES IDX 78 47 77 48 33 50 65 51 45 52 64 53 46 54 49 55 63 56 82 57
REMARK SMILES IDX 47 58 48 59 62 61 83 62 50 63 34 64 35 65 43 66 36 67 38 68
REMARK SMILES IDX 44 69 37 70 39 71 40 72 41 73 42 74 66 75 67 76 75 77 68 78
REMARK SMILES IDX 70 79 76 80 69 81 71 82 72 83 73 84 74 85 51 86 52 87 60 88
REMARK SMILES IDX 53 89 55 90 61 91 54 92 56 93 57 94 58 95 59 96
REMARK H PARENT 18 5 8 14 11 16 22 30 81 49 49 60
REMARK Flexibility Score: inf
ROOT
ATOM      1  C   UNL A   1      37.469  22.132  24.887  1.00  0.00     0.117 C 
ENDROOT
BRANCH   1   2
ATOM      2  N   UNL A   1      36.286  22.240  24.053  1.00  0.00    -0.356 N 
ATOM      3  C   UNL A   1      34.961  22.075  24.323  1.00  0.00     0.227 C 
ATOM      4  O   UNL A   1      34.170  22.594  23.526  1.00  0.00    -0.274 OA
ATOM      5  H   UNL A   1      36.477  22.476  23.117  1.00  0.00     0.163 HD
BRANCH   3   6
ATOM      6  C   UNL A   1      34.386  21.392  25.579  1.00  0.00     0.103 C 
ATOM      7  C   UNL A   1      32.255  22.319  26.167  1.00  0.00     0.107 C 
ATOM      8  C   UNL A   1      33.229  22.518  27.290  1.00  0.00    -0.006 C 
ATOM      9  C   UNL A   1      32.878  21.140  25.435  1.00  0.00     0.047 C 
ATOM     10  C   UNL A   1      34.444  22.078  26.914  1.00  0.00    -0.016 C 
BRANCH   7  11
ATOM     11  N   UNL A   1      30.911  22.123  26.615  1.00  0.00    -0.332 N 
ATOM     12  N   UNL A   1      30.108  24.366  26.597  1.00  0.00    -0.305 N 
ATOM     13  C   UNL A   1      29.982  23.056  26.924  1.00  0.00     0.319 C 
ATOM     14  H   UNL A   1      29.709  24.978  27.257  1.00  0.00     0.171 HD
ATOM     15  O   UNL A   1      29.034  22.713  27.637  1.00  0.00    -0.248 OA
ATOM     16  H   UNL A   1      30.624  21.186  26.710  1.00  0.00     0.165 HD
BRANCH  12  17
ATOM     17  C   UNL A   1      30.687  25.011  25.520  1.00  0.00     0.081 A 
ATOM     18  N   UNL A   1      31.844  26.504  24.385  1.00  0.00    -0.268 N 
ATOM     19  C   UNL A   1      31.412  26.175  25.642  1.00  0.00     0.135 A 
ATOM     20  N   UNL A   1      31.415  25.641  23.445  1.00  0.00    -0.179 NA
ATOM     21  C   UNL A   1      30.691  24.752  24.132  1.00  0.00     0.161 A 
BRANCH  18  22
ATOM     22  C   UNL A   1      32.706  27.615  24.007  1.00  0.00     0.172 C 
BRANCH  22  23
ATOM     23  C   UNL A   1      32.242  28.948  24.591  1.00  0.00     0.183 C 
BRANCH  23  24
ATOM     24  O   UNL A   1      33.251  29.650  25.331  1.00  0.00    -0.383 OA
ATOM     25  C   UNL A   1      33.994  28.833  26.221  1.00  0.00     0.194 C 
ENDBRANCH  23  24
ENDBRANCH  22  23
ENDBRANCH  18  22
ENDBRANCH  12  17
ENDBRANCH   7  11
ENDBRANCH   3   6
ENDBRANCH   1   2
BRANCH   1  26
ATOM     26  C   UNL A   1      38.108  20.754  24.971  1.00  0.00     0.042 C 
BRANCH  26  27
ATOM     27  C   UNL A   1      39.190  20.692  26.027  1.00  0.00     0.118 C 
BRANCH  27  28
ATOM     28  N   UNL A   1      40.094  19.536  25.877  1.00  0.00    -0.352 N 
ATOM     29  C   UNL A   1      41.484  19.517  25.973  1.00  0.00     0.251 C 
ATOM     30  H   UNL A   1      39.662  18.672  25.686  1.00  0.00     0.163 HD
ATOM     31  O   UNL A   1      42.135  18.563  25.627  1.00  0.00    -0.269 OA
BRANCH  29  32
ATOM     32  C   UNL A   1      42.120  20.719  26.546  1.00  0.00     0.039 A 
ATOM     33  C   UNL A   1      42.556  21.778  25.745  1.00  0.00     0.014 A 
ATOM     34  C   UNL A   1      42.049  20.833  27.924  1.00  0.00     0.014 A 
ATOM     35  C   UNL A   1      42.788  23.013  26.351  1.00  0.00     0.010 A 
ATOM     36  C   UNL A   1      42.031  22.089  28.458  1.00  0.00     0.010 A 
ATOM     37  C   UNL A   1      42.474  23.174  27.708  1.00  0.00    -0.014 A 
BRANCH  37  38
ATOM     38  C   UNL A   1      42.483  24.482  28.359  1.00  0.00     0.031 A 
ATOM     39  C   UNL A   1      41.280  25.329  28.121  1.00  0.00     0.074 A 
ATOM     40  C   UNL A   1      43.384  24.790  29.320  1.00  0.00     0.049 A 
ATOM     41  N   UNL A   1      41.204  26.424  27.435  1.00  0.00    -0.248 NA
ATOM     42  C   UNL A   1      39.975  24.834  28.590  1.00  0.00     0.031 C 
ATOM     43  C   UNL A   1      44.425  23.921  29.900  1.00  0.00     0.029 A 
ATOM     44  N   UNL A   1      43.459  25.896  30.105  1.00  0.00    -0.354 N 
ATOM     45  C   UNL A   1      39.898  26.885  27.609  1.00  0.00     0.074 A 
ATOM     46  C   UNL A   1      39.147  25.771  28.120  1.00  0.00     0.031 C 
ATOM     47  C   UNL A   1      44.809  24.408  31.097  1.00  0.00     0.029 A 
ATOM     48  C   UNL A   1      44.229  25.723  31.250  1.00  0.00     0.049 A 
ATOM     49  H   UNL A   1      43.007  26.743  29.884  1.00  0.00     0.167 HD
ATOM     50  C   UNL A   1      39.610  28.218  27.592  1.00  0.00     0.034 A 
ATOM     51  C   UNL A   1      44.380  26.601  32.265  1.00  0.00     0.034 A 
ATOM     52  C   UNL A   1      40.731  28.983  27.107  1.00  0.00     0.049 A 
ATOM     53  C   UNL A   1      44.041  27.933  31.726  1.00  0.00     0.074 A 
ATOM     54  C   UNL A   1      41.437  29.086  25.928  1.00  0.00     0.029 A 
ATOM     55  N   UNL A   1      41.515  29.542  28.086  1.00  0.00    -0.354 N 
ATOM     56  N   UNL A   1      44.722  28.519  30.780  1.00  0.00    -0.248 NA
ATOM     57  C   UNL A   1      42.713  28.469  31.967  1.00  0.00     0.031 C 
ATOM     58  C   UNL A   1      42.784  29.352  26.321  1.00  0.00     0.029 A 
ATOM     59  C   UNL A   1      42.828  29.447  27.715  1.00  0.00     0.049 A 
ATOM     60  H   UNL A   1      41.185  29.945  28.921  1.00  0.00     0.167 HD
ATOM     61  C   UNL A   1      43.760  29.166  30.018  1.00  0.00     0.074 A 
ATOM     62  C   UNL A   1      42.590  29.247  30.887  1.00  0.00     0.031 C 
ATOM     63  C   UNL A   1      43.913  29.298  28.667  1.00  0.00     0.034 A 
BRANCH  50  64
ATOM     64  C   UNL A   1      38.517  28.904  28.398  1.00  0.00     0.023 A 
ATOM     65  C   UNL A   1      37.658  29.785  27.697  1.00  0.00     0.012 A 
ATOM     66  C   UNL A   1      38.467  28.965  29.809  1.00  0.00     0.148 A 
ATOM     67  C   UNL A   1      36.847  30.714  28.360  1.00  0.00     0.002 A 
ATOM     68  C   UNL A   1      37.600  29.835  30.465  1.00  0.00     0.091 A 
ATOM     69  F   UNL A   1      39.351  28.288  30.543  1.00  0.00    -0.205 F 
ATOM     70  C   UNL A   1      36.812  30.736  29.747  1.00  0.00     0.022 A 
BRANCH  68  71
ATOM     71  S   UNL A   1      37.485  29.868  32.259  1.00  0.00     0.127 S 
ATOM     72  O   UNL A   1      37.243  28.460  32.560  1.00  0.00    -0.237 OA
ATOM     73  O   UNL A   1      38.808  30.365  32.636  1.00  0.00    -0.237 OA
ATOM     74  O   UNL A   1      36.396  30.790  32.558  1.00  0.00    -0.744 OA
ENDBRANCH  68  71
ENDBRANCH  50  64
BRANCH  51  75
ATOM     75  C   UNL A   1      44.599  26.348  33.702  1.00  0.00     0.023 A 
ATOM     76  C   UNL A   1      45.873  26.549  34.262  1.00  0.00     0.012 A 
ATOM     77  C   UNL A   1      43.496  26.188  34.572  1.00  0.00     0.148 A 
ATOM     78  C   UNL A   1      46.041  26.634  35.649  1.00  0.00     0.002 A 
ATOM     79  C   UNL A   1      43.668  26.277  35.950  1.00  0.00     0.091 A 
ATOM     80  F   UNL A   1      42.276  26.038  34.040  1.00  0.00    -0.205 F 
ATOM     81  C   UNL A   1      44.938  26.514  36.490  1.00  0.00     0.022 A 
BRANCH  79  82
ATOM     82  S   UNL A   1      42.292  26.177  37.104  1.00  0.00     0.127 S 
ATOM     83  O   UNL A   1      42.976  26.275  38.393  1.00  0.00    -0.237 OA
ATOM     84  O   UNL A   1      41.507  27.354  36.737  1.00  0.00    -0.237 OA
ATOM     85  O   UNL A   1      41.656  24.892  36.852  1.00  0.00    -0.744 OA
ENDBRANCH  79  82
ENDBRANCH  51  75
BRANCH  63  86
ATOM     86  C   UNL A   1      45.281  29.029  28.088  1.00  0.00     0.023 A 
ATOM     87  C   UNL A   1      46.350  29.941  28.213  1.00  0.00     0.012 A 
ATOM     88  C   UNL A   1      45.534  27.765  27.532  1.00  0.00     0.148 A 
ATOM     89  C   UNL A   1      47.635  29.611  27.774  1.00  0.00     0.002 A 
ATOM     90  C   UNL A   1      46.822  27.423  27.134  1.00  0.00     0.091 A 
ATOM     91  F   UNL A   1      44.511  26.904  27.427  1.00  0.00    -0.205 F 
ATOM     92  C   UNL A   1      47.873  28.346  27.244  1.00  0.00     0.022 A 
BRANCH  90  93
ATOM     93  S   UNL A   1      47.221  25.772  26.555  1.00  0.00     0.127 S 
ATOM     94  O   UNL A   1      48.648  25.888  26.261  1.00  0.00    -0.237 OA
ATOM     95  O   UNL A   1      46.900  24.946  27.720  1.00  0.00    -0.237 OA
ATOM     96  O   UNL A   1      46.362  25.533  25.401  1.00  0.00    -0.744 OA
ENDBRANCH  90  93
ENDBRANCH  63  86
ENDBRANCH  37  38
ENDBRANCH  29  32
ENDBRANCH  27  28
ENDBRANCH  26  27
ENDBRANCH   1  26
TORSDOF 18
ENDMDL
MODEL 2
REMARK VINA RESULT:     -11.8      3.876      9.488
REMARK SMILES COCCn1cc(NC(=O)N[C@H]2C=C[C@H](C(=O)NCCCNC(=O)c3ccc(-c4c5nc(c(-c6cccc(S(=O)(=O)[O-])c6F)c6ccc([nH]6)c(-c6cccc(S(=O)(=O)[O-])c6F)c6nc(c(-c7cccc(S(=O)(=O)[O-])c7F)c7ccc4[nH]7)C=C6)C=C5)cc3)C2)cn1
REMARK SMILES IDX 19 1 18 2 16 3 17 4 15 6 12 7 13 8 88 9 14 10 11 11 8 12
REMARK SMILES IDX 9 13 10 15 7 17 5 18 6 19 90 20 89 21 4 22 3 23 2 24 1 25
REMARK SMILES IDX 20 26 21 27 22 28 23 29 24 31 25 32 26 33 87 34 27 35 86 36
REMARK SMILES IDX 28 37 29 38 30 39 80 40 31 41 85 42 79 43 81 44 32 45 84 46
REMARK SMILES IDX 78 47 77 48 33 50 65 51 45 52 64 53 46 54 49 55 63 56 82 57
REMARK SMILES IDX 47 58 48 59 62 61 83 62 50 63 34 64 35 65 43 66 36 67 38 68
REMARK SMILES IDX 44 69 37 70 39 71 40 72 41 73 42 74 66 75 67 76 75 77 68 78
REMARK SMILES IDX 70 79 76 80 69 81 71 82 72 83 73 84 74 85 51 86 52 87 60 88
REMARK SMILES IDX 53 89 55 90 61 91 54 92 56 93 57 94 58 95 59 96
REMARK H PARENT 18 5 8 14 11 16 22 30 81 49 49 60
REMARK Flexibility Score: inf
ROOT
ATOM      1  C   UNL A   1      32.562  29.920  27.251  1.00  0.00     0.117 C 
ENDROOT
BRANCH   1   2
ATOM      2  N   UNL A   1      31.675  28.860  26.810  1.00  0.00    -0.356 N 
ATOM      3  C   UNL A   1      31.438  28.319  25.583  1.00  0.00     0.227 C 
ATOM      4  O   UNL A   1      30.921  27.195  25.568  1.00  0.00    -0.274 OA
ATOM      5  H   UNL A   1      31.144  28.455  27.535  1.00  0.00     0.163 HD
BRANCH   3   6
ATOM      6  C   UNL A   1      31.851  28.947  24.238  1.00  0.00     0.103 C 
ATOM      7  C   UNL A   1      32.437  27.259  22.640  1.00  0.00     0.107 C 
ATOM      8  C   UNL A   1      33.611  28.158  22.890  1.00  0.00    -0.006 C 
ATOM      9  C   UNL A   1      31.279  28.155  23.054  1.00  0.00     0.047 C 
ATOM     10  C   UNL A   1      33.301  29.043  23.855  1.00  0.00    -0.016 C 
BRANCH   7  11
ATOM     11  N   UNL A   1      32.381  26.763  21.299  1.00  0.00    -0.332 N 
ATOM     12  N   UNL A   1      32.842  24.455  21.662  1.00  0.00    -0.305 N 
ATOM     13  C   UNL A   1      32.683  25.526  20.845  1.00  0.00     0.319 C 
ATOM     14  H   UNL A   1      33.514  23.810  21.341  1.00  0.00     0.171 HD
ATOM     15  O   UNL A   1      32.937  25.396  19.644  1.00  0.00    -0.248 OA
ATOM     16  H   UNL A   1      32.085  27.408  20.617  1.00  0.00     0.165 HD
BRANCH  12  17
ATOM     17  C   UNL A   1      32.247  24.090  22.856  1.00  0.00     0.081 A 
ATOM     18  N   UNL A   1      32.052  23.439  24.952  1.00  0.00    -0.268 N 
ATOM     19  C   UNL A   1      32.964  23.700  23.965  1.00  0.00     0.135 A 
ATOM     20  N   UNL A   1      30.781  23.603  24.542  1.00  0.00    -0.179 NA
ATOM     21  C   UNL A   1      30.901  23.971  23.263  1.00  0.00     0.161 A 
BRANCH  18  22
ATOM     22  C   UNL A   1      32.325  23.061  26.331  1.00  0.00     0.172 C 
BRANCH  22  23
ATOM     23  C   UNL A   1      33.523  22.124  26.462  1.00  0.00     0.183 C 
BRANCH  23  24
ATOM     24  O   UNL A   1      33.304  20.810  25.928  1.00  0.00    -0.383 OA
ATOM     25  C   UNL A   1      34.321  20.363  25.047  1.00  0.00     0.194 C 
ENDBRANCH  23  24
ENDBRANCH  22  23
ENDBRANCH  18  22
ENDBRANCH  12  17
ENDBRANCH   7  11
ENDBRANCH   3   6
ENDBRANCH   1   2
BRANCH   1  26
ATOM     26  C   UNL A   1      32.082  31.343  27.008  1.00  0.00     0.042 C 
BRANCH  26  27
ATOM     27  C   UNL A   1      33.157  32.364  27.305  1.00  0.00     0.118 C 
BRANCH  27  28
ATOM     28  N   UNL A   1      32.624  33.689  27.675  1.00  0.00    -0.352 N 
ATOM     29  C   UNL A   1      33.074  34.545  28.679  1.00  0.00     0.251 C 
ATOM     30  H   UNL A   1      31.858  34.009  27.146  1.00  0.00     0.163 HD
ATOM     31  O   UNL A   1      32.438  35.507  29.031  1.00  0.00    -0.269 OA
BRANCH  29  32
ATOM     32  C   UNL A   1      34.387  34.227  29.274  1.00  0.00     0.039 A 
ATOM     33  C   UNL A   1      34.509  33.416  30.405  1.00  0.00     0.014 A 
ATOM     34  C   UNL A   1      35.489  34.587  28.517  1.00  0.00     0.014 A 
ATOM     35  C   UNL A   1      35.754  32.852  30.683  1.00  0.00     0.010 A 
ATOM     36  C   UNL A   1      36.622  33.839  28.649  1.00  0.00     0.010 A 
ATOM     37  C   UNL A   1      36.801  33.030  29.767  1.00  0.00    -0.014 A 
BRANCH  37  38
ATOM     38  C   UNL A   1      38.061  32.300  29.874  1.00  0.00     0.031 A 
ATOM     39  C   UNL A   1      38.066  30.930  29.288  1.00  0.00     0.074 A 
ATOM     40  C   UNL A   1      39.210  32.918  30.231  1.00  0.00     0.049 A 
ATOM     41  N   UNL A   1      38.139  29.800  29.915  1.00  0.00    -0.248 NA
ATOM     42  C   UNL A   1      37.827  30.789  27.843  1.00  0.00     0.031 C 
ATOM     43  C   UNL A   1      39.421  34.351  30.512  1.00  0.00     0.029 A 
ATOM     44  N   UNL A   1      40.477  32.427  30.262  1.00  0.00    -0.354 N 
ATOM     45  C   UNL A   1      38.217  28.824  28.919  1.00  0.00     0.074 A 
ATOM     46  C   UNL A   1      37.793  29.462  27.703  1.00  0.00     0.031 C 
ATOM     47  C   UNL A   1      40.731  34.650  30.392  1.00  0.00     0.029 A 
ATOM     48  C   UNL A   1      41.462  33.409  30.269  1.00  0.00     0.049 A 
ATOM     49  H   UNL A   1      40.679  31.464  30.276  1.00  0.00     0.167 HD
ATOM     50  C   UNL A   1      38.898  27.660  29.122  1.00  0.00     0.034 A 
ATOM     51  C   UNL A   1      42.796  33.219  30.175  1.00  0.00     0.034 A 
ATOM     52  C   UNL A   1      39.234  27.492  30.514  1.00  0.00     0.049 A 
ATOM     53  C   UNL A   1      43.056  31.827  30.592  1.00  0.00     0.074 A 
ATOM     54  C   UNL A   1      38.545  27.336  31.697  1.00  0.00     0.029 A 
ATOM     55  N   UNL A   1      40.512  27.866  30.848  1.00  0.00    -0.354 N 
ATOM     56  N   UNL A   1      42.820  31.383  31.795  1.00  0.00    -0.248 NA
ATOM     57  C   UNL A   1      43.224  30.809  29.570  1.00  0.00     0.031 C 
ATOM     58  C   UNL A   1      39.336  28.004  32.681  1.00  0.00     0.029 A 
ATOM     59  C   UNL A   1      40.491  28.493  32.063  1.00  0.00     0.049 A 
ATOM     60  H   UNL A   1      41.315  27.709  30.300  1.00  0.00     0.167 HD
ATOM     61  C   UNL A   1      42.359  30.090  31.598  1.00  0.00     0.074 A 
ATOM     62  C   UNL A   1      42.796  29.741  30.250  1.00  0.00     0.031 C 
ATOM     63  C   UNL A   1      41.416  29.549  32.427  1.00  0.00     0.034 A 
BRANCH  50  64
ATOM     64  C   UNL A   1      39.653  26.872  28.061  1.00  0.00     0.023 A 
ATOM     65  C   UNL A   1      39.426  25.475  28.015  1.00  0.00     0.012 A 
ATOM     66  C   UNL A   1      40.757  27.355  27.325  1.00  0.00     0.148 A 
ATOM     67  C   UNL A   1      40.284  24.606  27.331  1.00  0.00     0.002 A 
ATOM     68  C   UNL A   1      41.562  26.496  26.580  1.00  0.00     0.091 A 
ATOM     69  F   UNL A   1      41.137  28.629  27.440  1.00  0.00    -0.205 F 
ATOM     70  C   UNL A   1      41.351  25.117  26.606  1.00  0.00     0.022 A 
BRANCH  68  71
ATOM     71  S   UNL A   1      42.927  27.116  25.588  1.00  0.00     0.127 S 
ATOM     72  O   UNL A   1      42.246  28.073  24.722  1.00  0.00    -0.237 OA
ATOM     73  O   UNL A   1      43.794  27.708  26.607  1.00  0.00    -0.237 OA
ATOM     74  O   UNL A   1      43.493  25.942  24.936  1.00  0.00    -0.744 OA
ENDBRANCH  68  71
ENDBRANCH  50  64
BRANCH  51  75
ATOM     75  C   UNL A   1      43.827  34.081  29.566  1.00  0.00     0.023 A 
ATOM     76  C   UNL A   1      44.642  34.882  30.385  1.00  0.00     0.012 A 
ATOM     77  C   UNL A   1      44.200  33.898  28.214  1.00  0.00     0.148 A 
ATOM     78  C   UNL A   1      45.821  35.451  29.887  1.00  0.00     0.002 A 
ATOM     79  C   UNL A   1      45.373  34.462  27.725  1.00  0.00     0.091 A 
ATOM     80  F   UNL A   1      43.447  33.101  27.444  1.00  0.00    -0.205 F 
ATOM     81  C   UNL A   1      46.193  35.228  28.564  1.00  0.00     0.022 A 
BRANCH  79  82
ATOM     82  S   UNL A   1      45.950  34.188  26.044  1.00  0.00     0.127 S 
ATOM     83  O   UNL A   1      46.229  32.752  26.054  1.00  0.00    -0.237 OA
ATOM     84  O   UNL A   1      44.781  34.578  25.259  1.00  0.00    -0.237 OA
ATOM     85  O   UNL A   1      47.125  35.032  25.885  1.00  0.00    -0.744 OA
ENDBRANCH  79  82
ENDBRANCH  51  75
BRANCH  63  86
ATOM     86  C   UNL A   1      41.146  30.257  33.734  1.00  0.00     0.023 A 
ATOM     87  C   UNL A   1      42.064  30.247  34.805  1.00  0.00     0.012 A 
ATOM     88  C   UNL A   1      40.007  31.072  33.828  1.00  0.00     0.148 A 
ATOM     89  C   UNL A   1      41.840  31.011  35.953  1.00  0.00     0.002 A 
ATOM     90  C   UNL A   1      39.807  31.863  34.954  1.00  0.00     0.091 A 
ATOM     91  F   UNL A   1      39.147  31.079  32.799  1.00  0.00    -0.205 F 
ATOM     92  C   UNL A   1      40.716  31.828  36.023  1.00  0.00     0.022 A 
BRANCH  90  93
ATOM     93  S   UNL A   1      38.445  33.027  35.058  1.00  0.00     0.127 S 
ATOM     94  O   UNL A   1      37.286  32.137  35.107  1.00  0.00    -0.237 OA
ATOM     95  O   UNL A   1      38.730  33.732  36.309  1.00  0.00    -0.237 OA
ATOM     96  O   UNL A   1      38.541  33.864  33.868  1.00  0.00    -0.744 OA
ENDBRANCH  90  93
ENDBRANCH  63  86
ENDBRANCH  37  38
ENDBRANCH  29  32
ENDBRANCH  27  28
ENDBRANCH  26  27
ENDBRANCH   1  26
TORSDOF 18
ENDMDL
MODEL 3
REMARK VINA RESULT:     -11.7      4.157      9.363
REMARK SMILES COCCn1cc(NC(=O)N[C@H]2C=C[C@H](C(=O)NCCCNC(=O)c3ccc(-c4c5nc(c(-c6cccc(S(=O)(=O)[O-])c6F)c6ccc([nH]6)c(-c6cccc(S(=O)(=O)[O-])c6F)c6nc(c(-c7cccc(S(=O)(=O)[O-])c7F)c7ccc4[nH]7)C=C6)C=C5)cc3)C2)cn1
REMARK SMILES IDX 19 1 18 2 16 3 17 4 15 6 12 7 13 8 88 9 14 10 11 11 8 12
REMARK SMILES IDX 9 13 10 15 7 17 5 18 6 19 90 20 89 21 4 22 3 23 2 24 1 25
REMARK SMILES IDX 20 26 21 27 22 28 23 29 24 31 25 32 26 33 87 34 27 35 86 36
REMARK SMILES IDX 28 37 29 38 30 39 80 40 31 41 85 42 79 43 81 44 32 45 84 46
REMARK SMILES IDX 78 47 77 48 33 50 65 51 45 52 64 53 46 54 49 55 63 56 82 57
REMARK SMILES IDX 47 58 48 59 62 61 83 62 50 63 34 64 35 65 43 66 36 67 38 68
REMARK SMILES IDX 44 69 37 70 39 71 40 72 41 73 42 74 66 75 67 76 75 77 68 78
REMARK SMILES IDX 70 79 76 80 69 81 71 82 72 83 73 84 74 85 51 86 52 87 60 88
REMARK SMILES IDX 53 89 55 90 61 91 54 92 56 93 57 94 58 95 59 96
REMARK H PARENT 18 5 8 14 11 16 22 30 81 49 49 60
REMARK Flexibility Score: inf
ROOT
ATOM      1  C   UNL A   1      33.611  30.493  27.156  1.00  0.00     0.117 C 
ENDROOT
BRANCH   1   2
ATOM      2  N   UNL A   1      32.602  29.452  27.189  1.00  0.00    -0.356 N 
ATOM      3  C   UNL A   1      32.664  28.112  26.953  1.00  0.00     0.227 C 
ATOM      4  O   UNL A   1      31.743  27.428  27.418  1.00  0.00    -0.274 OA
ATOM      5  H   UNL A   1      31.702  29.775  27.426  1.00  0.00     0.163 HD
BRANCH   3   6
ATOM      6  C   UNL A   1      33.827  27.384  26.251  1.00  0.00     0.103 C 
ATOM      7  C   UNL A   1      33.222  26.739  24.023  1.00  0.00     0.107 C 
ATOM      8  C   UNL A   1      33.564  25.524  24.834  1.00  0.00    -0.006 C 
ATOM      9  C   UNL A   1      33.960  27.828  24.788  1.00  0.00     0.047 C 
ATOM     10  C   UNL A   1      33.811  25.888  26.105  1.00  0.00    -0.016 C 
BRANCH   7  11
ATOM     11  N   UNL A   1      33.572  26.612  22.642  1.00  0.00    -0.332 N 
ATOM     12  N   UNL A   1      31.411  26.512  21.646  1.00  0.00    -0.305 N 
ATOM     13  C   UNL A   1      32.760  26.389  21.584  1.00  0.00     0.319 C 
ATOM     14  H   UNL A   1      30.929  25.878  21.066  1.00  0.00     0.171 HD
ATOM     15  O   UNL A   1      33.266  25.940  20.551  1.00  0.00    -0.248 OA
ATOM     16  H   UNL A   1      34.530  26.699  22.434  1.00  0.00     0.165 HD
BRANCH  12  17
ATOM     17  C   UNL A   1      30.578  27.352  22.362  1.00  0.00     0.081 A 
ATOM     18  N   UNL A   1      29.722  29.216  23.167  1.00  0.00    -0.268 N 
ATOM     19  C   UNL A   1      30.728  28.721  22.382  1.00  0.00     0.135 A 
ATOM     20  N   UNL A   1      28.945  28.248  23.688  1.00  0.00    -0.179 NA
ATOM     21  C   UNL A   1      29.482  27.118  23.220  1.00  0.00     0.161 A 
BRANCH  18  22
ATOM     22  C   UNL A   1      29.416  30.613  23.438  1.00  0.00     0.172 C 
BRANCH  22  23
ATOM     23  C   UNL A   1      28.187  31.108  22.679  1.00  0.00     0.183 C 
BRANCH  23  24
ATOM     24  O   UNL A   1      27.753  32.423  23.053  1.00  0.00    -0.383 OA
ATOM     25  C   UNL A   1      28.744  33.427  22.909  1.00  0.00     0.194 C 
ENDBRANCH  23  24
ENDBRANCH  22  23
ENDBRANCH  18  22
ENDBRANCH  12  17
ENDBRANCH   7  11
ENDBRANCH   3   6
ENDBRANCH   1   2
BRANCH   1  26
ATOM     26  C   UNL A   1      33.362  31.699  28.049  1.00  0.00     0.042 C 
BRANCH  26  27
ATOM     27  C   UNL A   1      33.419  32.999  27.278  1.00  0.00     0.118 C 
BRANCH  27  28
ATOM     28  N   UNL A   1      32.770  34.126  27.975  1.00  0.00    -0.352 N 
ATOM     29  C   UNL A   1      33.150  34.726  29.173  1.00  0.00     0.251 C 
ATOM     30  H   UNL A   1      31.970  34.500  27.539  1.00  0.00     0.163 HD
ATOM     31  O   UNL A   1      32.432  35.499  29.758  1.00  0.00    -0.269 OA
BRANCH  29  32
ATOM     32  C   UNL A   1      34.494  34.386  29.681  1.00  0.00     0.039 A 
ATOM     33  C   UNL A   1      34.677  33.633  30.843  1.00  0.00     0.014 A 
ATOM     34  C   UNL A   1      35.544  34.660  28.820  1.00  0.00     0.014 A 
ATOM     35  C   UNL A   1      35.919  33.034  31.054  1.00  0.00     0.010 A 
ATOM     36  C   UNL A   1      36.656  33.874  28.905  1.00  0.00     0.010 A 
ATOM     37  C   UNL A   1      36.894  33.119  30.050  1.00  0.00    -0.014 A 
BRANCH  37  38
ATOM     38  C   UNL A   1      38.132  32.345  30.099  1.00  0.00     0.031 A 
ATOM     39  C   UNL A   1      38.075  30.996  29.467  1.00  0.00     0.074 A 
ATOM     40  C   UNL A   1      39.310  32.912  30.447  1.00  0.00     0.049 A 
ATOM     41  N   UNL A   1      38.125  29.843  30.053  1.00  0.00    -0.248 NA
ATOM     42  C   UNL A   1      37.795  30.914  28.025  1.00  0.00     0.031 C 
ATOM     43  C   UNL A   1      39.576  34.326  30.769  1.00  0.00     0.029 A 
ATOM     44  N   UNL A   1      40.560  32.378  30.427  1.00  0.00    -0.354 N 
ATOM     45  C   UNL A   1      38.145  28.901  29.024  1.00  0.00     0.074 A 
ATOM     46  C   UNL A   1      37.712  29.594  27.841  1.00  0.00     0.031 C 
ATOM     47  C   UNL A   1      40.892  34.585  30.625  1.00  0.00     0.029 A 
ATOM     48  C   UNL A   1      41.577  33.326  30.441  1.00  0.00     0.049 A 
ATOM     49  H   UNL A   1      40.729  31.409  30.404  1.00  0.00     0.167 HD
ATOM     50  C   UNL A   1      38.791  27.708  29.169  1.00  0.00     0.034 A 
ATOM     51  C   UNL A   1      42.901  33.095  30.306  1.00  0.00     0.034 A 
ATOM     52  C   UNL A   1      39.156  27.482  30.545  1.00  0.00     0.049 A 
ATOM     53  C   UNL A   1      43.123  31.682  30.669  1.00  0.00     0.074 A 
ATOM     54  C   UNL A   1      38.492  27.307  31.740  1.00  0.00     0.029 A 
ATOM     55  N   UNL A   1      40.453  27.801  30.858  1.00  0.00    -0.354 N 
ATOM     56  N   UNL A   1      42.903  31.204  31.862  1.00  0.00    -0.248 NA
ATOM     57  C   UNL A   1      43.231  30.695  29.609  1.00  0.00     0.031 C 
ATOM     58  C   UNL A   1      39.330  27.914  32.725  1.00  0.00     0.029 A 
ATOM     59  C   UNL A   1      40.485  28.386  32.093  1.00  0.00     0.049 A 
ATOM     60  H   UNL A   1      41.236  27.636  30.284  1.00  0.00     0.167 HD
ATOM     61  C   UNL A   1      42.393  29.935  31.633  1.00  0.00     0.074 A 
ATOM     62  C   UNL A   1      42.785  29.619  30.263  1.00  0.00     0.031 C 
ATOM     63  C   UNL A   1      41.454  29.398  32.468  1.00  0.00     0.034 A 
BRANCH  50  64
ATOM     64  C   UNL A   1      39.491  26.933  28.062  1.00  0.00     0.023 A 
ATOM     65  C   UNL A   1      39.216  25.546  27.975  1.00  0.00     0.012 A 
ATOM     66  C   UNL A   1      40.593  27.405  27.314  1.00  0.00     0.148 A 
ATOM     67  C   UNL A   1      40.026  24.674  27.239  1.00  0.00     0.002 A 
ATOM     68  C   UNL A   1      41.349  26.546  26.519  1.00  0.00     0.091 A 
ATOM     69  F   UNL A   1      41.018  28.660  27.463  1.00  0.00    -0.205 F 
ATOM     70  C   UNL A   1      41.092  25.174  26.504  1.00  0.00     0.022 A 
BRANCH  68  71
ATOM     71  S   UNL A   1      42.709  27.154  25.513  1.00  0.00     0.127 S 
ATOM     72  O   UNL A   1      43.695  27.495  26.534  1.00  0.00    -0.237 OA
ATOM     73  O   UNL A   1      43.033  25.979  24.704  1.00  0.00    -0.237 OA
ATOM     74  O   UNL A   1      42.156  28.266  24.750  1.00  0.00    -0.744 OA
ENDBRANCH  68  71
ENDBRANCH  50  64
BRANCH  51  75
ATOM     75  C   UNL A   1      43.945  33.943  29.699  1.00  0.00     0.023 A 
ATOM     76  C   UNL A   1      44.834  34.656  30.523  1.00  0.00     0.012 A 
ATOM     77  C   UNL A   1      44.248  33.824  28.323  1.00  0.00     0.148 A 
ATOM     78  C   UNL A   1      46.015  35.198  30.004  1.00  0.00     0.002 A 
ATOM     79  C   UNL A   1      45.425  34.361  27.812  1.00  0.00     0.091 A 
ATOM     80  F   UNL A   1      43.423  33.110  27.545  1.00  0.00    -0.205 F 
ATOM     81  C   UNL A   1      46.318  35.037  28.654  1.00  0.00     0.022 A 
BRANCH  79  82
ATOM     82  S   UNL A   1      45.912  34.161  26.093  1.00  0.00     0.127 S 
ATOM     83  O   UNL A   1      47.155  34.931  26.043  1.00  0.00    -0.237 OA
ATOM     84  O   UNL A   1      46.084  32.714  25.996  1.00  0.00    -0.237 OA
ATOM     85  O   UNL A   1      44.822  34.720  25.304  1.00  0.00    -0.744 OA
ENDBRANCH  79  82
ENDBRANCH  51  75
BRANCH  63  86
ATOM     86  C   UNL A   1      41.242  30.068  33.805  1.00  0.00     0.023 A 
ATOM     87  C   UNL A   1      42.177  29.977  34.856  1.00  0.00     0.012 A 
ATOM     88  C   UNL A   1      40.143  30.930  33.952  1.00  0.00     0.148 A 
ATOM     89  C   UNL A   1      42.010  30.708  36.036  1.00  0.00     0.002 A 
ATOM     90  C   UNL A   1      40.001  31.688  35.109  1.00  0.00     0.091 A 
ATOM     91  F   UNL A   1      39.266  31.015  32.940  1.00  0.00    -0.205 F 
ATOM     92  C   UNL A   1      40.927  31.572  36.158  1.00  0.00     0.022 A 
BRANCH  90  93
ATOM     93  S   UNL A   1      38.696  32.907  35.282  1.00  0.00     0.127 S 
ATOM     94  O   UNL A   1      37.518  32.068  35.485  1.00  0.00    -0.237 OA
ATOM     95  O   UNL A   1      39.124  33.658  36.463  1.00  0.00    -0.237 OA
ATOM     96  O   UNL A   1      38.707  33.684  34.048  1.00  0.00    -0.744 OA
ENDBRANCH  90  93
ENDBRANCH  63  86
ENDBRANCH  37  38
ENDBRANCH  29  32
ENDBRANCH  27  28
ENDBRANCH  26  27
ENDBRANCH   1  26
TORSDOF 18
ENDMDL
