MODEL 1
REMARK VINA RESULT:     -12.6      0.000      0.000
REMARK SMILES O=C(NCCCNC(=O)[C@@H](Cc1c(F)cccc1Cl)c1ccc(Cl)cc1)c1ccc(-c2c3nc(c(-c4cccc(S(=O)(=O)[O-])c4F)c4ccc([nH]4)c(-c4cccc(S(=O)(=O)[O-])c4F)c4nc(c(-c5cccc(S(=O)(=O)[O-])c5F)c5ccc2[nH]5)C=C4)C=C3)cc1
REMARK SMILES IDX 4 1 3 2 1 3 2 4 27 6 28 7 89 8 29 9 88 10 30 11 31 12 32 13
REMARK SMILES IDX 82 14 33 15 87 16 81 17 83 18 34 19 86 20 80 21 79 22 35 24
REMARK SMILES IDX 67 25 47 26 66 27 48 28 51 29 65 30 84 31 49 32 50 33 64 35
REMARK SMILES IDX 85 36 52 37 36 38 37 39 45 40 38 41 40 42 46 43 39 44 41 45
REMARK SMILES IDX 42 46 43 47 44 48 68 49 69 50 77 51 70 52 72 53 78 54 71 55
REMARK SMILES IDX 73 56 74 57 75 58 76 59 53 60 54 61 62 62 55 63 57 64 63 65
REMARK SMILES IDX 56 66 58 67 59 68 60 69 61 70 5 71 6 72 7 73 8 74 9 76 10 77
REMARK SMILES IDX 11 78 12 79 13 80 18 81 14 82 15 83 17 84 19 85 16 86 20 87
REMARK SMILES IDX 21 88 26 89 22 90 25 91 23 92 24 93
REMARK H PARENT 3 5 83 23 51 34 7 75
REMARK Flexibility Score: inf
ROOT
ATOM      1  C   UNL A   1      32.352  30.050  25.772  1.00  0.00     0.118 C 
ENDROOT
BRANCH   1   2
ATOM      2  N   UNL A   1      32.314  31.371  26.363  1.00  0.00    -0.352 N 
ATOM      3  O   UNL A   1      32.659  33.136  27.635  1.00  0.00    -0.269 OA
ATOM      4  C   UNL A   1      33.113  32.056  27.246  1.00  0.00     0.251 C 
ATOM      5  H   UNL A   1      31.539  31.900  26.064  1.00  0.00     0.163 HD
BRANCH   4   6
ATOM      6  C   UNL A   1      34.441  31.605  27.775  1.00  0.00     0.039 A 
ATOM      7  C   UNL A   1      35.526  32.431  28.073  1.00  0.00     0.014 A 
ATOM      8  C   UNL A   1      34.557  30.241  28.105  1.00  0.00     0.014 A 
ATOM      9  C   UNL A   1      36.694  31.908  28.658  1.00  0.00     0.010 A 
ATOM     10  C   UNL A   1      35.694  29.730  28.752  1.00  0.00     0.010 A 
ATOM     11  C   UNL A   1      36.780  30.562  29.046  1.00  0.00    -0.014 A 
BRANCH  11  12
ATOM     12  C   UNL A   1      37.936  30.073  29.856  1.00  0.00     0.031 A 
ATOM     13  C   UNL A   1      38.187  30.556  31.262  1.00  0.00     0.074 A 
ATOM     14  C   UNL A   1      38.819  29.220  29.292  1.00  0.00     0.049 A 
ATOM     15  N   UNL A   1      39.160  30.245  32.080  1.00  0.00    -0.248 NA
ATOM     16  C   UNL A   1      37.229  31.525  31.814  1.00  0.00     0.031 C 
ATOM     17  C   UNL A   1      38.746  28.730  27.914  1.00  0.00     0.029 A 
ATOM     18  N   UNL A   1      39.957  28.630  29.790  1.00  0.00    -0.354 N 
ATOM     19  C   UNL A   1      38.959  31.006  33.226  1.00  0.00     0.074 A 
ATOM     20  C   UNL A   1      37.772  31.802  32.993  1.00  0.00     0.031 C 
ATOM     21  C   UNL A   1      39.781  27.912  27.679  1.00  0.00     0.029 A 
ATOM     22  C   UNL A   1      40.626  27.859  28.867  1.00  0.00     0.049 A 
ATOM     23  H   UNL A   1      40.264  28.749  30.718  1.00  0.00     0.167 HD
ATOM     24  C   UNL A   1      39.687  31.033  34.372  1.00  0.00     0.034 A 
ATOM     25  C   UNL A   1      41.803  27.203  28.943  1.00  0.00     0.034 A 
ATOM     26  C   UNL A   1      40.854  30.224  34.614  1.00  0.00     0.049 A 
ATOM     27  C   UNL A   1      42.576  27.224  30.230  1.00  0.00     0.074 A 
ATOM     28  C   UNL A   1      41.600  30.118  35.775  1.00  0.00     0.029 A 
ATOM     29  N   UNL A   1      41.460  29.401  33.677  1.00  0.00    -0.354 N 
ATOM     30  N   UNL A   1      42.281  27.829  31.355  1.00  0.00    -0.248 NA
ATOM     31  C   UNL A   1      43.826  26.452  30.272  1.00  0.00     0.031 C 
ATOM     32  C   UNL A   1      42.679  29.261  35.528  1.00  0.00     0.029 A 
ATOM     33  C   UNL A   1      42.582  28.802  34.225  1.00  0.00     0.049 A 
ATOM     34  H   UNL A   1      41.140  29.263  32.757  1.00  0.00     0.167 HD
ATOM     35  C   UNL A   1      43.295  27.495  32.245  1.00  0.00     0.074 A 
ATOM     36  C   UNL A   1      44.201  26.617  31.535  1.00  0.00     0.031 C 
ATOM     37  C   UNL A   1      43.461  27.894  33.529  1.00  0.00     0.034 A 
BRANCH  24  38
ATOM     38  C   UNL A   1      39.228  31.960  35.471  1.00  0.00     0.023 A 
ATOM     39  C   UNL A   1      38.297  31.508  36.428  1.00  0.00     0.012 A 
ATOM     40  C   UNL A   1      39.755  33.263  35.588  1.00  0.00     0.148 A 
ATOM     41  C   UNL A   1      37.862  32.348  37.452  1.00  0.00     0.002 A 
ATOM     42  C   UNL A   1      39.350  34.080  36.638  1.00  0.00     0.091 A 
ATOM     43  F   UNL A   1      40.628  33.686  34.663  1.00  0.00    -0.205 F 
ATOM     44  C   UNL A   1      38.394  33.630  37.563  1.00  0.00     0.022 A 
BRANCH  42  45
ATOM     45  S   UNL A   1      40.035  35.718  36.909  1.00  0.00     0.127 S 
ATOM     46  O   UNL A   1      41.461  35.427  37.026  1.00  0.00    -0.237 OA
ATOM     47  O   UNL A   1      39.653  36.422  35.687  1.00  0.00    -0.237 OA
ATOM     48  O   UNL A   1      39.393  36.221  38.121  1.00  0.00    -0.744 OA
ENDBRANCH  42  45
ENDBRANCH  24  38
BRANCH  25  49
ATOM     49  C   UNL A   1      42.299  26.457  27.751  1.00  0.00     0.023 A 
ATOM     50  C   UNL A   1      43.215  27.067  26.873  1.00  0.00     0.012 A 
ATOM     51  C   UNL A   1      41.924  25.116  27.533  1.00  0.00     0.148 A 
ATOM     52  C   UNL A   1      43.739  26.357  25.791  1.00  0.00     0.002 A 
ATOM     53  C   UNL A   1      42.498  24.397  26.494  1.00  0.00     0.091 A 
ATOM     54  F   UNL A   1      41.040  24.561  28.375  1.00  0.00    -0.205 F 
ATOM     55  C   UNL A   1      43.394  25.019  25.610  1.00  0.00     0.022 A 
BRANCH  53  56
ATOM     56  S   UNL A   1      42.233  22.634  26.276  1.00  0.00     0.127 S 
ATOM     57  O   UNL A   1      42.893  22.385  25.002  1.00  0.00    -0.237 OA
ATOM     58  O   UNL A   1      42.910  22.081  27.447  1.00  0.00    -0.237 OA
ATOM     59  O   UNL A   1      40.782  22.451  26.282  1.00  0.00    -0.744 OA
ENDBRANCH  53  56
ENDBRANCH  25  49
BRANCH  37  60
ATOM     60  C   UNL A   1      44.655  27.365  34.280  1.00  0.00     0.023 A 
ATOM     61  C   UNL A   1      45.861  28.093  34.288  1.00  0.00     0.012 A 
ATOM     62  C   UNL A   1      44.552  26.191  35.051  1.00  0.00     0.148 A 
ATOM     63  C   UNL A   1      46.953  27.650  35.034  1.00  0.00     0.002 A 
ATOM     64  C   UNL A   1      45.626  25.780  35.830  1.00  0.00     0.091 A 
ATOM     65  F   UNL A   1      43.402  25.501  35.013  1.00  0.00    -0.205 F 
ATOM     66  C   UNL A   1      46.831  26.502  35.815  1.00  0.00     0.022 A 
BRANCH  64  67
ATOM     67  S   UNL A   1      45.532  24.371  36.941  1.00  0.00     0.127 S 
ATOM     68  O   UNL A   1      44.527  24.818  37.905  1.00  0.00    -0.237 OA
ATOM     69  O   UNL A   1      45.087  23.301  36.047  1.00  0.00    -0.237 OA
ATOM     70  O   UNL A   1      46.872  24.192  37.481  1.00  0.00    -0.744 OA
ENDBRANCH  64  67
ENDBRANCH  37  60
ENDBRANCH  11  12
ENDBRANCH   4   6
ENDBRANCH   1   2
BRANCH   1  71
ATOM     71  C   UNL A   1      31.619  29.014  26.612  1.00  0.00     0.042 C 
BRANCH  71  72
ATOM     72  C   UNL A   1      32.281  27.626  26.698  1.00  0.00     0.117 C 
BRANCH  72  73
ATOM     73  N   UNL A   1      31.258  26.596  26.853  1.00  0.00    -0.355 N 
ATOM     74  C   UNL A   1      30.430  25.961  25.982  1.00  0.00     0.227 C 
ATOM     75  H   UNL A   1      31.146  26.298  27.784  1.00  0.00     0.163 HD
ATOM     76  O   UNL A   1      29.558  25.251  26.503  1.00  0.00    -0.274 OA
BRANCH  74  77
ATOM     77  C   UNL A   1      30.519  26.025  24.445  1.00  0.00     0.113 C 
BRANCH  77  78
ATOM     78  C   UNL A   1      30.521  24.609  23.768  1.00  0.00     0.058 C 
BRANCH  78  79
ATOM     79  C   UNL A   1      31.826  23.853  23.647  1.00  0.00     0.008 A 
ATOM     80  C   UNL A   1      32.047  22.694  24.402  1.00  0.00     0.127 A 
ATOM     81  C   UNL A   1      32.865  24.243  22.803  1.00  0.00     0.047 A 
ATOM     82  F   UNL A   1      31.020  22.108  25.037  1.00  0.00    -0.207 F 
ATOM     83  C   UNL A   1      33.308  22.120  24.533  1.00  0.00     0.039 A 
ATOM     84  C   UNL A   1      34.156  23.724  22.967  1.00  0.00     0.021 A 
ATOM     85  Cl  UNL A   1      32.544  25.209  21.411  1.00  0.00    -0.084 Cl
ATOM     86  C   UNL A   1      34.386  22.688  23.870  1.00  0.00     0.005 A 
ENDBRANCH  78  79
ENDBRANCH  77  78
BRANCH  77  87
ATOM     87  C   UNL A   1      29.883  27.254  23.780  1.00  0.00    -0.035 A 
ATOM     88  C   UNL A   1      28.496  27.431  23.694  1.00  0.00     0.006 A 
ATOM     89  C   UNL A   1      30.678  28.170  23.061  1.00  0.00     0.006 A 
ATOM     90  C   UNL A   1      27.921  28.513  23.020  1.00  0.00     0.021 A 
ATOM     91  C   UNL A   1      30.111  29.243  22.361  1.00  0.00     0.021 A 
ATOM     92  C   UNL A   1      28.732  29.419  22.356  1.00  0.00     0.041 A 
ATOM     93  Cl  UNL A   1      28.028  30.726  21.490  1.00  0.00    -0.084 Cl
ENDBRANCH  77  87
ENDBRANCH  74  77
ENDBRANCH  72  73
ENDBRANCH  71  72
ENDBRANCH   1  71
TORSDOF 16
ENDMDL
MODEL 2
REMARK VINA RESULT:     -12.5      1.400      3.148
REMARK SMILES O=C(NCCCNC(=O)[C@@H](Cc1c(F)cccc1Cl)c1ccc(Cl)cc1)c1ccc(-c2c3nc(c(-c4cccc(S(=O)(=O)[O-])c4F)c4ccc([nH]4)c(-c4cccc(S(=O)(=O)[O-])c4F)c4nc(c(-c5cccc(S(=O)(=O)[O-])c5F)c5ccc2[nH]5)C=C4)C=C3)cc1
REMARK SMILES IDX 4 1 3 2 1 3 2 4 27 6 28 7 89 8 29 9 88 10 30 11 31 12 32 13
REMARK SMILES IDX 82 14 33 15 87 16 81 17 83 18 34 19 86 20 80 21 79 22 35 24
REMARK SMILES IDX 67 25 47 26 66 27 48 28 51 29 65 30 84 31 49 32 50 33 64 35
REMARK SMILES IDX 85 36 52 37 36 38 37 39 45 40 38 41 40 42 46 43 39 44 41 45
REMARK SMILES IDX 42 46 43 47 44 48 68 49 69 50 77 51 70 52 72 53 78 54 71 55
REMARK SMILES IDX 73 56 74 57 75 58 76 59 53 60 54 61 62 62 55 63 57 64 63 65
REMARK SMILES IDX 56 66 58 67 59 68 60 69 61 70 5 71 6 72 7 73 8 74 9 76 10 77
REMARK SMILES IDX 11 78 12 79 13 80 18 81 14 82 15 83 17 84 19 85 16 86 20 87
REMARK SMILES IDX 21 88 26 89 22 90 25 91 23 92 24 93
REMARK H PARENT 3 5 83 23 51 34 7 75
REMARK Flexibility Score: inf
ROOT
ATOM      1  C   UNL A   1      31.794  30.336  26.658  1.00  0.00     0.118 C 
ENDROOT
BRANCH   1   2
ATOM      2  N   UNL A   1      32.025  31.752  26.848  1.00  0.00    -0.352 N 
ATOM      3  O   UNL A   1      32.797  33.705  27.514  1.00  0.00    -0.269 OA
ATOM      4  C   UNL A   1      33.037  32.500  27.399  1.00  0.00     0.251 C 
ATOM      5  H   UNL A   1      31.288  32.307  26.503  1.00  0.00     0.163 HD
BRANCH   4   6
ATOM      6  C   UNL A   1      34.361  31.985  27.876  1.00  0.00     0.039 A 
ATOM      7  C   UNL A   1      35.514  32.748  28.070  1.00  0.00     0.014 A 
ATOM      8  C   UNL A   1      34.406  30.634  28.272  1.00  0.00     0.014 A 
ATOM      9  C   UNL A   1      36.678  32.175  28.615  1.00  0.00     0.010 A 
ATOM     10  C   UNL A   1      35.544  30.078  28.881  1.00  0.00     0.010 A 
ATOM     11  C   UNL A   1      36.697  30.847  29.068  1.00  0.00    -0.014 A 
BRANCH  11  12
ATOM     12  C   UNL A   1      37.865  30.320  29.838  1.00  0.00     0.031 A 
ATOM     13  C   UNL A   1      38.156  30.763  31.249  1.00  0.00     0.074 A 
ATOM     14  C   UNL A   1      38.721  29.468  29.230  1.00  0.00     0.049 A 
ATOM     15  N   UNL A   1      39.144  30.415  32.035  1.00  0.00    -0.248 NA
ATOM     16  C   UNL A   1      37.227  31.730  31.849  1.00  0.00     0.031 C 
ATOM     17  C   UNL A   1      38.608  29.016  27.843  1.00  0.00     0.029 A 
ATOM     18  N   UNL A   1      39.861  28.849  29.686  1.00  0.00    -0.354 N 
ATOM     19  C   UNL A   1      38.982  31.150  33.205  1.00  0.00     0.074 A 
ATOM     20  C   UNL A   1      37.802  31.969  33.021  1.00  0.00     0.031 C 
ATOM     21  C   UNL A   1      39.624  28.189  27.562  1.00  0.00     0.029 A 
ATOM     22  C   UNL A   1      40.496  28.092  28.728  1.00  0.00     0.049 A 
ATOM     23  H   UNL A   1      40.192  28.939  30.609  1.00  0.00     0.167 HD
ATOM     24  C   UNL A   1      39.737  31.136  34.333  1.00  0.00     0.034 A 
ATOM     25  C   UNL A   1      41.664  27.417  28.758  1.00  0.00     0.034 A 
ATOM     26  C   UNL A   1      40.897  30.304  34.527  1.00  0.00     0.049 A 
ATOM     27  C   UNL A   1      42.468  27.394  30.027  1.00  0.00     0.074 A 
ATOM     28  C   UNL A   1      41.669  30.157  35.666  1.00  0.00     0.029 A 
ATOM     29  N   UNL A   1      41.468  29.496  33.554  1.00  0.00    -0.354 N 
ATOM     30  N   UNL A   1      42.209  27.973  31.173  1.00  0.00    -0.248 NA
ATOM     31  C   UNL A   1      43.707  26.602  30.019  1.00  0.00     0.031 C 
ATOM     32  C   UNL A   1      42.728  29.290  35.371  1.00  0.00     0.029 A 
ATOM     33  C   UNL A   1      42.593  28.866  34.059  1.00  0.00     0.049 A 
ATOM     34  H   UNL A   1      41.124  29.387  32.638  1.00  0.00     0.167 HD
ATOM     35  C   UNL A   1      43.238  27.601  32.029  1.00  0.00     0.074 A 
ATOM     36  C   UNL A   1      44.114  26.728  31.276  1.00  0.00     0.031 C 
ATOM     37  C   UNL A   1      43.441  27.964  33.319  1.00  0.00     0.034 A 
BRANCH  24  38
ATOM     38  C   UNL A   1      39.319  32.041  35.467  1.00  0.00     0.023 A 
ATOM     39  C   UNL A   1      38.445  31.560  36.463  1.00  0.00     0.012 A 
ATOM     40  C   UNL A   1      39.829  33.351  35.574  1.00  0.00     0.148 A 
ATOM     41  C   UNL A   1      38.048  32.380  37.520  1.00  0.00     0.002 A 
ATOM     42  C   UNL A   1      39.463  34.147  36.654  1.00  0.00     0.091 A 
ATOM     43  F   UNL A   1      40.647  33.801  34.612  1.00  0.00    -0.205 F 
ATOM     44  C   UNL A   1      38.563  33.669  37.620  1.00  0.00     0.022 A 
BRANCH  42  45
ATOM     45  S   UNL A   1      40.134  35.795  36.912  1.00  0.00     0.127 S 
ATOM     46  O   UNL A   1      39.653  36.498  35.727  1.00  0.00    -0.237 OA
ATOM     47  O   UNL A   1      39.497  36.198  38.164  1.00  0.00    -0.237 OA
ATOM     48  O   UNL A   1      41.582  35.623  37.000  1.00  0.00    -0.744 OA
ENDBRANCH  42  45
ENDBRANCH  24  38
BRANCH  25  49
ATOM     49  C   UNL A   1      42.120  26.695  27.536  1.00  0.00     0.023 A 
ATOM     50  C   UNL A   1      42.880  27.372  26.564  1.00  0.00     0.012 A 
ATOM     51  C   UNL A   1      41.868  25.318  27.377  1.00  0.00     0.148 A 
ATOM     52  C   UNL A   1      43.370  26.692  25.447  1.00  0.00     0.002 A 
ATOM     53  C   UNL A   1      42.413  24.635  26.299  1.00  0.00     0.091 A 
ATOM     54  F   UNL A   1      41.131  24.697  28.309  1.00  0.00    -0.205 F 
ATOM     55  C   UNL A   1      43.151  25.322  25.323  1.00  0.00     0.022 A 
BRANCH  53  56
ATOM     56  S   UNL A   1      42.314  22.848  26.136  1.00  0.00     0.127 S 
ATOM     57  O   UNL A   1      43.053  22.398  27.308  1.00  0.00    -0.237 OA
ATOM     58  O   UNL A   1      40.871  22.621  26.185  1.00  0.00    -0.237 OA
ATOM     59  O   UNL A   1      42.925  22.536  24.845  1.00  0.00    -0.744 OA
ENDBRANCH  53  56
ENDBRANCH  25  49
BRANCH  37  60
ATOM     60  C   UNL A   1      44.645  27.398  34.027  1.00  0.00     0.023 A 
ATOM     61  C   UNL A   1      45.871  28.090  33.993  1.00  0.00     0.012 A 
ATOM     62  C   UNL A   1      44.533  26.226  34.800  1.00  0.00     0.148 A 
ATOM     63  C   UNL A   1      46.975  27.612  34.700  1.00  0.00     0.002 A 
ATOM     64  C   UNL A   1      45.621  25.781  35.541  1.00  0.00     0.091 A 
ATOM     65  F   UNL A   1      43.363  25.572  34.803  1.00  0.00    -0.205 F 
ATOM     66  C   UNL A   1      46.846  26.467  35.484  1.00  0.00     0.022 A 
BRANCH  64  67
ATOM     67  S   UNL A   1      45.524  24.374  36.654  1.00  0.00     0.127 S 
ATOM     68  O   UNL A   1      44.522  24.826  37.619  1.00  0.00    -0.237 OA
ATOM     69  O   UNL A   1      45.072  23.305  35.761  1.00  0.00    -0.237 OA
ATOM     70  O   UNL A   1      46.864  24.190  37.191  1.00  0.00    -0.744 OA
ENDBRANCH  64  67
ENDBRANCH  37  60
ENDBRANCH  11  12
ENDBRANCH   4   6
ENDBRANCH   1   2
BRANCH   1  71
ATOM     71  C   UNL A   1      32.182  29.863  25.264  1.00  0.00     0.042 C 
BRANCH  71  72
ATOM     72  C   UNL A   1      33.616  29.321  25.110  1.00  0.00     0.117 C 
BRANCH  72  73
ATOM     73  N   UNL A   1      33.922  29.119  23.698  1.00  0.00    -0.355 N 
ATOM     74  C   UNL A   1      33.749  28.079  22.841  1.00  0.00     0.227 C 
ATOM     75  H   UNL A   1      34.343  29.904  23.276  1.00  0.00     0.163 HD
ATOM     76  O   UNL A   1      34.294  28.206  21.735  1.00  0.00    -0.274 OA
BRANCH  74  77
ATOM     77  C   UNL A   1      32.918  26.811  23.121  1.00  0.00     0.113 C 
BRANCH  77  78
ATOM     78  C   UNL A   1      31.618  26.721  22.246  1.00  0.00     0.058 C 
BRANCH  78  79
ATOM     79  C   UNL A   1      30.300  27.171  22.838  1.00  0.00     0.008 A 
ATOM     80  C   UNL A   1      29.598  26.339  23.719  1.00  0.00     0.127 A 
ATOM     81  C   UNL A   1      29.714  28.405  22.561  1.00  0.00     0.047 A 
ATOM     82  F   UNL A   1      30.201  25.259  24.239  1.00  0.00    -0.207 F 
ATOM     83  C   UNL A   1      28.275  26.582  24.076  1.00  0.00     0.039 A 
ATOM     84  C   UNL A   1      28.364  28.641  22.853  1.00  0.00     0.021 A 
ATOM     85  Cl  UNL A   1      30.682  29.737  22.045  1.00  0.00    -0.084 Cl
ATOM     86  C   UNL A   1      27.629  27.703  23.574  1.00  0.00     0.005 A 
ENDBRANCH  78  79
ENDBRANCH  77  78
BRANCH  77  87
ATOM     87  C   UNL A   1      33.705  25.567  23.555  1.00  0.00    -0.035 A 
ATOM     88  C   UNL A   1      33.816  24.426  22.749  1.00  0.00     0.006 A 
ATOM     89  C   UNL A   1      34.197  25.454  24.871  1.00  0.00     0.006 A 
ATOM     90  C   UNL A   1      34.469  23.267  23.180  1.00  0.00     0.021 A 
ATOM     91  C   UNL A   1      34.830  24.288  25.323  1.00  0.00     0.021 A 
ATOM     92  C   UNL A   1      34.976  23.202  24.468  1.00  0.00     0.041 A 
ATOM     93  Cl  UNL A   1      35.741  21.764  25.017  1.00  0.00    -0.084 Cl
ENDBRANCH  77  87
ENDBRANCH  74  77
ENDBRANCH  72  73
ENDBRANCH  71  72
ENDBRANCH   1  71
TORSDOF 16
ENDMDL
MODEL 3
REMARK VINA RESULT:     -12.5      1.200      1.512
REMARK SMILES O=C(NCCCNC(=O)[C@@H](Cc1c(F)cccc1Cl)c1ccc(Cl)cc1)c1ccc(-c2c3nc(c(-c4cccc(S(=O)(=O)[O-])c4F)c4ccc([nH]4)c(-c4cccc(S(=O)(=O)[O-])c4F)c4nc(c(-c5cccc(S(=O)(=O)[O-])c5F)c5ccc2[nH]5)C=C4)C=C3)cc1
REMARK SMILES IDX 4 1 3 2 1 3 2 4 27 6 28 7 89 8 29 9 88 10 30 11 31 12 32 13
REMARK SMILES IDX 82 14 33 15 87 16 81 17 83 18 34 19 86 20 80 21 79 22 35 24
REMARK SMILES IDX 67 25 47 26 66 27 48 28 51 29 65 30 84 31 49 32 50 33 64 35
REMARK SMILES IDX 85 36 52 37 36 38 37 39 45 40 38 41 40 42 46 43 39 44 41 45
REMARK SMILES IDX 42 46 43 47 44 48 68 49 69 50 77 51 70 52 72 53 78 54 71 55
REMARK SMILES IDX 73 56 74 57 75 58 76 59 53 60 54 61 62 62 55 63 57 64 63 65
REMARK SMILES IDX 56 66 58 67 59 68 60 69 61 70 5 71 6 72 7 73 8 74 9 76 10 77
REMARK SMILES IDX 11 78 12 79 13 80 18 81 14 82 15 83 17 84 19 85 16 86 20 87
REMARK SMILES IDX 21 88 26 89 22 90 25 91 23 92 24 93
REMARK H PARENT 3 5 83 23 51 34 7 75
REMARK Flexibility Score: inf
ROOT
ATOM      1  C   UNL A   1      31.872  30.040  26.368  1.00  0.00     0.118 C 
ENDROOT
BRANCH   1   2
ATOM      2  N   UNL A   1      32.010  31.451  26.663  1.00  0.00    -0.352 N 
ATOM      3  O   UNL A   1      32.641  33.394  27.488  1.00  0.00    -0.269 OA
ATOM      4  C   UNL A   1      32.957  32.216  27.300  1.00  0.00     0.251 C 
ATOM      5  H   UNL A   1      31.252  31.985  26.330  1.00  0.00     0.163 HD
BRANCH   4   6
ATOM      6  C   UNL A   1      34.295  31.747  27.787  1.00  0.00     0.039 A 
ATOM      7  C   UNL A   1      35.398  32.558  28.057  1.00  0.00     0.014 A 
ATOM      8  C   UNL A   1      34.404  30.380  28.109  1.00  0.00     0.014 A 
ATOM      9  C   UNL A   1      36.576  32.019  28.605  1.00  0.00     0.010 A 
ATOM     10  C   UNL A   1      35.554  29.853  28.720  1.00  0.00     0.010 A 
ATOM     11  C   UNL A   1      36.658  30.670  28.984  1.00  0.00    -0.014 A 
BRANCH  11  12
ATOM     12  C   UNL A   1      37.832  30.164  29.758  1.00  0.00     0.031 A 
ATOM     13  C   UNL A   1      38.111  30.615  31.169  1.00  0.00     0.074 A 
ATOM     14  C   UNL A   1      38.703  29.326  29.155  1.00  0.00     0.049 A 
ATOM     15  N   UNL A   1      39.102  30.286  31.959  1.00  0.00    -0.248 NA
ATOM     16  C   UNL A   1      37.164  31.568  31.764  1.00  0.00     0.031 C 
ATOM     17  C   UNL A   1      38.602  28.869  27.767  1.00  0.00     0.029 A 
ATOM     18  N   UNL A   1      39.852  28.727  29.615  1.00  0.00    -0.354 N 
ATOM     19  C   UNL A   1      38.925  31.019  33.127  1.00  0.00     0.074 A 
ATOM     20  C   UNL A   1      37.732  31.819  32.937  1.00  0.00     0.031 C 
ATOM     21  C   UNL A   1      39.631  28.058  27.492  1.00  0.00     0.029 A 
ATOM     22  C   UNL A   1      40.502  27.978  28.660  1.00  0.00     0.049 A 
ATOM     23  H   UNL A   1      40.178  28.824  30.538  1.00  0.00     0.167 HD
ATOM     24  C   UNL A   1      39.677  31.021  34.257  1.00  0.00     0.034 A 
ATOM     25  C   UNL A   1      41.681  27.323  28.695  1.00  0.00     0.034 A 
ATOM     26  C   UNL A   1      40.850  30.208  34.455  1.00  0.00     0.049 A 
ATOM     27  C   UNL A   1      42.481  27.315  29.966  1.00  0.00     0.074 A 
ATOM     28  C   UNL A   1      41.621  30.076  35.597  1.00  0.00     0.029 A 
ATOM     29  N   UNL A   1      41.437  29.408  33.486  1.00  0.00    -0.354 N 
ATOM     30  N   UNL A   1      42.210  27.892  31.111  1.00  0.00    -0.248 NA
ATOM     31  C   UNL A   1      43.733  26.544  29.963  1.00  0.00     0.031 C 
ATOM     32  C   UNL A   1      42.695  29.226  35.307  1.00  0.00     0.029 A 
ATOM     33  C   UNL A   1      42.571  28.798  33.996  1.00  0.00     0.049 A 
ATOM     34  H   UNL A   1      41.097  29.291  32.570  1.00  0.00     0.167 HD
ATOM     35  C   UNL A   1      43.243  27.539  31.970  1.00  0.00     0.074 A 
ATOM     36  C   UNL A   1      44.134  26.680  31.221  1.00  0.00     0.031 C 
ATOM     37  C   UNL A   1      43.436  27.909  33.260  1.00  0.00     0.034 A 
BRANCH  24  38
ATOM     38  C   UNL A   1      39.241  31.921  35.387  1.00  0.00     0.023 A 
ATOM     39  C   UNL A   1      38.346  31.438  36.364  1.00  0.00     0.012 A 
ATOM     40  C   UNL A   1      39.754  33.229  35.512  1.00  0.00     0.148 A 
ATOM     41  C   UNL A   1      37.932  32.253  37.417  1.00  0.00     0.002 A 
ATOM     42  C   UNL A   1      39.371  34.020  36.589  1.00  0.00     0.091 A 
ATOM     43  F   UNL A   1      40.592  33.681  34.568  1.00  0.00    -0.205 F 
ATOM     44  C   UNL A   1      38.450  33.540  37.535  1.00  0.00     0.022 A 
BRANCH  42  45
ATOM     45  S   UNL A   1      40.042  35.663  36.869  1.00  0.00     0.127 S 
ATOM     46  O   UNL A   1      39.550  36.386  35.701  1.00  0.00    -0.237 OA
ATOM     47  O   UNL A   1      39.417  36.044  38.134  1.00  0.00    -0.237 OA
ATOM     48  O   UNL A   1      41.491  35.492  36.940  1.00  0.00    -0.744 OA
ENDBRANCH  42  45
ENDBRANCH  24  38
BRANCH  25  49
ATOM     49  C   UNL A   1      42.152  26.606  27.476  1.00  0.00     0.023 A 
ATOM     50  C   UNL A   1      42.927  27.286  26.518  1.00  0.00     0.012 A 
ATOM     51  C   UNL A   1      41.900  25.230  27.307  1.00  0.00     0.148 A 
ATOM     52  C   UNL A   1      43.431  26.611  25.404  1.00  0.00     0.002 A 
ATOM     53  C   UNL A   1      42.458  24.551  26.232  1.00  0.00     0.091 A 
ATOM     54  F   UNL A   1      41.149  24.606  28.225  1.00  0.00    -0.205 F 
ATOM     55  C   UNL A   1      43.211  25.241  25.270  1.00  0.00     0.022 A 
BRANCH  53  56
ATOM     56  S   UNL A   1      42.358  22.765  26.060  1.00  0.00     0.127 S 
ATOM     57  O   UNL A   1      42.977  22.553  24.758  1.00  0.00    -0.237 OA
ATOM     58  O   UNL A   1      43.142  22.308  27.205  1.00  0.00    -0.237 OA
ATOM     59  O   UNL A   1      40.934  22.442  26.142  1.00  0.00    -0.744 OA
ENDBRANCH  53  56
ENDBRANCH  25  49
BRANCH  37  60
ATOM     60  C   UNL A   1      44.647  27.363  33.973  1.00  0.00     0.023 A 
ATOM     61  C   UNL A   1      45.847  28.100  33.984  1.00  0.00     0.012 A 
ATOM     62  C   UNL A   1      44.564  26.164  34.706  1.00  0.00     0.148 A 
ATOM     63  C   UNL A   1      46.954  27.640  34.697  1.00  0.00     0.002 A 
ATOM     64  C   UNL A   1      45.655  25.735  35.453  1.00  0.00     0.091 A 
ATOM     65  F   UNL A   1      43.419  25.468  34.665  1.00  0.00    -0.205 F 
ATOM     66  C   UNL A   1      46.854  26.466  35.441  1.00  0.00     0.022 A 
BRANCH  64  67
ATOM     67  S   UNL A   1      45.589  24.290  36.519  1.00  0.00     0.127 S 
ATOM     68  O   UNL A   1      44.607  24.703  37.521  1.00  0.00    -0.237 OA
ATOM     69  O   UNL A   1      45.123  23.250  35.600  1.00  0.00    -0.237 OA
ATOM     70  O   UNL A   1      46.942  24.096  37.019  1.00  0.00    -0.744 OA
ENDBRANCH  64  67
ENDBRANCH  37  60
ENDBRANCH  11  12
ENDBRANCH   4   6
ENDBRANCH   1   2
BRANCH   1  71
ATOM     71  C   UNL A   1      32.606  29.635  25.097  1.00  0.00     0.042 C 
BRANCH  71  72
ATOM     72  C   UNL A   1      32.927  28.136  24.953  1.00  0.00     0.117 C 
BRANCH  72  73
ATOM     73  N   UNL A   1      33.469  27.869  23.624  1.00  0.00    -0.355 N 
ATOM     74  C   UNL A   1      32.976  27.254  22.518  1.00  0.00     0.227 C 
ATOM     75  H   UNL A   1      34.386  28.208  23.504  1.00  0.00     0.163 HD
ATOM     76  O   UNL A   1      33.796  27.059  21.609  1.00  0.00    -0.274 OA
BRANCH  74  77
ATOM     77  C   UNL A   1      31.509  26.830  22.301  1.00  0.00     0.113 C 
BRANCH  77  78
ATOM     78  C   UNL A   1      31.235  25.336  22.698  1.00  0.00     0.058 C 
BRANCH  78  79
ATOM     79  C   UNL A   1      31.922  24.759  23.916  1.00  0.00     0.008 A 
ATOM     80  C   UNL A   1      31.345  24.892  25.185  1.00  0.00     0.127 A 
ATOM     81  C   UNL A   1      33.136  24.076  23.862  1.00  0.00     0.047 A 
ATOM     82  F   UNL A   1      30.071  25.301  25.298  1.00  0.00    -0.207 F 
ATOM     83  C   UNL A   1      32.050  24.625  26.354  1.00  0.00     0.039 A 
ATOM     84  C   UNL A   1      33.890  23.860  25.023  1.00  0.00     0.021 A 
ATOM     85  Cl  UNL A   1      33.639  23.301  22.406  1.00  0.00    -0.084 Cl
ATOM     86  C   UNL A   1      33.361  24.179  26.272  1.00  0.00     0.005 A 
ENDBRANCH  78  79
ENDBRANCH  77  78
BRANCH  77  87
ATOM     87  C   UNL A   1      30.454  27.932  22.465  1.00  0.00    -0.035 A 
ATOM     88  C   UNL A   1      30.673  29.253  22.050  1.00  0.00     0.006 A 
ATOM     89  C   UNL A   1      29.283  27.696  23.212  1.00  0.00     0.006 A 
ATOM     90  C   UNL A   1      29.739  30.270  22.270  1.00  0.00     0.021 A 
ATOM     91  C   UNL A   1      28.352  28.714  23.461  1.00  0.00     0.021 A 
ATOM     92  C   UNL A   1      28.578  29.996  22.975  1.00  0.00     0.041 A 
ATOM     93  Cl  UNL A   1      27.447  31.253  23.285  1.00  0.00    -0.084 Cl
ENDBRANCH  77  87
ENDBRANCH  74  77
ENDBRANCH  72  73
ENDBRANCH  71  72
ENDBRANCH   1  71
TORSDOF 16
ENDMDL
