MODEL 1
REMARK VINA RESULT:     -11.6      0.000      0.000
REMARK SMILES CC[C@H](C)[C@@H](NC(=O)c1csc(NC(C)=O)n1)C(=O)NCCCNC(=O)c1ccc(-c2c3nc(c(-c4cccc(S(=O)(=O)[O-])c4F)c4ccc([nH]4)c(-c4cccc(S(=O)(=O)[O-])c4F)c4nc(c(-c5cccc(S(=O)(=O)[O-])c5F)c5ccc2[nH]5)C=C4)C=C3)cc1
REMARK SMILES IDX 22 1 21 2 20 3 18 4 19 5 5 7 3 8 4 9 2 10 1 11 6 12 7 13
REMARK SMILES IDX 8 15 9 16 10 17 17 18 11 19 12 20 13 21 14 22 15 24 16 25
REMARK SMILES IDX 23 26 24 27 25 28 26 30 27 31 28 32 89 33 29 34 88 35 30 36
REMARK SMILES IDX 31 37 32 38 82 39 33 40 87 41 81 42 83 43 34 44 86 45 80 46
REMARK SMILES IDX 79 47 35 49 67 50 47 51 66 52 48 53 51 54 65 55 84 56 49 57
REMARK SMILES IDX 50 58 64 60 85 61 52 62 36 63 37 64 45 65 38 66 40 67 46 68
REMARK SMILES IDX 39 69 41 70 42 71 43 72 44 73 68 74 69 75 77 76 70 77 72 78
REMARK SMILES IDX 78 79 71 80 73 81 74 82 75 83 76 84 53 85 54 86 62 87 55 88
REMARK SMILES IDX 57 89 63 90 56 91 58 92 59 93 60 94 61 95
REMARK H PARENT 20 6 6 14 13 23 24 29 83 48 51 59
REMARK Flexibility Score: inf
ROOT
ATOM      1  C   UNL A   1      35.628  23.019  24.252  1.00  0.00     0.042 C 
ENDROOT
BRANCH   1   2
ATOM      2  C   UNL A   1      34.722  24.227  24.383  1.00  0.00     0.117 C 
BRANCH   2   3
ATOM      3  N   UNL A   1      33.581  24.143  23.491  1.00  0.00    -0.354 N 
ATOM      4  C   UNL A   1      32.358  24.735  23.579  1.00  0.00     0.242 C 
ATOM      5  O   UNL A   1      31.523  24.454  22.710  1.00  0.00    -0.273 OA
ATOM      6  H   UNL A   1      33.711  23.569  22.702  1.00  0.00     0.163 HD
BRANCH   4   7
ATOM      7  C   UNL A   1      31.976  25.605  24.801  1.00  0.00     0.174 C 
BRANCH   7   8
ATOM      8  C   UNL A   1      31.626  27.049  24.272  1.00  0.00     0.018 C 
ATOM      9  C   UNL A   1      31.403  28.053  25.413  1.00  0.00     0.010 C 
BRANCH   8  10
ATOM     10  C   UNL A   1      32.701  27.577  23.286  1.00  0.00     0.002 C 
ATOM     11  C   UNL A   1      33.831  28.361  23.944  1.00  0.00     0.004 C 
ENDBRANCH   8  10
ENDBRANCH   7   8
BRANCH   7  12
ATOM     12  N   UNL A   1      30.871  25.061  25.627  1.00  0.00    -0.339 N 
ATOM     13  C   UNL A   1      30.809  24.001  26.501  1.00  0.00     0.271 C 
ATOM     14  H   UNL A   1      30.023  25.551  25.531  1.00  0.00     0.164 HD
ATOM     15  O   UNL A   1      29.809  23.907  27.215  1.00  0.00    -0.267 OA
BRANCH  13  16
ATOM     16  C   UNL A   1      31.812  22.939  26.453  1.00  0.00     0.141 A 
ATOM     17  C   UNL A   1      32.810  22.819  27.406  1.00  0.00     0.102 A 
ATOM     18  N   UNL A   1      31.821  21.933  25.498  1.00  0.00    -0.215 NA
ATOM     19  S   UNL A   1      33.653  21.345  27.190  1.00  0.00    -0.104 S 
ATOM     20  C   UNL A   1      32.665  20.991  25.852  1.00  0.00     0.190 A 
BRANCH  20  21
ATOM     21  N   UNL A   1      32.694  19.794  25.185  1.00  0.00    -0.302 N 
ATOM     22  C   UNL A   1      33.790  19.182  24.626  1.00  0.00     0.223 C 
ATOM     23  H   UNL A   1      31.836  19.321  25.096  1.00  0.00     0.172 HD
ATOM     24  C   UNL A   1      33.453  17.870  23.960  1.00  0.00     0.114 C 
ATOM     25  O   UNL A   1      34.948  19.586  24.626  1.00  0.00    -0.275 OA
ENDBRANCH  20  21
ENDBRANCH  13  16
ENDBRANCH   7  12
ENDBRANCH   4   7
ENDBRANCH   2   3
ENDBRANCH   1   2
BRANCH   1  26
ATOM     26  C   UNL A   1      36.341  22.658  25.545  1.00  0.00     0.118 C 
BRANCH  26  27
ATOM     27  N   UNL A   1      37.221  21.499  25.408  1.00  0.00    -0.352 N 
ATOM     28  C   UNL A   1      38.549  21.410  25.751  1.00  0.00     0.251 C 
ATOM     29  H   UNL A   1      36.815  20.688  25.026  1.00  0.00     0.163 HD
ATOM     30  O   UNL A   1      39.219  20.427  25.457  1.00  0.00    -0.269 OA
BRANCH  28  31
ATOM     31  C   UNL A   1      39.154  22.555  26.457  1.00  0.00     0.039 A 
ATOM     32  C   UNL A   1      40.203  22.334  27.351  1.00  0.00     0.014 A 
ATOM     33  C   UNL A   1      38.762  23.851  26.111  1.00  0.00     0.014 A 
ATOM     34  C   UNL A   1      40.919  23.426  27.845  1.00  0.00     0.010 A 
ATOM     35  C   UNL A   1      39.530  24.924  26.535  1.00  0.00     0.010 A 
ATOM     36  C   UNL A   1      40.615  24.724  27.404  1.00  0.00    -0.014 A 
BRANCH  36  37
ATOM     37  C   UNL A   1      41.404  25.908  27.821  1.00  0.00     0.031 A 
ATOM     38  C   UNL A   1      40.721  27.008  28.583  1.00  0.00     0.074 A 
ATOM     39  C   UNL A   1      42.666  26.067  27.377  1.00  0.00     0.049 A 
ATOM     40  N   UNL A   1      41.153  28.208  28.865  1.00  0.00    -0.248 NA
ATOM     41  C   UNL A   1      39.348  26.738  29.043  1.00  0.00     0.031 C 
ATOM     42  C   UNL A   1      43.400  25.111  26.547  1.00  0.00     0.029 A 
ATOM     43  N   UNL A   1      43.537  27.119  27.521  1.00  0.00    -0.354 N 
ATOM     44  C   UNL A   1      40.084  28.857  29.470  1.00  0.00     0.074 A 
ATOM     45  C   UNL A   1      38.977  27.927  29.491  1.00  0.00     0.031 C 
ATOM     46  C   UNL A   1      44.602  25.626  26.240  1.00  0.00     0.029 A 
ATOM     47  C   UNL A   1      44.713  26.959  26.826  1.00  0.00     0.049 A 
ATOM     48  H   UNL A   1      43.338  27.912  28.069  1.00  0.00     0.167 HD
ATOM     49  C   UNL A   1      40.037  30.105  29.990  1.00  0.00     0.034 A 
ATOM     50  C   UNL A   1      45.756  27.798  26.666  1.00  0.00     0.034 A 
ATOM     51  C   UNL A   1      41.168  30.988  30.047  1.00  0.00     0.049 A 
ATOM     52  C   UNL A   1      45.727  29.136  27.352  1.00  0.00     0.074 A 
ATOM     53  C   UNL A   1      41.267  32.222  30.663  1.00  0.00     0.029 A 
ATOM     54  N   UNL A   1      42.402  30.724  29.474  1.00  0.00    -0.354 N 
ATOM     55  N   UNL A   1      44.765  29.671  28.065  1.00  0.00    -0.248 NA
ATOM     56  C   UNL A   1      46.932  29.971  27.246  1.00  0.00     0.031 C 
ATOM     57  C   UNL A   1      42.566  32.701  30.466  1.00  0.00     0.029 A 
ATOM     58  C   UNL A   1      43.274  31.766  29.728  1.00  0.00     0.049 A 
ATOM     59  H   UNL A   1      42.626  29.912  28.962  1.00  0.00     0.167 HD
ATOM     60  C   UNL A   1      45.258  30.890  28.520  1.00  0.00     0.074 A 
ATOM     61  C   UNL A   1      46.610  31.007  28.012  1.00  0.00     0.031 C 
ATOM     62  C   UNL A   1      44.639  31.832  29.272  1.00  0.00     0.034 A 
BRANCH  49  63
ATOM     63  C   UNL A   1      38.738  30.550  30.605  1.00  0.00     0.023 A 
ATOM     64  C   UNL A   1      38.493  30.287  31.968  1.00  0.00     0.012 A 
ATOM     65  C   UNL A   1      37.771  31.238  29.849  1.00  0.00     0.148 A 
ATOM     66  C   UNL A   1      37.288  30.663  32.559  1.00  0.00     0.002 A 
ATOM     67  C   UNL A   1      36.588  31.648  30.456  1.00  0.00     0.091 A 
ATOM     68  F   UNL A   1      38.004  31.454  28.546  1.00  0.00    -0.205 F 
ATOM     69  C   UNL A   1      36.340  31.351  31.806  1.00  0.00     0.022 A 
BRANCH  67  70
ATOM     70  S   UNL A   1      35.353  32.605  29.570  1.00  0.00     0.127 S 
ATOM     71  O   UNL A   1      36.133  33.754  29.116  1.00  0.00    -0.237 OA
ATOM     72  O   UNL A   1      34.945  31.687  28.504  1.00  0.00    -0.237 OA
ATOM     73  O   UNL A   1      34.310  32.885  30.547  1.00  0.00    -0.744 OA
ENDBRANCH  67  70
ENDBRANCH  49  63
BRANCH  50  74
ATOM     74  C   UNL A   1      46.943  27.348  25.884  1.00  0.00     0.023 A 
ATOM     75  C   UNL A   1      47.830  26.418  26.458  1.00  0.00     0.012 A 
ATOM     76  C   UNL A   1      47.153  27.771  24.557  1.00  0.00     0.148 A 
ATOM     77  C   UNL A   1      48.915  25.928  25.731  1.00  0.00     0.002 A 
ATOM     78  C   UNL A   1      48.207  27.241  23.821  1.00  0.00     0.091 A 
ATOM     79  F   UNL A   1      46.303  28.665  24.033  1.00  0.00    -0.205 F 
ATOM     80  C   UNL A   1      49.097  26.328  24.410  1.00  0.00     0.022 A 
BRANCH  78  81
ATOM     81  S   UNL A   1      48.435  27.592  22.072  1.00  0.00     0.127 S 
ATOM     82  O   UNL A   1      48.653  26.257  21.524  1.00  0.00    -0.237 OA
ATOM     83  O   UNL A   1      47.153  28.203  21.715  1.00  0.00    -0.237 OA
ATOM     84  O   UNL A   1      49.569  28.503  22.001  1.00  0.00    -0.744 OA
ENDBRANCH  78  81
ENDBRANCH  50  74
BRANCH  62  85
ATOM     85  C   UNL A   1      45.416  33.070  29.629  1.00  0.00     0.023 A 
ATOM     86  C   UNL A   1      46.225  33.071  30.781  1.00  0.00     0.012 A 
ATOM     87  C   UNL A   1      45.441  34.177  28.758  1.00  0.00     0.148 A 
ATOM     88  C   UNL A   1      47.043  34.163  31.068  1.00  0.00     0.002 A 
ATOM     89  C   UNL A   1      46.287  35.245  29.031  1.00  0.00     0.091 A 
ATOM     90  F   UNL A   1      44.648  34.159  27.677  1.00  0.00    -0.205 F 
ATOM     91  C   UNL A   1      47.085  35.242  30.187  1.00  0.00     0.022 A 
BRANCH  89  92
ATOM     92  S   UNL A   1      46.473  36.635  27.907  1.00  0.00     0.127 S 
ATOM     93  O   UNL A   1      46.899  35.970  26.679  1.00  0.00    -0.237 OA
ATOM     94  O   UNL A   1      45.118  37.186  27.865  1.00  0.00    -0.237 OA
ATOM     95  O   UNL A   1      47.461  37.514  28.519  1.00  0.00    -0.744 OA
ENDBRANCH  89  92
ENDBRANCH  62  85
ENDBRANCH  36  37
ENDBRANCH  28  31
ENDBRANCH  26  27
ENDBRANCH   1  26
TORSDOF 18
ENDMDL
MODEL 2
REMARK VINA RESULT:     -11.5      5.200      8.104
REMARK SMILES CC[C@H](C)[C@@H](NC(=O)c1csc(NC(C)=O)n1)C(=O)NCCCNC(=O)c1ccc(-c2c3nc(c(-c4cccc(S(=O)(=O)[O-])c4F)c4ccc([nH]4)c(-c4cccc(S(=O)(=O)[O-])c4F)c4nc(c(-c5cccc(S(=O)(=O)[O-])c5F)c5ccc2[nH]5)C=C4)C=C3)cc1
REMARK SMILES IDX 22 1 21 2 20 3 18 4 19 5 5 7 3 8 4 9 2 10 1 11 6 12 7 13
REMARK SMILES IDX 8 15 9 16 10 17 17 18 11 19 12 20 13 21 14 22 15 24 16 25
REMARK SMILES IDX 23 26 24 27 25 28 26 30 27 31 28 32 89 33 29 34 88 35 30 36
REMARK SMILES IDX 31 37 32 38 82 39 33 40 87 41 81 42 83 43 34 44 86 45 80 46
REMARK SMILES IDX 79 47 35 49 67 50 47 51 66 52 48 53 51 54 65 55 84 56 49 57
REMARK SMILES IDX 50 58 64 60 85 61 52 62 36 63 37 64 45 65 38 66 40 67 46 68
REMARK SMILES IDX 39 69 41 70 42 71 43 72 44 73 68 74 69 75 77 76 70 77 72 78
REMARK SMILES IDX 78 79 71 80 73 81 74 82 75 83 76 84 53 85 54 86 62 87 55 88
REMARK SMILES IDX 57 89 63 90 56 91 58 92 59 93 60 94 61 95
REMARK H PARENT 20 6 6 14 13 23 24 29 83 48 51 59
REMARK Flexibility Score: inf
ROOT
ATOM      1  C   UNL A   1      33.147  27.687  26.458  1.00  0.00     0.042 C 
ENDROOT
BRANCH   1   2
ATOM      2  C   UNL A   1      33.487  26.281  26.003  1.00  0.00     0.117 C 
BRANCH   2   3
ATOM      3  N   UNL A   1      32.295  25.506  25.717  1.00  0.00    -0.354 N 
ATOM      4  C   UNL A   1      32.114  24.469  24.854  1.00  0.00     0.242 C 
ATOM      5  O   UNL A   1      30.971  24.007  24.746  1.00  0.00    -0.273 OA
ATOM      6  H   UNL A   1      31.493  25.771  26.225  1.00  0.00     0.163 HD
BRANCH   4   7
ATOM      7  C   UNL A   1      33.259  23.987  23.931  1.00  0.00     0.174 C 
BRANCH   7   8
ATOM      8  C   UNL A   1      33.498  22.455  24.222  1.00  0.00     0.018 C 
ATOM      9  C   UNL A   1      32.756  21.548  23.229  1.00  0.00     0.010 C 
BRANCH   8  10
ATOM     10  C   UNL A   1      35.009  22.104  24.254  1.00  0.00     0.002 C 
ATOM     11  C   UNL A   1      35.679  22.319  25.607  1.00  0.00     0.004 C 
ENDBRANCH   8  10
ENDBRANCH   7   8
BRANCH   7  12
ATOM     12  N   UNL A   1      33.029  24.221  22.485  1.00  0.00    -0.339 N 
ATOM     13  C   UNL A   1      33.012  25.371  21.729  1.00  0.00     0.271 C 
ATOM     14  H   UNL A   1      32.856  23.401  21.970  1.00  0.00     0.164 HD
ATOM     15  O   UNL A   1      33.004  25.247  20.503  1.00  0.00    -0.267 OA
BRANCH  13  16
ATOM     16  C   UNL A   1      32.833  26.674  22.364  1.00  0.00     0.141 A 
ATOM     17  C   UNL A   1      33.854  27.607  22.442  1.00  0.00     0.102 A 
ATOM     18  N   UNL A   1      31.625  27.117  22.885  1.00  0.00    -0.215 NA
ATOM     19  S   UNL A   1      33.244  29.098  23.021  1.00  0.00    -0.104 S 
ATOM     20  C   UNL A   1      31.698  28.401  23.149  1.00  0.00     0.190 A 
BRANCH  20  21
ATOM     21  N   UNL A   1      30.571  29.112  23.468  1.00  0.00    -0.302 N 
ATOM     22  C   UNL A   1      29.725  29.760  22.600  1.00  0.00     0.223 C 
ATOM     23  H   UNL A   1      30.342  29.165  24.424  1.00  0.00     0.172 HD
ATOM     24  C   UNL A   1      28.582  30.452  23.304  1.00  0.00     0.114 C 
ATOM     25  O   UNL A   1      29.814  29.817  21.379  1.00  0.00    -0.275 OA
ENDBRANCH  20  21
ENDBRANCH  13  16
ENDBRANCH   7  12
ENDBRANCH   4   7
ENDBRANCH   2   3
ENDBRANCH   1   2
BRANCH   1  26
ATOM     26  C   UNL A   1      34.372  28.548  26.717  1.00  0.00     0.118 C 
BRANCH  26  27
ATOM     27  N   UNL A   1      34.065  29.976  26.777  1.00  0.00    -0.352 N 
ATOM     28  C   UNL A   1      34.683  30.934  27.544  1.00  0.00     0.251 C 
ATOM     29  H   UNL A   1      33.328  30.287  26.202  1.00  0.00     0.163 HD
ATOM     30  O   UNL A   1      34.243  32.076  27.615  1.00  0.00    -0.269 OA
BRANCH  28  31
ATOM     31  C   UNL A   1      35.880  30.536  28.309  1.00  0.00     0.039 A 
ATOM     32  C   UNL A   1      35.730  29.795  29.482  1.00  0.00     0.014 A 
ATOM     33  C   UNL A   1      37.145  30.785  27.770  1.00  0.00     0.014 A 
ATOM     34  C   UNL A   1      36.858  29.229  30.080  1.00  0.00     0.010 A 
ATOM     35  C   UNL A   1      38.249  30.151  28.317  1.00  0.00     0.010 A 
ATOM     36  C   UNL A   1      38.118  29.367  29.475  1.00  0.00    -0.014 A 
BRANCH  36  37
ATOM     37  C   UNL A   1      39.332  28.709  30.014  1.00  0.00     0.031 A 
ATOM     38  C   UNL A   1      40.011  29.302  31.217  1.00  0.00     0.074 A 
ATOM     39  C   UNL A   1      39.908  27.698  29.335  1.00  0.00     0.049 A 
ATOM     40  N   UNL A   1      41.180  29.022  31.726  1.00  0.00    -0.248 NA
ATOM     41  C   UNL A   1      39.299  30.392  31.905  1.00  0.00     0.031 C 
ATOM     42  C   UNL A   1      39.393  27.104  28.101  1.00  0.00     0.029 A 
ATOM     43  N   UNL A   1      41.083  27.025  29.563  1.00  0.00    -0.354 N 
ATOM     44  C   UNL A   1      41.374  29.944  32.746  1.00  0.00     0.074 A 
ATOM     45  C   UNL A   1      40.213  30.808  32.767  1.00  0.00     0.031 C 
ATOM     46  C   UNL A   1      40.255  26.168  27.669  1.00  0.00     0.029 A 
ATOM     47  C   UNL A   1      41.397  26.116  28.579  1.00  0.00     0.049 A 
ATOM     48  H   UNL A   1      41.648  27.179  30.354  1.00  0.00     0.167 HD
ATOM     49  C   UNL A   1      42.411  30.045  33.610  1.00  0.00     0.034 A 
ATOM     50  C   UNL A   1      42.487  25.341  28.419  1.00  0.00     0.034 A 
ATOM     51  C   UNL A   1      43.514  29.127  33.641  1.00  0.00     0.049 A 
ATOM     52  C   UNL A   1      43.574  25.389  29.458  1.00  0.00     0.074 A 
ATOM     53  C   UNL A   1      44.552  29.060  34.552  1.00  0.00     0.029 A 
ATOM     54  N   UNL A   1      43.716  28.108  32.723  1.00  0.00    -0.354 N 
ATOM     55  N   UNL A   1      43.663  26.158  30.517  1.00  0.00    -0.248 NA
ATOM     56  C   UNL A   1      44.690  24.444  29.307  1.00  0.00     0.031 C 
ATOM     57  C   UNL A   1      45.380  27.993  34.186  1.00  0.00     0.029 A 
ATOM     58  C   UNL A   1      44.857  27.398  33.049  1.00  0.00     0.049 A 
ATOM     59  H   UNL A   1      43.132  27.917  31.953  1.00  0.00     0.167 HD
ATOM     60  C   UNL A   1      44.825  25.770  31.175  1.00  0.00     0.074 A 
ATOM     61  C   UNL A   1      45.400  24.688  30.402  1.00  0.00     0.031 C 
ATOM     62  C   UNL A   1      45.374  26.278  32.305  1.00  0.00     0.034 A 
BRANCH  49  63
ATOM     63  C   UNL A   1      42.351  31.144  34.636  1.00  0.00     0.023 A 
ATOM     64  C   UNL A   1      41.787  30.879  35.900  1.00  0.00     0.012 A 
ATOM     65  C   UNL A   1      42.864  32.426  34.363  1.00  0.00     0.148 A 
ATOM     66  C   UNL A   1      41.694  31.883  36.861  1.00  0.00     0.002 A 
ATOM     67  C   UNL A   1      42.806  33.412  35.342  1.00  0.00     0.091 A 
ATOM     68  F   UNL A   1      43.370  32.673  33.145  1.00  0.00    -0.205 F 
ATOM     69  C   UNL A   1      42.212  33.146  36.587  1.00  0.00     0.022 A 
BRANCH  67  70
ATOM     70  S   UNL A   1      43.520  35.041  35.087  1.00  0.00     0.127 S 
ATOM     71  O   UNL A   1      44.885  34.709  34.685  1.00  0.00    -0.237 OA
ATOM     72  O   UNL A   1      42.686  35.589  34.016  1.00  0.00    -0.237 OA
ATOM     73  O   UNL A   1      43.377  35.727  36.364  1.00  0.00    -0.744 OA
ENDBRANCH  67  70
ENDBRANCH  49  63
BRANCH  50  74
ATOM     74  C   UNL A   1      42.552  24.398  27.267  1.00  0.00     0.023 A 
ATOM     75  C   UNL A   1      43.232  24.788  26.098  1.00  0.00     0.012 A 
ATOM     76  C   UNL A   1      42.019  23.097  27.350  1.00  0.00     0.148 A 
ATOM     77  C   UNL A   1      43.366  23.907  25.025  1.00  0.00     0.002 A 
ATOM     78  C   UNL A   1      42.200  22.206  26.298  1.00  0.00     0.091 A 
ATOM     79  F   UNL A   1      41.367  22.748  28.468  1.00  0.00    -0.205 F 
ATOM     80  C   UNL A   1      42.863  22.613  25.128  1.00  0.00     0.022 A 
BRANCH  78  81
ATOM     81  S   UNL A   1      41.708  20.479  26.400  1.00  0.00     0.127 S 
ATOM     82  O   UNL A   1      40.268  20.565  26.180  1.00  0.00    -0.237 OA
ATOM     83  O   UNL A   1      42.466  19.881  25.300  1.00  0.00    -0.237 OA
ATOM     84  O   UNL A   1      42.124  20.032  27.722  1.00  0.00    -0.744 OA
ENDBRANCH  78  81
ENDBRANCH  50  74
BRANCH  62  85
ATOM     85  C   UNL A   1      46.650  25.660  32.808  1.00  0.00     0.023 A 
ATOM     86  C   UNL A   1      47.885  26.216  32.427  1.00  0.00     0.012 A 
ATOM     87  C   UNL A   1      46.618  24.616  33.753  1.00  0.00     0.148 A 
ATOM     88  C   UNL A   1      49.075  25.735  32.971  1.00  0.00     0.002 A 
ATOM     89  C   UNL A   1      47.804  24.167  34.320  1.00  0.00     0.091 A 
ATOM     90  F   UNL A   1      45.430  24.091  34.087  1.00  0.00    -0.205 F 
ATOM     91  C   UNL A   1      49.034  24.722  33.927  1.00  0.00     0.022 A 
BRANCH  89  92
ATOM     92  S   UNL A   1      47.840  22.930  35.624  1.00  0.00     0.127 S 
ATOM     93  O   UNL A   1      47.404  21.733  34.909  1.00  0.00    -0.237 OA
ATOM     94  O   UNL A   1      49.251  22.928  36.013  1.00  0.00    -0.237 OA
ATOM     95  O   UNL A   1      46.931  23.409  36.656  1.00  0.00    -0.744 OA
ENDBRANCH  89  92
ENDBRANCH  62  85
ENDBRANCH  36  37
ENDBRANCH  28  31
ENDBRANCH  26  27
ENDBRANCH   1  26
TORSDOF 18
ENDMDL
MODEL 3
REMARK VINA RESULT:     -11.4      1.450      1.647
REMARK SMILES CC[C@H](C)[C@@H](NC(=O)c1csc(NC(C)=O)n1)C(=O)NCCCNC(=O)c1ccc(-c2c3nc(c(-c4cccc(S(=O)(=O)[O-])c4F)c4ccc([nH]4)c(-c4cccc(S(=O)(=O)[O-])c4F)c4nc(c(-c5cccc(S(=O)(=O)[O-])c5F)c5ccc2[nH]5)C=C4)C=C3)cc1
REMARK SMILES IDX 22 1 21 2 20 3 18 4 19 5 5 7 3 8 4 9 2 10 1 11 6 12 7 13
REMARK SMILES IDX 8 15 9 16 10 17 17 18 11 19 12 20 13 21 14 22 15 24 16 25
REMARK SMILES IDX 23 26 24 27 25 28 26 30 27 31 28 32 89 33 29 34 88 35 30 36
REMARK SMILES IDX 31 37 32 38 82 39 33 40 87 41 81 42 83 43 34 44 86 45 80 46
REMARK SMILES IDX 79 47 35 49 67 50 47 51 66 52 48 53 51 54 65 55 84 56 49 57
REMARK SMILES IDX 50 58 64 60 85 61 52 62 36 63 37 64 45 65 38 66 40 67 46 68
REMARK SMILES IDX 39 69 41 70 42 71 43 72 44 73 68 74 69 75 77 76 70 77 72 78
REMARK SMILES IDX 78 79 71 80 73 81 74 82 75 83 76 84 53 85 54 86 62 87 55 88
REMARK SMILES IDX 57 89 63 90 56 91 58 92 59 93 60 94 61 95
REMARK H PARENT 20 6 6 14 13 23 24 29 83 48 51 59
REMARK Flexibility Score: inf
ROOT
ATOM      1  C   UNL A   1      35.505  23.253  23.886  1.00  0.00     0.042 C 
ENDROOT
BRANCH   1   2
ATOM      2  C   UNL A   1      34.571  24.445  23.957  1.00  0.00     0.117 C 
BRANCH   2   3
ATOM      3  N   UNL A   1      33.345  24.212  23.217  1.00  0.00    -0.354 N 
ATOM      4  C   UNL A   1      32.071  24.604  23.493  1.00  0.00     0.242 C 
ATOM      5  O   UNL A   1      31.177  24.223  22.727  1.00  0.00    -0.273 OA
ATOM      6  H   UNL A   1      33.451  23.690  22.389  1.00  0.00     0.163 HD
BRANCH   4   7
ATOM      7  C   UNL A   1      31.732  25.365  24.798  1.00  0.00     0.174 C 
BRANCH   7   8
ATOM      8  C   UNL A   1      31.235  26.807  24.397  1.00  0.00     0.018 C 
ATOM      9  C   UNL A   1      29.709  26.878  24.240  1.00  0.00     0.010 C 
BRANCH   8  10
ATOM     10  C   UNL A   1      31.729  27.884  25.398  1.00  0.00     0.002 C 
ATOM     11  C   UNL A   1      33.112  27.618  25.983  1.00  0.00     0.004 C 
ENDBRANCH   8  10
ENDBRANCH   7   8
BRANCH   7  12
ATOM     12  N   UNL A   1      30.744  24.688  25.671  1.00  0.00    -0.339 N 
ATOM     13  C   UNL A   1      30.844  23.597  26.504  1.00  0.00     0.271 C 
ATOM     14  H   UNL A   1      29.848  25.094  25.650  1.00  0.00     0.164 HD
ATOM     15  O   UNL A   1      29.908  23.381  27.276  1.00  0.00    -0.267 OA
BRANCH  13  16
ATOM     16  C   UNL A   1      31.938  22.642  26.348  1.00  0.00     0.141 A 
ATOM     17  C   UNL A   1      32.874  22.418  27.345  1.00  0.00     0.102 A 
ATOM     18  N   UNL A   1      32.103  21.837  25.230  1.00  0.00    -0.215 NA
ATOM     19  S   UNL A   1      33.858  21.079  26.935  1.00  0.00    -0.104 S 
ATOM     20  C   UNL A   1      33.001  20.910  25.477  1.00  0.00     0.190 A 
BRANCH  20  21
ATOM     21  N   UNL A   1      33.183  19.867  24.608  1.00  0.00    -0.302 N 
ATOM     22  C   UNL A   1      32.774  18.566  24.776  1.00  0.00     0.223 C 
ATOM     23  H   UNL A   1      33.658  20.072  23.771  1.00  0.00     0.172 HD
ATOM     24  C   UNL A   1      33.152  17.679  23.615  1.00  0.00     0.114 C 
ATOM     25  O   UNL A   1      32.164  18.096  25.730  1.00  0.00    -0.275 OA
ENDBRANCH  20  21
ENDBRANCH  13  16
ENDBRANCH   7  12
ENDBRANCH   4   7
ENDBRANCH   2   3
ENDBRANCH   1   2
BRANCH   1  26
ATOM     26  C   UNL A   1      36.243  22.988  25.187  1.00  0.00     0.118 C 
BRANCH  26  27
ATOM     27  N   UNL A   1      37.020  21.750  25.164  1.00  0.00    -0.352 N 
ATOM     28  C   UNL A   1      38.294  21.551  25.638  1.00  0.00     0.251 C 
ATOM     29  H   UNL A   1      36.578  20.968  24.760  1.00  0.00     0.163 HD
ATOM     30  O   UNL A   1      38.893  20.502  25.433  1.00  0.00    -0.269 OA
BRANCH  28  31
ATOM     31  C   UNL A   1      38.933  22.656  26.376  1.00  0.00     0.039 A 
ATOM     32  C   UNL A   1      40.025  22.389  27.203  1.00  0.00     0.014 A 
ATOM     33  C   UNL A   1      38.523  23.968  26.125  1.00  0.00     0.014 A 
ATOM     34  C   UNL A   1      40.765  23.454  27.721  1.00  0.00     0.010 A 
ATOM     35  C   UNL A   1      39.310  25.019  26.569  1.00  0.00     0.010 A 
ATOM     36  C   UNL A   1      40.438  24.774  27.370  1.00  0.00    -0.014 A 
BRANCH  36  37
ATOM     37  C   UNL A   1      41.246  25.935  27.813  1.00  0.00     0.031 A 
ATOM     38  C   UNL A   1      40.570  27.054  28.554  1.00  0.00     0.074 A 
ATOM     39  C   UNL A   1      42.525  26.058  27.410  1.00  0.00     0.049 A 
ATOM     40  N   UNL A   1      41.026  28.240  28.850  1.00  0.00    -0.248 NA
ATOM     41  C   UNL A   1      39.176  26.822  28.969  1.00  0.00     0.031 C 
ATOM     42  C   UNL A   1      43.259  25.082  26.603  1.00  0.00     0.029 A 
ATOM     43  N   UNL A   1      43.420  27.085  27.583  1.00  0.00    -0.354 N 
ATOM     44  C   UNL A   1      39.957  28.919  29.422  1.00  0.00     0.074 A 
ATOM     45  C   UNL A   1      38.824  28.021  29.407  1.00  0.00     0.031 C 
ATOM     46  C   UNL A   1      44.484  25.563  26.335  1.00  0.00     0.029 A 
ATOM     47  C   UNL A   1      44.613  26.893  26.926  1.00  0.00     0.049 A 
ATOM     48  H   UNL A   1      43.226  27.884  28.124  1.00  0.00     0.167 HD
ATOM     49  C   UNL A   1      39.929  30.169  29.941  1.00  0.00     0.034 A 
ATOM     50  C   UNL A   1      45.684  27.702  26.799  1.00  0.00     0.034 A 
ATOM     51  C   UNL A   1      41.081  31.019  30.035  1.00  0.00     0.049 A 
ATOM     52  C   UNL A   1      45.670  29.041  27.485  1.00  0.00     0.074 A 
ATOM     53  C   UNL A   1      41.195  32.250  30.655  1.00  0.00     0.029 A 
ATOM     54  N   UNL A   1      42.325  30.720  29.501  1.00  0.00    -0.354 N 
ATOM     55  N   UNL A   1      44.702  29.602  28.168  1.00  0.00    -0.248 NA
ATOM     56  C   UNL A   1      46.901  29.842  27.419  1.00  0.00     0.031 C 
ATOM     57  C   UNL A   1      42.513  32.693  30.500  1.00  0.00     0.029 A 
ATOM     58  C   UNL A   1      43.218  31.738  29.784  1.00  0.00     0.049 A 
ATOM     59  H   UNL A   1      42.542  29.903  28.996  1.00  0.00     0.167 HD
ATOM     60  C   UNL A   1      45.214  30.807  28.639  1.00  0.00     0.074 A 
ATOM     61  C   UNL A   1      46.584  30.886  28.175  1.00  0.00     0.031 C 
ATOM     62  C   UNL A   1      44.598  31.765  29.372  1.00  0.00     0.034 A 
BRANCH  49  63
ATOM     63  C   UNL A   1      38.623  30.649  30.514  1.00  0.00     0.023 A 
ATOM     64  C   UNL A   1      38.336  30.411  31.873  1.00  0.00     0.012 A 
ATOM     65  C   UNL A   1      37.692  31.348  29.724  1.00  0.00     0.148 A 
ATOM     66  C   UNL A   1      37.125  30.820  32.426  1.00  0.00     0.002 A 
ATOM     67  C   UNL A   1      36.503  31.791  30.292  1.00  0.00     0.091 A 
ATOM     68  F   UNL A   1      37.965  31.541  28.424  1.00  0.00    -0.205 F 
ATOM     69  C   UNL A   1      36.212  31.519  31.639  1.00  0.00     0.022 A 
BRANCH  67  70
ATOM     70  S   UNL A   1      35.313  32.762  29.360  1.00  0.00     0.127 S 
ATOM     71  O   UNL A   1      36.057  33.996  29.119  1.00  0.00    -0.237 OA
ATOM     72  O   UNL A   1      35.095  31.939  28.169  1.00  0.00    -0.237 OA
ATOM     73  O   UNL A   1      34.148  32.876  30.227  1.00  0.00    -0.744 OA
ENDBRANCH  67  70
ENDBRANCH  49  63
BRANCH  50  74
ATOM     74  C   UNL A   1      46.882  27.219  26.056  1.00  0.00     0.023 A 
ATOM     75  C   UNL A   1      46.980  27.469  24.674  1.00  0.00     0.012 A 
ATOM     76  C   UNL A   1      47.955  26.590  26.719  1.00  0.00     0.148 A 
ATOM     77  C   UNL A   1      48.117  27.087  23.961  1.00  0.00     0.002 A 
ATOM     78  C   UNL A   1      49.105  26.259  26.012  1.00  0.00     0.091 A 
ATOM     79  F   UNL A   1      47.838  26.353  28.033  1.00  0.00    -0.205 F 
ATOM     80  C   UNL A   1      49.184  26.494  24.630  1.00  0.00     0.022 A 
BRANCH  78  81
ATOM     81  S   UNL A   1      50.581  25.620  26.818  1.00  0.00     0.127 S 
ATOM     82  O   UNL A   1      50.962  26.739  27.675  1.00  0.00    -0.237 OA
ATOM     83  O   UNL A   1      50.059  24.451  27.527  1.00  0.00    -0.237 OA
ATOM     84  O   UNL A   1      51.507  25.300  25.740  1.00  0.00    -0.744 OA
ENDBRANCH  78  81
ENDBRANCH  50  74
BRANCH  62  85
ATOM     85  C   UNL A   1      45.397  32.981  29.755  1.00  0.00     0.023 A 
ATOM     86  C   UNL A   1      46.167  32.961  30.933  1.00  0.00     0.012 A 
ATOM     87  C   UNL A   1      45.482  34.086  28.886  1.00  0.00     0.148 A 
ATOM     88  C   UNL A   1      47.006  34.029  31.248  1.00  0.00     0.002 A 
ATOM     89  C   UNL A   1      46.349  35.130  29.187  1.00  0.00     0.091 A 
ATOM     90  F   UNL A   1      44.725  34.090  27.779  1.00  0.00    -0.205 F 
ATOM     91  C   UNL A   1      47.107  35.105  30.369  1.00  0.00     0.022 A 
BRANCH  89  92
ATOM     92  S   UNL A   1      46.611  36.514  28.070  1.00  0.00     0.127 S 
ATOM     93  O   UNL A   1      46.931  35.830  26.819  1.00  0.00    -0.237 OA
ATOM     94  O   UNL A   1      45.308  37.180  28.086  1.00  0.00    -0.237 OA
ATOM     95  O   UNL A   1      47.694  37.297  28.651  1.00  0.00    -0.744 OA
ENDBRANCH  89  92
ENDBRANCH  62  85
ENDBRANCH  36  37
ENDBRANCH  28  31
ENDBRANCH  26  27
ENDBRANCH   1  26
TORSDOF 18
ENDMDL
