MODEL 1
REMARK VINA RESULT:     -12.0      0.000      0.000
REMARK SMILES COc1ccccc1Nc1nc(C)c(C(=O)NCCCNC(=O)c2ccc(-c3c4nc(c(-c5cccc(S(=O)(=O)[O-])c5F)c5ccc([nH]5)c(-c5cccc(S(=O)(=O)[O-])c5F)c5nc(c(-c6cccc(S(=O)(=O)[O-])c6F)c6ccc3[nH]6)C=C5)C=C4)cc2)s1
REMARK SMILES IDX 19 1 18 2 17 3 15 4 16 5 14 7 10 8 11 9 87 10 12 11 13 12
REMARK SMILES IDX 9 13 8 15 3 16 4 17 5 18 7 19 6 20 2 21 1 22 20 23 21 24
REMARK SMILES IDX 22 25 23 27 24 28 25 29 86 30 26 31 85 32 27 33 28 34 29 35
REMARK SMILES IDX 79 36 30 37 84 38 78 39 80 40 31 41 83 42 77 43 76 44 32 46
REMARK SMILES IDX 64 47 44 48 63 49 45 50 48 51 62 52 81 53 46 54 47 55 61 57
REMARK SMILES IDX 82 58 49 59 33 60 34 61 42 62 35 63 37 64 43 65 36 66 38 67
REMARK SMILES IDX 39 68 40 69 41 70 65 71 66 72 74 73 67 74 69 75 75 76 68 77
REMARK SMILES IDX 70 78 71 79 72 80 73 81 50 82 51 83 59 84 52 85 54 86 60 87
REMARK SMILES IDX 53 88 55 89 56 90 57 91 58 92
REMARK H PARENT 17 6 9 14 21 26 80 45 48 56
REMARK Flexibility Score: inf
ROOT
ATOM      1  C   UNL A   1      31.489  31.616  26.632  1.00  0.00     0.042 C 
ENDROOT
BRANCH   1   2
ATOM      2  C   UNL A   1      31.749  30.415  25.725  1.00  0.00     0.118 C 
BRANCH   2   3
ATOM      3  N   UNL A   1      30.829  30.400  24.612  1.00  0.00    -0.351 N 
ATOM      4  C   UNL A   1      30.452  29.442  23.708  1.00  0.00     0.263 C 
ATOM      5  O   UNL A   1      29.578  29.845  22.929  1.00  0.00    -0.268 OA
ATOM      6  H   UNL A   1      30.376  31.263  24.474  1.00  0.00     0.163 HD
BRANCH   4   7
ATOM      7  C   UNL A   1      30.966  28.079  23.666  1.00  0.00     0.117 A 
ATOM      8  C   UNL A   1      30.898  25.627  23.432  1.00  0.00     0.188 A 
ATOM      9  N   UNL A   1      32.129  26.048  23.532  1.00  0.00    -0.225 NA
ATOM     10  S   UNL A   1      29.736  26.838  23.745  1.00  0.00    -0.091 S 
ATOM     11  C   UNL A   1      32.191  27.434  23.510  1.00  0.00     0.063 A 
ATOM     12  C   UNL A   1      33.563  27.934  23.247  1.00  0.00     0.068 C 
BRANCH   8  13
ATOM     13  N   UNL A   1      30.636  24.328  23.186  1.00  0.00    -0.328 N 
ATOM     14  H   UNL A   1      29.893  24.151  22.565  1.00  0.00     0.169 HD
BRANCH  13  15
ATOM     15  C   UNL A   1      31.290  23.188  23.706  1.00  0.00     0.083 A 
ATOM     16  C   UNL A   1      31.198  22.909  25.086  1.00  0.00     0.142 A 
ATOM     17  C   UNL A   1      31.920  21.858  25.657  1.00  0.00     0.048 A 
ATOM     18  C   UNL A   1      32.704  21.031  24.858  1.00  0.00     0.004 A 
ATOM     19  C   UNL A   1      32.065  22.322  22.918  1.00  0.00     0.030 A 
ATOM     20  C   UNL A   1      32.770  21.258  23.487  1.00  0.00     0.002 A 
BRANCH  16  21
ATOM     21  O   UNL A   1      30.512  23.711  25.968  1.00  0.00    -0.495 OA
ATOM     22  C   UNL A   1      29.831  22.975  26.984  1.00  0.00     0.278 C 
ENDBRANCH  16  21
ENDBRANCH  13  15
ENDBRANCH   8  13
ENDBRANCH   4   7
ENDBRANCH   2   3
ENDBRANCH   1   2
BRANCH   1  23
ATOM     23  C   UNL A   1      32.757  32.258  27.183  1.00  0.00     0.118 C 
BRANCH  23  24
ATOM     24  N   UNL A   1      32.566  33.674  27.461  1.00  0.00    -0.352 N 
ATOM     25  C   UNL A   1      33.141  34.469  28.424  1.00  0.00     0.251 C 
ATOM     26  H   UNL A   1      31.928  34.133  26.869  1.00  0.00     0.163 HD
ATOM     27  O   UNL A   1      32.644  35.567  28.666  1.00  0.00    -0.269 OA
BRANCH  25  28
ATOM     28  C   UNL A   1      34.338  34.020  29.170  1.00  0.00     0.039 A 
ATOM     29  C   UNL A   1      34.165  33.313  30.365  1.00  0.00     0.014 A 
ATOM     30  C   UNL A   1      35.626  34.327  28.726  1.00  0.00     0.014 A 
ATOM     31  C   UNL A   1      35.281  32.858  31.075  1.00  0.00     0.010 A 
ATOM     32  C   UNL A   1      36.736  33.814  29.395  1.00  0.00     0.010 A 
ATOM     33  C   UNL A   1      36.575  33.071  30.574  1.00  0.00    -0.014 A 
BRANCH  33  34
ATOM     34  C   UNL A   1      37.771  32.490  31.237  1.00  0.00     0.031 A 
ATOM     35  C   UNL A   1      38.488  31.315  30.631  1.00  0.00     0.074 A 
ATOM     36  C   UNL A   1      38.135  32.949  32.452  1.00  0.00     0.049 A 
ATOM     37  N   UNL A   1      39.480  30.615  31.117  1.00  0.00    -0.248 NA
ATOM     38  C   UNL A   1      38.014  30.849  29.316  1.00  0.00     0.031 C 
ATOM     39  C   UNL A   1      37.466  34.030  33.181  1.00  0.00     0.029 A 
ATOM     40  N   UNL A   1      39.129  32.539  33.306  1.00  0.00    -0.354 N 
ATOM     41  C   UNL A   1      39.724  29.606  30.193  1.00  0.00     0.074 A 
ATOM     42  C   UNL A   1      38.763  29.772  29.124  1.00  0.00     0.031 C 
ATOM     43  C   UNL A   1      38.057  34.187  34.375  1.00  0.00     0.029 A 
ATOM     44  C   UNL A   1      39.121  33.199  34.514  1.00  0.00     0.049 A 
ATOM     45  H   UNL A   1      39.782  31.840  33.078  1.00  0.00     0.167 HD
ATOM     46  C   UNL A   1      40.677  28.643  30.223  1.00  0.00     0.034 A 
ATOM     47  C   UNL A   1      39.871  33.016  35.619  1.00  0.00     0.034 A 
ATOM     48  C   UNL A   1      41.658  28.511  31.266  1.00  0.00     0.049 A 
ATOM     49  C   UNL A   1      40.940  31.958  35.611  1.00  0.00     0.074 A 
ATOM     50  C   UNL A   1      42.734  27.642  31.328  1.00  0.00     0.029 A 
ATOM     51  N   UNL A   1      41.677  29.254  32.435  1.00  0.00    -0.354 N 
ATOM     52  N   UNL A   1      41.273  31.132  34.649  1.00  0.00    -0.248 NA
ATOM     53  C   UNL A   1      41.754  31.825  36.826  1.00  0.00     0.031 C 
ATOM     54  C   UNL A   1      43.386  27.842  32.549  1.00  0.00     0.029 A 
ATOM     55  C   UNL A   1      42.730  28.850  33.237  1.00  0.00     0.049 A 
ATOM     56  H   UNL A   1      41.036  29.966  32.662  1.00  0.00     0.167 HD
ATOM     57  C   UNL A   1      42.348  30.396  35.134  1.00  0.00     0.074 A 
ATOM     58  C   UNL A   1      42.630  30.898  36.464  1.00  0.00     0.031 C 
ATOM     59  C   UNL A   1      43.027  29.384  34.542  1.00  0.00     0.034 A 
BRANCH  46  60
ATOM     60  C   UNL A   1      40.744  27.680  29.065  1.00  0.00     0.023 A 
ATOM     61  C   UNL A   1      39.843  26.597  29.011  1.00  0.00     0.012 A 
ATOM     62  C   UNL A   1      41.636  27.892  27.996  1.00  0.00     0.148 A 
ATOM     63  C   UNL A   1      39.846  25.726  27.922  1.00  0.00     0.002 A 
ATOM     64  C   UNL A   1      41.605  27.042  26.896  1.00  0.00     0.091 A 
ATOM     65  F   UNL A   1      42.497  28.917  28.076  1.00  0.00    -0.205 F 
ATOM     66  C   UNL A   1      40.717  25.954  26.862  1.00  0.00     0.022 A 
BRANCH  64  67
ATOM     67  S   UNL A   1      42.634  27.294  25.445  1.00  0.00     0.127 S 
ATOM     68  O   UNL A   1      43.972  27.328  26.036  1.00  0.00    -0.237 OA
ATOM     69  O   UNL A   1      42.348  26.098  24.653  1.00  0.00    -0.237 OA
ATOM     70  O   UNL A   1      42.186  28.543  24.845  1.00  0.00    -0.744 OA
ENDBRANCH  64  67
ENDBRANCH  46  60
BRANCH  47  71
ATOM     71  C   UNL A   1      39.659  33.883  36.812  1.00  0.00     0.023 A 
ATOM     72  C   UNL A   1      40.036  35.239  36.759  1.00  0.00     0.012 A 
ATOM     73  C   UNL A   1      39.060  33.382  37.984  1.00  0.00     0.148 A 
ATOM     74  C   UNL A   1      39.847  36.073  37.861  1.00  0.00     0.002 A 
ATOM     75  C   UNL A   1      38.821  34.232  39.058  1.00  0.00     0.091 A 
ATOM     76  F   UNL A   1      38.724  32.085  38.024  1.00  0.00    -0.205 F 
ATOM     77  C   UNL A   1      39.230  35.574  39.005  1.00  0.00     0.022 A 
BRANCH  75  78
ATOM     78  S   UNL A   1      37.906  33.706  40.511  1.00  0.00     0.127 S 
ATOM     79  O   UNL A   1      36.675  33.191  39.919  1.00  0.00    -0.237 OA
ATOM     80  O   UNL A   1      38.792  32.689  41.078  1.00  0.00    -0.237 OA
ATOM     81  O   UNL A   1      37.766  34.901  41.335  1.00  0.00    -0.744 OA
ENDBRANCH  75  78
ENDBRANCH  47  71
BRANCH  59  82
ATOM     82  C   UNL A   1      44.149  28.748  35.319  1.00  0.00     0.023 A 
ATOM     83  C   UNL A   1      45.457  29.256  35.191  1.00  0.00     0.012 A 
ATOM     84  C   UNL A   1      43.898  27.702  36.229  1.00  0.00     0.148 A 
ATOM     85  C   UNL A   1      46.503  28.715  35.934  1.00  0.00     0.002 A 
ATOM     86  C   UNL A   1      44.937  27.199  37.002  1.00  0.00     0.091 A 
ATOM     87  F   UNL A   1      42.649  27.223  36.323  1.00  0.00    -0.205 F 
ATOM     88  C   UNL A   1      46.242  27.696  36.848  1.00  0.00     0.022 A 
BRANCH  86  89
ATOM     89  S   UNL A   1      44.682  25.951  38.269  1.00  0.00     0.127 S 
ATOM     90  O   UNL A   1      44.053  24.876  37.505  1.00  0.00    -0.237 OA
ATOM     91  O   UNL A   1      46.050  25.670  38.707  1.00  0.00    -0.237 OA
ATOM     92  O   UNL A   1      43.839  26.573  39.281  1.00  0.00    -0.744 OA
ENDBRANCH  86  89
ENDBRANCH  59  82
ENDBRANCH  33  34
ENDBRANCH  25  28
ENDBRANCH  23  24
ENDBRANCH   1  23
TORSDOF 16
ENDMDL
MODEL 2
REMARK VINA RESULT:     -11.9      2.100      2.739
REMARK SMILES COc1ccccc1Nc1nc(C)c(C(=O)NCCCNC(=O)c2ccc(-c3c4nc(c(-c5cccc(S(=O)(=O)[O-])c5F)c5ccc([nH]5)c(-c5cccc(S(=O)(=O)[O-])c5F)c5nc(c(-c6cccc(S(=O)(=O)[O-])c6F)c6ccc3[nH]6)C=C5)C=C4)cc2)s1
REMARK SMILES IDX 19 1 18 2 17 3 15 4 16 5 14 7 10 8 11 9 87 10 12 11 13 12
REMARK SMILES IDX 9 13 8 15 3 16 4 17 5 18 7 19 6 20 2 21 1 22 20 23 21 24
REMARK SMILES IDX 22 25 23 27 24 28 25 29 86 30 26 31 85 32 27 33 28 34 29 35
REMARK SMILES IDX 79 36 30 37 84 38 78 39 80 40 31 41 83 42 77 43 76 44 32 46
REMARK SMILES IDX 64 47 44 48 63 49 45 50 48 51 62 52 81 53 46 54 47 55 61 57
REMARK SMILES IDX 82 58 49 59 33 60 34 61 42 62 35 63 37 64 43 65 36 66 38 67
REMARK SMILES IDX 39 68 40 69 41 70 65 71 66 72 74 73 67 74 69 75 75 76 68 77
REMARK SMILES IDX 70 78 71 79 72 80 73 81 50 82 51 83 59 84 52 85 54 86 60 87
REMARK SMILES IDX 53 88 55 89 56 90 57 91 58 92
REMARK H PARENT 17 6 9 14 21 26 80 45 48 56
REMARK Flexibility Score: inf
ROOT
ATOM      1  C   UNL A   1      31.441  29.955  25.752  1.00  0.00     0.042 C 
ENDROOT
BRANCH   1   2
ATOM      2  C   UNL A   1      32.159  29.324  24.561  1.00  0.00     0.118 C 
BRANCH   2   3
ATOM      3  N   UNL A   1      31.322  29.343  23.384  1.00  0.00    -0.351 N 
ATOM      4  C   UNL A   1      30.779  28.366  22.593  1.00  0.00     0.263 C 
ATOM      5  O   UNL A   1      30.068  28.828  21.691  1.00  0.00    -0.268 OA
ATOM      6  H   UNL A   1      31.093  30.253  23.088  1.00  0.00     0.163 HD
BRANCH   4   7
ATOM      7  C   UNL A   1      30.959  26.932  22.786  1.00  0.00     0.117 A 
ATOM      8  C   UNL A   1      31.944  24.697  22.460  1.00  0.00     0.188 A 
ATOM      9  N   UNL A   1      31.065  24.679  23.426  1.00  0.00    -0.225 NA
ATOM     10  S   UNL A   1      31.953  26.156  21.574  1.00  0.00    -0.091 S 
ATOM     11  C   UNL A   1      30.616  25.958  23.722  1.00  0.00     0.063 A 
ATOM     12  C   UNL A   1      29.919  26.024  25.030  1.00  0.00     0.068 C 
BRANCH   8  13
ATOM     13  N   UNL A   1      32.683  23.604  22.187  1.00  0.00    -0.328 N 
ATOM     14  H   UNL A   1      33.106  23.584  21.298  1.00  0.00     0.169 HD
BRANCH  13  15
ATOM     15  C   UNL A   1      32.929  22.482  23.010  1.00  0.00     0.083 A 
ATOM     16  C   UNL A   1      34.018  22.510  23.907  1.00  0.00     0.142 A 
ATOM     17  C   UNL A   1      34.363  21.382  24.656  1.00  0.00     0.048 A 
ATOM     18  C   UNL A   1      33.597  20.222  24.568  1.00  0.00     0.004 A 
ATOM     19  C   UNL A   1      32.158  21.310  22.960  1.00  0.00     0.030 A 
ATOM     20  C   UNL A   1      32.491  20.189  23.726  1.00  0.00     0.002 A 
BRANCH  16  21
ATOM     21  O   UNL A   1      34.877  23.580  24.010  1.00  0.00    -0.495 OA
ATOM     22  C   UNL A   1      36.188  23.297  23.524  1.00  0.00     0.278 C 
ENDBRANCH  16  21
ENDBRANCH  13  15
ENDBRANCH   8  13
ENDBRANCH   4   7
ENDBRANCH   2   3
ENDBRANCH   1   2
BRANCH   1  23
ATOM     23  C   UNL A   1      32.381  30.452  26.844  1.00  0.00     0.118 C 
BRANCH  23  24
ATOM     24  N   UNL A   1      32.444  31.906  26.879  1.00  0.00    -0.352 N 
ATOM     25  C   UNL A   1      33.322  32.736  27.535  1.00  0.00     0.251 C 
ATOM     26  H   UNL A   1      31.752  32.366  26.352  1.00  0.00     0.163 HD
ATOM     27  O   UNL A   1      33.041  33.925  27.658  1.00  0.00    -0.269 OA
BRANCH  25  28
ATOM     28  C   UNL A   1      34.590  32.215  28.095  1.00  0.00     0.039 A 
ATOM     29  C   UNL A   1      35.711  33.052  28.126  1.00  0.00     0.014 A 
ATOM     30  C   UNL A   1      34.695  30.897  28.547  1.00  0.00     0.014 A 
ATOM     31  C   UNL A   1      36.912  32.589  28.672  1.00  0.00     0.010 A 
ATOM     32  C   UNL A   1      35.870  30.459  29.155  1.00  0.00     0.010 A 
ATOM     33  C   UNL A   1      36.990  31.301  29.226  1.00  0.00    -0.014 A 
BRANCH  33  34
ATOM     34  C   UNL A   1      38.212  30.829  29.927  1.00  0.00     0.031 A 
ATOM     35  C   UNL A   1      39.100  29.788  29.301  1.00  0.00     0.074 A 
ATOM     36  C   UNL A   1      38.452  31.253  31.184  1.00  0.00     0.049 A 
ATOM     37  N   UNL A   1      40.145  29.185  29.807  1.00  0.00    -0.248 NA
ATOM     38  C   UNL A   1      38.757  29.350  27.937  1.00  0.00     0.031 C 
ATOM     39  C   UNL A   1      37.618  32.199  31.930  1.00  0.00     0.029 A 
ATOM     40  N   UNL A   1      39.443  30.914  32.072  1.00  0.00    -0.354 N 
ATOM     41  C   UNL A   1      40.560  28.271  28.845  1.00  0.00     0.074 A 
ATOM     42  C   UNL A   1      39.643  28.385  27.731  1.00  0.00     0.031 C 
ATOM     43  C   UNL A   1      38.121  32.352  33.164  1.00  0.00     0.029 A 
ATOM     44  C   UNL A   1      39.291  31.493  33.311  1.00  0.00     0.049 A 
ATOM     45  H   UNL A   1      40.190  30.314  31.845  1.00  0.00     0.167 HD
ATOM     46  C   UNL A   1      41.621  27.430  28.879  1.00  0.00     0.034 A 
ATOM     47  C   UNL A   1      39.998  31.335  34.448  1.00  0.00     0.034 A 
ATOM     48  C   UNL A   1      42.556  27.354  29.970  1.00  0.00     0.049 A 
ATOM     49  C   UNL A   1      41.189  30.416  34.446  1.00  0.00     0.074 A 
ATOM     50  C   UNL A   1      43.726  26.619  30.049  1.00  0.00     0.029 A 
ATOM     51  N   UNL A   1      42.421  28.021  31.177  1.00  0.00    -0.354 N 
ATOM     52  N   UNL A   1      41.672  29.697  33.461  1.00  0.00    -0.248 NA
ATOM     53  C   UNL A   1      41.949  30.308  35.698  1.00  0.00     0.031 C 
ATOM     54  C   UNL A   1      44.284  26.821  31.315  1.00  0.00     0.029 A 
ATOM     55  C   UNL A   1      43.473  27.698  32.017  1.00  0.00     0.049 A 
ATOM     56  H   UNL A   1      41.686  28.635  31.404  1.00  0.00     0.167 HD
ATOM     57  C   UNL A   1      42.803  29.068  33.969  1.00  0.00     0.074 A 
ATOM     58  C   UNL A   1      42.951  29.518  35.339  1.00  0.00     0.031 C 
ATOM     59  C   UNL A   1      43.632  28.183  33.364  1.00  0.00     0.034 A 
BRANCH  46  60
ATOM     60  C   UNL A   1      41.868  26.555  27.677  1.00  0.00     0.023 A 
ATOM     61  C   UNL A   1      42.556  27.082  26.565  1.00  0.00     0.012 A 
ATOM     62  C   UNL A   1      41.499  25.195  27.681  1.00  0.00     0.148 A 
ATOM     63  C   UNL A   1      42.848  26.277  25.465  1.00  0.00     0.002 A 
ATOM     64  C   UNL A   1      41.829  24.390  26.597  1.00  0.00     0.091 A 
ATOM     65  F   UNL A   1      40.829  24.718  28.740  1.00  0.00    -0.205 F 
ATOM     66  C   UNL A   1      42.495  24.932  25.485  1.00  0.00     0.022 A 
BRANCH  64  67
ATOM     67  S   UNL A   1      41.487  22.627  26.557  1.00  0.00     0.127 S 
ATOM     68  O   UNL A   1      42.247  22.207  25.379  1.00  0.00    -0.237 OA
ATOM     69  O   UNL A   1      42.042  22.176  27.832  1.00  0.00    -0.237 OA
ATOM     70  O   UNL A   1      40.040  22.499  26.442  1.00  0.00    -0.744 OA
ENDBRANCH  64  67
ENDBRANCH  46  60
BRANCH  47  71
ATOM     71  C   UNL A   1      39.618  32.095  35.672  1.00  0.00     0.023 A 
ATOM     72  C   UNL A   1      40.165  33.375  35.890  1.00  0.00     0.012 A 
ATOM     73  C   UNL A   1      38.699  31.573  36.602  1.00  0.00     0.148 A 
ATOM     74  C   UNL A   1      39.824  34.109  37.026  1.00  0.00     0.002 A 
ATOM     75  C   UNL A   1      38.320  32.334  37.703  1.00  0.00     0.091 A 
ATOM     76  F   UNL A   1      38.203  30.346  36.388  1.00  0.00    -0.205 F 
ATOM     77  C   UNL A   1      38.894  33.595  37.925  1.00  0.00     0.022 A 
BRANCH  75  78
ATOM     78  S   UNL A   1      37.025  31.806  38.830  1.00  0.00     0.127 S 
ATOM     79  O   UNL A   1      37.630  32.080  40.130  1.00  0.00    -0.237 OA
ATOM     80  O   UNL A   1      35.921  32.694  38.463  1.00  0.00    -0.237 OA
ATOM     81  O   UNL A   1      36.789  30.401  38.519  1.00  0.00    -0.744 OA
ENDBRANCH  75  78
ENDBRANCH  47  71
BRANCH  59  82
ATOM     82  C   UNL A   1      44.782  27.641  34.171  1.00  0.00     0.023 A 
ATOM     83  C   UNL A   1      45.990  28.363  34.229  1.00  0.00     0.012 A 
ATOM     84  C   UNL A   1      44.643  26.461  34.928  1.00  0.00     0.148 A 
ATOM     85  C   UNL A   1      47.053  27.906  35.006  1.00  0.00     0.002 A 
ATOM     86  C   UNL A   1      45.689  26.036  35.738  1.00  0.00     0.091 A 
ATOM     87  F   UNL A   1      43.491  25.780  34.845  1.00  0.00    -0.205 F 
ATOM     88  C   UNL A   1      46.899  26.750  35.769  1.00  0.00     0.022 A 
BRANCH  86  89
ATOM     89  S   UNL A   1      45.553  24.613  36.825  1.00  0.00     0.127 S 
ATOM     90  O   UNL A   1      45.085  23.578  35.904  1.00  0.00    -0.237 OA
ATOM     91  O   UNL A   1      46.931  24.441  37.286  1.00  0.00    -0.237 OA
ATOM     92  O   UNL A   1      44.609  24.993  37.868  1.00  0.00    -0.744 OA
ENDBRANCH  86  89
ENDBRANCH  59  82
ENDBRANCH  33  34
ENDBRANCH  25  28
ENDBRANCH  23  24
ENDBRANCH   1  23
TORSDOF 16
ENDMDL
MODEL 3
REMARK VINA RESULT:     -11.8      5.927     11.133
REMARK SMILES COc1ccccc1Nc1nc(C)c(C(=O)NCCCNC(=O)c2ccc(-c3c4nc(c(-c5cccc(S(=O)(=O)[O-])c5F)c5ccc([nH]5)c(-c5cccc(S(=O)(=O)[O-])c5F)c5nc(c(-c6cccc(S(=O)(=O)[O-])c6F)c6ccc3[nH]6)C=C5)C=C4)cc2)s1
REMARK SMILES IDX 19 1 18 2 17 3 15 4 16 5 14 7 10 8 11 9 87 10 12 11 13 12
REMARK SMILES IDX 9 13 8 15 3 16 4 17 5 18 7 19 6 20 2 21 1 22 20 23 21 24
REMARK SMILES IDX 22 25 23 27 24 28 25 29 86 30 26 31 85 32 27 33 28 34 29 35
REMARK SMILES IDX 79 36 30 37 84 38 78 39 80 40 31 41 83 42 77 43 76 44 32 46
REMARK SMILES IDX 64 47 44 48 63 49 45 50 48 51 62 52 81 53 46 54 47 55 61 57
REMARK SMILES IDX 82 58 49 59 33 60 34 61 42 62 35 63 37 64 43 65 36 66 38 67
REMARK SMILES IDX 39 68 40 69 41 70 65 71 66 72 74 73 67 74 69 75 75 76 68 77
REMARK SMILES IDX 70 78 71 79 72 80 73 81 50 82 51 83 59 84 52 85 54 86 60 87
REMARK SMILES IDX 53 88 55 89 56 90 57 91 58 92
REMARK H PARENT 17 6 9 14 21 26 80 45 48 56
REMARK Flexibility Score: inf
ROOT
ATOM      1  C   UNL A   1      36.461  20.555  24.982  1.00  0.00     0.042 C 
ENDROOT
BRANCH   1   2
ATOM      2  C   UNL A   1      35.217  21.202  25.588  1.00  0.00     0.118 C 
BRANCH   2   3
ATOM      3  N   UNL A   1      34.098  20.290  25.566  1.00  0.00    -0.351 N 
ATOM      4  C   UNL A   1      32.770  20.428  25.259  1.00  0.00     0.263 C 
ATOM      5  O   UNL A   1      32.155  19.355  25.325  1.00  0.00    -0.268 OA
ATOM      6  H   UNL A   1      34.342  19.373  25.827  1.00  0.00     0.163 HD
BRANCH   4   7
ATOM      7  C   UNL A   1      32.127  21.671  24.852  1.00  0.00     0.117 A 
ATOM      8  C   UNL A   1      31.017  23.855  25.122  1.00  0.00     0.188 A 
ATOM      9  N   UNL A   1      31.263  23.614  23.863  1.00  0.00    -0.225 NA
ATOM     10  S   UNL A   1      31.295  22.513  26.140  1.00  0.00    -0.091 S 
ATOM     11  C   UNL A   1      32.022  22.462  23.709  1.00  0.00     0.063 A 
ATOM     12  C   UNL A   1      32.628  22.361  22.359  1.00  0.00     0.068 C 
BRANCH   8  13
ATOM     13  N   UNL A   1      30.512  25.044  25.506  1.00  0.00    -0.328 N 
ATOM     14  H   UNL A   1      30.349  25.148  26.471  1.00  0.00     0.169 HD
BRANCH  13  15
ATOM     15  C   UNL A   1      30.188  26.160  24.702  1.00  0.00     0.083 A 
ATOM     16  C   UNL A   1      31.144  27.182  24.523  1.00  0.00     0.142 A 
ATOM     17  C   UNL A   1      30.824  28.353  23.829  1.00  0.00     0.048 A 
ATOM     18  C   UNL A   1      29.565  28.506  23.256  1.00  0.00     0.004 A 
ATOM     19  C   UNL A   1      28.935  26.327  24.091  1.00  0.00     0.030 A 
ATOM     20  C   UNL A   1      28.624  27.489  23.380  1.00  0.00     0.002 A 
BRANCH  16  21
ATOM     21  O   UNL A   1      32.387  27.158  25.112  1.00  0.00    -0.495 OA
ATOM     22  C   UNL A   1      33.373  27.877  24.374  1.00  0.00     0.278 C 
ENDBRANCH  16  21
ENDBRANCH  13  15
ENDBRANCH   8  13
ENDBRANCH   4   7
ENDBRANCH   2   3
ENDBRANCH   1   2
BRANCH   1  23
ATOM     23  C   UNL A   1      37.766  21.230  25.389  1.00  0.00     0.118 C 
BRANCH  23  24
ATOM     24  N   UNL A   1      38.740  20.266  25.880  1.00  0.00    -0.352 N 
ATOM     25  C   UNL A   1      39.994  20.469  26.406  1.00  0.00     0.251 C 
ATOM     26  H   UNL A   1      38.458  19.325  25.828  1.00  0.00     0.163 HD
ATOM     27  O   UNL A   1      40.761  19.514  26.505  1.00  0.00    -0.269 OA
BRANCH  25  28
ATOM     28  C   UNL A   1      40.429  21.815  26.844  1.00  0.00     0.039 A 
ATOM     29  C   UNL A   1      41.232  21.928  27.984  1.00  0.00     0.014 A 
ATOM     30  C   UNL A   1      40.015  22.965  26.169  1.00  0.00     0.014 A 
ATOM     31  C   UNL A   1      41.674  23.187  28.404  1.00  0.00     0.010 A 
ATOM     32  C   UNL A   1      40.513  24.212  26.545  1.00  0.00     0.010 A 
ATOM     33  C   UNL A   1      41.350  24.335  27.664  1.00  0.00    -0.014 A 
BRANCH  33  34
ATOM     34  C   UNL A   1      41.909  25.667  28.011  1.00  0.00     0.031 A 
ATOM     35  C   UNL A   1      41.053  26.708  28.680  1.00  0.00     0.074 A 
ATOM     36  C   UNL A   1      43.159  25.978  27.610  1.00  0.00     0.049 A 
ATOM     37  N   UNL A   1      41.339  27.953  28.962  1.00  0.00    -0.248 NA
ATOM     38  C   UNL A   1      39.688  26.305  29.061  1.00  0.00     0.031 C 
ATOM     39  C   UNL A   1      44.058  25.081  26.880  1.00  0.00     0.029 A 
ATOM     40  N   UNL A   1      43.874  27.145  27.722  1.00  0.00    -0.354 N 
ATOM     41  C   UNL A   1      40.184  28.493  29.515  1.00  0.00     0.074 A 
ATOM     42  C   UNL A   1      39.185  27.446  29.512  1.00  0.00     0.031 C 
ATOM     43  C   UNL A   1      45.196  25.733  26.597  1.00  0.00     0.029 A 
ATOM     44  C   UNL A   1      45.096  27.102  27.092  1.00  0.00     0.049 A 
ATOM     45  H   UNL A   1      43.543  27.936  28.206  1.00  0.00     0.167 HD
ATOM     46  C   UNL A   1      39.982  29.741  30.001  1.00  0.00     0.034 A 
ATOM     47  C   UNL A   1      46.025  28.062  26.911  1.00  0.00     0.034 A 
ATOM     48  C   UNL A   1      40.993  30.764  30.044  1.00  0.00     0.049 A 
ATOM     49  C   UNL A   1      45.785  29.430  27.488  1.00  0.00     0.074 A 
ATOM     50  C   UNL A   1      40.920  32.020  30.621  1.00  0.00     0.029 A 
ATOM     51  N   UNL A   1      42.251  30.657  29.475  1.00  0.00    -0.354 N 
ATOM     52  N   UNL A   1      44.754  29.866  28.170  1.00  0.00    -0.248 NA
ATOM     53  C   UNL A   1      46.845  30.429  27.297  1.00  0.00     0.031 C 
ATOM     54  C   UNL A   1      42.127  32.683  30.376  1.00  0.00     0.029 A 
ATOM     55  C   UNL A   1      42.959  31.832  29.665  1.00  0.00     0.049 A 
ATOM     56  H   UNL A   1      42.594  29.863  29.005  1.00  0.00     0.167 HD
ATOM     57  C   UNL A   1      45.050  31.182  28.508  1.00  0.00     0.074 A 
ATOM     58  C   UNL A   1      46.371  31.460  27.982  1.00  0.00     0.031 C 
ATOM     59  C   UNL A   1      44.289  32.084  29.173  1.00  0.00     0.034 A 
BRANCH  46  60
ATOM     60  C   UNL A   1      38.628  30.064  30.580  1.00  0.00     0.023 A 
ATOM     61  C   UNL A   1      38.328  29.672  31.901  1.00  0.00     0.012 A 
ATOM     62  C   UNL A   1      37.691  30.825  29.854  1.00  0.00     0.148 A 
ATOM     63  C   UNL A   1      37.105  30.008  32.480  1.00  0.00     0.002 A 
ATOM     64  C   UNL A   1      36.491  31.190  30.453  1.00  0.00     0.091 A 
ATOM     65  F   UNL A   1      37.989  31.172  28.594  1.00  0.00    -0.205 F 
ATOM     66  C   UNL A   1      36.193  30.776  31.762  1.00  0.00     0.022 A 
BRANCH  64  67
ATOM     67  S   UNL A   1      35.280  32.241  29.641  1.00  0.00     0.127 S 
ATOM     68  O   UNL A   1      34.320  32.470  30.720  1.00  0.00    -0.237 OA
ATOM     69  O   UNL A   1      36.080  33.410  29.279  1.00  0.00    -0.237 OA
ATOM     70  O   UNL A   1      34.776  31.474  28.510  1.00  0.00    -0.744 OA
ENDBRANCH  64  67
ENDBRANCH  46  60
BRANCH  47  71
ATOM     71  C   UNL A   1      47.286  27.747  26.182  1.00  0.00     0.023 A 
ATOM     72  C   UNL A   1      48.398  27.264  26.897  1.00  0.00     0.012 A 
ATOM     73  C   UNL A   1      47.380  27.895  24.784  1.00  0.00     0.148 A 
ATOM     74  C   UNL A   1      49.590  26.960  26.239  1.00  0.00     0.002 A 
ATOM     75  C   UNL A   1      48.551  27.536  24.126  1.00  0.00     0.091 A 
ATOM     76  F   UNL A   1      46.317  28.374  24.122  1.00  0.00    -0.205 F 
ATOM     77  C   UNL A   1      49.663  27.084  24.854  1.00  0.00     0.022 A 
BRANCH  75  78
ATOM     78  S   UNL A   1      48.679  27.531  22.335  1.00  0.00     0.127 S 
ATOM     79  O   UNL A   1      49.970  28.178  22.126  1.00  0.00    -0.237 OA
ATOM     80  O   UNL A   1      48.649  26.099  22.032  1.00  0.00    -0.237 OA
ATOM     81  O   UNL A   1      47.512  28.265  21.861  1.00  0.00    -0.744 OA
ENDBRANCH  75  78
ENDBRANCH  47  71
BRANCH  59  82
ATOM     82  C   UNL A   1      44.862  33.461  29.382  1.00  0.00     0.023 A 
ATOM     83  C   UNL A   1      45.682  33.709  30.501  1.00  0.00     0.012 A 
ATOM     84  C   UNL A   1      44.653  34.483  28.436  1.00  0.00     0.148 A 
ATOM     85  C   UNL A   1      46.261  34.962  30.690  1.00  0.00     0.002 A 
ATOM     86  C   UNL A   1      45.273  35.715  28.606  1.00  0.00     0.091 A 
ATOM     87  F   UNL A   1      43.857  34.231  27.387  1.00  0.00    -0.205 F 
ATOM     88  C   UNL A   1      46.068  35.961  29.738  1.00  0.00     0.022 A 
BRANCH  86  89
ATOM     89  S   UNL A   1      45.158  37.032  27.389  1.00  0.00     0.127 S 
ATOM     90  O   UNL A   1      45.729  38.162  28.118  1.00  0.00    -0.237 OA
ATOM     91  O   UNL A   1      45.992  36.522  26.300  1.00  0.00    -0.237 OA
ATOM     92  O   UNL A   1      43.743  37.152  27.061  1.00  0.00    -0.744 OA
ENDBRANCH  86  89
ENDBRANCH  59  82
ENDBRANCH  33  34
ENDBRANCH  25  28
ENDBRANCH  23  24
ENDBRANCH   1  23
TORSDOF 16
ENDMDL
