MODEL 1
REMARK VINA RESULT:     -12.8      0.000      0.000
REMARK SMILES Cc1cc(C(=O)NCCCNC(=O)c2ccc(-c3c4nc(c(-c5cccc(S(=O)(=O)[O-])c5F)c5ccc([nH]5)c(-c5cccc(S(=O)(=O)[O-])c5F)c5nc(c(-c6cccc(S(=O)(=O)[O-])c6F)c6ccc3[nH]6)C=C5)C=C4)cc2)c([N+](=O)[O-])cc1[N+](=O)[O-]
REMARK SMILES IDX 10 1 9 2 8 3 7 4 5 5 6 6 4 8 1 9 2 10 3 11 82 12 81 13 77 14
REMARK SMILES IDX 83 15 84 16 85 17 78 18 79 19 80 20 11 21 12 22 13 24 14 25
REMARK SMILES IDX 15 26 76 27 16 28 75 29 17 30 18 31 19 32 69 33 20 34 74 35
REMARK SMILES IDX 68 36 70 37 21 38 73 39 67 40 66 41 22 43 54 44 34 45 53 46
REMARK SMILES IDX 35 47 38 48 52 49 71 50 36 51 37 52 51 54 72 55 39 56 23 57
REMARK SMILES IDX 24 58 32 59 25 60 27 61 33 62 26 63 28 64 29 65 30 66 31 67
REMARK SMILES IDX 55 68 56 69 64 70 57 71 59 72 65 73 58 74 60 75 61 76 62 77
REMARK SMILES IDX 63 78 40 79 41 80 49 81 42 82 44 83 50 84 43 85 45 86 46 87
REMARK SMILES IDX 47 88 48 89
REMARK H PARENT 7 7 11 23 70 42 38 53
REMARK Flexibility Score: inf
ROOT
ATOM      1  C   UNL A   1      38.998  22.759  26.208  1.00  0.00     0.118 C 
ENDROOT
BRANCH   1   2
ATOM      2  C   UNL A   1      38.785  21.290  25.886  1.00  0.00     0.042 C 
BRANCH   2   3
ATOM      3  C   UNL A   1      37.482  20.926  25.184  1.00  0.00     0.118 C 
BRANCH   3   4
ATOM      4  N   UNL A   1      37.204  21.840  24.093  1.00  0.00    -0.352 N 
ATOM      5  C   UNL A   1      36.183  22.681  23.750  1.00  0.00     0.258 C 
ATOM      6  O   UNL A   1      36.332  23.287  22.684  1.00  0.00    -0.269 OA
ATOM      7  H   UNL A   1      37.934  21.859  23.433  1.00  0.00     0.163 HD
BRANCH   5   8
ATOM      8  C   UNL A   1      34.960  23.022  24.547  1.00  0.00     0.118 A 
ATOM      9  C   UNL A   1      33.878  26.453  25.838  1.00  0.00     0.052 C 
ATOM     10  C   UNL A   1      33.811  24.963  25.646  1.00  0.00     0.028 A 
ATOM     11  C   UNL A   1      34.919  24.371  24.984  1.00  0.00     0.031 A 
ATOM     12  C   UNL A   1      32.737  24.134  25.999  1.00  0.00     0.279 A 
ATOM     13  C   UNL A   1      32.746  22.796  25.600  1.00  0.00     0.172 A 
ATOM     14  C   UNL A   1      33.818  22.284  24.838  1.00  0.00     0.289 A 
BRANCH  12  15
ATOM     15  N   UNL A   1      31.547  24.599  26.725  1.00  0.00     0.063 N 
ATOM     16  O   UNL A   1      31.029  23.810  27.530  1.00  0.00    -0.258 OA
ATOM     17  O   UNL A   1      31.154  25.756  26.533  1.00  0.00    -0.258 OA
ENDBRANCH  12  15
BRANCH  14  18
ATOM     18  N   UNL A   1      33.482  21.055  24.187  1.00  0.00     0.063 N 
ATOM     19  O   UNL A   1      34.080  20.046  24.576  1.00  0.00    -0.258 OA
ATOM     20  O   UNL A   1      32.753  21.142  23.190  1.00  0.00    -0.258 OA
ENDBRANCH  14  18
ENDBRANCH   5   8
ENDBRANCH   3   4
ENDBRANCH   2   3
ENDBRANCH   1   2
BRANCH   1  21
ATOM     21  N   UNL A   1      40.283  22.937  26.901  1.00  0.00    -0.352 N 
ATOM     22  C   UNL A   1      40.806  24.054  27.523  1.00  0.00     0.251 C 
ATOM     23  H   UNL A   1      40.858  22.138  26.926  1.00  0.00     0.163 HD
ATOM     24  O   UNL A   1      41.916  24.029  28.042  1.00  0.00    -0.269 OA
BRANCH  22  25
ATOM     25  C   UNL A   1      39.932  25.231  27.613  1.00  0.00     0.039 A 
ATOM     26  C   UNL A   1      40.276  26.315  26.802  1.00  0.00     0.014 A 
ATOM     27  C   UNL A   1      39.169  25.388  28.769  1.00  0.00     0.014 A 
ATOM     28  C   UNL A   1      40.105  27.597  27.299  1.00  0.00     0.010 A 
ATOM     29  C   UNL A   1      39.068  26.659  29.294  1.00  0.00     0.010 A 
ATOM     30  C   UNL A   1      39.619  27.744  28.596  1.00  0.00    -0.014 A 
BRANCH  30  31
ATOM     31  C   UNL A   1      39.631  29.010  29.306  1.00  0.00     0.031 A 
ATOM     32  C   UNL A   1      38.678  30.046  28.893  1.00  0.00     0.074 A 
ATOM     33  C   UNL A   1      40.485  29.239  30.326  1.00  0.00     0.049 A 
ATOM     34  N   UNL A   1      38.819  31.301  29.141  1.00  0.00    -0.248 NA
ATOM     35  C   UNL A   1      37.515  29.728  28.079  1.00  0.00     0.031 C 
ATOM     36  C   UNL A   1      40.426  30.324  31.299  1.00  0.00     0.029 A 
ATOM     37  N   UNL A   1      41.742  28.665  30.528  1.00  0.00    -0.354 N 
ATOM     38  C   UNL A   1      37.645  31.918  28.776  1.00  0.00     0.074 A 
ATOM     39  C   UNL A   1      36.927  30.923  28.017  1.00  0.00     0.031 C 
ATOM     40  C   UNL A   1      41.656  30.531  31.790  1.00  0.00     0.029 A 
ATOM     41  C   UNL A   1      42.567  29.692  31.034  1.00  0.00     0.049 A 
ATOM     42  H   UNL A   1      42.001  27.732  30.353  1.00  0.00     0.167 HD
ATOM     43  C   UNL A   1      37.365  33.142  29.303  1.00  0.00     0.034 A 
ATOM     44  C   UNL A   1      43.729  30.100  30.441  1.00  0.00     0.034 A 
ATOM     45  C   UNL A   1      38.531  33.686  30.026  1.00  0.00     0.049 A 
ATOM     46  C   UNL A   1      43.747  31.586  30.099  1.00  0.00     0.074 A 
ATOM     47  C   UNL A   1      38.885  33.781  31.364  1.00  0.00     0.029 A 
ATOM     48  N   UNL A   1      39.682  33.987  29.309  1.00  0.00    -0.354 N 
ATOM     49  N   UNL A   1      42.789  32.432  30.362  1.00  0.00    -0.248 NA
ATOM     50  C   UNL A   1      44.810  32.188  29.298  1.00  0.00     0.031 C 
ATOM     51  C   UNL A   1      40.269  34.127  31.439  1.00  0.00     0.029 A 
ATOM     52  C   UNL A   1      40.751  34.265  30.150  1.00  0.00     0.049 A 
ATOM     53  H   UNL A   1      39.732  34.002  28.326  1.00  0.00     0.167 HD
ATOM     54  C   UNL A   1      42.987  33.589  29.642  1.00  0.00     0.074 A 
ATOM     55  C   UNL A   1      44.278  33.385  29.004  1.00  0.00     0.031 C 
ATOM     56  C   UNL A   1      42.046  34.585  29.554  1.00  0.00     0.034 A 
BRANCH  43  57
ATOM     57  C   UNL A   1      35.958  33.717  29.432  1.00  0.00     0.023 A 
ATOM     58  C   UNL A   1      35.273  34.017  28.233  1.00  0.00     0.012 A 
ATOM     59  C   UNL A   1      35.286  34.082  30.623  1.00  0.00     0.148 A 
ATOM     60  C   UNL A   1      34.067  34.730  28.212  1.00  0.00     0.002 A 
ATOM     61  C   UNL A   1      34.120  34.851  30.606  1.00  0.00     0.091 A 
ATOM     62  F   UNL A   1      35.704  33.616  31.798  1.00  0.00    -0.205 F 
ATOM     63  C   UNL A   1      33.509  35.183  29.397  1.00  0.00     0.022 A 
BRANCH  61  64
ATOM     64  S   UNL A   1      33.383  35.523  32.109  1.00  0.00     0.127 S 
ATOM     65  O   UNL A   1      32.934  34.312  32.798  1.00  0.00    -0.237 OA
ATOM     66  O   UNL A   1      34.516  36.196  32.740  1.00  0.00    -0.237 OA
ATOM     67  O   UNL A   1      32.299  36.399  31.680  1.00  0.00    -0.744 OA
ENDBRANCH  61  64
ENDBRANCH  43  57
BRANCH  44  68
ATOM     68  C   UNL A   1      44.368  29.030  29.613  1.00  0.00     0.023 A 
ATOM     69  C   UNL A   1      44.790  27.856  30.283  1.00  0.00     0.012 A 
ATOM     70  C   UNL A   1      44.173  28.981  28.223  1.00  0.00     0.148 A 
ATOM     71  C   UNL A   1      44.818  26.628  29.617  1.00  0.00     0.002 A 
ATOM     72  C   UNL A   1      44.231  27.758  27.564  1.00  0.00     0.091 A 
ATOM     73  F   UNL A   1      43.853  30.101  27.566  1.00  0.00    -0.205 F 
ATOM     74  C   UNL A   1      44.493  26.574  28.266  1.00  0.00     0.022 A 
BRANCH  72  75
ATOM     75  S   UNL A   1      43.842  27.674  25.813  1.00  0.00     0.127 S 
ATOM     76  O   UNL A   1      45.117  28.056  25.215  1.00  0.00    -0.237 OA
ATOM     77  O   UNL A   1      43.472  26.272  25.635  1.00  0.00    -0.237 OA
ATOM     78  O   UNL A   1      42.737  28.609  25.653  1.00  0.00    -0.744 OA
ENDBRANCH  72  75
ENDBRANCH  44  68
BRANCH  56  79
ATOM     79  C   UNL A   1      42.232  35.917  28.822  1.00  0.00     0.023 A 
ATOM     80  C   UNL A   1      41.803  36.112  27.494  1.00  0.00     0.012 A 
ATOM     81  C   UNL A   1      42.926  37.012  29.409  1.00  0.00     0.148 A 
ATOM     82  C   UNL A   1      41.900  37.349  26.845  1.00  0.00     0.002 A 
ATOM     83  C   UNL A   1      43.054  38.235  28.752  1.00  0.00     0.091 A 
ATOM     84  F   UNL A   1      43.525  36.865  30.595  1.00  0.00    -0.205 F 
ATOM     85  C   UNL A   1      42.508  38.419  27.482  1.00  0.00     0.022 A 
BRANCH  83  86
ATOM     86  S   UNL A   1      43.952  39.625  29.460  1.00  0.00     0.127 S 
ATOM     87  O   UNL A   1      43.314  39.747  30.770  1.00  0.00    -0.237 OA
ATOM     88  O   UNL A   1      45.322  39.113  29.495  1.00  0.00    -0.237 OA
ATOM     89  O   UNL A   1      43.745  40.747  28.558  1.00  0.00    -0.744 OA
ENDBRANCH  83  86
ENDBRANCH  56  79
ENDBRANCH  30  31
ENDBRANCH  22  25
ENDBRANCH   1  21
TORSDOF 15
ENDMDL
MODEL 2
REMARK VINA RESULT:     -12.3      4.486     10.618
REMARK SMILES Cc1cc(C(=O)NCCCNC(=O)c2ccc(-c3c4nc(c(-c5cccc(S(=O)(=O)[O-])c5F)c5ccc([nH]5)c(-c5cccc(S(=O)(=O)[O-])c5F)c5nc(c(-c6cccc(S(=O)(=O)[O-])c6F)c6ccc3[nH]6)C=C5)C=C4)cc2)c([N+](=O)[O-])cc1[N+](=O)[O-]
REMARK SMILES IDX 10 1 9 2 8 3 7 4 5 5 6 6 4 8 1 9 2 10 3 11 82 12 81 13 77 14
REMARK SMILES IDX 83 15 84 16 85 17 78 18 79 19 80 20 11 21 12 22 13 24 14 25
REMARK SMILES IDX 15 26 76 27 16 28 75 29 17 30 18 31 19 32 69 33 20 34 74 35
REMARK SMILES IDX 68 36 70 37 21 38 73 39 67 40 66 41 22 43 54 44 34 45 53 46
REMARK SMILES IDX 35 47 38 48 52 49 71 50 36 51 37 52 51 54 72 55 39 56 23 57
REMARK SMILES IDX 24 58 32 59 25 60 27 61 33 62 26 63 28 64 29 65 30 66 31 67
REMARK SMILES IDX 55 68 56 69 64 70 57 71 59 72 65 73 58 74 60 75 61 76 62 77
REMARK SMILES IDX 63 78 40 79 41 80 49 81 42 82 44 83 50 84 43 85 45 86 46 87
REMARK SMILES IDX 47 88 48 89
REMARK H PARENT 7 7 11 23 70 42 38 53
REMARK Flexibility Score: inf
ROOT
ATOM      1  C   UNL A   1      34.304  30.716  28.355  1.00  0.00     0.118 C 
ENDROOT
BRANCH   1   2
ATOM      2  C   UNL A   1      34.237  30.275  26.904  1.00  0.00     0.042 C 
BRANCH   2   3
ATOM      3  C   UNL A   1      34.362  28.779  26.636  1.00  0.00     0.118 C 
BRANCH   3   4
ATOM      4  N   UNL A   1      34.288  28.497  25.215  1.00  0.00    -0.352 N 
ATOM      5  C   UNL A   1      33.716  27.533  24.433  1.00  0.00     0.258 C 
ATOM      6  O   UNL A   1      33.920  27.647  23.220  1.00  0.00    -0.269 OA
ATOM      7  H   UNL A   1      34.772  29.166  24.680  1.00  0.00     0.163 HD
BRANCH   5   8
ATOM      8  C   UNL A   1      32.805  26.420  24.855  1.00  0.00     0.118 A 
ATOM      9  C   UNL A   1      33.704  23.267  26.819  1.00  0.00     0.052 C 
ATOM     10  C   UNL A   1      32.825  24.213  26.049  1.00  0.00     0.028 A 
ATOM     11  C   UNL A   1      33.479  25.326  25.457  1.00  0.00     0.031 A 
ATOM     12  C   UNL A   1      31.432  24.127  25.924  1.00  0.00     0.279 A 
ATOM     13  C   UNL A   1      30.733  25.176  25.324  1.00  0.00     0.172 A 
ATOM     14  C   UNL A   1      31.419  26.319  24.859  1.00  0.00     0.289 A 
BRANCH  12  15
ATOM     15  N   UNL A   1      30.630  23.011  26.446  1.00  0.00     0.063 N 
ATOM     16  O   UNL A   1      29.930  23.236  27.445  1.00  0.00    -0.258 OA
ATOM     17  O   UNL A   1      30.657  21.932  25.843  1.00  0.00    -0.258 OA
ENDBRANCH  12  15
BRANCH  14  18
ATOM     18  N   UNL A   1      30.543  27.432  24.657  1.00  0.00     0.063 N 
ATOM     19  O   UNL A   1      29.574  27.241  23.915  1.00  0.00    -0.258 OA
ATOM     20  O   UNL A   1      30.925  28.521  25.106  1.00  0.00    -0.258 OA
ENDBRANCH  14  18
ENDBRANCH   5   8
ENDBRANCH   3   4
ENDBRANCH   2   3
ENDBRANCH   1   2
BRANCH   1  21
ATOM     21  N   UNL A   1      35.383  31.699  28.530  1.00  0.00    -0.352 N 
ATOM     22  C   UNL A   1      36.748  31.511  28.613  1.00  0.00     0.251 C 
ATOM     23  H   UNL A   1      35.086  32.636  28.598  1.00  0.00     0.163 HD
ATOM     24  O   UNL A   1      37.510  32.456  28.780  1.00  0.00    -0.269 OA
BRANCH  22  25
ATOM     25  C   UNL A   1      37.241  30.144  28.398  1.00  0.00     0.039 A 
ATOM     26  C   UNL A   1      37.397  29.359  29.542  1.00  0.00     0.014 A 
ATOM     27  C   UNL A   1      37.948  29.885  27.224  1.00  0.00     0.014 A 
ATOM     28  C   UNL A   1      38.475  28.490  29.610  1.00  0.00     0.010 A 
ATOM     29  C   UNL A   1      39.062  29.078  27.320  1.00  0.00     0.010 A 
ATOM     30  C   UNL A   1      39.366  28.459  28.541  1.00  0.00    -0.014 A 
BRANCH  30  31
ATOM     31  C   UNL A   1      40.649  27.782  28.602  1.00  0.00     0.031 A 
ATOM     32  C   UNL A   1      40.673  26.324  28.446  1.00  0.00     0.074 A 
ATOM     33  C   UNL A   1      41.799  28.465  28.787  1.00  0.00     0.049 A 
ATOM     34  N   UNL A   1      41.631  25.567  28.851  1.00  0.00    -0.248 NA
ATOM     35  C   UNL A   1      39.544  25.601  27.881  1.00  0.00     0.031 C 
ATOM     36  C   UNL A   1      43.158  27.974  28.590  1.00  0.00     0.029 A 
ATOM     37  N   UNL A   1      41.968  29.683  29.449  1.00  0.00    -0.354 N 
ATOM     38  C   UNL A   1      41.387  24.307  28.356  1.00  0.00     0.074 A 
ATOM     39  C   UNL A   1      40.029  24.359  27.872  1.00  0.00     0.031 C 
ATOM     40  C   UNL A   1      43.995  28.703  29.342  1.00  0.00     0.029 A 
ATOM     41  C   UNL A   1      43.180  29.580  30.164  1.00  0.00     0.049 A 
ATOM     42  H   UNL A   1      41.362  30.460  29.423  1.00  0.00     0.167 HD
ATOM     43  C   UNL A   1      42.425  23.429  28.277  1.00  0.00     0.034 A 
ATOM     44  C   UNL A   1      43.285  29.739  31.517  1.00  0.00     0.034 A 
ATOM     45  C   UNL A   1      43.617  23.954  28.970  1.00  0.00     0.049 A 
ATOM     46  C   UNL A   1      43.893  28.532  32.224  1.00  0.00     0.074 A 
ATOM     47  C   UNL A   1      44.793  24.560  28.555  1.00  0.00     0.029 A 
ATOM     48  N   UNL A   1      43.562  24.142  30.346  1.00  0.00    -0.354 N 
ATOM     49  N   UNL A   1      44.322  27.450  31.636  1.00  0.00    -0.248 NA
ATOM     50  C   UNL A   1      43.924  28.417  33.681  1.00  0.00     0.031 C 
ATOM     51  C   UNL A   1      45.435  25.129  29.697  1.00  0.00     0.029 A 
ATOM     52  C   UNL A   1      44.662  24.849  30.811  1.00  0.00     0.049 A 
ATOM     53  H   UNL A   1      42.832  23.813  30.919  1.00  0.00     0.167 HD
ATOM     54  C   UNL A   1      44.499  26.456  32.573  1.00  0.00     0.074 A 
ATOM     55  C   UNL A   1      44.249  27.125  33.840  1.00  0.00     0.031 C 
ATOM     56  C   UNL A   1      44.750  25.148  32.238  1.00  0.00     0.034 A 
BRANCH  43  57
ATOM     57  C   UNL A   1      42.469  22.240  27.322  1.00  0.00     0.023 A 
ATOM     58  C   UNL A   1      41.474  21.250  27.480  1.00  0.00     0.012 A 
ATOM     59  C   UNL A   1      43.456  21.958  26.348  1.00  0.00     0.148 A 
ATOM     60  C   UNL A   1      41.520  20.021  26.809  1.00  0.00     0.002 A 
ATOM     61  C   UNL A   1      43.545  20.709  25.727  1.00  0.00     0.091 A 
ATOM     62  F   UNL A   1      44.278  22.918  25.928  1.00  0.00    -0.205 F 
ATOM     63  C   UNL A   1      42.577  19.733  25.961  1.00  0.00     0.022 A 
BRANCH  61  64
ATOM     64  S   UNL A   1      44.931  20.254  24.665  1.00  0.00     0.127 S 
ATOM     65  O   UNL A   1      46.079  20.717  25.445  1.00  0.00    -0.237 OA
ATOM     66  O   UNL A   1      44.798  18.800  24.583  1.00  0.00    -0.237 OA
ATOM     67  O   UNL A   1      44.738  20.969  23.409  1.00  0.00    -0.744 OA
ENDBRANCH  61  64
ENDBRANCH  43  57
BRANCH  44  68
ATOM     68  C   UNL A   1      42.206  30.603  32.088  1.00  0.00     0.023 A 
ATOM     69  C   UNL A   1      42.125  31.936  31.616  1.00  0.00     0.012 A 
ATOM     70  C   UNL A   1      41.080  30.037  32.708  1.00  0.00     0.148 A 
ATOM     71  C   UNL A   1      40.899  32.605  31.583  1.00  0.00     0.002 A 
ATOM     72  C   UNL A   1      39.870  30.723  32.695  1.00  0.00     0.091 A 
ATOM     73  F   UNL A   1      41.168  28.809  33.230  1.00  0.00    -0.205 F 
ATOM     74  C   UNL A   1      39.762  31.978  32.082  1.00  0.00     0.022 A 
BRANCH  72  75
ATOM     75  S   UNL A   1      38.399  29.939  33.362  1.00  0.00     0.127 S 
ATOM     76  O   UNL A   1      38.564  28.568  32.893  1.00  0.00    -0.237 OA
ATOM     77  O   UNL A   1      38.564  30.124  34.802  1.00  0.00    -0.237 OA
ATOM     78  O   UNL A   1      37.301  30.702  32.783  1.00  0.00    -0.744 OA
ENDBRANCH  72  75
ENDBRANCH  44  68
BRANCH  56  79
ATOM     79  C   UNL A   1      45.018  24.015  33.232  1.00  0.00     0.023 A 
ATOM     80  C   UNL A   1      44.008  23.121  33.642  1.00  0.00     0.012 A 
ATOM     81  C   UNL A   1      46.279  23.848  33.868  1.00  0.00     0.148 A 
ATOM     82  C   UNL A   1      44.262  22.037  34.491  1.00  0.00     0.002 A 
ATOM     83  C   UNL A   1      46.525  22.789  34.740  1.00  0.00     0.091 A 
ATOM     84  F   UNL A   1      47.246  24.752  33.681  1.00  0.00    -0.205 F 
ATOM     85  C   UNL A   1      45.528  21.857  35.024  1.00  0.00     0.022 A 
BRANCH  83  86
ATOM     86  S   UNL A   1      48.102  22.572  35.579  1.00  0.00     0.127 S 
ATOM     87  O   UNL A   1      47.854  21.357  36.356  1.00  0.00    -0.237 OA
ATOM     88  O   UNL A   1      49.022  22.398  34.455  1.00  0.00    -0.237 OA
ATOM     89  O   UNL A   1      48.319  23.779  36.361  1.00  0.00    -0.744 OA
ENDBRANCH  83  86
ENDBRANCH  56  79
ENDBRANCH  30  31
ENDBRANCH  22  25
ENDBRANCH   1  21
TORSDOF 15
ENDMDL
MODEL 3
REMARK VINA RESULT:     -12.3      2.598      5.208
REMARK SMILES Cc1cc(C(=O)NCCCNC(=O)c2ccc(-c3c4nc(c(-c5cccc(S(=O)(=O)[O-])c5F)c5ccc([nH]5)c(-c5cccc(S(=O)(=O)[O-])c5F)c5nc(c(-c6cccc(S(=O)(=O)[O-])c6F)c6ccc3[nH]6)C=C5)C=C4)cc2)c([N+](=O)[O-])cc1[N+](=O)[O-]
REMARK SMILES IDX 10 1 9 2 8 3 7 4 5 5 6 6 4 8 1 9 2 10 3 11 82 12 81 13 77 14
REMARK SMILES IDX 83 15 84 16 85 17 78 18 79 19 80 20 11 21 12 22 13 24 14 25
REMARK SMILES IDX 15 26 76 27 16 28 75 29 17 30 18 31 19 32 69 33 20 34 74 35
REMARK SMILES IDX 68 36 70 37 21 38 73 39 67 40 66 41 22 43 54 44 34 45 53 46
REMARK SMILES IDX 35 47 38 48 52 49 71 50 36 51 37 52 51 54 72 55 39 56 23 57
REMARK SMILES IDX 24 58 32 59 25 60 27 61 33 62 26 63 28 64 29 65 30 66 31 67
REMARK SMILES IDX 55 68 56 69 64 70 57 71 59 72 65 73 58 74 60 75 61 76 62 77
REMARK SMILES IDX 63 78 40 79 41 80 49 81 42 82 44 83 50 84 43 85 45 86 46 87
REMARK SMILES IDX 47 88 48 89
REMARK H PARENT 7 7 11 23 70 42 38 53
REMARK Flexibility Score: inf
ROOT
ATOM      1  C   UNL A   1      40.456  22.527  26.375  1.00  0.00     0.118 C 
ENDROOT
BRANCH   1   2
ATOM      2  C   UNL A   1      40.180  21.116  26.864  1.00  0.00     0.042 C 
BRANCH   2   3
ATOM      3  C   UNL A   1      40.216  20.009  25.815  1.00  0.00     0.118 C 
BRANCH   3   4
ATOM      4  N   UNL A   1      41.239  19.030  26.127  1.00  0.00    -0.352 N 
ATOM      5  C   UNL A   1      42.604  18.981  26.068  1.00  0.00     0.258 C 
ATOM      6  O   UNL A   1      43.110  17.908  26.415  1.00  0.00    -0.269 OA
ATOM      7  H   UNL A   1      40.855  18.189  26.466  1.00  0.00     0.163 HD
BRANCH   5   8
ATOM      8  C   UNL A   1      43.555  20.087  25.724  1.00  0.00     0.118 A 
ATOM      9  C   UNL A   1      44.113  23.371  27.598  1.00  0.00     0.052 C 
ATOM     10  C   UNL A   1      44.289  22.357  26.502  1.00  0.00     0.028 A 
ATOM     11  C   UNL A   1      43.423  21.233  26.551  1.00  0.00     0.031 A 
ATOM     12  C   UNL A   1      45.262  22.393  25.494  1.00  0.00     0.279 A 
ATOM     13  C   UNL A   1      45.414  21.292  24.649  1.00  0.00     0.172 A 
ATOM     14  C   UNL A   1      44.606  20.146  24.816  1.00  0.00     0.289 A 
BRANCH  12  15
ATOM     15  N   UNL A   1      46.195  23.512  25.296  1.00  0.00     0.063 N 
ATOM     16  O   UNL A   1      47.046  23.702  26.178  1.00  0.00    -0.258 OA
ATOM     17  O   UNL A   1      46.115  24.169  24.252  1.00  0.00    -0.258 OA
ENDBRANCH  12  15
BRANCH  14  18
ATOM     18  N   UNL A   1      45.153  18.997  24.162  1.00  0.00     0.063 N 
ATOM     19  O   UNL A   1      46.027  18.379  24.776  1.00  0.00    -0.258 OA
ATOM     20  O   UNL A   1      44.821  18.828  22.981  1.00  0.00    -0.258 OA
ENDBRANCH  14  18
ENDBRANCH   5   8
ENDBRANCH   3   4
ENDBRANCH   2   3
ENDBRANCH   1   2
BRANCH   1  21
ATOM     21  N   UNL A   1      39.187  23.227  26.127  1.00  0.00    -0.352 N 
ATOM     22  C   UNL A   1      38.751  24.457  26.577  1.00  0.00     0.251 C 
ATOM     23  H   UNL A   1      38.550  22.745  25.551  1.00  0.00     0.163 HD
ATOM     24  O   UNL A   1      37.640  24.884  26.283  1.00  0.00    -0.269 OA
BRANCH  22  25
ATOM     25  C   UNL A   1      39.714  25.262  27.341  1.00  0.00     0.039 A 
ATOM     26  C   UNL A   1      39.626  25.169  28.731  1.00  0.00     0.014 A 
ATOM     27  C   UNL A   1      40.284  26.366  26.710  1.00  0.00     0.014 A 
ATOM     28  C   UNL A   1      39.843  26.310  29.488  1.00  0.00     0.010 A 
ATOM     29  C   UNL A   1      40.426  27.518  27.455  1.00  0.00     0.010 A 
ATOM     30  C   UNL A   1      40.116  27.502  28.822  1.00  0.00    -0.014 A 
BRANCH  30  31
ATOM     31  C   UNL A   1      40.116  28.794  29.484  1.00  0.00     0.031 A 
ATOM     32  C   UNL A   1      39.082  29.765  29.109  1.00  0.00     0.074 A 
ATOM     33  C   UNL A   1      41.030  29.105  30.428  1.00  0.00     0.049 A 
ATOM     34  N   UNL A   1      39.176  31.034  29.300  1.00  0.00    -0.248 NA
ATOM     35  C   UNL A   1      37.880  29.360  28.398  1.00  0.00     0.031 C 
ATOM     36  C   UNL A   1      40.987  30.222  31.363  1.00  0.00     0.029 A 
ATOM     37  N   UNL A   1      42.327  28.602  30.554  1.00  0.00    -0.354 N 
ATOM     38  C   UNL A   1      37.947  31.579  29.005  1.00  0.00     0.074 A 
ATOM     39  C   UNL A   1      37.228  30.521  28.338  1.00  0.00     0.031 C 
ATOM     40  C   UNL A   1      42.238  30.509  31.752  1.00  0.00     0.029 A 
ATOM     41  C   UNL A   1      43.133  29.687  30.958  1.00  0.00     0.049 A 
ATOM     42  H   UNL A   1      42.620  27.675  30.393  1.00  0.00     0.167 HD
ATOM     43  C   UNL A   1      37.645  32.807  29.508  1.00  0.00     0.034 A 
ATOM     44  C   UNL A   1      44.225  30.127  30.265  1.00  0.00     0.034 A 
ATOM     45  C   UNL A   1      38.831  33.436  30.121  1.00  0.00     0.049 A 
ATOM     46  C   UNL A   1      44.140  31.598  29.871  1.00  0.00     0.074 A 
ATOM     47  C   UNL A   1      39.279  33.600  31.423  1.00  0.00     0.029 A 
ATOM     48  N   UNL A   1      39.909  33.764  29.308  1.00  0.00    -0.354 N 
ATOM     49  N   UNL A   1      43.162  32.405  30.176  1.00  0.00    -0.248 NA
ATOM     50  C   UNL A   1      45.108  32.220  28.970  1.00  0.00     0.031 C 
ATOM     51  C   UNL A   1      40.644  34.016  31.381  1.00  0.00     0.029 A 
ATOM     52  C   UNL A   1      41.022  34.127  30.054  1.00  0.00     0.049 A 
ATOM     53  H   UNL A   1      39.885  33.743  28.324  1.00  0.00     0.167 HD
ATOM     54  C   UNL A   1      43.246  33.542  29.402  1.00  0.00     0.074 A 
ATOM     55  C   UNL A   1      44.495  33.376  28.675  1.00  0.00     0.031 C 
ATOM     56  C   UNL A   1      42.250  34.486  29.351  1.00  0.00     0.034 A 
BRANCH  43  57
ATOM     57  C   UNL A   1      36.223  33.317  29.723  1.00  0.00     0.023 A 
ATOM     58  C   UNL A   1      35.506  33.728  28.577  1.00  0.00     0.012 A 
ATOM     59  C   UNL A   1      35.563  33.522  30.958  1.00  0.00     0.148 A 
ATOM     60  C   UNL A   1      34.278  34.399  28.656  1.00  0.00     0.002 A 
ATOM     61  C   UNL A   1      34.373  34.250  31.046  1.00  0.00     0.091 A 
ATOM     62  F   UNL A   1      36.018  32.941  32.066  1.00  0.00    -0.205 F 
ATOM     63  C   UNL A   1      33.729  34.696  29.893  1.00  0.00     0.022 A 
BRANCH  61  64
ATOM     64  S   UNL A   1      33.645  34.722  32.628  1.00  0.00     0.127 S 
ATOM     65  O   UNL A   1      32.447  35.451  32.208  1.00  0.00    -0.237 OA
ATOM     66  O   UNL A   1      33.381  33.427  33.251  1.00  0.00    -0.237 OA
ATOM     67  O   UNL A   1      34.636  35.550  33.306  1.00  0.00    -0.744 OA
ENDBRANCH  61  64
ENDBRANCH  43  57
BRANCH  44  68
ATOM     68  C   UNL A   1      44.855  29.058  29.429  1.00  0.00     0.023 A 
ATOM     69  C   UNL A   1      45.408  27.945  30.108  1.00  0.00     0.012 A 
ATOM     70  C   UNL A   1      44.543  28.931  28.066  1.00  0.00     0.148 A 
ATOM     71  C   UNL A   1      45.455  26.691  29.495  1.00  0.00     0.002 A 
ATOM     72  C   UNL A   1      44.619  27.683  27.456  1.00  0.00     0.091 A 
ATOM     73  F   UNL A   1      44.096  29.997  27.393  1.00  0.00    -0.205 F 
ATOM     74  C   UNL A   1      45.016  26.552  28.182  1.00  0.00     0.022 A 
BRANCH  72  75
ATOM     75  S   UNL A   1      44.085  27.493  25.753  1.00  0.00     0.127 S 
ATOM     76  O   UNL A   1      43.002  28.467  25.679  1.00  0.00    -0.237 OA
ATOM     77  O   UNL A   1      45.287  27.846  25.001  1.00  0.00    -0.237 OA
ATOM     78  O   UNL A   1      43.711  26.088  25.657  1.00  0.00    -0.744 OA
ENDBRANCH  72  75
ENDBRANCH  44  68
BRANCH  56  79
ATOM     79  C   UNL A   1      42.312  35.797  28.560  1.00  0.00     0.023 A 
ATOM     80  C   UNL A   1      41.925  35.878  27.208  1.00  0.00     0.012 A 
ATOM     81  C   UNL A   1      42.845  36.992  29.118  1.00  0.00     0.148 A 
ATOM     82  C   UNL A   1      41.906  37.087  26.501  1.00  0.00     0.002 A 
ATOM     83  C   UNL A   1      42.860  38.190  28.406  1.00  0.00     0.091 A 
ATOM     84  F   UNL A   1      43.403  36.971  30.333  1.00  0.00    -0.205 F 
ATOM     85  C   UNL A   1      42.354  38.249  27.107  1.00  0.00     0.022 A 
BRANCH  83  86
ATOM     86  S   UNL A   1      43.555  39.708  29.077  1.00  0.00     0.127 S 
ATOM     87  O   UNL A   1      44.872  39.253  29.522  1.00  0.00    -0.237 OA
ATOM     88  O   UNL A   1      43.578  40.577  27.900  1.00  0.00    -0.237 OA
ATOM     89  O   UNL A   1      42.653  40.138  30.134  1.00  0.00    -0.744 OA
ENDBRANCH  83  86
ENDBRANCH  56  79
ENDBRANCH  30  31
ENDBRANCH  22  25
ENDBRANCH   1  21
TORSDOF 15
ENDMDL
