MODEL 1
REMARK VINA RESULT:     -10.5      0.000      0.000
REMARK SMILES CO[C@H]1C[C@@H](C(=O)NCCCNC(=O)c2ccc(-c3c4nc(c(-c5cccc(S(=O)(=O)[O-])c5F)c5ccc([nH]5)c(-c5cccc(S(=O)(=O)[O-])c5F)c5nc(c(-c6cccc(S(=O)(=O)[O-])c6F)c6ccc3[nH]6)C=C5)C=C4)cc2)N(C(=O)[C@@H](CCSC)NC(N)=O)C1
REMARK SMILES IDX 9 1 8 2 6 3 7 4 5 6 3 7 4 8 90 9 78 10 2 11 1 12 79 13 80 14
REMARK SMILES IDX 81 15 82 16 83 17 84 18 85 19 86 20 87 21 88 23 89 24 10 27
REMARK SMILES IDX 11 28 12 29 13 30 14 32 15 33 16 34 77 35 17 36 76 37 18 38
REMARK SMILES IDX 19 39 20 40 70 41 21 42 75 43 69 44 71 45 22 46 74 47 68 48
REMARK SMILES IDX 67 49 23 51 55 52 35 53 54 54 36 55 39 56 53 57 72 58 37 59
REMARK SMILES IDX 38 60 52 62 73 63 40 64 24 65 25 66 33 67 26 68 28 69 34 70
REMARK SMILES IDX 27 71 29 72 30 73 31 74 32 75 56 76 57 77 65 78 58 79 60 80
REMARK SMILES IDX 66 81 59 82 61 83 62 84 63 85 64 86 41 87 42 88 50 89 43 90
REMARK SMILES IDX 45 91 51 92 44 93 46 94 47 95 48 96 49 97
REMARK H PARENT 8 5 86 22 88 25 88 26 12 31 71 50 39 61
REMARK Flexibility Score: inf
ROOT
ATOM      1  C   UNL A   1      32.437  26.848  26.236  1.00  0.00     0.117 C 
ENDROOT
BRANCH   1   2
ATOM      2  N   UNL A   1      33.147  26.749  24.968  1.00  0.00    -0.354 N 
ATOM      3  C   UNL A   1      33.656  25.659  24.315  1.00  0.00     0.242 C 
ATOM      4  O   UNL A   1      34.050  25.844  23.162  1.00  0.00    -0.273 OA
ATOM      5  H   UNL A   1      33.282  27.606  24.503  1.00  0.00     0.163 HD
BRANCH   3   6
ATOM      6  C   UNL A   1      33.874  24.321  25.066  1.00  0.00     0.177 C 
ATOM      7  C   UNL A   1      35.921  23.286  25.979  1.00  0.00     0.139 C 
ATOM      8  C   UNL A   1      35.357  24.584  25.472  1.00  0.00     0.069 C 
ATOM      9  C   UNL A   1      35.099  22.253  25.229  1.00  0.00     0.152 C 
ATOM     10  N   UNL A   1      33.961  22.912  24.554  1.00  0.00    -0.326 N 
BRANCH   7  11
ATOM     11  O   UNL A   1      37.301  23.087  25.664  1.00  0.00    -0.380 OA
ATOM     12  C   UNL A   1      37.581  21.955  24.854  1.00  0.00     0.195 C 
ENDBRANCH   7  11
BRANCH  10  13
ATOM     13  C   UNL A   1      33.098  21.972  23.997  1.00  0.00     0.246 C 
ATOM     14  O   UNL A   1      32.882  22.070  22.768  1.00  0.00    -0.272 OA
BRANCH  13  15
ATOM     15  C   UNL A   1      32.188  20.919  24.693  1.00  0.00     0.174 C 
BRANCH  15  16
ATOM     16  C   UNL A   1      32.546  19.444  24.805  1.00  0.00     0.046 C 
BRANCH  16  17
ATOM     17  C   UNL A   1      32.319  18.536  23.608  1.00  0.00     0.072 C 
BRANCH  17  18
ATOM     18  S   UNL A   1      33.556  17.266  23.183  1.00  0.00    -0.165 SA
ATOM     19  C   UNL A   1      34.851  17.646  24.402  1.00  0.00     0.085 C 
ENDBRANCH  17  18
ENDBRANCH  16  17
ENDBRANCH  15  16
BRANCH  15  20
ATOM     20  N   UNL A   1      31.521  21.440  25.878  1.00  0.00    -0.327 N 
ATOM     21  C   UNL A   1      30.630  22.472  25.846  1.00  0.00     0.312 C 
ATOM     22  H   UNL A   1      31.723  21.024  26.747  1.00  0.00     0.166 HD
ATOM     23  N   UNL A   1      29.779  22.433  26.907  1.00  0.00    -0.352 N 
ATOM     24  O   UNL A   1      30.521  23.305  24.970  1.00  0.00    -0.249 OA
ATOM     25  H   UNL A   1      29.891  21.747  27.602  1.00  0.00     0.161 HD
ATOM     26  H   UNL A   1      29.052  23.093  26.978  1.00  0.00     0.161 HD
ENDBRANCH  15  20
ENDBRANCH  13  15
ENDBRANCH  10  13
ENDBRANCH   3   6
ENDBRANCH   1   2
BRANCH   1  27
ATOM     27  C   UNL A   1      32.750  28.162  26.959  1.00  0.00     0.042 C 
BRANCH  27  28
ATOM     28  C   UNL A   1      33.790  29.039  26.260  1.00  0.00     0.118 C 
BRANCH  28  29
ATOM     29  N   UNL A   1      33.810  30.414  26.739  1.00  0.00    -0.352 N 
ATOM     30  C   UNL A   1      34.706  31.047  27.571  1.00  0.00     0.251 C 
ATOM     31  H   UNL A   1      33.070  30.977  26.419  1.00  0.00     0.163 HD
ATOM     32  O   UNL A   1      34.481  32.198  27.937  1.00  0.00    -0.269 OA
BRANCH  30  33
ATOM     33  C   UNL A   1      35.906  30.336  28.064  1.00  0.00     0.039 A 
ATOM     34  C   UNL A   1      37.076  30.380  27.299  1.00  0.00     0.014 A 
ATOM     35  C   UNL A   1      35.893  29.641  29.274  1.00  0.00     0.014 A 
ATOM     36  C   UNL A   1      38.248  29.796  27.788  1.00  0.00     0.010 A 
ATOM     37  C   UNL A   1      37.083  29.145  29.803  1.00  0.00     0.010 A 
ATOM     38  C   UNL A   1      38.274  29.207  29.063  1.00  0.00    -0.014 A 
BRANCH  38  39
ATOM     39  C   UNL A   1      39.531  28.646  29.629  1.00  0.00     0.031 A 
ATOM     40  C   UNL A   1      40.149  29.254  30.863  1.00  0.00     0.074 A 
ATOM     41  C   UNL A   1      40.164  27.639  28.993  1.00  0.00     0.049 A 
ATOM     42  N   UNL A   1      41.255  28.926  31.480  1.00  0.00    -0.248 NA
ATOM     43  C   UNL A   1      39.453  30.406  31.461  1.00  0.00     0.031 C 
ATOM     44  C   UNL A   1      39.731  27.024  27.736  1.00  0.00     0.029 A 
ATOM     45  N   UNL A   1      41.318  26.965  29.308  1.00  0.00    -0.354 N 
ATOM     46  C   UNL A   1      41.410  29.854  32.504  1.00  0.00     0.074 A 
ATOM     47  C   UNL A   1      40.309  30.786  32.397  1.00  0.00     0.031 C 
ATOM     48  C   UNL A   1      40.597  26.055  27.396  1.00  0.00     0.029 A 
ATOM     49  C   UNL A   1      41.657  25.989  28.398  1.00  0.00     0.049 A 
ATOM     50  H   UNL A   1      41.855  27.161  30.110  1.00  0.00     0.167 HD
ATOM     51  C   UNL A   1      42.355  29.906  33.473  1.00  0.00     0.034 A 
ATOM     52  C   UNL A   1      42.695  25.130  28.379  1.00  0.00     0.034 A 
ATOM     53  C   UNL A   1      43.407  28.938  33.623  1.00  0.00     0.049 A 
ATOM     54  C   UNL A   1      43.677  25.146  29.521  1.00  0.00     0.074 A 
ATOM     55  C   UNL A   1      44.356  28.844  34.625  1.00  0.00     0.029 A 
ATOM     56  N   UNL A   1      43.643  27.888  32.749  1.00  0.00    -0.354 N 
ATOM     57  N   UNL A   1      43.707  25.928  30.572  1.00  0.00    -0.248 NA
ATOM     58  C   UNL A   1      44.739  24.129  29.497  1.00  0.00     0.031 C 
ATOM     59  C   UNL A   1      45.171  27.740  34.353  1.00  0.00     0.029 A 
ATOM     60  C   UNL A   1      44.719  27.137  33.190  1.00  0.00     0.049 A 
ATOM     61  H   UNL A   1      43.123  27.704  31.934  1.00  0.00     0.167 HD
ATOM     62  C   UNL A   1      44.764  25.474  31.354  1.00  0.00     0.074 A 
ATOM     63  C   UNL A   1      45.333  24.333  30.666  1.00  0.00     0.031 C 
ATOM     64  C   UNL A   1      45.235  25.968  32.527  1.00  0.00     0.034 A 
BRANCH  51  65
ATOM     65  C   UNL A   1      42.246  31.011  34.493  1.00  0.00     0.023 A 
ATOM     66  C   UNL A   1      41.547  30.777  35.695  1.00  0.00     0.012 A 
ATOM     67  C   UNL A   1      42.862  32.261  34.285  1.00  0.00     0.148 A 
ATOM     68  C   UNL A   1      41.425  31.781  36.655  1.00  0.00     0.002 A 
ATOM     69  C   UNL A   1      42.775  33.242  35.267  1.00  0.00     0.091 A 
ATOM     70  F   UNL A   1      43.504  32.474  33.127  1.00  0.00    -0.205 F 
ATOM     71  C   UNL A   1      42.048  33.008  36.446  1.00  0.00     0.022 A 
BRANCH  69  72
ATOM     72  S   UNL A   1      43.608  34.828  35.128  1.00  0.00     0.127 S 
ATOM     73  O   UNL A   1      45.010  34.419  35.058  1.00  0.00    -0.237 OA
ATOM     74  O   UNL A   1      43.062  35.353  33.877  1.00  0.00    -0.237 OA
ATOM     75  O   UNL A   1      43.234  35.582  36.316  1.00  0.00    -0.744 OA
ENDBRANCH  69  72
ENDBRANCH  51  65
BRANCH  52  76
ATOM     76  C   UNL A   1      42.804  24.114  27.292  1.00  0.00     0.023 A 
ATOM     77  C   UNL A   1      43.568  24.414  26.146  1.00  0.00     0.012 A 
ATOM     78  C   UNL A   1      42.183  22.855  27.392  1.00  0.00     0.148 A 
ATOM     79  C   UNL A   1      43.681  23.493  25.104  1.00  0.00     0.002 A 
ATOM     80  C   UNL A   1      42.344  21.921  26.374  1.00  0.00     0.091 A 
ATOM     81  F   UNL A   1      41.452  22.591  28.484  1.00  0.00    -0.205 F 
ATOM     82  C   UNL A   1      43.078  22.244  25.221  1.00  0.00     0.022 A 
BRANCH  80  83
ATOM     83  S   UNL A   1      41.717  20.243  26.503  1.00  0.00     0.127 S 
ATOM     84  O   UNL A   1      40.274  20.463  26.539  1.00  0.00    -0.237 OA
ATOM     85  O   UNL A   1      42.218  19.634  25.268  1.00  0.00    -0.237 OA
ATOM     86  O   UNL A   1      42.309  19.697  27.717  1.00  0.00    -0.744 OA
ENDBRANCH  80  83
ENDBRANCH  52  76
BRANCH  64  87
ATOM     87  C   UNL A   1      46.399  25.257  33.164  1.00  0.00     0.023 A 
ATOM     88  C   UNL A   1      46.168  24.263  34.135  1.00  0.00     0.012 A 
ATOM     89  C   UNL A   1      47.720  25.532  32.758  1.00  0.00     0.148 A 
ATOM     90  C   UNL A   1      47.234  23.581  34.719  1.00  0.00     0.002 A 
ATOM     91  C   UNL A   1      48.774  24.813  33.309  1.00  0.00     0.091 A 
ATOM     92  F   UNL A   1      47.925  26.496  31.848  1.00  0.00    -0.205 F 
ATOM     93  C   UNL A   1      48.535  23.847  34.299  1.00  0.00     0.022 A 
BRANCH  91  94
ATOM     94  S   UNL A   1      50.468  25.031  32.750  1.00  0.00     0.127 S 
ATOM     95  O   UNL A   1      50.738  26.411  33.146  1.00  0.00    -0.237 OA
ATOM     96  O   UNL A   1      51.189  24.021  33.527  1.00  0.00    -0.237 OA
ATOM     97  O   UNL A   1      50.443  24.777  31.316  1.00  0.00    -0.744 OA
ENDBRANCH  91  94
ENDBRANCH  64  87
ENDBRANCH  38  39
ENDBRANCH  30  33
ENDBRANCH  28  29
ENDBRANCH  27  28
ENDBRANCH   1  27
TORSDOF 20
ENDMDL
MODEL 2
REMARK VINA RESULT:     -10.2      4.126      8.970
REMARK SMILES CO[C@H]1C[C@@H](C(=O)NCCCNC(=O)c2ccc(-c3c4nc(c(-c5cccc(S(=O)(=O)[O-])c5F)c5ccc([nH]5)c(-c5cccc(S(=O)(=O)[O-])c5F)c5nc(c(-c6cccc(S(=O)(=O)[O-])c6F)c6ccc3[nH]6)C=C5)C=C4)cc2)N(C(=O)[C@@H](CCSC)NC(N)=O)C1
REMARK SMILES IDX 9 1 8 2 6 3 7 4 5 6 3 7 4 8 90 9 78 10 2 11 1 12 79 13 80 14
REMARK SMILES IDX 81 15 82 16 83 17 84 18 85 19 86 20 87 21 88 23 89 24 10 27
REMARK SMILES IDX 11 28 12 29 13 30 14 32 15 33 16 34 77 35 17 36 76 37 18 38
REMARK SMILES IDX 19 39 20 40 70 41 21 42 75 43 69 44 71 45 22 46 74 47 68 48
REMARK SMILES IDX 67 49 23 51 55 52 35 53 54 54 36 55 39 56 53 57 72 58 37 59
REMARK SMILES IDX 38 60 52 62 73 63 40 64 24 65 25 66 33 67 26 68 28 69 34 70
REMARK SMILES IDX 27 71 29 72 30 73 31 74 32 75 56 76 57 77 65 78 58 79 60 80
REMARK SMILES IDX 66 81 59 82 61 83 62 84 63 85 64 86 41 87 42 88 50 89 43 90
REMARK SMILES IDX 45 91 51 92 44 93 46 94 47 95 48 96 49 97
REMARK H PARENT 8 5 86 22 88 25 88 26 12 31 71 50 39 61
REMARK Flexibility Score: inf
ROOT
ATOM      1  C   UNL A   1      32.598  30.474  26.561  1.00  0.00     0.117 C 
ENDROOT
BRANCH   1   2
ATOM      2  N   UNL A   1      31.772  29.365  27.018  1.00  0.00    -0.354 N 
ATOM      3  C   UNL A   1      31.598  28.111  26.499  1.00  0.00     0.242 C 
ATOM      4  O   UNL A   1      30.974  27.308  27.197  1.00  0.00    -0.273 OA
ATOM      5  H   UNL A   1      31.253  29.547  27.835  1.00  0.00     0.163 HD
BRANCH   3   6
ATOM      6  C   UNL A   1      32.018  27.796  25.041  1.00  0.00     0.177 C 
ATOM      7  C   UNL A   1      31.124  28.599  22.883  1.00  0.00     0.139 C 
ATOM      8  C   UNL A   1      31.128  28.881  24.361  1.00  0.00     0.069 C 
ATOM      9  C   UNL A   1      31.349  27.098  22.834  1.00  0.00     0.152 C 
ATOM     10  N   UNL A   1      31.732  26.604  24.173  1.00  0.00    -0.326 N 
BRANCH   7  11
ATOM     11  O   UNL A   1      29.885  28.896  22.236  1.00  0.00    -0.380 OA
ATOM     12  C   UNL A   1      28.724  28.426  22.903  1.00  0.00     0.195 C 
ENDBRANCH   7  11
BRANCH  10  13
ATOM     13  C   UNL A   1      32.106  25.264  24.124  1.00  0.00     0.246 C 
ATOM     14  O   UNL A   1      32.127  24.731  22.991  1.00  0.00    -0.272 OA
BRANCH  13  15
ATOM     15  C   UNL A   1      32.319  24.245  25.280  1.00  0.00     0.174 C 
BRANCH  15  16
ATOM     16  C   UNL A   1      33.614  24.132  26.071  1.00  0.00     0.046 C 
BRANCH  16  17
ATOM     17  C   UNL A   1      34.789  23.384  25.463  1.00  0.00     0.072 C 
BRANCH  17  18
ATOM     18  S   UNL A   1      35.258  21.747  26.113  1.00  0.00    -0.165 SA
ATOM     19  C   UNL A   1      33.916  21.467  27.307  1.00  0.00     0.085 C 
ENDBRANCH  17  18
ENDBRANCH  16  17
ENDBRANCH  15  16
BRANCH  15  20
ATOM     20  N   UNL A   1      31.129  24.056  26.097  1.00  0.00    -0.327 N 
ATOM     21  C   UNL A   1      30.575  22.835  26.347  1.00  0.00     0.312 C 
ATOM     22  H   UNL A   1      30.702  24.852  26.490  1.00  0.00     0.166 HD
ATOM     23  N   UNL A   1      29.847  22.840  27.496  1.00  0.00    -0.352 N 
ATOM     24  O   UNL A   1      30.736  21.822  25.698  1.00  0.00    -0.249 OA
ATOM     25  H   UNL A   1      29.732  23.676  28.002  1.00  0.00     0.161 HD
ATOM     26  H   UNL A   1      29.435  22.007  27.821  1.00  0.00     0.161 HD
ENDBRANCH  15  20
ENDBRANCH  13  15
ENDBRANCH  10  13
ENDBRANCH   3   6
ENDBRANCH   1   2
BRANCH   1  27
ATOM     27  C   UNL A   1      32.102  31.815  27.111  1.00  0.00     0.042 C 
BRANCH  27  28
ATOM     28  C   UNL A   1      33.141  32.939  27.074  1.00  0.00     0.118 C 
BRANCH  28  29
ATOM     29  N   UNL A   1      32.668  34.188  27.656  1.00  0.00    -0.352 N 
ATOM     30  C   UNL A   1      33.094  34.854  28.783  1.00  0.00     0.251 C 
ATOM     31  H   UNL A   1      31.933  34.622  27.168  1.00  0.00     0.163 HD
ATOM     32  O   UNL A   1      32.486  35.853  29.160  1.00  0.00    -0.269 OA
BRANCH  30  33
ATOM     33  C   UNL A   1      34.243  34.349  29.567  1.00  0.00     0.039 A 
ATOM     34  C   UNL A   1      33.993  33.621  30.734  1.00  0.00     0.014 A 
ATOM     35  C   UNL A   1      35.558  34.574  29.155  1.00  0.00     0.014 A 
ATOM     36  C   UNL A   1      35.059  33.054  31.440  1.00  0.00     0.010 A 
ATOM     37  C   UNL A   1      36.608  33.929  29.804  1.00  0.00     0.010 A 
ATOM     38  C   UNL A   1      36.374  33.168  30.960  1.00  0.00    -0.014 A 
BRANCH  38  39
ATOM     39  C   UNL A   1      37.510  32.509  31.659  1.00  0.00     0.031 A 
ATOM     40  C   UNL A   1      38.268  31.388  30.993  1.00  0.00     0.074 A 
ATOM     41  C   UNL A   1      37.817  32.861  32.924  1.00  0.00     0.049 A 
ATOM     42  N   UNL A   1      39.260  30.672  31.456  1.00  0.00    -0.248 NA
ATOM     43  C   UNL A   1      37.828  30.993  29.644  1.00  0.00     0.031 C 
ATOM     44  C   UNL A   1      37.103  33.860  33.724  1.00  0.00     0.029 A 
ATOM     45  N   UNL A   1      38.800  32.407  33.769  1.00  0.00    -0.354 N 
ATOM     46  C   UNL A   1      39.531  29.719  30.481  1.00  0.00     0.074 A 
ATOM     47  C   UNL A   1      38.569  29.919  29.419  1.00  0.00     0.031 C 
ATOM     48  C   UNL A   1      37.681  33.953  34.934  1.00  0.00     0.029 A 
ATOM     49  C   UNL A   1      38.794  33.011  35.005  1.00  0.00     0.049 A 
ATOM     50  H   UNL A   1      39.451  31.712  33.514  1.00  0.00     0.167 HD
ATOM     51  C   UNL A   1      40.515  28.789  30.445  1.00  0.00     0.034 A 
ATOM     52  C   UNL A   1      39.600  32.837  36.072  1.00  0.00     0.034 A 
ATOM     53  C   UNL A   1      41.516  28.639  31.466  1.00  0.00     0.049 A 
ATOM     54  C   UNL A   1      40.745  31.865  35.969  1.00  0.00     0.074 A 
ATOM     55  C   UNL A   1      42.612  27.794  31.482  1.00  0.00     0.029 A 
ATOM     56  N   UNL A   1      41.548  29.357  32.652  1.00  0.00    -0.354 N 
ATOM     57  N   UNL A   1      41.085  31.093  34.967  1.00  0.00    -0.248 NA
ATOM     58  C   UNL A   1      41.648  31.779  37.127  1.00  0.00     0.031 C 
ATOM     59  C   UNL A   1      43.303  27.998  32.681  1.00  0.00     0.029 A 
ATOM     60  C   UNL A   1      42.647  28.982  33.404  1.00  0.00     0.049 A 
ATOM     61  H   UNL A   1      40.886  30.034  32.919  1.00  0.00     0.167 HD
ATOM     62  C   UNL A   1      42.259  30.458  35.356  1.00  0.00     0.074 A 
ATOM     63  C   UNL A   1      42.586  30.956  36.677  1.00  0.00     0.031 C 
ATOM     64  C   UNL A   1      42.993  29.531  34.689  1.00  0.00     0.034 A 
BRANCH  51  65
ATOM     65  C   UNL A   1      40.599  27.909  29.224  1.00  0.00     0.023 A 
ATOM     66  C   UNL A   1      39.760  26.779  29.127  1.00  0.00     0.012 A 
ATOM     67  C   UNL A   1      41.470  28.215  28.161  1.00  0.00     0.148 A 
ATOM     68  C   UNL A   1      39.818  25.943  28.013  1.00  0.00     0.002 A 
ATOM     69  C   UNL A   1      41.488  27.402  27.032  1.00  0.00     0.091 A 
ATOM     70  F   UNL A   1      42.276  29.280  28.278  1.00  0.00    -0.205 F 
ATOM     71  C   UNL A   1      40.673  26.260  26.962  1.00  0.00     0.022 A 
BRANCH  69  72
ATOM     72  S   UNL A   1      42.497  27.769  25.591  1.00  0.00     0.127 S 
ATOM     73  O   UNL A   1      41.941  29.051  25.161  1.00  0.00    -0.237 OA
ATOM     74  O   UNL A   1      43.839  27.849  26.167  1.00  0.00    -0.237 OA
ATOM     75  O   UNL A   1      42.298  26.660  24.670  1.00  0.00    -0.744 OA
ENDBRANCH  69  72
ENDBRANCH  51  65
BRANCH  52  76
ATOM     76  C   UNL A   1      39.413  33.672  37.293  1.00  0.00     0.023 A 
ATOM     77  C   UNL A   1      39.963  34.969  37.329  1.00  0.00     0.012 A 
ATOM     78  C   UNL A   1      38.682  33.206  38.403  1.00  0.00     0.148 A 
ATOM     79  C   UNL A   1      39.819  35.773  38.461  1.00  0.00     0.002 A 
ATOM     80  C   UNL A   1      38.496  34.032  39.506  1.00  0.00     0.091 A 
ATOM     81  F   UNL A   1      38.176  31.966  38.355  1.00  0.00    -0.205 F 
ATOM     82  C   UNL A   1      39.079  35.309  39.545  1.00  0.00     0.022 A 
BRANCH  80  83
ATOM     83  S   UNL A   1      37.445  33.569  40.887  1.00  0.00     0.127 S 
ATOM     84  O   UNL A   1      37.304  34.837  41.596  1.00  0.00    -0.237 OA
ATOM     85  O   UNL A   1      36.235  33.104  40.206  1.00  0.00    -0.237 OA
ATOM     86  O   UNL A   1      38.169  32.521  41.593  1.00  0.00    -0.744 OA
ENDBRANCH  80  83
ENDBRANCH  52  76
BRANCH  64  87
ATOM     87  C   UNL A   1      44.242  29.021  35.356  1.00  0.00     0.023 A 
ATOM     88  C   UNL A   1      45.486  29.618  35.067  1.00  0.00     0.012 A 
ATOM     89  C   UNL A   1      44.178  27.991  36.315  1.00  0.00     0.148 A 
ATOM     90  C   UNL A   1      46.649  29.171  35.692  1.00  0.00     0.002 A 
ATOM     91  C   UNL A   1      45.334  27.584  36.969  1.00  0.00     0.091 A 
ATOM     92  F   UNL A   1      42.990  27.418  36.563  1.00  0.00    -0.205 F 
ATOM     93  C   UNL A   1      46.573  28.164  36.651  1.00  0.00     0.022 A 
BRANCH  91  94
ATOM     94  S   UNL A   1      45.302  26.361  38.285  1.00  0.00     0.127 S 
ATOM     95  O   UNL A   1      44.995  25.137  37.547  1.00  0.00    -0.237 OA
ATOM     96  O   UNL A   1      46.665  26.428  38.813  1.00  0.00    -0.237 OA
ATOM     97  O   UNL A   1      44.276  26.813  39.216  1.00  0.00    -0.744 OA
ENDBRANCH  91  94
ENDBRANCH  64  87
ENDBRANCH  38  39
ENDBRANCH  30  33
ENDBRANCH  28  29
ENDBRANCH  27  28
ENDBRANCH   1  27
TORSDOF 20
ENDMDL
MODEL 3
REMARK VINA RESULT:     -10.2      3.018      3.791
REMARK SMILES CO[C@H]1C[C@@H](C(=O)NCCCNC(=O)c2ccc(-c3c4nc(c(-c5cccc(S(=O)(=O)[O-])c5F)c5ccc([nH]5)c(-c5cccc(S(=O)(=O)[O-])c5F)c5nc(c(-c6cccc(S(=O)(=O)[O-])c6F)c6ccc3[nH]6)C=C5)C=C4)cc2)N(C(=O)[C@@H](CCSC)NC(N)=O)C1
REMARK SMILES IDX 9 1 8 2 6 3 7 4 5 6 3 7 4 8 90 9 78 10 2 11 1 12 79 13 80 14
REMARK SMILES IDX 81 15 82 16 83 17 84 18 85 19 86 20 87 21 88 23 89 24 10 27
REMARK SMILES IDX 11 28 12 29 13 30 14 32 15 33 16 34 77 35 17 36 76 37 18 38
REMARK SMILES IDX 19 39 20 40 70 41 21 42 75 43 69 44 71 45 22 46 74 47 68 48
REMARK SMILES IDX 67 49 23 51 55 52 35 53 54 54 36 55 39 56 53 57 72 58 37 59
REMARK SMILES IDX 38 60 52 62 73 63 40 64 24 65 25 66 33 67 26 68 28 69 34 70
REMARK SMILES IDX 27 71 29 72 30 73 31 74 32 75 56 76 57 77 65 78 58 79 60 80
REMARK SMILES IDX 66 81 59 82 61 83 62 84 63 85 64 86 41 87 42 88 50 89 43 90
REMARK SMILES IDX 45 91 51 92 44 93 46 94 47 95 48 96 49 97
REMARK H PARENT 8 5 86 22 88 25 88 26 12 31 71 50 39 61
REMARK Flexibility Score: inf
ROOT
ATOM      1  C   UNL A   1      31.797  27.771  25.750  1.00  0.00     0.117 C 
ENDROOT
BRANCH   1   2
ATOM      2  N   UNL A   1      30.531  27.488  25.086  1.00  0.00    -0.354 N 
ATOM      3  C   UNL A   1      29.963  26.298  24.722  1.00  0.00     0.242 C 
ATOM      4  O   UNL A   1      28.793  26.343  24.335  1.00  0.00    -0.273 OA
ATOM      5  H   UNL A   1      29.997  28.284  24.861  1.00  0.00     0.163 HD
BRANCH   3   6
ATOM      6  C   UNL A   1      30.817  25.007  24.645  1.00  0.00     0.177 C 
ATOM      7  C   UNL A   1      31.287  23.267  26.333  1.00  0.00     0.139 C 
ATOM      8  C   UNL A   1      30.367  24.413  26.015  1.00  0.00     0.069 C 
ATOM      9  C   UNL A   1      32.565  23.661  25.614  1.00  0.00     0.152 C 
ATOM     10  N   UNL A   1      32.304  24.810  24.721  1.00  0.00    -0.326 N 
BRANCH   7  11
ATOM     11  O   UNL A   1      31.575  23.119  27.725  1.00  0.00    -0.380 OA
ATOM     12  C   UNL A   1      32.806  22.478  28.025  1.00  0.00     0.195 C 
ENDBRANCH   7  11
BRANCH  10  13
ATOM     13  C   UNL A   1      33.413  25.087  23.926  1.00  0.00     0.246 C 
ATOM     14  O   UNL A   1      34.025  26.151  24.171  1.00  0.00    -0.272 OA
BRANCH  13  15
ATOM     15  C   UNL A   1      33.916  24.380  22.634  1.00  0.00     0.174 C 
BRANCH  15  16
ATOM     16  C   UNL A   1      34.719  23.087  22.644  1.00  0.00     0.046 C 
BRANCH  16  17
ATOM     17  C   UNL A   1      36.012  23.027  23.440  1.00  0.00     0.072 C 
BRANCH  17  18
ATOM     18  S   UNL A   1      35.999  22.387  25.147  1.00  0.00    -0.165 SA
ATOM     19  C   UNL A   1      37.396  21.224  25.075  1.00  0.00     0.085 C 
ENDBRANCH  17  18
ENDBRANCH  16  17
ENDBRANCH  15  16
BRANCH  15  20
ATOM     20  N   UNL A   1      32.960  24.453  21.538  1.00  0.00    -0.327 N 
ATOM     21  C   UNL A   1      32.376  25.615  21.126  1.00  0.00     0.312 C 
ATOM     22  H   UNL A   1      32.724  23.620  21.069  1.00  0.00     0.166 HD
ATOM     23  N   UNL A   1      31.969  25.541  19.831  1.00  0.00    -0.352 N 
ATOM     24  O   UNL A   1      32.272  26.639  21.771  1.00  0.00    -0.249 OA
ATOM     25  H   UNL A   1      32.065  24.698  19.333  1.00  0.00     0.161 HD
ATOM     26  H   UNL A   1      31.576  26.330  19.393  1.00  0.00     0.161 HD
ENDBRANCH  15  20
ENDBRANCH  13  15
ENDBRANCH  10  13
ENDBRANCH   3   6
ENDBRANCH   1   2
BRANCH   1  27
ATOM     27  C   UNL A   1      32.117  29.269  25.746  1.00  0.00     0.042 C 
BRANCH  27  28
ATOM     28  C   UNL A   1      32.657  29.805  27.074  1.00  0.00     0.118 C 
BRANCH  28  29
ATOM     29  N   UNL A   1      32.745  31.258  27.123  1.00  0.00    -0.352 N 
ATOM     30  C   UNL A   1      33.751  32.067  27.600  1.00  0.00     0.251 C 
ATOM     31  H   UNL A   1      31.965  31.734  26.758  1.00  0.00     0.163 HD
ATOM     32  O   UNL A   1      33.580  33.283  27.642  1.00  0.00    -0.269 OA
BRANCH  30  33
ATOM     33  C   UNL A   1      35.011  31.481  28.107  1.00  0.00     0.039 A 
ATOM     34  C   UNL A   1      36.138  32.300  28.217  1.00  0.00     0.014 A 
ATOM     35  C   UNL A   1      35.087  30.139  28.485  1.00  0.00     0.014 A 
ATOM     36  C   UNL A   1      37.314  31.793  28.781  1.00  0.00     0.010 A 
ATOM     37  C   UNL A   1      36.226  29.665  29.134  1.00  0.00     0.010 A 
ATOM     38  C   UNL A   1      37.357  30.482  29.282  1.00  0.00    -0.014 A 
BRANCH  38  39
ATOM     39  C   UNL A   1      38.576  29.951  29.950  1.00  0.00     0.031 A 
ATOM     40  C   UNL A   1      38.957  30.428  31.329  1.00  0.00     0.074 A 
ATOM     41  C   UNL A   1      39.387  29.098  29.291  1.00  0.00     0.049 A 
ATOM     42  N   UNL A   1      39.997  30.107  32.055  1.00  0.00    -0.248 NA
ATOM     43  C   UNL A   1      38.075  31.424  31.960  1.00  0.00     0.031 C 
ATOM     44  C   UNL A   1      39.191  28.633  27.916  1.00  0.00     0.029 A 
ATOM     45  N   UNL A   1      40.550  28.483  29.683  1.00  0.00    -0.354 N 
ATOM     46  C   UNL A   1      39.919  30.891  33.201  1.00  0.00     0.074 A 
ATOM     47  C   UNL A   1      38.754  31.736  33.053  1.00  0.00     0.031 C 
ATOM     48  C   UNL A   1      40.189  27.795  27.586  1.00  0.00     0.029 A 
ATOM     49  C   UNL A   1      41.105  27.676  28.717  1.00  0.00     0.049 A 
ATOM     50  H   UNL A   1      40.951  28.607  30.574  1.00  0.00     0.167 HD
ATOM     51  C   UNL A   1      40.714  30.883  34.297  1.00  0.00     0.034 A 
ATOM     52  C   UNL A   1      42.217  26.915  28.741  1.00  0.00     0.034 A 
ATOM     53  C   UNL A   1      41.828  29.992  34.475  1.00  0.00     0.049 A 
ATOM     54  C   UNL A   1      43.029  26.850  30.007  1.00  0.00     0.074 A 
ATOM     55  C   UNL A   1      42.638  29.836  35.586  1.00  0.00     0.029 A 
ATOM     56  N   UNL A   1      42.285  29.099  33.519  1.00  0.00    -0.354 N 
ATOM     57  N   UNL A   1      42.838  27.476  31.143  1.00  0.00    -0.248 NA
ATOM     58  C   UNL A   1      44.182  25.936  30.011  1.00  0.00     0.031 C 
ATOM     59  C   UNL A   1      43.589  28.851  35.298  1.00  0.00     0.029 A 
ATOM     60  C   UNL A   1      43.361  28.383  34.014  1.00  0.00     0.049 A 
ATOM     61  H   UNL A   1      41.901  28.990  32.619  1.00  0.00     0.167 HD
ATOM     62  C   UNL A   1      43.820  27.004  32.007  1.00  0.00     0.074 A 
ATOM     63  C   UNL A   1      44.589  26.021  31.270  1.00  0.00     0.031 C 
ATOM     64  C   UNL A   1      44.076  27.365  33.290  1.00  0.00     0.034 A 
BRANCH  51  65
ATOM     65  C   UNL A   1      40.359  31.821  35.422  1.00  0.00     0.023 A 
ATOM     66  C   UNL A   1      41.128  32.986  35.621  1.00  0.00     0.012 A 
ATOM     67  C   UNL A   1      39.250  31.577  36.256  1.00  0.00     0.148 A 
ATOM     68  C   UNL A   1      40.828  33.870  36.656  1.00  0.00     0.002 A 
ATOM     69  C   UNL A   1      38.929  32.488  37.257  1.00  0.00     0.091 A 
ATOM     70  F   UNL A   1      38.542  30.453  36.068  1.00  0.00    -0.205 F 
ATOM     71  C   UNL A   1      39.723  33.627  37.466  1.00  0.00     0.022 A 
BRANCH  69  72
ATOM     72  S   UNL A   1      37.480  32.305  38.304  1.00  0.00     0.127 S 
ATOM     73  O   UNL A   1      36.473  33.043  37.543  1.00  0.00    -0.237 OA
ATOM     74  O   UNL A   1      37.291  30.854  38.318  1.00  0.00    -0.237 OA
ATOM     75  O   UNL A   1      37.840  32.883  39.590  1.00  0.00    -0.744 OA
ENDBRANCH  69  72
ENDBRANCH  51  65
BRANCH  52  76
ATOM     76  C   UNL A   1      42.574  26.075  27.561  1.00  0.00     0.023 A 
ATOM     77  C   UNL A   1      43.383  26.623  26.547  1.00  0.00     0.012 A 
ATOM     78  C   UNL A   1      42.141  24.740  27.446  1.00  0.00     0.148 A 
ATOM     79  C   UNL A   1      43.725  25.871  25.422  1.00  0.00     0.002 A 
ATOM     80  C   UNL A   1      42.530  23.978  26.350  1.00  0.00     0.091 A 
ATOM     81  F   UNL A   1      41.362  24.238  28.415  1.00  0.00    -0.205 F 
ATOM     82  C   UNL A   1      43.307  24.546  25.328  1.00  0.00     0.022 A 
BRANCH  80  83
ATOM     83  S   UNL A   1      42.151  22.227  26.214  1.00  0.00     0.127 S 
ATOM     84  O   UNL A   1      40.697  22.244  26.084  1.00  0.00    -0.237 OA
ATOM     85  O   UNL A   1      42.875  21.852  24.998  1.00  0.00    -0.237 OA
ATOM     86  O   UNL A   1      42.675  21.619  27.429  1.00  0.00    -0.744 OA
ENDBRANCH  80  83
ENDBRANCH  52  76
BRANCH  64  87
ATOM     87  C   UNL A   1      45.210  26.668  33.995  1.00  0.00     0.023 A 
ATOM     88  C   UNL A   1      46.517  27.188  33.904  1.00  0.00     0.012 A 
ATOM     89  C   UNL A   1      44.972  25.535  34.797  1.00  0.00     0.148 A 
ATOM     90  C   UNL A   1      47.574  26.567  34.568  1.00  0.00     0.002 A 
ATOM     91  C   UNL A   1      46.022  24.951  35.494  1.00  0.00     0.091 A 
ATOM     92  F   UNL A   1      43.726  25.040  34.856  1.00  0.00    -0.205 F 
ATOM     93  C   UNL A   1      47.326  25.457  35.372  1.00  0.00     0.022 A 
BRANCH  91  94
ATOM     94  S   UNL A   1      45.765  23.578  36.625  1.00  0.00     0.127 S 
ATOM     95  O   UNL A   1      47.130  23.286  37.056  1.00  0.00    -0.237 OA
ATOM     96  O   UNL A   1      44.913  24.172  37.656  1.00  0.00    -0.237 OA
ATOM     97  O   UNL A   1      45.115  22.538  35.837  1.00  0.00    -0.744 OA
ENDBRANCH  91  94
ENDBRANCH  64  87
ENDBRANCH  38  39
ENDBRANCH  30  33
ENDBRANCH  28  29
ENDBRANCH  27  28
ENDBRANCH   1  27
TORSDOF 20
ENDMDL
