MODEL 1
REMARK VINA RESULT:     -12.5      0.000      0.000
REMARK SMILES Cn1cc([C@@H]2CC(NCCCNC(=O)c3ccc(-c4c5nc(c(-c6cccc(S(=O)(=O)[O-])c6F)c6ccc([nH]6)c(-c6cccc(S(=O)(=O)[O-])c6F)c6nc(c(-c7cccc(S(=O)(=O)[O-])c7F)c7ccc4[nH]7)C=C6)C=C5)cc3)=[NH+]c3c2sc(C(=O)[O-])c3-c2ccc(Cl)cc2)cn1
REMARK SMILES IDX 12 1 13 2 14 3 11 5 10 6 9 7 8 8 5 9 6 10 80 11 7 12 79 13
REMARK SMILES IDX 81 14 78 15 86 16 82 17 4 20 1 21 2 22 3 23 95 24 94 25
REMARK SMILES IDX 87 26 88 27 93 28 89 29 92 30 90 31 91 32 83 33 84 34 85 35
REMARK SMILES IDX 15 36 16 37 77 38 17 39 76 40 18 41 19 42 20 43 70 44 21 45
REMARK SMILES IDX 75 46 69 47 71 48 22 49 74 50 68 51 67 52 23 54 55 55 35 56
REMARK SMILES IDX 54 57 36 58 39 59 53 60 72 61 37 62 38 63 52 65 73 66 40 67
REMARK SMILES IDX 24 68 25 69 33 70 26 71 28 72 34 73 27 74 29 75 30 76 31 77
REMARK SMILES IDX 32 78 56 79 57 80 65 81 58 82 60 83 66 84 59 85 61 86 62 87
REMARK SMILES IDX 63 88 64 89 41 90 42 91 50 92 43 93 45 94 51 95 44 96 46 97
REMARK SMILES IDX 47 98 48 99 49 100
REMARK H PARENT 12 4 8 18 78 19 71 53 39 64
REMARK Flexibility Score: inf
ROOT
ATOM      1  N   UNL A   1      39.281  20.127  25.711  1.00  0.00    -0.352 N 
ATOM      2  C   UNL A   1      40.646  20.058  25.952  1.00  0.00     0.251 C 
ATOM      3  O   UNL A   1      41.285  19.045  25.692  1.00  0.00    -0.269 OA
ATOM      4  H   UNL A   1      38.823  19.265  25.583  1.00  0.00     0.163 HD
ENDROOT
BRANCH   1   5
ATOM      5  C   UNL A   1      38.434  21.329  25.621  1.00  0.00     0.120 C 
BRANCH   5   6
ATOM      6  C   UNL A   1      37.214  21.141  24.740  1.00  0.00     0.067 C 
BRANCH   6   7
ATOM      7  C   UNL A   1      37.157  22.166  23.607  1.00  0.00     0.235 C 
BRANCH   7   8
ATOM      8  N   UNL A   1      36.899  23.516  24.093  1.00  0.00    -0.278 N 
ATOM      9  C   UNL A   1      34.355  25.705  26.002  1.00  0.00     0.079 C 
ATOM     10  C   UNL A   1      35.644  25.317  25.253  1.00  0.00     0.142 C 
ATOM     11  C   UNL A   1      33.387  24.567  26.014  1.00  0.00     0.061 A 
ATOM     12  C   UNL A   1      35.712  23.891  24.693  1.00  0.00     0.248 C 
ATOM     13  C   UNL A   1      33.590  23.363  25.414  1.00  0.00     0.147 A 
ATOM     14  S   UNL A   1      31.876  24.609  26.797  1.00  0.00    -0.133 S 
ATOM     15  N   UNL A   1      34.759  23.008  24.757  1.00  0.00    -0.243 N 
ATOM     16  C   UNL A   1      32.497  22.452  25.528  1.00  0.00     0.049 A 
ATOM     17  C   UNL A   1      31.458  23.015  26.266  1.00  0.00     0.062 A 
ATOM     18  H   UNL A   1      37.606  24.194  23.988  1.00  0.00     0.304 HD
ATOM     19  H   UNL A   1      34.864  22.117  24.353  1.00  0.00     0.312 HD
BRANCH   9  20
ATOM     20  C   UNL A   1      33.709  26.946  25.460  1.00  0.00    -0.001 A 
ATOM     21  C   UNL A   1      31.964  30.105  25.449  1.00  0.00     0.173 C 
ATOM     22  N   UNL A   1      32.690  28.881  25.214  1.00  0.00    -0.276 N 
ATOM     23  C   UNL A   1      33.001  27.922  26.135  1.00  0.00     0.112 A 
ATOM     24  N   UNL A   1      33.224  28.643  24.002  1.00  0.00    -0.182 NA
ATOM     25  C   UNL A   1      33.762  27.430  24.130  1.00  0.00     0.139 A 
ENDBRANCH   9  20
BRANCH  16  26
ATOM     26  C   UNL A   1      32.495  21.093  24.993  1.00  0.00    -0.012 A 
ATOM     27  C   UNL A   1      32.748  19.987  25.813  1.00  0.00     0.010 A 
ATOM     28  C   UNL A   1      32.189  20.889  23.639  1.00  0.00     0.010 A 
ATOM     29  C   UNL A   1      32.772  18.700  25.267  1.00  0.00     0.021 A 
ATOM     30  C   UNL A   1      32.195  19.604  23.097  1.00  0.00     0.021 A 
ATOM     31  C   UNL A   1      32.506  18.517  23.910  1.00  0.00     0.041 A 
ATOM     32  Cl  UNL A   1      32.570  16.936  23.232  1.00  0.00    -0.084 Cl
ENDBRANCH  16  26
BRANCH  17  33
ATOM     33  C   UNL A   1      30.164  22.520  26.675  1.00  0.00     0.082 C 
ATOM     34  O   UNL A   1      29.510  21.594  26.193  1.00  0.00    -0.544 OA
ATOM     35  O   UNL A   1      29.630  23.194  27.713  1.00  0.00    -0.544 OA
ENDBRANCH  17  33
ENDBRANCH   7   8
ENDBRANCH   6   7
ENDBRANCH   5   6
ENDBRANCH   1   5
BRANCH   2  36
ATOM     36  C   UNL A   1      41.300  21.229  26.557  1.00  0.00     0.039 A 
ATOM     37  C   UNL A   1      42.073  22.138  25.829  1.00  0.00     0.014 A 
ATOM     38  C   UNL A   1      41.053  21.431  27.908  1.00  0.00     0.014 A 
ATOM     39  C   UNL A   1      42.535  23.281  26.480  1.00  0.00     0.010 A 
ATOM     40  C   UNL A   1      41.252  22.663  28.447  1.00  0.00     0.010 A 
ATOM     41  C   UNL A   1      42.105  23.532  27.793  1.00  0.00    -0.014 A 
BRANCH  41  42
ATOM     42  C   UNL A   1      42.428  24.753  28.514  1.00  0.00     0.031 A 
ATOM     43  C   UNL A   1      41.449  25.836  28.256  1.00  0.00     0.074 A 
ATOM     44  C   UNL A   1      43.350  24.772  29.508  1.00  0.00     0.049 A 
ATOM     45  N   UNL A   1      41.605  26.867  27.493  1.00  0.00    -0.248 NA
ATOM     46  C   UNL A   1      40.058  25.638  28.702  1.00  0.00     0.031 C 
ATOM     47  C   UNL A   1      44.087  23.625  30.075  1.00  0.00     0.029 A 
ATOM     48  N   UNL A   1      43.731  25.788  30.328  1.00  0.00    -0.354 N 
ATOM     49  C   UNL A   1      40.429  27.601  27.643  1.00  0.00     0.074 A 
ATOM     50  C   UNL A   1      39.445  26.676  28.126  1.00  0.00     0.031 C 
ATOM     51  C   UNL A   1      44.608  23.962  31.276  1.00  0.00     0.029 A 
ATOM     52  C   UNL A   1      44.412  25.383  31.477  1.00  0.00     0.049 A 
ATOM     53  H   UNL A   1      43.542  26.733  30.126  1.00  0.00     0.167 HD
ATOM     54  C   UNL A   1      40.477  28.961  27.722  1.00  0.00     0.034 A 
ATOM     55  C   UNL A   1      44.769  26.165  32.527  1.00  0.00     0.034 A 
ATOM     56  C   UNL A   1      41.801  29.426  27.382  1.00  0.00     0.049 A 
ATOM     57  C   UNL A   1      44.764  27.557  32.039  1.00  0.00     0.074 A 
ATOM     58  C   UNL A   1      42.571  29.526  26.246  1.00  0.00     0.029 A 
ATOM     59  N   UNL A   1      42.645  29.458  28.464  1.00  0.00    -0.354 N 
ATOM     60  N   UNL A   1      45.585  27.991  31.125  1.00  0.00    -0.248 NA
ATOM     61  C   UNL A   1      43.589  28.385  32.276  1.00  0.00     0.031 C 
ATOM     62  C   UNL A   1      43.924  29.413  26.685  1.00  0.00     0.029 A 
ATOM     63  C   UNL A   1      43.947  29.318  28.076  1.00  0.00     0.049 A 
ATOM     64  H   UNL A   1      42.351  29.567  29.397  1.00  0.00     0.167 HD
ATOM     65  C   UNL A   1      44.809  28.850  30.368  1.00  0.00     0.074 A 
ATOM     66  C   UNL A   1      43.677  29.199  31.219  1.00  0.00     0.031 C 
ATOM     67  C   UNL A   1      44.976  28.929  29.017  1.00  0.00     0.034 A 
BRANCH  54  68
ATOM     68  C   UNL A   1      39.571  29.846  28.566  1.00  0.00     0.023 A 
ATOM     69  C   UNL A   1      39.980  30.075  29.903  1.00  0.00     0.012 A 
ATOM     70  C   UNL A   1      38.245  30.215  28.242  1.00  0.00     0.148 A 
ATOM     71  C   UNL A   1      39.105  30.590  30.868  1.00  0.00     0.002 A 
ATOM     72  C   UNL A   1      37.399  30.789  29.187  1.00  0.00     0.091 A 
ATOM     73  F   UNL A   1      37.731  29.904  27.053  1.00  0.00    -0.205 F 
ATOM     74  C   UNL A   1      37.815  30.951  30.509  1.00  0.00     0.022 A 
BRANCH  72  75
ATOM     75  S   UNL A   1      35.724  31.299  28.774  1.00  0.00     0.127 S 
ATOM     76  O   UNL A   1      35.969  32.318  27.759  1.00  0.00    -0.237 OA
ATOM     77  O   UNL A   1      35.150  30.048  28.275  1.00  0.00    -0.237 OA
ATOM     78  O   UNL A   1      35.134  31.771  30.021  1.00  0.00    -0.744 OA
ENDBRANCH  72  75
ENDBRANCH  54  68
BRANCH  55  79
ATOM     79  C   UNL A   1      44.905  25.858  33.969  1.00  0.00     0.023 A 
ATOM     80  C   UNL A   1      46.179  25.818  34.572  1.00  0.00     0.012 A 
ATOM     81  C   UNL A   1      43.772  25.923  34.808  1.00  0.00     0.148 A 
ATOM     82  C   UNL A   1      46.323  25.881  35.965  1.00  0.00     0.002 A 
ATOM     83  C   UNL A   1      43.920  25.994  36.191  1.00  0.00     0.091 A 
ATOM     84  F   UNL A   1      42.562  26.005  34.238  1.00  0.00    -0.205 F 
ATOM     85  C   UNL A   1      45.194  25.985  36.773  1.00  0.00     0.022 A 
BRANCH  83  86
ATOM     86  S   UNL A   1      42.515  26.177  37.300  1.00  0.00     0.127 S 
ATOM     87  O   UNL A   1      41.791  24.929  37.061  1.00  0.00    -0.237 OA
ATOM     88  O   UNL A   1      43.171  26.269  38.603  1.00  0.00    -0.237 OA
ATOM     89  O   UNL A   1      41.821  27.382  36.863  1.00  0.00    -0.744 OA
ENDBRANCH  83  86
ENDBRANCH  55  79
BRANCH  67  90
ATOM     90  C   UNL A   1      46.281  28.449  28.450  1.00  0.00     0.023 A 
ATOM     91  C   UNL A   1      47.491  29.164  28.555  1.00  0.00     0.012 A 
ATOM     92  C   UNL A   1      46.291  27.166  27.885  1.00  0.00     0.148 A 
ATOM     93  C   UNL A   1      48.687  28.606  28.089  1.00  0.00     0.002 A 
ATOM     94  C   UNL A   1      47.484  26.596  27.468  1.00  0.00     0.091 A 
ATOM     95  F   UNL A   1      45.124  26.512  27.787  1.00  0.00    -0.205 F 
ATOM     96  C   UNL A   1      48.685  27.316  27.558  1.00  0.00     0.022 A 
BRANCH  94  97
ATOM     97  S   UNL A   1      47.548  24.902  26.891  1.00  0.00     0.127 S 
ATOM     98  O   UNL A   1      47.078  25.032  25.513  1.00  0.00    -0.237 OA
ATOM     99  O   UNL A   1      48.969  24.580  27.028  1.00  0.00    -0.237 OA
ATOM    100  O   UNL A   1      46.678  24.141  27.780  1.00  0.00    -0.744 OA
ENDBRANCH  94  97
ENDBRANCH  67  90
ENDBRANCH  41  42
ENDBRANCH   2  36
TORSDOF 15
ENDMDL
MODEL 2
REMARK VINA RESULT:     -12.3      4.266      8.213
REMARK SMILES Cn1cc([C@@H]2CC(NCCCNC(=O)c3ccc(-c4c5nc(c(-c6cccc(S(=O)(=O)[O-])c6F)c6ccc([nH]6)c(-c6cccc(S(=O)(=O)[O-])c6F)c6nc(c(-c7cccc(S(=O)(=O)[O-])c7F)c7ccc4[nH]7)C=C6)C=C5)cc3)=[NH+]c3c2sc(C(=O)[O-])c3-c2ccc(Cl)cc2)cn1
REMARK SMILES IDX 12 1 13 2 14 3 11 5 10 6 9 7 8 8 5 9 6 10 80 11 7 12 79 13
REMARK SMILES IDX 81 14 78 15 86 16 82 17 4 20 1 21 2 22 3 23 95 24 94 25
REMARK SMILES IDX 87 26 88 27 93 28 89 29 92 30 90 31 91 32 83 33 84 34 85 35
REMARK SMILES IDX 15 36 16 37 77 38 17 39 76 40 18 41 19 42 20 43 70 44 21 45
REMARK SMILES IDX 75 46 69 47 71 48 22 49 74 50 68 51 67 52 23 54 55 55 35 56
REMARK SMILES IDX 54 57 36 58 39 59 53 60 72 61 37 62 38 63 52 65 73 66 40 67
REMARK SMILES IDX 24 68 25 69 33 70 26 71 28 72 34 73 27 74 29 75 30 76 31 77
REMARK SMILES IDX 32 78 56 79 57 80 65 81 58 82 60 83 66 84 59 85 61 86 62 87
REMARK SMILES IDX 63 88 64 89 41 90 42 91 50 92 43 93 45 94 51 95 44 96 46 97
REMARK SMILES IDX 47 98 48 99 49 100
REMARK H PARENT 12 4 8 18 78 19 71 53 39 64
REMARK Flexibility Score: inf
ROOT
ATOM      1  N   UNL A   1      41.426  23.710  26.253  1.00  0.00    -0.352 N 
ATOM      2  C   UNL A   1      42.242  24.811  26.038  1.00  0.00     0.251 C 
ATOM      3  O   UNL A   1      43.081  24.815  25.145  1.00  0.00    -0.269 OA
ATOM      4  H   UNL A   1      41.728  22.866  25.848  1.00  0.00     0.163 HD
ENDROOT
BRANCH   1   5
ATOM      5  C   UNL A   1      40.163  23.648  27.009  1.00  0.00     0.120 C 
BRANCH   5   6
ATOM      6  C   UNL A   1      39.071  24.526  26.433  1.00  0.00     0.067 C 
BRANCH   6   7
ATOM      7  C   UNL A   1      37.678  24.088  26.885  1.00  0.00     0.235 C 
BRANCH   7   8
ATOM      8  N   UNL A   1      37.332  22.757  26.402  1.00  0.00    -0.278 N 
ATOM      9  C   UNL A   1      34.804  20.785  24.250  1.00  0.00     0.079 C 
ATOM     10  C   UNL A   1      36.031  21.059  25.140  1.00  0.00     0.142 C 
ATOM     11  C   UNL A   1      33.976  22.018  24.096  1.00  0.00     0.061 A 
ATOM     12  C   UNL A   1      36.189  22.489  25.672  1.00  0.00     0.248 C 
ATOM     13  C   UNL A   1      34.238  23.215  24.688  1.00  0.00     0.147 A 
ATOM     14  S   UNL A   1      32.572  22.110  23.137  1.00  0.00    -0.133 S 
ATOM     15  N   UNL A   1      35.354  23.466  25.473  1.00  0.00    -0.243 N 
ATOM     16  C   UNL A   1      33.273  24.233  24.422  1.00  0.00     0.049 A 
ATOM     17  C   UNL A   1      32.273  23.758  23.577  1.00  0.00     0.062 A 
ATOM     18  H   UNL A   1      37.942  22.011  26.607  1.00  0.00     0.304 HD
ATOM     19  H   UNL A   1      35.508  24.355  25.866  1.00  0.00     0.312 HD
BRANCH   9  20
ATOM     20  C   UNL A   1      33.965  19.640  24.738  1.00  0.00    -0.001 A 
ATOM     21  C   UNL A   1      32.838  16.241  25.184  1.00  0.00     0.173 C 
ATOM     22  N   UNL A   1      33.119  17.656  25.173  1.00  0.00    -0.276 N 
ATOM     23  C   UNL A   1      34.042  18.302  24.401  1.00  0.00     0.112 A 
ATOM     24  N   UNL A   1      32.508  18.466  26.056  1.00  0.00    -0.182 NA
ATOM     25  C   UNL A   1      32.955  19.679  25.729  1.00  0.00     0.139 A 
ENDBRANCH   9  20
BRANCH  16  26
ATOM     26  C   UNL A   1      33.358  25.603  24.922  1.00  0.00    -0.012 A 
ATOM     27  C   UNL A   1      33.970  26.615  24.172  1.00  0.00     0.010 A 
ATOM     28  C   UNL A   1      32.776  25.919  26.159  1.00  0.00     0.010 A 
ATOM     29  C   UNL A   1      34.065  27.910  24.690  1.00  0.00     0.021 A 
ATOM     30  C   UNL A   1      32.856  27.215  26.668  1.00  0.00     0.021 A 
ATOM     31  C   UNL A   1      33.518  28.200  25.940  1.00  0.00     0.041 A 
ATOM     32  Cl  UNL A   1      33.667  29.786  26.591  1.00  0.00    -0.084 Cl
ENDBRANCH  16  26
BRANCH  17  33
ATOM     33  C   UNL A   1      31.098  24.374  23.004  1.00  0.00     0.082 C 
ATOM     34  O   UNL A   1      29.919  24.045  23.134  1.00  0.00    -0.544 OA
ATOM     35  O   UNL A   1      31.373  25.434  22.219  1.00  0.00    -0.544 OA
ENDBRANCH  17  33
ENDBRANCH   7   8
ENDBRANCH   6   7
ENDBRANCH   5   6
ENDBRANCH   1   5
BRANCH   2  36
ATOM     36  C   UNL A   1      42.089  25.969  26.934  1.00  0.00     0.039 A 
ATOM     37  C   UNL A   1      42.652  26.030  28.212  1.00  0.00     0.014 A 
ATOM     38  C   UNL A   1      41.397  27.052  26.411  1.00  0.00     0.014 A 
ATOM     39  C   UNL A   1      42.552  27.228  28.919  1.00  0.00     0.010 A 
ATOM     40  C   UNL A   1      41.557  28.281  26.971  1.00  0.00     0.010 A 
ATOM     41  C   UNL A   1      42.007  28.351  28.277  1.00  0.00    -0.014 A 
BRANCH  41  42
ATOM     42  C   UNL A   1      41.972  29.673  28.881  1.00  0.00     0.031 A 
ATOM     43  C   UNL A   1      43.108  30.521  28.447  1.00  0.00     0.074 A 
ATOM     44  C   UNL A   1      40.873  30.133  29.527  1.00  0.00     0.049 A 
ATOM     45  N   UNL A   1      44.170  30.814  29.122  1.00  0.00    -0.248 NA
ATOM     46  C   UNL A   1      43.194  30.894  27.023  1.00  0.00     0.031 C 
ATOM     47  C   UNL A   1      39.561  29.470  29.658  1.00  0.00     0.029 A 
ATOM     48  N   UNL A   1      40.634  31.349  30.089  1.00  0.00    -0.354 N 
ATOM     49  C   UNL A   1      44.887  31.681  28.299  1.00  0.00     0.074 A 
ATOM     50  C   UNL A   1      44.409  31.447  26.967  1.00  0.00     0.031 C 
ATOM     51  C   UNL A   1      38.623  30.374  30.018  1.00  0.00     0.029 A 
ATOM     52  C   UNL A   1      39.286  31.623  30.328  1.00  0.00     0.049 A 
ATOM     53  H   UNL A   1      41.353  31.983  30.309  1.00  0.00     0.167 HD
ATOM     54  C   UNL A   1      45.519  32.764  28.833  1.00  0.00     0.034 A 
ATOM     55  C   UNL A   1      38.759  32.804  30.736  1.00  0.00     0.034 A 
ATOM     56  C   UNL A   1      45.517  32.673  30.274  1.00  0.00     0.049 A 
ATOM     57  C   UNL A   1      39.861  33.573  31.345  1.00  0.00     0.074 A 
ATOM     58  C   UNL A   1      46.143  31.910  31.235  1.00  0.00     0.029 A 
ATOM     59  N   UNL A   1      44.388  33.212  30.838  1.00  0.00    -0.354 N 
ATOM     60  N   UNL A   1      40.472  33.194  32.432  1.00  0.00    -0.248 NA
ATOM     61  C   UNL A   1      40.560  34.566  30.541  1.00  0.00     0.031 C 
ATOM     62  C   UNL A   1      45.235  31.850  32.333  1.00  0.00     0.029 A 
ATOM     63  C   UNL A   1      44.114  32.630  32.043  1.00  0.00     0.049 A 
ATOM     64  H   UNL A   1      43.845  33.922  30.427  1.00  0.00     0.167 HD
ATOM     65  C   UNL A   1      41.794  33.527  32.198  1.00  0.00     0.074 A 
ATOM     66  C   UNL A   1      41.758  34.523  31.132  1.00  0.00     0.031 C 
ATOM     67  C   UNL A   1      42.801  32.725  32.646  1.00  0.00     0.034 A 
BRANCH  54  68
ATOM     68  C   UNL A   1      45.683  34.126  28.174  1.00  0.00     0.023 A 
ATOM     69  C   UNL A   1      47.010  34.590  28.001  1.00  0.00     0.012 A 
ATOM     70  C   UNL A   1      44.654  35.079  27.985  1.00  0.00     0.148 A 
ATOM     71  C   UNL A   1      47.296  35.929  27.711  1.00  0.00     0.002 A 
ATOM     72  C   UNL A   1      44.940  36.394  27.631  1.00  0.00     0.091 A 
ATOM     73  F   UNL A   1      43.389  34.769  28.267  1.00  0.00    -0.205 F 
ATOM     74  C   UNL A   1      46.260  36.832  27.523  1.00  0.00     0.022 A 
BRANCH  72  75
ATOM     75  S   UNL A   1      43.637  37.603  27.350  1.00  0.00     0.127 S 
ATOM     76  O   UNL A   1      43.203  37.890  28.713  1.00  0.00    -0.237 OA
ATOM     77  O   UNL A   1      44.375  38.683  26.692  1.00  0.00    -0.237 OA
ATOM     78  O   UNL A   1      42.659  36.941  26.496  1.00  0.00    -0.744 OA
ENDBRANCH  72  75
ENDBRANCH  54  68
BRANCH  55  79
ATOM     79  C   UNL A   1      37.446  33.433  30.460  1.00  0.00     0.023 A 
ATOM     80  C   UNL A   1      36.849  33.307  29.188  1.00  0.00     0.012 A 
ATOM     81  C   UNL A   1      36.645  33.876  31.533  1.00  0.00     0.148 A 
ATOM     82  C   UNL A   1      35.486  33.577  29.000  1.00  0.00     0.002 A 
ATOM     83  C   UNL A   1      35.289  34.134  31.342  1.00  0.00     0.091 A 
ATOM     84  F   UNL A   1      37.197  33.954  32.751  1.00  0.00    -0.205 F 
ATOM     85  C   UNL A   1      34.704  33.975  30.080  1.00  0.00     0.022 A 
BRANCH  83  86
ATOM     86  S   UNL A   1      34.201  34.606  32.695  1.00  0.00     0.127 S 
ATOM     87  O   UNL A   1      32.977  34.956  31.974  1.00  0.00    -0.237 OA
ATOM     88  O   UNL A   1      34.127  33.368  33.468  1.00  0.00    -0.237 OA
ATOM     89  O   UNL A   1      34.860  35.722  33.361  1.00  0.00    -0.744 OA
ENDBRANCH  83  86
ENDBRANCH  55  79
BRANCH  67  90
ATOM     90  C   UNL A   1      42.487  31.773  33.763  1.00  0.00     0.023 A 
ATOM     91  C   UNL A   1      42.267  32.174  35.097  1.00  0.00     0.012 A 
ATOM     92  C   UNL A   1      42.300  30.428  33.413  1.00  0.00     0.148 A 
ATOM     93  C   UNL A   1      41.879  31.239  36.063  1.00  0.00     0.002 A 
ATOM     94  C   UNL A   1      41.869  29.514  34.361  1.00  0.00     0.091 A 
ATOM     95  F   UNL A   1      42.526  30.072  32.140  1.00  0.00    -0.205 F 
ATOM     96  C   UNL A   1      41.667  29.911  35.692  1.00  0.00     0.022 A 
BRANCH  94  97
ATOM     97  S   UNL A   1      41.469  27.828  33.907  1.00  0.00     0.127 S 
ATOM     98  O   UNL A   1      41.152  27.231  35.203  1.00  0.00    -0.237 OA
ATOM     99  O   UNL A   1      40.321  28.010  33.016  1.00  0.00    -0.237 OA
ATOM    100  O   UNL A   1      42.656  27.298  33.245  1.00  0.00    -0.744 OA
ENDBRANCH  94  97
ENDBRANCH  67  90
ENDBRANCH  41  42
ENDBRANCH   2  36
TORSDOF 15
ENDMDL
MODEL 3
REMARK VINA RESULT:     -12.2      2.963      7.873
REMARK SMILES Cn1cc([C@@H]2CC(NCCCNC(=O)c3ccc(-c4c5nc(c(-c6cccc(S(=O)(=O)[O-])c6F)c6ccc([nH]6)c(-c6cccc(S(=O)(=O)[O-])c6F)c6nc(c(-c7cccc(S(=O)(=O)[O-])c7F)c7ccc4[nH]7)C=C6)C=C5)cc3)=[NH+]c3c2sc(C(=O)[O-])c3-c2ccc(Cl)cc2)cn1
REMARK SMILES IDX 12 1 13 2 14 3 11 5 10 6 9 7 8 8 5 9 6 10 80 11 7 12 79 13
REMARK SMILES IDX 81 14 78 15 86 16 82 17 4 20 1 21 2 22 3 23 95 24 94 25
REMARK SMILES IDX 87 26 88 27 93 28 89 29 92 30 90 31 91 32 83 33 84 34 85 35
REMARK SMILES IDX 15 36 16 37 77 38 17 39 76 40 18 41 19 42 20 43 70 44 21 45
REMARK SMILES IDX 75 46 69 47 71 48 22 49 74 50 68 51 67 52 23 54 55 55 35 56
REMARK SMILES IDX 54 57 36 58 39 59 53 60 72 61 37 62 38 63 52 65 73 66 40 67
REMARK SMILES IDX 24 68 25 69 33 70 26 71 28 72 34 73 27 74 29 75 30 76 31 77
REMARK SMILES IDX 32 78 56 79 57 80 65 81 58 82 60 83 66 84 59 85 61 86 62 87
REMARK SMILES IDX 63 88 64 89 41 90 42 91 50 92 43 93 45 94 51 95 44 96 46 97
REMARK SMILES IDX 47 98 48 99 49 100
REMARK H PARENT 12 4 8 18 78 19 71 53 39 64
REMARK Flexibility Score: inf
ROOT
ATOM      1  N   UNL A   1      36.159  31.932  29.042  1.00  0.00    -0.352 N 
ATOM      2  C   UNL A   1      37.130  32.358  29.936  1.00  0.00     0.251 C 
ATOM      3  O   UNL A   1      37.151  33.513  30.347  1.00  0.00    -0.269 OA
ATOM      4  H   UNL A   1      35.674  32.641  28.563  1.00  0.00     0.163 HD
ENDROOT
BRANCH   1   5
ATOM      5  C   UNL A   1      35.762  30.549  28.722  1.00  0.00     0.120 C 
BRANCH   5   6
ATOM      6  C   UNL A   1      36.564  29.939  27.589  1.00  0.00     0.067 C 
BRANCH   6   7
ATOM      7  C   UNL A   1      35.727  28.984  26.739  1.00  0.00     0.235 C 
BRANCH   7   8
ATOM      8  N   UNL A   1      34.469  29.582  26.308  1.00  0.00    -0.278 N 
ATOM      9  C   UNL A   1      30.927  28.777  24.998  1.00  0.00     0.079 C 
ATOM     10  C   UNL A   1      32.124  29.611  25.491  1.00  0.00     0.142 C 
ATOM     11  C   UNL A   1      31.297  27.334  24.889  1.00  0.00     0.061 A 
ATOM     12  C   UNL A   1      33.420  28.847  25.788  1.00  0.00     0.248 C 
ATOM     13  C   UNL A   1      32.531  26.821  25.148  1.00  0.00     0.147 A 
ATOM     14  S   UNL A   1      30.214  26.104  24.427  1.00  0.00    -0.133 S 
ATOM     15  N   UNL A   1      33.602  27.571  25.611  1.00  0.00    -0.243 N 
ATOM     16  C   UNL A   1      32.648  25.416  24.928  1.00  0.00     0.049 A 
ATOM     17  C   UNL A   1      31.433  24.878  24.510  1.00  0.00     0.062 A 
ATOM     18  H   UNL A   1      34.362  30.557  26.391  1.00  0.00     0.304 HD
ATOM     19  H   UNL A   1      34.472  27.150  25.801  1.00  0.00     0.312 HD
BRANCH   9  20
ATOM     20  C   UNL A   1      30.353  29.277  23.705  1.00  0.00    -0.001 A 
ATOM     21  C   UNL A   1      28.326  31.242  21.456  1.00  0.00     0.173 C 
ATOM     22  N   UNL A   1      29.240  30.369  22.152  1.00  0.00    -0.276 N 
ATOM     23  C   UNL A   1      29.336  30.191  23.503  1.00  0.00     0.112 A 
ATOM     24  N   UNL A   1      30.184  29.703  21.462  1.00  0.00    -0.182 NA
ATOM     25  C   UNL A   1      30.796  28.973  22.395  1.00  0.00     0.139 A 
ENDBRANCH   9  20
BRANCH  16  26
ATOM     26  C   UNL A   1      33.863  24.640  25.168  1.00  0.00    -0.012 A 
ATOM     27  C   UNL A   1      34.111  24.042  26.409  1.00  0.00     0.010 A 
ATOM     28  C   UNL A   1      34.777  24.456  24.120  1.00  0.00     0.010 A 
ATOM     29  C   UNL A   1      35.298  23.333  26.619  1.00  0.00     0.021 A 
ATOM     30  C   UNL A   1      35.952  23.734  24.324  1.00  0.00     0.021 A 
ATOM     31  C   UNL A   1      36.216  23.192  25.579  1.00  0.00     0.041 A 
ATOM     32  Cl  UNL A   1      37.692  22.349  25.850  1.00  0.00    -0.084 Cl
ENDBRANCH  16  26
BRANCH  17  33
ATOM     33  C   UNL A   1      31.019  23.535  24.174  1.00  0.00     0.082 C 
ATOM     34  O   UNL A   1      30.950  23.008  23.063  1.00  0.00    -0.544 OA
ATOM     35  O   UNL A   1      30.654  22.799  25.243  1.00  0.00    -0.544 OA
ENDBRANCH  17  33
ENDBRANCH   7   8
ENDBRANCH   6   7
ENDBRANCH   5   6
ENDBRANCH   1   5
BRANCH   2  36
ATOM     36  C   UNL A   1      38.155  31.389  30.358  1.00  0.00     0.039 A 
ATOM     37  C   UNL A   1      37.851  30.131  30.886  1.00  0.00     0.014 A 
ATOM     38  C   UNL A   1      39.472  31.767  30.138  1.00  0.00     0.014 A 
ATOM     39  C   UNL A   1      38.901  29.247  31.128  1.00  0.00     0.010 A 
ATOM     40  C   UNL A   1      40.442  30.815  30.099  1.00  0.00     0.010 A 
ATOM     41  C   UNL A   1      40.195  29.604  30.717  1.00  0.00    -0.014 A 
BRANCH  41  42
ATOM     42  C   UNL A   1      41.335  28.705  30.810  1.00  0.00     0.031 A 
ATOM     43  C   UNL A   1      41.854  28.594  32.194  1.00  0.00     0.074 A 
ATOM     44  C   UNL A   1      41.671  27.872  29.794  1.00  0.00     0.049 A 
ATOM     45  N   UNL A   1      42.917  29.147  32.678  1.00  0.00    -0.248 NA
ATOM     46  C   UNL A   1      40.979  28.000  33.221  1.00  0.00     0.031 C 
ATOM     47  C   UNL A   1      40.947  27.663  28.524  1.00  0.00     0.029 A 
ATOM     48  N   UNL A   1      42.647  26.928  29.724  1.00  0.00    -0.354 N 
ATOM     49  C   UNL A   1      42.993  28.682  33.991  1.00  0.00     0.074 A 
ATOM     50  C   UNL A   1      41.666  28.259  34.337  1.00  0.00     0.031 C 
ATOM     51  C   UNL A   1      41.351  26.507  27.951  1.00  0.00     0.029 A 
ATOM     52  C   UNL A   1      42.480  25.995  28.699  1.00  0.00     0.049 A 
ATOM     53  H   UNL A   1      43.409  26.904  30.346  1.00  0.00     0.167 HD
ATOM     54  C   UNL A   1      44.197  28.337  34.526  1.00  0.00     0.034 A 
ATOM     55  C   UNL A   1      43.214  24.873  28.497  1.00  0.00     0.034 A 
ATOM     56  C   UNL A   1      45.263  28.764  33.651  1.00  0.00     0.049 A 
ATOM     57  C   UNL A   1      44.487  25.063  29.218  1.00  0.00     0.074 A 
ATOM     58  C   UNL A   1      45.840  29.956  33.275  1.00  0.00     0.029 A 
ATOM     59  N   UNL A   1      45.565  27.832  32.689  1.00  0.00    -0.354 N 
ATOM     60  N   UNL A   1      45.355  25.979  28.895  1.00  0.00    -0.248 NA
ATOM     61  C   UNL A   1      44.636  24.495  30.551  1.00  0.00     0.031 C 
ATOM     62  C   UNL A   1      46.326  29.751  31.949  1.00  0.00     0.029 A 
ATOM     63  C   UNL A   1      46.095  28.425  31.579  1.00  0.00     0.049 A 
ATOM     64  H   UNL A   1      45.416  26.864  32.786  1.00  0.00     0.167 HD
ATOM     65  C   UNL A   1      45.830  26.426  30.114  1.00  0.00     0.074 A 
ATOM     66  C   UNL A   1      45.509  25.367  31.065  1.00  0.00     0.031 C 
ATOM     67  C   UNL A   1      46.130  27.742  30.303  1.00  0.00     0.034 A 
BRANCH  54  68
ATOM     68  C   UNL A   1      44.453  27.209  35.515  1.00  0.00     0.023 A 
ATOM     69  C   UNL A   1      45.061  27.570  36.742  1.00  0.00     0.012 A 
ATOM     70  C   UNL A   1      44.409  25.827  35.217  1.00  0.00     0.148 A 
ATOM     71  C   UNL A   1      45.636  26.618  37.593  1.00  0.00     0.002 A 
ATOM     72  C   UNL A   1      44.922  24.878  36.097  1.00  0.00     0.091 A 
ATOM     73  F   UNL A   1      43.988  25.408  34.024  1.00  0.00    -0.205 F 
ATOM     74  C   UNL A   1      45.563  25.270  37.273  1.00  0.00     0.022 A 
BRANCH  72  75
ATOM     75  S   UNL A   1      44.835  23.116  35.746  1.00  0.00     0.127 S 
ATOM     76  O   UNL A   1      43.425  22.953  35.407  1.00  0.00    -0.237 OA
ATOM     77  O   UNL A   1      45.765  22.993  34.622  1.00  0.00    -0.237 OA
ATOM     78  O   UNL A   1      45.278  22.447  36.963  1.00  0.00    -0.744 OA
ENDBRANCH  72  75
ENDBRANCH  54  68
BRANCH  55  79
ATOM     79  C   UNL A   1      42.846  23.557  27.923  1.00  0.00     0.023 A 
ATOM     80  C   UNL A   1      41.528  23.072  28.043  1.00  0.00     0.012 A 
ATOM     81  C   UNL A   1      43.704  22.937  26.991  1.00  0.00     0.148 A 
ATOM     82  C   UNL A   1      41.066  22.027  27.231  1.00  0.00     0.002 A 
ATOM     83  C   UNL A   1      43.238  21.905  26.180  1.00  0.00     0.091 A 
ATOM     84  F   UNL A   1      44.944  23.424  26.843  1.00  0.00    -0.205 F 
ATOM     85  C   UNL A   1      41.916  21.455  26.289  1.00  0.00     0.022 A 
BRANCH  83  86
ATOM     86  S   UNL A   1      44.258  21.145  24.908  1.00  0.00     0.127 S 
ATOM     87  O   UNL A   1      44.155  22.126  23.828  1.00  0.00    -0.237 OA
ATOM     88  O   UNL A   1      45.563  21.087  25.563  1.00  0.00    -0.237 OA
ATOM     89  O   UNL A   1      43.642  19.855  24.626  1.00  0.00    -0.744 OA
ENDBRANCH  83  86
ENDBRANCH  55  79
BRANCH  67  90
ATOM     90  C   UNL A   1      46.385  28.578  29.082  1.00  0.00     0.023 A 
ATOM     91  C   UNL A   1      47.536  28.459  28.277  1.00  0.00     0.012 A 
ATOM     92  C   UNL A   1      45.356  29.442  28.681  1.00  0.00     0.148 A 
ATOM     93  C   UNL A   1      47.656  29.203  27.097  1.00  0.00     0.002 A 
ATOM     94  C   UNL A   1      45.457  30.140  27.489  1.00  0.00     0.091 A 
ATOM     95  F   UNL A   1      44.277  29.544  29.471  1.00  0.00    -0.205 F 
ATOM     96  C   UNL A   1      46.610  30.033  26.697  1.00  0.00     0.022 A 
BRANCH  94  97
ATOM     97  S   UNL A   1      44.092  31.125  26.875  1.00  0.00     0.127 S 
ATOM     98  O   UNL A   1      43.109  30.100  26.529  1.00  0.00    -0.237 OA
ATOM     99  O   UNL A   1      43.746  31.939  28.042  1.00  0.00    -0.237 OA
ATOM    100  O   UNL A   1      44.620  31.891  25.753  1.00  0.00    -0.744 OA
ENDBRANCH  94  97
ENDBRANCH  67  90
ENDBRANCH  41  42
ENDBRANCH   2  36
TORSDOF 15
ENDMDL
