MODEL 1
REMARK VINA RESULT:     -12.8      0.000      0.000
REMARK SMILES Cc1cc([N+](=O)[O-])c(C(C)(C)C)cc1C(=O)NCCCNC(=O)c1ccc(-c2c3nc(c(-c4cccc(S(=O)(=O)[O-])c4F)c4ccc([nH]4)c(-c4cccc(S(=O)(=O)[O-])c4F)c4nc(c(-c5cccc(S(=O)(=O)[O-])c5F)c5ccc2[nH]5)C=C4)C=C3)cc1
REMARK SMILES IDX 20 1 19 2 18 3 17 4 15 5 16 6 14 8 1 9 2 10 3 11 4 12 13 13
REMARK SMILES IDX 8 14 5 15 6 16 7 17 9 18 10 19 11 20 12 21 21 22 22 23 23 25
REMARK SMILES IDX 24 26 25 27 86 28 26 29 85 30 27 31 28 32 29 33 79 34 30 35
REMARK SMILES IDX 84 36 78 37 80 38 31 39 83 40 77 41 76 42 32 44 64 45 44 46
REMARK SMILES IDX 63 47 45 48 48 49 62 50 81 51 46 52 47 53 61 55 82 56 49 57
REMARK SMILES IDX 33 58 34 59 42 60 35 61 37 62 43 63 36 64 38 65 39 66 40 67
REMARK SMILES IDX 41 68 65 69 66 70 74 71 67 72 69 73 75 74 68 75 70 76 71 77
REMARK SMILES IDX 72 78 73 79 50 80 51 81 59 82 52 83 54 84 60 85 53 86 55 87
REMARK SMILES IDX 56 88 57 89 58 90
REMARK H PARENT 17 7 21 24 80 43 48 54
REMARK Flexibility Score: inf
ROOT
ATOM      1  C   UNL A   1      39.036  22.723  26.446  1.00  0.00     0.118 C 
ENDROOT
BRANCH   1   2
ATOM      2  C   UNL A   1      39.022  21.301  25.918  1.00  0.00     0.042 C 
BRANCH   2   3
ATOM      3  C   UNL A   1      37.804  20.862  25.109  1.00  0.00     0.118 C 
BRANCH   3   4
ATOM      4  N   UNL A   1      37.502  21.808  24.055  1.00  0.00    -0.352 N 
ATOM      5  C   UNL A   1      36.416  22.570  23.719  1.00  0.00     0.251 C 
ATOM      6  O   UNL A   1      36.558  23.269  22.710  1.00  0.00    -0.269 OA
ATOM      7  H   UNL A   1      38.256  21.931  23.433  1.00  0.00     0.163 HD
BRANCH   5   8
ATOM      8  C   UNL A   1      35.116  22.710  24.474  1.00  0.00     0.043 A 
ATOM      9  C   UNL A   1      34.333  20.262  24.730  1.00  0.00     0.045 C 
ATOM     10  C   UNL A   1      34.233  21.735  24.941  1.00  0.00    -0.032 A 
ATOM     11  C   UNL A   1      33.061  22.135  25.612  1.00  0.00     0.090 A 
ATOM     12  C   UNL A   1      32.626  23.473  25.677  1.00  0.00     0.273 A 
ATOM     13  C   UNL A   1      34.663  24.058  24.553  1.00  0.00     0.025 A 
ATOM     14  C   UNL A   1      33.398  24.483  25.060  1.00  0.00     0.036 A 
BRANCH  12  15
ATOM     15  N   UNL A   1      31.339  23.650  26.397  1.00  0.00     0.063 N 
ATOM     16  O   UNL A   1      30.357  23.029  25.960  1.00  0.00    -0.258 OA
ATOM     17  O   UNL A   1      31.270  24.406  27.369  1.00  0.00    -0.258 OA
ENDBRANCH  12  15
BRANCH  14  18
ATOM     18  C   UNL A   1      32.966  25.947  24.802  1.00  0.00    -0.006 C 
ATOM     19  C   UNL A   1      33.068  26.758  26.121  1.00  0.00     0.016 C 
ATOM     20  C   UNL A   1      33.744  26.565  23.622  1.00  0.00     0.016 C 
ATOM     21  C   UNL A   1      31.467  26.128  24.398  1.00  0.00     0.016 C 
ENDBRANCH  14  18
ENDBRANCH   5   8
ENDBRANCH   3   4
ENDBRANCH   2   3
ENDBRANCH   1   2
BRANCH   1  22
ATOM     22  N   UNL A   1      40.333  22.971  27.097  1.00  0.00    -0.352 N 
ATOM     23  C   UNL A   1      40.866  24.125  27.640  1.00  0.00     0.251 C 
ATOM     24  H   UNL A   1      40.919  22.181  27.156  1.00  0.00     0.163 HD
ATOM     25  O   UNL A   1      41.991  24.151  28.100  1.00  0.00    -0.269 OA
BRANCH  23  26
ATOM     26  C   UNL A   1      39.966  25.288  27.701  1.00  0.00     0.039 A 
ATOM     27  C   UNL A   1      40.325  26.369  26.893  1.00  0.00     0.014 A 
ATOM     28  C   UNL A   1      39.188  25.439  28.846  1.00  0.00     0.014 A 
ATOM     29  C   UNL A   1      40.148  27.650  27.389  1.00  0.00     0.010 A 
ATOM     30  C   UNL A   1      39.062  26.714  29.360  1.00  0.00     0.010 A 
ATOM     31  C   UNL A   1      39.631  27.797  28.674  1.00  0.00    -0.014 A 
BRANCH  31  32
ATOM     32  C   UNL A   1      39.637  29.065  29.379  1.00  0.00     0.031 A 
ATOM     33  C   UNL A   1      38.680  30.094  28.956  1.00  0.00     0.074 A 
ATOM     34  C   UNL A   1      40.492  29.311  30.396  1.00  0.00     0.049 A 
ATOM     35  N   UNL A   1      38.824  31.354  29.178  1.00  0.00    -0.248 NA
ATOM     36  C   UNL A   1      37.508  29.761  28.162  1.00  0.00     0.031 C 
ATOM     37  C   UNL A   1      40.425  30.408  31.354  1.00  0.00     0.029 A 
ATOM     38  N   UNL A   1      41.752  28.748  30.606  1.00  0.00    -0.354 N 
ATOM     39  C   UNL A   1      37.644  31.963  28.817  1.00  0.00     0.074 A 
ATOM     40  C   UNL A   1      36.915  30.953  28.088  1.00  0.00     0.031 C 
ATOM     41  C   UNL A   1      41.653  30.627  31.847  1.00  0.00     0.029 A 
ATOM     42  C   UNL A   1      42.571  29.784  31.103  1.00  0.00     0.049 A 
ATOM     43  H   UNL A   1      42.018  27.814  30.441  1.00  0.00     0.167 HD
ATOM     44  C   UNL A   1      37.367  33.196  29.326  1.00  0.00     0.034 A 
ATOM     45  C   UNL A   1      43.736  30.191  30.516  1.00  0.00     0.034 A 
ATOM     46  C   UNL A   1      38.533  33.749  30.042  1.00  0.00     0.049 A 
ATOM     47  C   UNL A   1      43.754  31.673  30.163  1.00  0.00     0.074 A 
ATOM     48  C   UNL A   1      38.887  33.857  31.379  1.00  0.00     0.029 A 
ATOM     49  N   UNL A   1      39.684  34.046  29.323  1.00  0.00    -0.354 N 
ATOM     50  N   UNL A   1      42.791  32.518  30.407  1.00  0.00    -0.248 NA
ATOM     51  C   UNL A   1      44.824  32.271  29.366  1.00  0.00     0.031 C 
ATOM     52  C   UNL A   1      40.266  34.210  31.452  1.00  0.00     0.029 A 
ATOM     53  C   UNL A   1      40.751  34.337  30.163  1.00  0.00     0.049 A 
ATOM     54  H   UNL A   1      39.737  34.049  28.340  1.00  0.00     0.167 HD
ATOM     55  C   UNL A   1      42.992  33.667  29.676  1.00  0.00     0.074 A 
ATOM     56  C   UNL A   1      44.290  33.461  29.053  1.00  0.00     0.031 C 
ATOM     57  C   UNL A   1      42.046  34.658  29.568  1.00  0.00     0.034 A 
BRANCH  44  58
ATOM     58  C   UNL A   1      35.960  33.767  29.453  1.00  0.00     0.023 A 
ATOM     59  C   UNL A   1      35.289  34.104  28.257  1.00  0.00     0.012 A 
ATOM     60  C   UNL A   1      35.274  34.094  30.647  1.00  0.00     0.148 A 
ATOM     61  C   UNL A   1      34.086  34.821  28.243  1.00  0.00     0.002 A 
ATOM     62  C   UNL A   1      34.114  34.873  30.640  1.00  0.00     0.091 A 
ATOM     63  F   UNL A   1      35.670  33.577  31.810  1.00  0.00    -0.205 F 
ATOM     64  C   UNL A   1      33.517  35.244  29.434  1.00  0.00     0.022 A 
BRANCH  62  65
ATOM     65  S   UNL A   1      33.370  35.512  32.154  1.00  0.00     0.127 S 
ATOM     66  O   UNL A   1      32.960  34.282  32.836  1.00  0.00    -0.237 OA
ATOM     67  O   UNL A   1      34.488  36.211  32.783  1.00  0.00    -0.237 OA
ATOM     68  O   UNL A   1      32.257  36.358  31.738  1.00  0.00    -0.744 OA
ENDBRANCH  62  65
ENDBRANCH  44  58
BRANCH  45  69
ATOM     69  C   UNL A   1      44.383  29.119  29.699  1.00  0.00     0.023 A 
ATOM     70  C   UNL A   1      44.807  27.950  30.377  1.00  0.00     0.012 A 
ATOM     71  C   UNL A   1      44.200  29.063  28.309  1.00  0.00     0.148 A 
ATOM     72  C   UNL A   1      44.852  26.721  29.714  1.00  0.00     0.002 A 
ATOM     73  C   UNL A   1      44.265  27.839  27.654  1.00  0.00     0.091 A 
ATOM     74  F   UNL A   1      43.883  30.180  27.643  1.00  0.00    -0.205 F 
ATOM     75  C   UNL A   1      44.531  26.659  28.363  1.00  0.00     0.022 A 
BRANCH  73  76
ATOM     76  S   UNL A   1      43.883  27.744  25.904  1.00  0.00     0.127 S 
ATOM     77  O   UNL A   1      42.770  28.681  25.798  1.00  0.00    -0.237 OA
ATOM     78  O   UNL A   1      45.128  28.192  25.281  1.00  0.00    -0.237 OA
ATOM     79  O   UNL A   1      43.580  26.338  25.684  1.00  0.00    -0.744 OA
ENDBRANCH  73  76
ENDBRANCH  45  69
BRANCH  57  80
ATOM     80  C   UNL A   1      42.227  35.983  28.824  1.00  0.00     0.023 A 
ATOM     81  C   UNL A   1      41.810  36.162  27.490  1.00  0.00     0.012 A 
ATOM     82  C   UNL A   1      42.901  37.092  29.408  1.00  0.00     0.148 A 
ATOM     83  C   UNL A   1      41.900  37.394  26.830  1.00  0.00     0.002 A 
ATOM     84  C   UNL A   1      43.022  38.310  28.741  1.00  0.00     0.091 A 
ATOM     85  F   UNL A   1      43.493  36.961  30.601  1.00  0.00    -0.205 F 
ATOM     86  C   UNL A   1      42.487  38.476  27.464  1.00  0.00     0.022 A 
BRANCH  84  87
ATOM     87  S   UNL A   1      43.893  39.718  29.447  1.00  0.00     0.127 S 
ATOM     88  O   UNL A   1      45.271  39.229  29.466  1.00  0.00    -0.237 OA
ATOM     89  O   UNL A   1      43.631  40.764  28.457  1.00  0.00    -0.237 OA
ATOM     90  O   UNL A   1      43.295  39.955  30.753  1.00  0.00    -0.744 OA
ENDBRANCH  84  87
ENDBRANCH  57  80
ENDBRANCH  31  32
ENDBRANCH  23  26
ENDBRANCH   1  22
TORSDOF 15
ENDMDL
MODEL 2
REMARK VINA RESULT:     -12.7      4.439     10.812
REMARK SMILES Cc1cc([N+](=O)[O-])c(C(C)(C)C)cc1C(=O)NCCCNC(=O)c1ccc(-c2c3nc(c(-c4cccc(S(=O)(=O)[O-])c4F)c4ccc([nH]4)c(-c4cccc(S(=O)(=O)[O-])c4F)c4nc(c(-c5cccc(S(=O)(=O)[O-])c5F)c5ccc2[nH]5)C=C4)C=C3)cc1
REMARK SMILES IDX 20 1 19 2 18 3 17 4 15 5 16 6 14 8 1 9 2 10 3 11 4 12 13 13
REMARK SMILES IDX 8 14 5 15 6 16 7 17 9 18 10 19 11 20 12 21 21 22 22 23 23 25
REMARK SMILES IDX 24 26 25 27 86 28 26 29 85 30 27 31 28 32 29 33 79 34 30 35
REMARK SMILES IDX 84 36 78 37 80 38 31 39 83 40 77 41 76 42 32 44 64 45 44 46
REMARK SMILES IDX 63 47 45 48 48 49 62 50 81 51 46 52 47 53 61 55 82 56 49 57
REMARK SMILES IDX 33 58 34 59 42 60 35 61 37 62 43 63 36 64 38 65 39 66 40 67
REMARK SMILES IDX 41 68 65 69 66 70 74 71 67 72 69 73 75 74 68 75 70 76 71 77
REMARK SMILES IDX 72 78 73 79 50 80 51 81 59 82 52 83 54 84 60 85 53 86 55 87
REMARK SMILES IDX 56 88 57 89 58 90
REMARK H PARENT 17 7 21 24 80 43 48 54
REMARK Flexibility Score: inf
ROOT
ATOM      1  C   UNL A   1      34.365  30.570  28.088  1.00  0.00     0.118 C 
ENDROOT
BRANCH   1   2
ATOM      2  C   UNL A   1      33.372  31.304  27.207  1.00  0.00     0.042 C 
BRANCH   2   3
ATOM      3  C   UNL A   1      32.533  30.470  26.243  1.00  0.00     0.118 C 
BRANCH   3   4
ATOM      4  N   UNL A   1      31.853  29.394  26.933  1.00  0.00    -0.352 N 
ATOM      5  C   UNL A   1      31.713  28.048  26.729  1.00  0.00     0.251 C 
ATOM      6  O   UNL A   1      31.025  27.458  27.570  1.00  0.00    -0.269 OA
ATOM      7  H   UNL A   1      31.378  29.704  27.738  1.00  0.00     0.163 HD
BRANCH   5   8
ATOM      8  C   UNL A   1      32.357  27.203  25.656  1.00  0.00     0.043 A 
ATOM      9  C   UNL A   1      31.767  28.478  23.488  1.00  0.00     0.045 C 
ATOM     10  C   UNL A   1      32.418  27.391  24.273  1.00  0.00    -0.032 A 
ATOM     11  C   UNL A   1      33.076  26.431  23.479  1.00  0.00     0.090 A 
ATOM     12  C   UNL A   1      33.518  25.189  23.975  1.00  0.00     0.273 A 
ATOM     13  C   UNL A   1      32.814  25.945  26.140  1.00  0.00     0.025 A 
ATOM     14  C   UNL A   1      33.316  24.876  25.339  1.00  0.00     0.036 A 
BRANCH  12  15
ATOM     15  N   UNL A   1      34.142  24.321  22.944  1.00  0.00     0.063 N 
ATOM     16  O   UNL A   1      33.421  23.953  22.002  1.00  0.00    -0.258 OA
ATOM     17  O   UNL A   1      35.321  23.974  23.055  1.00  0.00    -0.258 OA
ENDBRANCH  12  15
BRANCH  14  18
ATOM     18  C   UNL A   1      33.492  23.488  26.002  1.00  0.00    -0.006 C 
ATOM     19  C   UNL A   1      34.989  23.264  26.347  1.00  0.00     0.016 C 
ATOM     20  C   UNL A   1      32.537  23.312  27.201  1.00  0.00     0.016 C 
ATOM     21  C   UNL A   1      33.163  22.272  25.078  1.00  0.00     0.016 C 
ENDBRANCH  14  18
ENDBRANCH   5   8
ENDBRANCH   3   4
ENDBRANCH   2   3
ENDBRANCH   1   2
BRANCH   1  22
ATOM     22  N   UNL A   1      35.441  31.503  28.464  1.00  0.00    -0.352 N 
ATOM     23  C   UNL A   1      36.787  31.286  28.689  1.00  0.00     0.251 C 
ATOM     24  H   UNL A   1      35.152  32.438  28.573  1.00  0.00     0.163 HD
ATOM     25  O   UNL A   1      37.525  32.185  29.043  1.00  0.00    -0.269 OA
BRANCH  23  26
ATOM     26  C   UNL A   1      37.283  29.932  28.396  1.00  0.00     0.039 A 
ATOM     27  C   UNL A   1      37.406  29.085  29.499  1.00  0.00     0.014 A 
ATOM     28  C   UNL A   1      38.036  29.760  27.236  1.00  0.00     0.014 A 
ATOM     29  C   UNL A   1      38.495  28.230  29.557  1.00  0.00     0.010 A 
ATOM     30  C   UNL A   1      39.148  28.948  27.321  1.00  0.00     0.010 A 
ATOM     31  C   UNL A   1      39.421  28.268  28.517  1.00  0.00    -0.014 A 
BRANCH  31  32
ATOM     32  C   UNL A   1      40.711  27.606  28.594  1.00  0.00     0.031 A 
ATOM     33  C   UNL A   1      40.749  26.148  28.436  1.00  0.00     0.074 A 
ATOM     34  C   UNL A   1      41.853  28.296  28.807  1.00  0.00     0.049 A 
ATOM     35  N   UNL A   1      41.697  25.395  28.871  1.00  0.00    -0.248 NA
ATOM     36  C   UNL A   1      39.645  25.421  27.830  1.00  0.00     0.031 C 
ATOM     37  C   UNL A   1      43.217  27.810  28.634  1.00  0.00     0.029 A 
ATOM     38  N   UNL A   1      42.003  29.512  29.476  1.00  0.00    -0.354 N 
ATOM     39  C   UNL A   1      41.478  24.137  28.360  1.00  0.00     0.074 A 
ATOM     40  C   UNL A   1      40.139  24.182  27.827  1.00  0.00     0.031 C 
ATOM     41  C   UNL A   1      44.037  28.541  29.403  1.00  0.00     0.029 A 
ATOM     42  C   UNL A   1      43.204  29.413  30.210  1.00  0.00     0.049 A 
ATOM     43  H   UNL A   1      41.394  30.285  29.441  1.00  0.00     0.167 HD
ATOM     44  C   UNL A   1      42.525  23.265  28.309  1.00  0.00     0.034 A 
ATOM     45  C   UNL A   1      43.291  29.575  31.565  1.00  0.00     0.034 A 
ATOM     46  C   UNL A   1      43.697  23.800  29.029  1.00  0.00     0.049 A 
ATOM     47  C   UNL A   1      43.898  28.377  32.283  1.00  0.00     0.074 A 
ATOM     48  C   UNL A   1      44.876  24.416  28.637  1.00  0.00     0.029 A 
ATOM     49  N   UNL A   1      43.614  23.985  30.403  1.00  0.00    -0.354 N 
ATOM     50  N   UNL A   1      44.338  27.294  31.704  1.00  0.00    -0.248 NA
ATOM     51  C   UNL A   1      43.912  28.268  33.741  1.00  0.00     0.031 C 
ATOM     52  C   UNL A   1      45.492  24.985  29.790  1.00  0.00     0.029 A 
ATOM     53  C   UNL A   1      44.701  24.699  30.890  1.00  0.00     0.049 A 
ATOM     54  H   UNL A   1      42.876  23.653  30.963  1.00  0.00     0.167 HD
ATOM     55  C   UNL A   1      44.505  26.305  32.648  1.00  0.00     0.074 A 
ATOM     56  C   UNL A   1      44.237  26.978  33.909  1.00  0.00     0.031 C 
ATOM     57  C   UNL A   1      44.765  24.997  32.318  1.00  0.00     0.034 A 
BRANCH  44  58
ATOM     58  C   UNL A   1      42.600  22.082  27.352  1.00  0.00     0.023 A 
ATOM     59  C   UNL A   1      41.733  20.994  27.600  1.00  0.00     0.012 A 
ATOM     60  C   UNL A   1      43.514  21.899  26.288  1.00  0.00     0.148 A 
ATOM     61  C   UNL A   1      41.844  19.772  26.926  1.00  0.00     0.002 A 
ATOM     62  C   UNL A   1      43.680  20.659  25.664  1.00  0.00     0.091 A 
ATOM     63  F   UNL A   1      44.174  22.943  25.785  1.00  0.00    -0.205 F 
ATOM     64  C   UNL A   1      42.846  19.588  25.985  1.00  0.00     0.022 A 
BRANCH  62  65
ATOM     65  S   UNL A   1      45.008  20.341  24.486  1.00  0.00     0.127 S 
ATOM     66  O   UNL A   1      46.195  20.734  25.248  1.00  0.00    -0.237 OA
ATOM     67  O   UNL A   1      44.885  18.903  24.254  1.00  0.00    -0.237 OA
ATOM     68  O   UNL A   1      44.740  21.186  23.328  1.00  0.00    -0.744 OA
ENDBRANCH  62  65
ENDBRANCH  44  58
BRANCH  45  69
ATOM     69  C   UNL A   1      42.198  30.431  32.121  1.00  0.00     0.023 A 
ATOM     70  C   UNL A   1      42.132  31.774  31.678  1.00  0.00     0.012 A 
ATOM     71  C   UNL A   1      41.056  29.855  32.699  1.00  0.00     0.148 A 
ATOM     72  C   UNL A   1      40.910  32.448  31.632  1.00  0.00     0.002 A 
ATOM     73  C   UNL A   1      39.848  30.541  32.667  1.00  0.00     0.091 A 
ATOM     74  F   UNL A   1      41.128  28.616  33.200  1.00  0.00    -0.205 F 
ATOM     75  C   UNL A   1      39.758  31.811  32.081  1.00  0.00     0.022 A 
BRANCH  73  76
ATOM     76  S   UNL A   1      38.357  29.745  33.269  1.00  0.00     0.127 S 
ATOM     77  O   UNL A   1      38.599  28.355  32.897  1.00  0.00    -0.237 OA
ATOM     78  O   UNL A   1      38.407  30.018  34.705  1.00  0.00    -0.237 OA
ATOM     79  O   UNL A   1      37.282  30.434  32.570  1.00  0.00    -0.744 OA
ENDBRANCH  73  76
ENDBRANCH  45  69
BRANCH  57  80
ATOM     80  C   UNL A   1      45.021  23.863  33.314  1.00  0.00     0.023 A 
ATOM     81  C   UNL A   1      43.990  23.026  33.786  1.00  0.00     0.012 A 
ATOM     82  C   UNL A   1      46.305  23.636  33.887  1.00  0.00     0.148 A 
ATOM     83  C   UNL A   1      44.231  21.938  34.634  1.00  0.00     0.002 A 
ATOM     84  C   UNL A   1      46.540  22.573  34.758  1.00  0.00     0.091 A 
ATOM     85  F   UNL A   1      47.305  24.489  33.642  1.00  0.00    -0.205 F 
ATOM     86  C   UNL A   1      45.511  21.698  35.104  1.00  0.00     0.022 A 
BRANCH  84  87
ATOM     87  S   UNL A   1      48.145  22.281  35.516  1.00  0.00     0.127 S 
ATOM     88  O   UNL A   1      48.240  23.409  36.444  1.00  0.00    -0.237 OA
ATOM     89  O   UNL A   1      47.946  20.981  36.157  1.00  0.00    -0.237 OA
ATOM     90  O   UNL A   1      49.116  22.281  34.431  1.00  0.00    -0.744 OA
ENDBRANCH  84  87
ENDBRANCH  57  80
ENDBRANCH  31  32
ENDBRANCH  23  26
ENDBRANCH   1  22
TORSDOF 15
ENDMDL
MODEL 3
REMARK VINA RESULT:     -12.6      4.373     10.578
REMARK SMILES Cc1cc([N+](=O)[O-])c(C(C)(C)C)cc1C(=O)NCCCNC(=O)c1ccc(-c2c3nc(c(-c4cccc(S(=O)(=O)[O-])c4F)c4ccc([nH]4)c(-c4cccc(S(=O)(=O)[O-])c4F)c4nc(c(-c5cccc(S(=O)(=O)[O-])c5F)c5ccc2[nH]5)C=C4)C=C3)cc1
REMARK SMILES IDX 20 1 19 2 18 3 17 4 15 5 16 6 14 8 1 9 2 10 3 11 4 12 13 13
REMARK SMILES IDX 8 14 5 15 6 16 7 17 9 18 10 19 11 20 12 21 21 22 22 23 23 25
REMARK SMILES IDX 24 26 25 27 86 28 26 29 85 30 27 31 28 32 29 33 79 34 30 35
REMARK SMILES IDX 84 36 78 37 80 38 31 39 83 40 77 41 76 42 32 44 64 45 44 46
REMARK SMILES IDX 63 47 45 48 48 49 62 50 81 51 46 52 47 53 61 55 82 56 49 57
REMARK SMILES IDX 33 58 34 59 42 60 35 61 37 62 43 63 36 64 38 65 39 66 40 67
REMARK SMILES IDX 41 68 65 69 66 70 74 71 67 72 69 73 75 74 68 75 70 76 71 77
REMARK SMILES IDX 72 78 73 79 50 80 51 81 59 82 52 83 54 84 60 85 53 86 55 87
REMARK SMILES IDX 56 88 57 89 58 90
REMARK H PARENT 17 7 21 24 80 43 48 54
REMARK Flexibility Score: inf
ROOT
ATOM      1  C   UNL A   1      34.246  30.703  28.317  1.00  0.00     0.118 C 
ENDROOT
BRANCH   1   2
ATOM      2  C   UNL A   1      34.159  30.280  26.863  1.00  0.00     0.042 C 
BRANCH   2   3
ATOM      3  C   UNL A   1      34.356  28.800  26.547  1.00  0.00     0.118 C 
BRANCH   3   4
ATOM      4  N   UNL A   1      34.087  28.519  25.153  1.00  0.00    -0.352 N 
ATOM      5  C   UNL A   1      33.766  27.399  24.434  1.00  0.00     0.251 C 
ATOM      6  O   UNL A   1      33.616  27.579  23.220  1.00  0.00    -0.269 OA
ATOM      7  H   UNL A   1      34.150  29.323  24.588  1.00  0.00     0.163 HD
BRANCH   5   8
ATOM      8  C   UNL A   1      33.502  26.007  24.958  1.00  0.00     0.043 A 
ATOM      9  C   UNL A   1      31.545  26.375  26.603  1.00  0.00     0.045 C 
ATOM     10  C   UNL A   1      32.537  25.549  25.858  1.00  0.00    -0.032 A 
ATOM     11  C   UNL A   1      32.514  24.183  26.201  1.00  0.00     0.090 A 
ATOM     12  C   UNL A   1      33.528  23.277  25.836  1.00  0.00     0.273 A 
ATOM     13  C   UNL A   1      34.516  25.077  24.595  1.00  0.00     0.025 A 
ATOM     14  C   UNL A   1      34.626  23.736  25.072  1.00  0.00     0.036 A 
BRANCH  12  15
ATOM     15  N   UNL A   1      33.313  21.900  26.350  1.00  0.00     0.063 N 
ATOM     16  O   UNL A   1      33.908  21.586  27.393  1.00  0.00    -0.258 OA
ATOM     17  O   UNL A   1      32.590  21.114  25.733  1.00  0.00    -0.258 OA
ENDBRANCH  12  15
BRANCH  14  18
ATOM     18  C   UNL A   1      35.943  22.971  24.798  1.00  0.00    -0.006 C 
ATOM     19  C   UNL A   1      36.448  23.303  23.369  1.00  0.00     0.016 C 
ATOM     20  C   UNL A   1      36.984  23.224  25.908  1.00  0.00     0.016 C 
ATOM     21  C   UNL A   1      35.803  21.414  24.763  1.00  0.00     0.016 C 
ENDBRANCH  14  18
ENDBRANCH   5   8
ENDBRANCH   3   4
ENDBRANCH   2   3
ENDBRANCH   1   2
BRANCH   1  22
ATOM     22  N   UNL A   1      35.349  31.667  28.462  1.00  0.00    -0.352 N 
ATOM     23  C   UNL A   1      36.714  31.472  28.562  1.00  0.00     0.251 C 
ATOM     24  H   UNL A   1      35.067  32.611  28.493  1.00  0.00     0.163 HD
ATOM     25  O   UNL A   1      37.479  32.402  28.727  1.00  0.00    -0.269 OA
BRANCH  23  26
ATOM     26  C   UNL A   1      37.186  30.091  28.375  1.00  0.00     0.039 A 
ATOM     27  C   UNL A   1      37.370  29.354  29.547  1.00  0.00     0.014 A 
ATOM     28  C   UNL A   1      37.868  29.799  27.196  1.00  0.00     0.014 A 
ATOM     29  C   UNL A   1      38.457  28.499  29.625  1.00  0.00     0.010 A 
ATOM     30  C   UNL A   1      38.980  28.988  27.295  1.00  0.00     0.010 A 
ATOM     31  C   UNL A   1      39.320  28.425  28.535  1.00  0.00    -0.014 A 
BRANCH  31  32
ATOM     32  C   UNL A   1      40.609  27.762  28.601  1.00  0.00     0.031 A 
ATOM     33  C   UNL A   1      40.643  26.302  28.448  1.00  0.00     0.074 A 
ATOM     34  C   UNL A   1      41.755  28.449  28.800  1.00  0.00     0.049 A 
ATOM     35  N   UNL A   1      41.594  25.549  28.877  1.00  0.00    -0.248 NA
ATOM     36  C   UNL A   1      39.531  25.575  27.856  1.00  0.00     0.031 C 
ATOM     37  C   UNL A   1      43.116  27.960  28.614  1.00  0.00     0.029 A 
ATOM     38  N   UNL A   1      41.915  29.668  29.461  1.00  0.00    -0.354 N 
ATOM     39  C   UNL A   1      41.368  24.290  28.373  1.00  0.00     0.074 A 
ATOM     40  C   UNL A   1      40.023  24.336  27.853  1.00  0.00     0.031 C 
ATOM     41  C   UNL A   1      43.945  28.693  29.372  1.00  0.00     0.029 A 
ATOM     42  C   UNL A   1      43.123  29.570  30.184  1.00  0.00     0.049 A 
ATOM     43  H   UNL A   1      41.307  30.442  29.430  1.00  0.00     0.167 HD
ATOM     44  C   UNL A   1      42.412  23.416  28.315  1.00  0.00     0.034 A 
ATOM     45  C   UNL A   1      43.224  29.738  31.537  1.00  0.00     0.034 A 
ATOM     46  C   UNL A   1      43.593  23.951  29.021  1.00  0.00     0.049 A 
ATOM     47  C   UNL A   1      43.836  28.541  32.254  1.00  0.00     0.074 A 
ATOM     48  C   UNL A   1      44.768  24.563  28.614  1.00  0.00     0.029 A 
ATOM     49  N   UNL A   1      43.524  24.142  30.395  1.00  0.00    -0.354 N 
ATOM     50  N   UNL A   1      44.268  27.454  31.675  1.00  0.00    -0.248 NA
ATOM     51  C   UNL A   1      43.865  28.438  33.712  1.00  0.00     0.031 C 
ATOM     52  C   UNL A   1      45.397  25.136  29.758  1.00  0.00     0.029 A 
ATOM     53  C   UNL A   1      44.618  24.856  30.867  1.00  0.00     0.049 A 
ATOM     54  H   UNL A   1      42.791  23.813  30.963  1.00  0.00     0.167 HD
ATOM     55  C   UNL A   1      44.443  26.469  32.620  1.00  0.00     0.074 A 
ATOM     56  C   UNL A   1      44.189  27.148  33.881  1.00  0.00     0.031 C 
ATOM     57  C   UNL A   1      44.697  25.159  32.294  1.00  0.00     0.034 A 
BRANCH  44  58
ATOM     58  C   UNL A   1      42.475  22.229  27.362  1.00  0.00     0.023 A 
ATOM     59  C   UNL A   1      41.545  21.185  27.567  1.00  0.00     0.012 A 
ATOM     60  C   UNL A   1      43.429  21.999  26.342  1.00  0.00     0.148 A 
ATOM     61  C   UNL A   1      41.628  19.957  26.898  1.00  0.00     0.002 A 
ATOM     62  C   UNL A   1      43.563  20.752  25.726  1.00  0.00     0.091 A 
ATOM     63  F   UNL A   1      44.162  23.008  25.872  1.00  0.00    -0.205 F 
ATOM     64  C   UNL A   1      42.664  19.723  26.007  1.00  0.00     0.022 A 
BRANCH  62  65
ATOM     65  S   UNL A   1      44.929  20.366  24.613  1.00  0.00     0.127 S 
ATOM     66  O   UNL A   1      44.722  18.940  24.357  1.00  0.00    -0.237 OA
ATOM     67  O   UNL A   1      44.657  21.234  23.469  1.00  0.00    -0.237 OA
ATOM     68  O   UNL A   1      46.153  20.666  25.348  1.00  0.00    -0.744 OA
ENDBRANCH  62  65
ENDBRANCH  44  58
BRANCH  45  69
ATOM     69  C   UNL A   1      42.138  30.598  32.101  1.00  0.00     0.023 A 
ATOM     70  C   UNL A   1      42.039  31.924  31.615  1.00  0.00     0.012 A 
ATOM     71  C   UNL A   1      41.025  30.027  32.737  1.00  0.00     0.148 A 
ATOM     72  C   UNL A   1      40.806  32.580  31.588  1.00  0.00     0.002 A 
ATOM     73  C   UNL A   1      39.806  30.696  32.722  1.00  0.00     0.091 A 
ATOM     74  F   UNL A   1      41.131  28.807  33.277  1.00  0.00    -0.205 F 
ATOM     75  C   UNL A   1      39.679  31.944  32.098  1.00  0.00     0.022 A 
BRANCH  73  76
ATOM     76  S   UNL A   1      38.348  29.902  33.403  1.00  0.00     0.127 S 
ATOM     77  O   UNL A   1      38.525  28.528  32.945  1.00  0.00    -0.237 OA
ATOM     78  O   UNL A   1      38.518  30.100  34.841  1.00  0.00    -0.237 OA
ATOM     79  O   UNL A   1      37.239  30.648  32.825  1.00  0.00    -0.744 OA
ENDBRANCH  73  76
ENDBRANCH  45  69
BRANCH  57  80
ATOM     80  C   UNL A   1      44.961  24.029  33.291  1.00  0.00     0.023 A 
ATOM     81  C   UNL A   1      43.942  23.165  33.739  1.00  0.00     0.012 A 
ATOM     82  C   UNL A   1      46.238  23.833  33.890  1.00  0.00     0.148 A 
ATOM     83  C   UNL A   1      44.193  22.080  34.589  1.00  0.00     0.002 A 
ATOM     84  C   UNL A   1      46.482  22.773  34.763  1.00  0.00     0.091 A 
ATOM     85  F   UNL A   1      47.221  24.712  33.669  1.00  0.00    -0.205 F 
ATOM     86  C   UNL A   1      45.469  21.871  35.085  1.00  0.00     0.022 A 
BRANCH  84  87
ATOM     87  S   UNL A   1      48.078  22.519  35.554  1.00  0.00     0.127 S 
ATOM     88  O   UNL A   1      48.952  22.337  34.395  1.00  0.00    -0.237 OA
ATOM     89  O   UNL A   1      48.268  23.782  36.267  1.00  0.00    -0.237 OA
ATOM     90  O   UNL A   1      47.928  21.353  36.412  1.00  0.00    -0.744 OA
ENDBRANCH  84  87
ENDBRANCH  57  80
ENDBRANCH  31  32
ENDBRANCH  23  26
ENDBRANCH   1  22
TORSDOF 15
ENDMDL
