MODEL 1
REMARK VINA RESULT:     -11.8      0.000      0.000
REMARK SMILES COC(=O)[C@@H]1CCN(S(=O)(=O)N2CCC(C(=O)NCCCNC(=O)c3ccc(-c4c5nc(c(-c6cccc(S(=O)(=O)[O-])c6F)c6ccc([nH]6)c(-c6cccc(S(=O)(=O)[O-])c6F)c6nc(c(-c7cccc(S(=O)(=O)[O-])c7F)c7ccc4[nH]7)C=C6)C=C5)cc3)CC2)C1
REMARK SMILES IDX 19 1 18 2 16 3 17 4 15 6 12 7 13 8 89 9 14 10 88 11 9 12
REMARK SMILES IDX 10 13 11 14 8 15 5 16 6 17 90 18 7 19 3 20 4 21 2 22 1 23
REMARK SMILES IDX 20 24 21 25 22 26 23 27 24 29 25 30 26 31 87 32 27 33 86 34
REMARK SMILES IDX 28 35 29 36 30 37 80 38 31 39 85 40 79 41 81 42 32 43 84 44
REMARK SMILES IDX 78 45 77 46 33 48 65 49 45 50 64 51 46 52 49 53 63 54 82 55
REMARK SMILES IDX 47 56 48 57 62 59 83 60 50 61 34 62 35 63 43 64 36 65 38 66
REMARK SMILES IDX 44 67 37 68 39 69 40 70 41 71 42 72 66 73 67 74 75 75 68 76
REMARK SMILES IDX 70 77 76 78 69 79 71 80 72 81 73 82 74 83 51 84 52 85 60 86
REMARK SMILES IDX 53 87 55 88 61 89 54 90 56 91 57 92 58 93 59 94
REMARK H PARENT 18 5 22 28 81 47 49 58
REMARK Flexibility Score: inf
ROOT
ATOM      1  C   UNL A   1      31.675  30.611  26.544  1.00  0.00     0.117 C 
ENDROOT
BRANCH   1   2
ATOM      2  N   UNL A   1      33.030  30.135  26.784  1.00  0.00    -0.356 N 
ATOM      3  C   UNL A   1      33.636  28.969  26.441  1.00  0.00     0.223 C 
ATOM      4  O   UNL A   1      34.805  28.793  26.792  1.00  0.00    -0.275 OA
ATOM      5  H   UNL A   1      33.603  30.764  27.278  1.00  0.00     0.163 HD
BRANCH   3   6
ATOM      6  C   UNL A   1      32.926  27.931  25.597  1.00  0.00     0.081 C 
ATOM      7  N   UNL A   1      32.728  25.203  24.736  1.00  0.00    -0.189 NA
ATOM      8  C   UNL A   1      33.140  26.209  23.733  1.00  0.00     0.104 C 
ATOM      9  C   UNL A   1      31.746  25.724  25.700  1.00  0.00     0.104 C 
ATOM     10  C   UNL A   1      33.788  27.394  24.447  1.00  0.00     0.030 C 
ATOM     11  C   UNL A   1      32.322  26.860  26.504  1.00  0.00     0.030 C 
BRANCH   7  12
ATOM     12  S   UNL A   1      32.501  23.625  24.179  1.00  0.00     0.281 S 
ATOM     13  O   UNL A   1      32.601  23.619  22.740  1.00  0.00    -0.195 OA
ATOM     14  O   UNL A   1      31.343  23.073  24.847  1.00  0.00    -0.195 OA
BRANCH  12  15
ATOM     15  N   UNL A   1      33.871  22.817  24.783  1.00  0.00    -0.188 NA
ATOM     16  C   UNL A   1      36.199  23.420  24.395  1.00  0.00     0.116 C 
ATOM     17  C   UNL A   1      35.635  24.221  25.548  1.00  0.00     0.033 C 
ATOM     18  C   UNL A   1      34.999  22.698  23.788  1.00  0.00     0.118 C 
ATOM     19  C   UNL A   1      34.489  23.356  26.021  1.00  0.00     0.104 C 
BRANCH  16  20
ATOM     20  C   UNL A   1      37.243  22.452  24.899  1.00  0.00     0.310 C 
ATOM     21  O   UNL A   1      38.072  22.702  25.764  1.00  0.00    -0.252 OA
BRANCH  20  22
ATOM     22  O   UNL A   1      37.170  21.280  24.212  1.00  0.00    -0.469 OA
ATOM     23  C   UNL A   1      37.710  20.171  24.930  1.00  0.00     0.282 C 
ENDBRANCH  20  22
ENDBRANCH  16  20
ENDBRANCH  12  15
ENDBRANCH   7  12
ENDBRANCH   3   6
ENDBRANCH   1   2
BRANCH   1  24
ATOM     24  C   UNL A   1      31.587  32.124  26.605  1.00  0.00     0.042 C 
BRANCH  24  25
ATOM     25  C   UNL A   1      32.720  32.753  27.393  1.00  0.00     0.118 C 
BRANCH  25  26
ATOM     26  N   UNL A   1      32.476  34.159  27.696  1.00  0.00    -0.352 N 
ATOM     27  C   UNL A   1      33.021  34.950  28.675  1.00  0.00     0.251 C 
ATOM     28  H   UNL A   1      31.822  34.606  27.110  1.00  0.00     0.163 HD
ATOM     29  O   UNL A   1      32.537  36.053  28.911  1.00  0.00    -0.269 OA
BRANCH  27  30
ATOM     30  C   UNL A   1      34.179  34.459  29.450  1.00  0.00     0.039 A 
ATOM     31  C   UNL A   1      33.973  33.942  30.731  1.00  0.00     0.014 A 
ATOM     32  C   UNL A   1      35.464  34.494  28.904  1.00  0.00     0.014 A 
ATOM     33  C   UNL A   1      35.049  33.400  31.433  1.00  0.00     0.010 A 
ATOM     34  C   UNL A   1      36.508  33.852  29.557  1.00  0.00     0.010 A 
ATOM     35  C   UNL A   1      36.317  33.314  30.836  1.00  0.00    -0.014 A 
BRANCH  35  36
ATOM     36  C   UNL A   1      37.462  32.674  31.532  1.00  0.00     0.031 A 
ATOM     37  C   UNL A   1      38.168  31.503  30.900  1.00  0.00     0.074 A 
ATOM     38  C   UNL A   1      37.813  33.094  32.764  1.00  0.00     0.049 A 
ATOM     39  N   UNL A   1      39.143  30.774  31.378  1.00  0.00    -0.248 NA
ATOM     40  C   UNL A   1      37.699  31.075  29.571  1.00  0.00     0.031 C 
ATOM     41  C   UNL A   1      37.154  34.167  33.514  1.00  0.00     0.029 A 
ATOM     42  N   UNL A   1      38.796  32.653  33.614  1.00  0.00    -0.354 N 
ATOM     43  C   UNL A   1      39.381  29.789  30.427  1.00  0.00     0.074 A 
ATOM     44  C   UNL A   1      38.417  29.981  29.368  1.00  0.00     0.031 C 
ATOM     45  C   UNL A   1      37.757  34.306  34.706  1.00  0.00     0.029 A 
ATOM     46  C   UNL A   1      38.817  33.310  34.822  1.00  0.00     0.049 A 
ATOM     47  H   UNL A   1      39.426  31.933  33.381  1.00  0.00     0.167 HD
ATOM     48  C   UNL A   1      40.338  28.832  30.416  1.00  0.00     0.034 A 
ATOM     49  C   UNL A   1      39.593  33.121  35.906  1.00  0.00     0.034 A 
ATOM     50  C   UNL A   1      41.314  28.663  31.458  1.00  0.00     0.049 A 
ATOM     51  C   UNL A   1      40.658  32.058  35.864  1.00  0.00     0.074 A 
ATOM     52  C   UNL A   1      42.369  27.770  31.512  1.00  0.00     0.029 A 
ATOM     53  N   UNL A   1      41.351  29.397  32.633  1.00  0.00    -0.354 N 
ATOM     54  N   UNL A   1      40.963  31.233  34.891  1.00  0.00    -0.248 NA
ATOM     55  C   UNL A   1      41.509  31.923  37.054  1.00  0.00     0.031 C 
ATOM     56  C   UNL A   1      43.024  27.942  32.735  1.00  0.00     0.029 A 
ATOM     57  C   UNL A   1      42.404  28.970  33.424  1.00  0.00     0.049 A 
ATOM     58  H   UNL A   1      40.721  30.115  32.871  1.00  0.00     0.167 HD
ATOM     59  C   UNL A   1      42.065  30.512  35.335  1.00  0.00     0.074 A 
ATOM     60  C   UNL A   1      42.387  31.013  36.655  1.00  0.00     0.031 C 
ATOM     61  C   UNL A   1      42.742  29.516  34.714  1.00  0.00     0.034 A 
BRANCH  48  62
ATOM     62  C   UNL A   1      40.407  27.923  29.214  1.00  0.00     0.023 A 
ATOM     63  C   UNL A   1      39.505  26.845  29.105  1.00  0.00     0.012 A 
ATOM     64  C   UNL A   1      41.320  28.168  28.171  1.00  0.00     0.148 A 
ATOM     65  C   UNL A   1      39.538  25.999  27.997  1.00  0.00     0.002 A 
ATOM     66  C   UNL A   1      41.313  27.351  27.046  1.00  0.00     0.091 A 
ATOM     67  F   UNL A   1      42.181  29.186  28.300  1.00  0.00    -0.205 F 
ATOM     68  C   UNL A   1      40.433  26.259  26.964  1.00  0.00     0.022 A 
BRANCH  66  69
ATOM     69  S   UNL A   1      42.368  27.648  25.623  1.00  0.00     0.127 S 
ATOM     70  O   UNL A   1      43.695  27.661  26.237  1.00  0.00    -0.237 OA
ATOM     71  O   UNL A   1      42.094  26.478  24.790  1.00  0.00    -0.237 OA
ATOM     72  O   UNL A   1      41.932  28.916  25.056  1.00  0.00    -0.744 OA
ENDBRANCH  66  69
ENDBRANCH  48  62
BRANCH  49  73
ATOM     73  C   UNL A   1      39.426  33.984  37.111  1.00  0.00     0.023 A 
ATOM     74  C   UNL A   1      39.880  35.317  37.080  1.00  0.00     0.012 A 
ATOM     75  C   UNL A   1      38.823  33.491  38.285  1.00  0.00     0.148 A 
ATOM     76  C   UNL A   1      39.779  36.130  38.210  1.00  0.00     0.002 A 
ATOM     77  C   UNL A   1      38.672  34.323  39.386  1.00  0.00     0.091 A 
ATOM     78  F   UNL A   1      38.405  32.218  38.297  1.00  0.00    -0.205 F 
ATOM     79  C   UNL A   1      39.167  35.636  39.360  1.00  0.00     0.022 A 
BRANCH  77  80
ATOM     80  S   UNL A   1      37.788  33.813  40.864  1.00  0.00     0.127 S 
ATOM     81  O   UNL A   1      36.611  33.161  40.298  1.00  0.00    -0.237 OA
ATOM     82  O   UNL A   1      38.752  32.910  41.495  1.00  0.00    -0.237 OA
ATOM     83  O   UNL A   1      37.535  35.038  41.612  1.00  0.00    -0.744 OA
ENDBRANCH  77  80
ENDBRANCH  49  73
BRANCH  61  84
ATOM     84  C   UNL A   1      43.937  28.934  35.424  1.00  0.00     0.023 A 
ATOM     85  C   UNL A   1      45.216  29.495  35.235  1.00  0.00     0.012 A 
ATOM     86  C   UNL A   1      43.776  27.870  36.334  1.00  0.00     0.148 A 
ATOM     87  C   UNL A   1      46.321  28.981  35.911  1.00  0.00     0.002 A 
ATOM     88  C   UNL A   1      44.872  27.400  37.046  1.00  0.00     0.091 A 
ATOM     89  F   UNL A   1      42.553  27.341  36.487  1.00  0.00    -0.205 F 
ATOM     90  C   UNL A   1      46.147  27.943  36.824  1.00  0.00     0.022 A 
BRANCH  88  91
ATOM     91  S   UNL A   1      44.728  26.137  38.314  1.00  0.00     0.127 S 
ATOM     92  O   UNL A   1      44.064  25.058  37.586  1.00  0.00    -0.237 OA
ATOM     93  O   UNL A   1      46.129  25.876  38.649  1.00  0.00    -0.237 OA
ATOM     94  O   UNL A   1      43.949  26.732  39.392  1.00  0.00    -0.744 OA
ENDBRANCH  88  91
ENDBRANCH  61  84
ENDBRANCH  35  36
ENDBRANCH  27  30
ENDBRANCH  25  26
ENDBRANCH  24  25
ENDBRANCH   1  24
TORSDOF 17
ENDMDL
MODEL 2
REMARK VINA RESULT:     -11.5      0.972      7.809
REMARK SMILES COC(=O)[C@@H]1CCN(S(=O)(=O)N2CCC(C(=O)NCCCNC(=O)c3ccc(-c4c5nc(c(-c6cccc(S(=O)(=O)[O-])c6F)c6ccc([nH]6)c(-c6cccc(S(=O)(=O)[O-])c6F)c6nc(c(-c7cccc(S(=O)(=O)[O-])c7F)c7ccc4[nH]7)C=C6)C=C5)cc3)CC2)C1
REMARK SMILES IDX 19 1 18 2 16 3 17 4 15 6 12 7 13 8 89 9 14 10 88 11 9 12
REMARK SMILES IDX 10 13 11 14 8 15 5 16 6 17 90 18 7 19 3 20 4 21 2 22 1 23
REMARK SMILES IDX 20 24 21 25 22 26 23 27 24 29 25 30 26 31 87 32 27 33 86 34
REMARK SMILES IDX 28 35 29 36 30 37 80 38 31 39 85 40 79 41 81 42 32 43 84 44
REMARK SMILES IDX 78 45 77 46 33 48 65 49 45 50 64 51 46 52 49 53 63 54 82 55
REMARK SMILES IDX 47 56 48 57 62 59 83 60 50 61 34 62 35 63 43 64 36 65 38 66
REMARK SMILES IDX 44 67 37 68 39 69 40 70 41 71 42 72 66 73 67 74 75 75 68 76
REMARK SMILES IDX 70 77 76 78 69 79 71 80 72 81 73 82 74 83 51 84 52 85 60 86
REMARK SMILES IDX 53 87 55 88 61 89 54 90 56 91 57 92 58 93 59 94
REMARK H PARENT 18 5 22 28 81 47 49 58
REMARK Flexibility Score: inf
ROOT
ATOM      1  C   UNL A   1      31.555  30.997  26.530  1.00  0.00     0.117 C 
ENDROOT
BRANCH   1   2
ATOM      2  N   UNL A   1      32.880  30.440  26.768  1.00  0.00    -0.356 N 
ATOM      3  C   UNL A   1      33.553  29.447  26.132  1.00  0.00     0.223 C 
ATOM      4  O   UNL A   1      34.672  29.139  26.549  1.00  0.00    -0.275 OA
ATOM      5  H   UNL A   1      33.369  30.853  27.515  1.00  0.00     0.163 HD
BRANCH   3   6
ATOM      6  C   UNL A   1      32.983  28.773  24.901  1.00  0.00     0.081 C 
ATOM      7  N   UNL A   1      32.925  26.479  23.180  1.00  0.00    -0.189 NA
ATOM      8  C   UNL A   1      33.484  27.734  22.631  1.00  0.00     0.104 C 
ATOM      9  C   UNL A   1      31.806  26.710  24.107  1.00  0.00     0.104 C 
ATOM     10  C   UNL A   1      34.013  28.593  23.779  1.00  0.00     0.030 C 
ATOM     11  C   UNL A   1      32.249  27.497  25.312  1.00  0.00     0.030 C 
BRANCH   7  12
ATOM     12  S   UNL A   1      32.789  25.178  22.113  1.00  0.00     0.281 S 
ATOM     13  O   UNL A   1      33.224  25.600  20.803  1.00  0.00    -0.195 OA
ATOM     14  O   UNL A   1      31.492  24.570  22.306  1.00  0.00    -0.195 OA
BRANCH  12  15
ATOM     15  N   UNL A   1      33.956  24.089  22.704  1.00  0.00    -0.188 NA
ATOM     16  C   UNL A   1      34.321  23.478  25.033  1.00  0.00     0.116 C 
ATOM     17  C   UNL A   1      33.215  22.634  24.436  1.00  0.00     0.033 C 
ATOM     18  C   UNL A   1      34.623  24.540  23.979  1.00  0.00     0.118 C 
ATOM     19  C   UNL A   1      33.517  22.693  22.957  1.00  0.00     0.104 C 
BRANCH  16  20
ATOM     20  C   UNL A   1      35.527  22.617  25.326  1.00  0.00     0.310 C 
ATOM     21  O   UNL A   1      35.709  21.491  24.883  1.00  0.00    -0.252 OA
BRANCH  20  22
ATOM     22  O   UNL A   1      36.355  23.247  26.203  1.00  0.00    -0.469 OA
ATOM     23  C   UNL A   1      37.674  23.441  25.693  1.00  0.00     0.282 C 
ENDBRANCH  20  22
ENDBRANCH  16  20
ENDBRANCH  12  15
ENDBRANCH   7  12
ENDBRANCH   3   6
ENDBRANCH   1   2
BRANCH   1  24
ATOM     24  C   UNL A   1      31.535  32.504  26.703  1.00  0.00     0.042 C 
BRANCH  24  25
ATOM     25  C   UNL A   1      32.685  33.019  27.547  1.00  0.00     0.118 C 
BRANCH  25  26
ATOM     26  N   UNL A   1      32.512  34.415  27.933  1.00  0.00    -0.352 N 
ATOM     27  C   UNL A   1      33.108  35.123  28.946  1.00  0.00     0.251 C 
ATOM     28  H   UNL A   1      31.870  34.925  27.386  1.00  0.00     0.163 HD
ATOM     29  O   UNL A   1      32.679  36.232  29.253  1.00  0.00    -0.269 OA
BRANCH  27  30
ATOM     30  C   UNL A   1      34.255  34.537  29.670  1.00  0.00     0.039 A 
ATOM     31  C   UNL A   1      34.023  33.812  30.841  1.00  0.00     0.014 A 
ATOM     32  C   UNL A   1      35.555  34.688  29.182  1.00  0.00     0.014 A 
ATOM     33  C   UNL A   1      35.091  33.185  31.482  1.00  0.00     0.010 A 
ATOM     34  C   UNL A   1      36.595  33.971  29.757  1.00  0.00     0.010 A 
ATOM     35  C   UNL A   1      36.379  33.225  30.923  1.00  0.00    -0.014 A 
BRANCH  35  36
ATOM     36  C   UNL A   1      37.518  32.504  31.545  1.00  0.00     0.031 A 
ATOM     37  C   UNL A   1      38.086  32.981  32.856  1.00  0.00     0.074 A 
ATOM     38  C   UNL A   1      38.091  31.473  30.892  1.00  0.00     0.049 A 
ATOM     39  N   UNL A   1      39.114  32.525  33.523  1.00  0.00    -0.248 NA
ATOM     40  C   UNL A   1      37.432  34.140  33.487  1.00  0.00     0.031 C 
ATOM     41  C   UNL A   1      37.682  30.969  29.579  1.00  0.00     0.029 A 
ATOM     42  N   UNL A   1      39.157  30.679  31.233  1.00  0.00    -0.354 N 
ATOM     43  C   UNL A   1      39.248  33.355  34.629  1.00  0.00     0.074 A 
ATOM     44  C   UNL A   1      38.229  34.374  34.520  1.00  0.00     0.031 C 
ATOM     45  C   UNL A   1      38.480  29.946  29.231  1.00  0.00     0.029 A 
ATOM     46  C   UNL A   1      39.480  29.747  30.275  1.00  0.00     0.049 A 
ATOM     47  H   UNL A   1      39.645  30.769  32.083  1.00  0.00     0.167 HD
ATOM     48  C   UNL A   1      40.117  33.260  35.663  1.00  0.00     0.034 A 
ATOM     49  C   UNL A   1      40.478  28.844  30.235  1.00  0.00     0.034 A 
ATOM     50  C   UNL A   1      41.109  32.228  35.783  1.00  0.00     0.049 A 
ATOM     51  C   UNL A   1      41.423  28.751  31.403  1.00  0.00     0.074 A 
ATOM     52  C   UNL A   1      41.992  32.000  36.823  1.00  0.00     0.029 A 
ATOM     53  N   UNL A   1      41.358  31.255  34.827  1.00  0.00    -0.354 N 
ATOM     54  N   UNL A   1      41.439  29.453  32.511  1.00  0.00    -0.248 NA
ATOM     55  C   UNL A   1      42.466  27.718  31.333  1.00  0.00     0.031 C 
ATOM     56  C   UNL A   1      42.797  30.909  36.481  1.00  0.00     0.029 A 
ATOM     57  C   UNL A   1      42.388  30.431  35.248  1.00  0.00     0.049 A 
ATOM     58  H   UNL A   1      40.874  31.164  33.974  1.00  0.00     0.167 HD
ATOM     59  C   UNL A   1      42.463  28.920  33.285  1.00  0.00     0.074 A 
ATOM     60  C   UNL A   1      43.030  27.823  32.528  1.00  0.00     0.031 C 
ATOM     61  C   UNL A   1      42.904  29.310  34.505  1.00  0.00     0.034 A 
BRANCH  48  62
ATOM     62  C   UNL A   1      39.997  34.274  36.773  1.00  0.00     0.023 A 
ATOM     63  C   UNL A   1      40.382  35.610  36.539  1.00  0.00     0.012 A 
ATOM     64  C   UNL A   1      39.455  33.920  38.024  1.00  0.00     0.148 A 
ATOM     65  C   UNL A   1      40.267  36.570  37.544  1.00  0.00     0.002 A 
ATOM     66  C   UNL A   1      39.297  34.893  39.004  1.00  0.00     0.091 A 
ATOM     67  F   UNL A   1      39.112  32.642  38.234  1.00  0.00    -0.205 F 
ATOM     68  C   UNL A   1      39.715  36.214  38.771  1.00  0.00     0.022 A 
BRANCH  66  69
ATOM     69  S   UNL A   1      38.522  34.559  40.589  1.00  0.00     0.127 S 
ATOM     70  O   UNL A   1      39.586  33.846  41.294  1.00  0.00    -0.237 OA
ATOM     71  O   UNL A   1      38.256  35.907  41.090  1.00  0.00    -0.237 OA
ATOM     72  O   UNL A   1      37.332  33.770  40.298  1.00  0.00    -0.744 OA
ENDBRANCH  66  69
ENDBRANCH  48  62
BRANCH  49  73
ATOM     73  C   UNL A   1      40.614  27.922  29.070  1.00  0.00     0.023 A 
ATOM     74  C   UNL A   1      39.833  26.752  29.015  1.00  0.00     0.012 A 
ATOM     75  C   UNL A   1      41.512  28.199  28.021  1.00  0.00     0.148 A 
ATOM     76  C   UNL A   1      39.977  25.850  27.960  1.00  0.00     0.002 A 
ATOM     77  C   UNL A   1      41.607  27.327  26.944  1.00  0.00     0.091 A 
ATOM     78  F   UNL A   1      42.252  29.314  28.096  1.00  0.00    -0.205 F 
ATOM     79  C   UNL A   1      40.857  26.141  26.921  1.00  0.00     0.022 A 
BRANCH  77  80
ATOM     80  S   UNL A   1      42.621  27.681  25.505  1.00  0.00     0.127 S 
ATOM     81  O   UNL A   1      42.004  28.904  25.000  1.00  0.00    -0.237 OA
ATOM     82  O   UNL A   1      43.944  27.858  26.104  1.00  0.00    -0.237 OA
ATOM     83  O   UNL A   1      42.503  26.511  24.644  1.00  0.00    -0.744 OA
ENDBRANCH  77  80
ENDBRANCH  49  73
BRANCH  61  84
ATOM     84  C   UNL A   1      44.020  28.515  35.132  1.00  0.00     0.023 A 
ATOM     85  C   UNL A   1      45.361  28.782  34.787  1.00  0.00     0.012 A 
ATOM     86  C   UNL A   1      43.739  27.547  36.117  1.00  0.00     0.148 A 
ATOM     87  C   UNL A   1      46.400  28.071  35.384  1.00  0.00     0.002 A 
ATOM     88  C   UNL A   1      44.783  26.882  36.748  1.00  0.00     0.091 A 
ATOM     89  F   UNL A   1      42.457  27.297  36.419  1.00  0.00    -0.205 F 
ATOM     90  C   UNL A   1      46.112  27.131  36.371  1.00  0.00     0.022 A 
BRANCH  88  91
ATOM     91  S   UNL A   1      44.516  25.730  38.099  1.00  0.00     0.127 S 
ATOM     92  O   UNL A   1      43.950  26.602  39.126  1.00  0.00    -0.237 OA
ATOM     93  O   UNL A   1      43.567  24.782  37.512  1.00  0.00    -0.237 OA
ATOM     94  O   UNL A   1      45.821  25.165  38.412  1.00  0.00    -0.744 OA
ENDBRANCH  88  91
ENDBRANCH  61  84
ENDBRANCH  35  36
ENDBRANCH  27  30
ENDBRANCH  25  26
ENDBRANCH  24  25
ENDBRANCH   1  24
TORSDOF 17
ENDMDL
MODEL 3
REMARK VINA RESULT:     -11.4      6.226     11.757
REMARK SMILES COC(=O)[C@@H]1CCN(S(=O)(=O)N2CCC(C(=O)NCCCNC(=O)c3ccc(-c4c5nc(c(-c6cccc(S(=O)(=O)[O-])c6F)c6ccc([nH]6)c(-c6cccc(S(=O)(=O)[O-])c6F)c6nc(c(-c7cccc(S(=O)(=O)[O-])c7F)c7ccc4[nH]7)C=C6)C=C5)cc3)CC2)C1
REMARK SMILES IDX 19 1 18 2 16 3 17 4 15 6 12 7 13 8 89 9 14 10 88 11 9 12
REMARK SMILES IDX 10 13 11 14 8 15 5 16 6 17 90 18 7 19 3 20 4 21 2 22 1 23
REMARK SMILES IDX 20 24 21 25 22 26 23 27 24 29 25 30 26 31 87 32 27 33 86 34
REMARK SMILES IDX 28 35 29 36 30 37 80 38 31 39 85 40 79 41 81 42 32 43 84 44
REMARK SMILES IDX 78 45 77 46 33 48 65 49 45 50 64 51 46 52 49 53 63 54 82 55
REMARK SMILES IDX 47 56 48 57 62 59 83 60 50 61 34 62 35 63 43 64 36 65 38 66
REMARK SMILES IDX 44 67 37 68 39 69 40 70 41 71 42 72 66 73 67 74 75 75 68 76
REMARK SMILES IDX 70 77 76 78 69 79 71 80 72 81 73 82 74 83 51 84 52 85 60 86
REMARK SMILES IDX 53 87 55 88 61 89 54 90 56 91 57 92 58 93 59 94
REMARK H PARENT 18 5 22 28 81 47 49 58
REMARK Flexibility Score: inf
ROOT
ATOM      1  C   UNL A   1      36.706  20.075  24.959  1.00  0.00     0.117 C 
ENDROOT
BRANCH   1   2
ATOM      2  N   UNL A   1      36.834  21.354  25.644  1.00  0.00    -0.356 N 
ATOM      3  C   UNL A   1      36.064  22.471  25.591  1.00  0.00     0.223 C 
ATOM      4  O   UNL A   1      36.407  23.449  26.260  1.00  0.00    -0.275 OA
ATOM      5  H   UNL A   1      37.610  21.420  26.247  1.00  0.00     0.163 HD
BRANCH   3   6
ATOM      6  C   UNL A   1      34.781  22.505  24.788  1.00  0.00     0.081 C 
ATOM      7  N   UNL A   1      32.667  24.057  23.627  1.00  0.00    -0.189 NA
ATOM      8  C   UNL A   1      32.320  23.160  24.751  1.00  0.00     0.104 C 
ATOM      9  C   UNL A   1      33.712  23.501  22.754  1.00  0.00     0.104 C 
ATOM     10  C   UNL A   1      33.561  22.933  25.614  1.00  0.00     0.030 C 
ATOM     11  C   UNL A   1      35.003  23.305  23.504  1.00  0.00     0.030 C 
BRANCH   7  12
ATOM     12  S   UNL A   1      31.387  24.869  22.881  1.00  0.00     0.281 S 
ATOM     13  O   UNL A   1      30.175  24.113  23.083  1.00  0.00    -0.195 OA
ATOM     14  O   UNL A   1      31.811  25.256  21.554  1.00  0.00    -0.195 OA
BRANCH  12  15
ATOM     15  N   UNL A   1      31.257  26.289  23.809  1.00  0.00    -0.188 NA
ATOM     16  C   UNL A   1      30.536  28.478  23.018  1.00  0.00     0.116 C 
ATOM     17  C   UNL A   1      29.335  27.625  23.373  1.00  0.00     0.033 C 
ATOM     18  C   UNL A   1      31.731  27.531  23.097  1.00  0.00     0.118 C 
ATOM     19  C   UNL A   1      29.916  26.628  24.349  1.00  0.00     0.104 C 
BRANCH  16  20
ATOM     20  C   UNL A   1      30.661  29.624  23.993  1.00  0.00     0.310 C 
ATOM     21  O   UNL A   1      29.848  30.530  24.119  1.00  0.00    -0.252 OA
BRANCH  20  22
ATOM     22  O   UNL A   1      31.839  29.541  24.670  1.00  0.00    -0.469 OA
ATOM     23  C   UNL A   1      31.821  30.231  25.919  1.00  0.00     0.282 C 
ENDBRANCH  20  22
ENDBRANCH  16  20
ENDBRANCH  12  15
ENDBRANCH   7  12
ENDBRANCH   3   6
ENDBRANCH   1   2
BRANCH   1  24
ATOM     24  C   UNL A   1      37.995  19.275  25.007  1.00  0.00     0.042 C 
BRANCH  24  25
ATOM     25  C   UNL A   1      39.056  19.913  25.884  1.00  0.00     0.118 C 
BRANCH  25  26
ATOM     26  N   UNL A   1      40.273  19.112  25.958  1.00  0.00    -0.352 N 
ATOM     27  C   UNL A   1      41.576  19.514  26.106  1.00  0.00     0.251 C 
ATOM     28  H   UNL A   1      40.139  18.139  25.889  1.00  0.00     0.163 HD
ATOM     29  O   UNL A   1      42.489  18.711  25.933  1.00  0.00    -0.269 OA
BRANCH  27  30
ATOM     30  C   UNL A   1      41.872  20.918  26.459  1.00  0.00     0.039 A 
ATOM     31  C   UNL A   1      42.277  21.224  27.760  1.00  0.00     0.014 A 
ATOM     32  C   UNL A   1      41.766  21.928  25.500  1.00  0.00     0.014 A 
ATOM     33  C   UNL A   1      42.638  22.534  28.076  1.00  0.00     0.010 A 
ATOM     34  C   UNL A   1      42.234  23.203  25.786  1.00  0.00     0.010 A 
ATOM     35  C   UNL A   1      42.659  23.525  27.082  1.00  0.00    -0.014 A 
BRANCH  35  36
ATOM     36  C   UNL A   1      43.112  24.909  27.374  1.00  0.00     0.031 A 
ATOM     37  C   UNL A   1      42.169  25.888  28.021  1.00  0.00     0.074 A 
ATOM     38  C   UNL A   1      44.340  25.305  26.985  1.00  0.00     0.049 A 
ATOM     39  N   UNL A   1      42.356  27.153  28.297  1.00  0.00    -0.248 NA
ATOM     40  C   UNL A   1      40.828  25.393  28.378  1.00  0.00     0.031 C 
ATOM     41  C   UNL A   1      45.316  24.471  26.279  1.00  0.00     0.029 A 
ATOM     42  N   UNL A   1      44.970  26.518  27.108  1.00  0.00    -0.354 N 
ATOM     43  C   UNL A   1      41.156  27.608  28.829  1.00  0.00     0.074 A 
ATOM     44  C   UNL A   1      40.229  26.500  28.791  1.00  0.00     0.031 C 
ATOM     45  C   UNL A   1      46.423  25.193  26.040  1.00  0.00     0.029 A 
ATOM     46  C   UNL A   1      46.222  26.549  26.539  1.00  0.00     0.049 A 
ATOM     47  H   UNL A   1      44.563  27.292  27.559  1.00  0.00     0.167 HD
ATOM     48  C   UNL A   1      40.859  28.827  29.336  1.00  0.00     0.034 A 
ATOM     49  C   UNL A   1      47.103  27.561  26.420  1.00  0.00     0.034 A 
ATOM     50  C   UNL A   1      41.793  29.917  29.400  1.00  0.00     0.049 A 
ATOM     51  C   UNL A   1      46.753  28.904  27.004  1.00  0.00     0.074 A 
ATOM     52  C   UNL A   1      41.615  31.171  29.957  1.00  0.00     0.029 A 
ATOM     53  N   UNL A   1      43.078  29.889  28.881  1.00  0.00    -0.354 N 
ATOM     54  N   UNL A   1      45.664  29.271  27.637  1.00  0.00    -0.248 NA
ATOM     55  C   UNL A   1      47.766  29.962  26.891  1.00  0.00     0.031 C 
ATOM     56  C   UNL A   1      42.782  31.911  29.746  1.00  0.00     0.029 A 
ATOM     57  C   UNL A   1      43.701  31.106  29.095  1.00  0.00     0.049 A 
ATOM     58  H   UNL A   1      43.487  29.118  28.426  1.00  0.00     0.167 HD
ATOM     59  C   UNL A   1      45.879  30.586  28.032  1.00  0.00     0.074 A 
ATOM     60  C   UNL A   1      47.210  30.944  27.586  1.00  0.00     0.031 C 
ATOM     61  C   UNL A   1      45.046  31.428  28.692  1.00  0.00     0.034 A 
BRANCH  48  62
ATOM     62  C   UNL A   1      39.479  29.029  29.910  1.00  0.00     0.023 A 
ATOM     63  C   UNL A   1      39.188  28.556  31.207  1.00  0.00     0.012 A 
ATOM     64  C   UNL A   1      38.491  29.733  29.195  1.00  0.00     0.148 A 
ATOM     65  C   UNL A   1      37.925  28.743  31.766  1.00  0.00     0.002 A 
ATOM     66  C   UNL A   1      37.250  29.961  29.779  1.00  0.00     0.091 A 
ATOM     67  F   UNL A   1      38.779  30.161  27.958  1.00  0.00    -0.205 F 
ATOM     68  C   UNL A   1      36.961  29.454  31.057  1.00  0.00     0.022 A 
BRANCH  66  69
ATOM     69  S   UNL A   1      35.967  30.935  28.987  1.00  0.00     0.127 S 
ATOM     70  O   UNL A   1      35.269  29.919  28.200  1.00  0.00    -0.237 OA
ATOM     71  O   UNL A   1      35.214  31.440  30.134  1.00  0.00    -0.237 OA
ATOM     72  O   UNL A   1      36.657  31.957  28.212  1.00  0.00    -0.744 OA
ENDBRANCH  66  69
ENDBRANCH  48  62
BRANCH  49  73
ATOM     73  C   UNL A   1      48.421  27.339  25.760  1.00  0.00     0.023 A 
ATOM     74  C   UNL A   1      49.537  26.972  26.538  1.00  0.00     0.012 A 
ATOM     75  C   UNL A   1      48.575  27.488  24.368  1.00  0.00     0.148 A 
ATOM     76  C   UNL A   1      50.791  26.806  25.950  1.00  0.00     0.002 A 
ATOM     77  C   UNL A   1      49.814  27.263  23.781  1.00  0.00     0.091 A 
ATOM     78  F   UNL A   1      47.504  27.844  23.645  1.00  0.00    -0.205 F 
ATOM     79  C   UNL A   1      50.928  26.942  24.571  1.00  0.00     0.022 A 
BRANCH  77  80
ATOM     80  S   UNL A   1      50.056  27.294  22.001  1.00  0.00     0.127 S 
ATOM     81  O   UNL A   1      49.884  28.712  21.702  1.00  0.00    -0.237 OA
ATOM     82  O   UNL A   1      51.427  26.797  21.876  1.00  0.00    -0.237 OA
ATOM     83  O   UNL A   1      49.042  26.403  21.452  1.00  0.00    -0.744 OA
ENDBRANCH  77  80
ENDBRANCH  49  73
BRANCH  61  84
ATOM     84  C   UNL A   1      45.563  32.802  29.027  1.00  0.00     0.023 A 
ATOM     85  C   UNL A   1      46.299  33.014  30.210  1.00  0.00     0.012 A 
ATOM     86  C   UNL A   1      45.376  33.872  28.128  1.00  0.00     0.148 A 
ATOM     87  C   UNL A   1      46.806  34.277  30.512  1.00  0.00     0.002 A 
ATOM     88  C   UNL A   1      45.932  35.114  28.409  1.00  0.00     0.091 A 
ATOM     89  F   UNL A   1      44.660  33.654  27.016  1.00  0.00    -0.205 F 
ATOM     90  C   UNL A   1      46.633  35.322  29.608  1.00  0.00     0.022 A 
BRANCH  88  91
ATOM     91  S   UNL A   1      45.847  36.490  27.260  1.00  0.00     0.127 S 
ATOM     92  O   UNL A   1      44.407  36.726  27.183  1.00  0.00    -0.237 OA
ATOM     93  O   UNL A   1      46.599  37.529  27.966  1.00  0.00    -0.237 OA
ATOM     94  O   UNL A   1      46.469  36.026  26.026  1.00  0.00    -0.744 OA
ENDBRANCH  88  91
ENDBRANCH  61  84
ENDBRANCH  35  36
ENDBRANCH  27  30
ENDBRANCH  25  26
ENDBRANCH  24  25
ENDBRANCH   1  24
TORSDOF 17
ENDMDL
