MODEL 1
REMARK VINA RESULT:     -11.9      0.000      0.000
REMARK SMILES Cc1onc(-c2cccc(Br)c2)c1C(=O)NCCCNC(=O)c1ccc(-c2c3nc(c(-c4cccc(S(=O)(=O)[O-])c4F)c4ccc([nH]4)c(-c4cccc(S(=O)(=O)[O-])c4F)c4nc(c(-c5cccc(S(=O)(=O)[O-])c5F)c5ccc2[nH]5)C=C4)C=C3)cc1
REMARK SMILES IDX 19 1 18 2 17 3 16 4 14 5 15 6 13 8 1 9 2 10 3 11 4 12 5 13
REMARK SMILES IDX 6 14 7 15 12 16 8 17 10 18 9 19 11 20 20 21 21 22 22 24
REMARK SMILES IDX 23 25 24 26 85 27 25 28 84 29 26 30 27 31 28 32 78 33 29 34
REMARK SMILES IDX 83 35 77 36 79 37 30 38 82 39 76 40 75 41 31 43 63 44 43 45
REMARK SMILES IDX 62 46 44 47 47 48 61 49 80 50 45 51 46 52 60 54 81 55 48 56
REMARK SMILES IDX 32 57 33 58 41 59 34 60 36 61 42 62 35 63 37 64 38 65 39 66
REMARK SMILES IDX 40 67 64 68 65 69 73 70 66 71 68 72 74 73 67 74 69 75 70 76
REMARK SMILES IDX 71 77 72 78 49 79 50 80 58 81 51 82 53 83 59 84 52 85 54 86
REMARK SMILES IDX 55 87 56 88 57 89
REMARK H PARENT 16 7 20 23 79 42 47 53
REMARK Flexibility Score: inf
ROOT
ATOM      1  C   UNL A   1      34.009  29.092  26.233  1.00  0.00     0.118 C 
ENDROOT
BRANCH   1   2
ATOM      2  C   UNL A   1      33.249  28.179  27.193  1.00  0.00     0.042 C 
BRANCH   2   3
ATOM      3  C   UNL A   1      31.762  28.506  27.313  1.00  0.00     0.118 C 
BRANCH   3   4
ATOM      4  N   UNL A   1      30.956  27.346  27.021  1.00  0.00    -0.352 N 
ATOM      5  C   UNL A   1      30.788  26.534  25.939  1.00  0.00     0.257 C 
ATOM      6  O   UNL A   1      29.987  25.613  26.158  1.00  0.00    -0.269 OA
ATOM      7  H   UNL A   1      30.396  27.075  27.784  1.00  0.00     0.163 HD
BRANCH   5   8
ATOM      8  C   UNL A   1      31.479  26.637  24.660  1.00  0.00     0.110 A 
ATOM      9  C   UNL A   1      33.907  25.481  24.661  1.00  0.00     0.092 C 
ATOM     10  C   UNL A   1      32.704  26.186  24.179  1.00  0.00     0.147 A 
ATOM     11  O   UNL A   1      32.825  26.519  22.865  1.00  0.00    -0.360 OA
ATOM     12  N   UNL A   1      31.745  27.239  22.450  1.00  0.00    -0.079 NA
ATOM     13  C   UNL A   1      30.955  27.368  23.521  1.00  0.00     0.126 A 
BRANCH  13  14
ATOM     14  C   UNL A   1      29.737  28.164  23.398  1.00  0.00     0.006 A 
ATOM     15  C   UNL A   1      28.479  27.547  23.387  1.00  0.00     0.010 A 
ATOM     16  C   UNL A   1      29.820  29.560  23.333  1.00  0.00     0.026 A 
ATOM     17  C   UNL A   1      27.317  28.312  23.266  1.00  0.00     0.002 A 
ATOM     18  C   UNL A   1      28.654  30.318  23.222  1.00  0.00     0.018 A 
ATOM     19  C   UNL A   1      27.404  29.700  23.180  1.00  0.00     0.016 A 
ATOM     20  Br  UNL A   1      28.770  32.203  23.123  1.00  0.00    -0.051 Br
ENDBRANCH  13  14
ENDBRANCH   5   8
ENDBRANCH   3   4
ENDBRANCH   2   3
ENDBRANCH   1   2
BRANCH   1  21
ATOM     21  N   UNL A   1      34.000  30.478  26.678  1.00  0.00    -0.352 N 
ATOM     22  C   UNL A   1      34.765  31.102  27.628  1.00  0.00     0.251 C 
ATOM     23  H   UNL A   1      33.342  31.056  26.228  1.00  0.00     0.163 HD
ATOM     24  O   UNL A   1      34.427  32.218  28.029  1.00  0.00    -0.269 OA
BRANCH  22  25
ATOM     25  C   UNL A   1      35.981  30.459  28.175  1.00  0.00     0.039 A 
ATOM     26  C   UNL A   1      37.175  30.550  27.454  1.00  0.00     0.014 A 
ATOM     27  C   UNL A   1      35.937  29.722  29.362  1.00  0.00     0.014 A 
ATOM     28  C   UNL A   1      38.333  29.940  27.945  1.00  0.00     0.010 A 
ATOM     29  C   UNL A   1      37.108  29.180  29.887  1.00  0.00     0.010 A 
ATOM     30  C   UNL A   1      38.314  29.271  29.179  1.00  0.00    -0.014 A 
BRANCH  30  31
ATOM     31  C   UNL A   1      39.545  28.661  29.745  1.00  0.00     0.031 A 
ATOM     32  C   UNL A   1      40.186  29.245  30.976  1.00  0.00     0.074 A 
ATOM     33  C   UNL A   1      40.132  27.634  29.099  1.00  0.00     0.049 A 
ATOM     34  N   UNL A   1      41.289  28.888  31.578  1.00  0.00    -0.248 NA
ATOM     35  C   UNL A   1      39.514  30.401  31.594  1.00  0.00     0.031 C 
ATOM     36  C   UNL A   1      39.650  27.032  27.854  1.00  0.00     0.029 A 
ATOM     37  N   UNL A   1      41.277  26.933  29.384  1.00  0.00    -0.354 N 
ATOM     38  C   UNL A   1      41.468  29.795  32.617  1.00  0.00     0.074 A 
ATOM     39  C   UNL A   1      40.374  30.737  32.546  1.00  0.00     0.031 C 
ATOM     40  C   UNL A   1      40.489  26.051  27.486  1.00  0.00     0.029 A 
ATOM     41  C   UNL A   1      41.583  25.972  28.449  1.00  0.00     0.049 A 
ATOM     42  H   UNL A   1      41.828  27.102  30.183  1.00  0.00     0.167 HD
ATOM     43  C   UNL A   1      42.438  29.823  33.562  1.00  0.00     0.034 A 
ATOM     44  C   UNL A   1      42.629  25.127  28.371  1.00  0.00     0.034 A 
ATOM     45  C   UNL A   1      43.494  28.852  33.658  1.00  0.00     0.049 A 
ATOM     46  C   UNL A   1      43.666  25.148  29.462  1.00  0.00     0.074 A 
ATOM     47  C   UNL A   1      44.468  28.735  34.634  1.00  0.00     0.029 A 
ATOM     48  N   UNL A   1      43.721  27.836  32.743  1.00  0.00    -0.354 N 
ATOM     49  N   UNL A   1      43.726  25.910  30.527  1.00  0.00    -0.248 NA
ATOM     50  C   UNL A   1      44.756  24.169  29.361  1.00  0.00     0.031 C 
ATOM     51  C   UNL A   1      45.298  27.660  34.295  1.00  0.00     0.029 A 
ATOM     52  C   UNL A   1      44.824  27.092  33.124  1.00  0.00     0.049 A 
ATOM     53  H   UNL A   1      43.176  27.668  31.940  1.00  0.00     0.167 HD
ATOM     54  C   UNL A   1      44.838  25.479  31.242  1.00  0.00     0.074 A 
ATOM     55  C   UNL A   1      45.408  24.374  30.498  1.00  0.00     0.031 C 
ATOM     56  C   UNL A   1      45.349  25.961  32.401  1.00  0.00     0.034 A 
BRANCH  43  57
ATOM     57  C   UNL A   1      42.373  30.912  34.603  1.00  0.00     0.023 A 
ATOM     58  C   UNL A   1      41.722  30.664  35.829  1.00  0.00     0.012 A 
ATOM     59  C   UNL A   1      43.006  32.153  34.396  1.00  0.00     0.148 A 
ATOM     60  C   UNL A   1      41.668  31.647  36.818  1.00  0.00     0.002 A 
ATOM     61  C   UNL A   1      42.989  33.111  35.404  1.00  0.00     0.091 A 
ATOM     62  F   UNL A   1      43.604  32.378  33.217  1.00  0.00    -0.205 F 
ATOM     63  C   UNL A   1      42.310  32.864  36.610  1.00  0.00     0.022 A 
BRANCH  61  64
ATOM     64  S   UNL A   1      43.853  34.680  35.266  1.00  0.00     0.127 S 
ATOM     65  O   UNL A   1      45.226  34.240  35.025  1.00  0.00    -0.237 OA
ATOM     66  O   UNL A   1      43.196  35.290  34.109  1.00  0.00    -0.237 OA
ATOM     67  O   UNL A   1      43.630  35.373  36.526  1.00  0.00    -0.744 OA
ENDBRANCH  61  64
ENDBRANCH  43  57
BRANCH  44  68
ATOM     68  C   UNL A   1      42.708  24.142  27.257  1.00  0.00     0.023 A 
ATOM     69  C   UNL A   1      43.451  24.461  26.104  1.00  0.00     0.012 A 
ATOM     70  C   UNL A   1      42.084  22.882  27.343  1.00  0.00     0.148 A 
ATOM     71  C   UNL A   1      43.545  23.559  25.044  1.00  0.00     0.002 A 
ATOM     72  C   UNL A   1      42.228  21.965  26.307  1.00  0.00     0.091 A 
ATOM     73  F   UNL A   1      41.372  22.600  28.444  1.00  0.00    -0.205 F 
ATOM     74  C   UNL A   1      42.943  22.308  25.150  1.00  0.00     0.022 A 
BRANCH  72  75
ATOM     75  S   UNL A   1      41.604  20.285  26.418  1.00  0.00     0.127 S 
ATOM     76  O   UNL A   1      40.167  20.488  26.240  1.00  0.00    -0.237 OA
ATOM     77  O   UNL A   1      42.278  19.637  25.291  1.00  0.00    -0.237 OA
ATOM     78  O   UNL A   1      42.018  19.796  27.724  1.00  0.00    -0.744 OA
ENDBRANCH  72  75
ENDBRANCH  44  68
BRANCH  56  79
ATOM     79  C   UNL A   1      46.567  25.279  32.964  1.00  0.00     0.023 A 
ATOM     80  C   UNL A   1      47.852  25.749  32.627  1.00  0.00     0.012 A 
ATOM     81  C   UNL A   1      46.436  24.223  33.887  1.00  0.00     0.148 A 
ATOM     82  C   UNL A   1      48.988  25.155  33.175  1.00  0.00     0.002 A 
ATOM     83  C   UNL A   1      47.571  23.670  34.466  1.00  0.00     0.091 A 
ATOM     84  F   UNL A   1      45.205  23.779  34.180  1.00  0.00    -0.205 F 
ATOM     85  C   UNL A   1      48.848  24.126  34.102  1.00  0.00     0.022 A 
BRANCH  83  86
ATOM     86  S   UNL A   1      47.480  22.409  35.743  1.00  0.00     0.127 S 
ATOM     87  O   UNL A   1      46.794  23.123  36.819  1.00  0.00    -0.237 OA
ATOM     88  O   UNL A   1      46.680  21.368  35.096  1.00  0.00    -0.237 OA
ATOM     89  O   UNL A   1      48.856  22.025  36.025  1.00  0.00    -0.744 OA
ENDBRANCH  83  86
ENDBRANCH  56  79
ENDBRANCH  30  31
ENDBRANCH  22  25
ENDBRANCH   1  21
TORSDOF 14
ENDMDL
MODEL 2
REMARK VINA RESULT:     -11.8      2.170      2.935
REMARK SMILES Cc1onc(-c2cccc(Br)c2)c1C(=O)NCCCNC(=O)c1ccc(-c2c3nc(c(-c4cccc(S(=O)(=O)[O-])c4F)c4ccc([nH]4)c(-c4cccc(S(=O)(=O)[O-])c4F)c4nc(c(-c5cccc(S(=O)(=O)[O-])c5F)c5ccc2[nH]5)C=C4)C=C3)cc1
REMARK SMILES IDX 19 1 18 2 17 3 16 4 14 5 15 6 13 8 1 9 2 10 3 11 4 12 5 13
REMARK SMILES IDX 6 14 7 15 12 16 8 17 10 18 9 19 11 20 20 21 21 22 22 24
REMARK SMILES IDX 23 25 24 26 85 27 25 28 84 29 26 30 27 31 28 32 78 33 29 34
REMARK SMILES IDX 83 35 77 36 79 37 30 38 82 39 76 40 75 41 31 43 63 44 43 45
REMARK SMILES IDX 62 46 44 47 47 48 61 49 80 50 45 51 46 52 60 54 81 55 48 56
REMARK SMILES IDX 32 57 33 58 41 59 34 60 36 61 42 62 35 63 37 64 38 65 39 66
REMARK SMILES IDX 40 67 64 68 65 69 73 70 66 71 68 72 74 73 67 74 69 75 70 76
REMARK SMILES IDX 71 77 72 78 49 79 50 80 58 81 51 82 53 83 59 84 52 85 54 86
REMARK SMILES IDX 55 87 56 88 57 89
REMARK H PARENT 16 7 20 23 79 42 47 53
REMARK Flexibility Score: inf
ROOT
ATOM      1  C   UNL A   1      32.837  29.591  25.715  1.00  0.00     0.118 C 
ENDROOT
BRANCH   1   2
ATOM      2  C   UNL A   1      31.668  28.707  26.144  1.00  0.00     0.042 C 
BRANCH   2   3
ATOM      3  C   UNL A   1      32.069  27.274  26.490  1.00  0.00     0.118 C 
BRANCH   3   4
ATOM      4  N   UNL A   1      30.905  26.472  26.778  1.00  0.00    -0.352 N 
ATOM      5  C   UNL A   1      30.304  25.397  26.194  1.00  0.00     0.257 C 
ATOM      6  O   UNL A   1      29.310  25.009  26.825  1.00  0.00    -0.269 OA
ATOM      7  H   UNL A   1      30.435  26.769  27.590  1.00  0.00     0.163 HD
BRANCH   5   8
ATOM      8  C   UNL A   1      30.753  24.695  24.998  1.00  0.00     0.110 A 
ATOM      9  C   UNL A   1      31.573  22.180  25.480  1.00  0.00     0.092 C 
ATOM     10  C   UNL A   1      31.226  23.411  24.745  1.00  0.00     0.147 A 
ATOM     11  O   UNL A   1      31.449  23.265  23.412  1.00  0.00    -0.360 OA
ATOM     12  N   UNL A   1      31.202  24.432  22.751  1.00  0.00    -0.079 NA
ATOM     13  C   UNL A   1      30.838  25.314  23.687  1.00  0.00     0.126 A 
BRANCH  13  14
ATOM     14  C   UNL A   1      30.574  26.692  23.283  1.00  0.00     0.006 A 
ATOM     15  C   UNL A   1      31.599  27.491  22.760  1.00  0.00     0.010 A 
ATOM     16  C   UNL A   1      29.277  27.211  23.378  1.00  0.00     0.026 A 
ATOM     17  C   UNL A   1      31.343  28.810  22.379  1.00  0.00     0.002 A 
ATOM     18  C   UNL A   1      29.027  28.525  22.986  1.00  0.00     0.018 A 
ATOM     19  C   UNL A   1      30.055  29.330  22.494  1.00  0.00     0.016 A 
ATOM     20  Br  UNL A   1      27.276  29.226  23.125  1.00  0.00    -0.051 Br
ENDBRANCH  13  14
ENDBRANCH   5   8
ENDBRANCH   3   4
ENDBRANCH   2   3
ENDBRANCH   1   2
BRANCH   1  21
ATOM     21  N   UNL A   1      32.627  30.985  26.079  1.00  0.00    -0.352 N 
ATOM     22  C   UNL A   1      33.200  31.731  27.076  1.00  0.00     0.251 C 
ATOM     23  H   UNL A   1      31.972  31.467  25.523  1.00  0.00     0.163 HD
ATOM     24  O   UNL A   1      32.699  32.817  27.372  1.00  0.00    -0.269 OA
BRANCH  22  25
ATOM     25  C   UNL A   1      34.400  31.250  27.796  1.00  0.00     0.039 A 
ATOM     26  C   UNL A   1      35.468  32.131  27.992  1.00  0.00     0.014 A 
ATOM     27  C   UNL A   1      34.501  29.925  28.229  1.00  0.00     0.014 A 
ATOM     28  C   UNL A   1      36.616  31.697  28.659  1.00  0.00     0.010 A 
ATOM     29  C   UNL A   1      35.614  29.515  28.960  1.00  0.00     0.010 A 
ATOM     30  C   UNL A   1      36.689  30.391  29.170  1.00  0.00    -0.014 A 
BRANCH  30  31
ATOM     31  C   UNL A   1      37.877  29.924  29.929  1.00  0.00     0.031 A 
ATOM     32  C   UNL A   1      38.137  30.428  31.323  1.00  0.00     0.074 A 
ATOM     33  C   UNL A   1      38.768  29.111  29.327  1.00  0.00     0.049 A 
ATOM     34  N   UNL A   1      39.147  30.181  32.114  1.00  0.00    -0.248 NA
ATOM     35  C   UNL A   1      37.145  31.357  31.893  1.00  0.00     0.031 C 
ATOM     36  C   UNL A   1      38.668  28.617  27.952  1.00  0.00     0.029 A 
ATOM     37  N   UNL A   1      39.948  28.579  29.784  1.00  0.00    -0.354 N 
ATOM     38  C   UNL A   1      38.938  30.950  33.253  1.00  0.00     0.074 A 
ATOM     39  C   UNL A   1      37.718  31.696  33.039  1.00  0.00     0.031 C 
ATOM     40  C   UNL A   1      39.737  27.853  27.680  1.00  0.00     0.029 A 
ATOM     41  C   UNL A   1      40.614  27.824  28.846  1.00  0.00     0.049 A 
ATOM     42  H   UNL A   1      40.287  28.724  30.698  1.00  0.00     0.167 HD
ATOM     43  C   UNL A   1      39.678  31.008  34.387  1.00  0.00     0.034 A 
ATOM     44  C   UNL A   1      41.799  27.187  28.916  1.00  0.00     0.034 A 
ATOM     45  C   UNL A   1      40.862  30.226  34.613  1.00  0.00     0.049 A 
ATOM     46  C   UNL A   1      42.575  27.229  30.204  1.00  0.00     0.074 A 
ATOM     47  C   UNL A   1      41.628  30.138  35.762  1.00  0.00     0.029 A 
ATOM     48  N   UNL A   1      41.458  29.400  33.673  1.00  0.00    -0.354 N 
ATOM     49  N   UNL A   1      42.275  27.833  31.328  1.00  0.00    -0.248 NA
ATOM     50  C   UNL A   1      43.832  26.470  30.246  1.00  0.00     0.031 C 
ATOM     51  C   UNL A   1      42.701  29.276  35.508  1.00  0.00     0.029 A 
ATOM     52  C   UNL A   1      42.587  28.806  34.209  1.00  0.00     0.049 A 
ATOM     53  H   UNL A   1      41.126  29.257  32.757  1.00  0.00     0.167 HD
ATOM     54  C   UNL A   1      43.285  27.499  32.222  1.00  0.00     0.074 A 
ATOM     55  C   UNL A   1      44.195  26.621  31.514  1.00  0.00     0.031 C 
ATOM     56  C   UNL A   1      43.453  27.893  33.508  1.00  0.00     0.034 A 
BRANCH  43  57
ATOM     57  C   UNL A   1      39.199  31.914  35.493  1.00  0.00     0.023 A 
ATOM     58  C   UNL A   1      38.263  31.431  36.431  1.00  0.00     0.012 A 
ATOM     59  C   UNL A   1      39.716  33.216  35.642  1.00  0.00     0.148 A 
ATOM     60  C   UNL A   1      37.822  32.240  37.478  1.00  0.00     0.002 A 
ATOM     61  C   UNL A   1      39.307  34.000  36.714  1.00  0.00     0.091 A 
ATOM     62  F   UNL A   1      40.590  33.665  34.729  1.00  0.00    -0.205 F 
ATOM     63  C   UNL A   1      38.351  33.519  37.625  1.00  0.00     0.022 A 
BRANCH  61  64
ATOM     64  S   UNL A   1      39.987  35.631  37.037  1.00  0.00     0.127 S 
ATOM     65  O   UNL A   1      39.301  35.997  38.276  1.00  0.00    -0.237 OA
ATOM     66  O   UNL A   1      41.414  35.343  37.194  1.00  0.00    -0.237 OA
ATOM     67  O   UNL A   1      39.655  36.442  35.875  1.00  0.00    -0.744 OA
ENDBRANCH  61  64
ENDBRANCH  43  57
BRANCH  44  68
ATOM     68  C   UNL A   1      42.285  26.395  27.751  1.00  0.00     0.023 A 
ATOM     69  C   UNL A   1      43.174  26.990  26.834  1.00  0.00     0.012 A 
ATOM     70  C   UNL A   1      41.905  25.052  27.564  1.00  0.00     0.148 A 
ATOM     71  C   UNL A   1      43.649  26.274  25.736  1.00  0.00     0.002 A 
ATOM     72  C   UNL A   1      42.426  24.326  26.498  1.00  0.00     0.091 A 
ATOM     73  F   UNL A   1      41.050  24.506  28.441  1.00  0.00    -0.205 F 
ATOM     74  C   UNL A   1      43.284  24.940  25.574  1.00  0.00     0.022 A 
BRANCH  72  75
ATOM     75  S   UNL A   1      42.119  22.569  26.292  1.00  0.00     0.127 S 
ATOM     76  O   UNL A   1      42.678  22.021  27.526  1.00  0.00    -0.237 OA
ATOM     77  O   UNL A   1      40.657  22.525  26.206  1.00  0.00    -0.237 OA
ATOM     78  O   UNL A   1      42.801  22.192  25.064  1.00  0.00    -0.744 OA
ENDBRANCH  72  75
ENDBRANCH  44  68
BRANCH  56  79
ATOM     79  C   UNL A   1      44.645  27.353  34.253  1.00  0.00     0.023 A 
ATOM     80  C   UNL A   1      45.856  28.073  34.255  1.00  0.00     0.012 A 
ATOM     81  C   UNL A   1      44.541  26.172  35.014  1.00  0.00     0.148 A 
ATOM     82  C   UNL A   1      46.955  27.608  34.976  1.00  0.00     0.002 A 
ATOM     83  C   UNL A   1      45.624  25.742  35.769  1.00  0.00     0.091 A 
ATOM     84  F   UNL A   1      43.386  25.491  34.984  1.00  0.00    -0.205 F 
ATOM     85  C   UNL A   1      46.836  26.451  35.742  1.00  0.00     0.022 A 
BRANCH  83  86
ATOM     86  S   UNL A   1      45.529  24.319  36.862  1.00  0.00     0.127 S 
ATOM     87  O   UNL A   1      46.887  24.266  37.401  1.00  0.00    -0.237 OA
ATOM     88  O   UNL A   1      44.508  24.734  37.825  1.00  0.00    -0.237 OA
ATOM     89  O   UNL A   1      45.145  23.193  36.022  1.00  0.00    -0.744 OA
ENDBRANCH  83  86
ENDBRANCH  56  79
ENDBRANCH  30  31
ENDBRANCH  22  25
ENDBRANCH   1  21
TORSDOF 14
ENDMDL
MODEL 3
REMARK VINA RESULT:     -11.8      6.295     12.277
REMARK SMILES Cc1onc(-c2cccc(Br)c2)c1C(=O)NCCCNC(=O)c1ccc(-c2c3nc(c(-c4cccc(S(=O)(=O)[O-])c4F)c4ccc([nH]4)c(-c4cccc(S(=O)(=O)[O-])c4F)c4nc(c(-c5cccc(S(=O)(=O)[O-])c5F)c5ccc2[nH]5)C=C4)C=C3)cc1
REMARK SMILES IDX 19 1 18 2 17 3 16 4 14 5 15 6 13 8 1 9 2 10 3 11 4 12 5 13
REMARK SMILES IDX 6 14 7 15 12 16 8 17 10 18 9 19 11 20 20 21 21 22 22 24
REMARK SMILES IDX 23 25 24 26 85 27 25 28 84 29 26 30 27 31 28 32 78 33 29 34
REMARK SMILES IDX 83 35 77 36 79 37 30 38 82 39 76 40 75 41 31 43 63 44 43 45
REMARK SMILES IDX 62 46 44 47 47 48 61 49 80 50 45 51 46 52 60 54 81 55 48 56
REMARK SMILES IDX 32 57 33 58 41 59 34 60 36 61 42 62 35 63 37 64 38 65 39 66
REMARK SMILES IDX 40 67 64 68 65 69 73 70 66 71 68 72 74 73 67 74 69 75 70 76
REMARK SMILES IDX 71 77 72 78 49 79 50 80 58 81 51 82 53 83 59 84 52 85 54 86
REMARK SMILES IDX 55 87 56 88 57 89
REMARK H PARENT 16 7 20 23 79 42 47 53
REMARK Flexibility Score: inf
ROOT
ATOM      1  C   UNL A   1      40.920  21.401  27.152  1.00  0.00     0.118 C 
ENDROOT
BRANCH   1   2
ATOM      2  C   UNL A   1      42.153  21.160  26.284  1.00  0.00     0.042 C 
BRANCH   2   3
ATOM      3  C   UNL A   1      42.821  22.440  25.786  1.00  0.00     0.118 C 
BRANCH   3   4
ATOM      4  N   UNL A   1      44.239  22.245  25.611  1.00  0.00    -0.352 N 
ATOM      5  C   UNL A   1      45.361  22.682  26.250  1.00  0.00     0.257 C 
ATOM      6  O   UNL A   1      46.399  22.220  25.754  1.00  0.00    -0.269 OA
ATOM      7  H   UNL A   1      44.446  21.655  24.851  1.00  0.00     0.163 HD
BRANCH   5   8
ATOM      8  C   UNL A   1      45.411  23.545  27.424  1.00  0.00     0.110 A 
ATOM      9  C   UNL A   1      43.549  22.948  29.269  1.00  0.00     0.092 C 
ATOM     10  C   UNL A   1      44.695  23.607  28.615  1.00  0.00     0.147 A 
ATOM     11  O   UNL A   1      45.206  24.592  29.401  1.00  0.00    -0.360 OA
ATOM     12  N   UNL A   1      46.213  25.248  28.755  1.00  0.00    -0.079 NA
ATOM     13  C   UNL A   1      46.314  24.674  27.553  1.00  0.00     0.126 A 
BRANCH  13  14
ATOM     14  C   UNL A   1      47.275  25.218  26.598  1.00  0.00     0.006 A 
ATOM     15  C   UNL A   1      46.838  25.845  25.423  1.00  0.00     0.010 A 
ATOM     16  C   UNL A   1      48.646  25.153  26.874  1.00  0.00     0.026 A 
ATOM     17  C   UNL A   1      47.760  26.361  24.510  1.00  0.00     0.002 A 
ATOM     18  C   UNL A   1      49.561  25.679  25.962  1.00  0.00     0.018 A 
ATOM     19  C   UNL A   1      49.125  26.276  24.779  1.00  0.00     0.016 A 
ATOM     20  Br  UNL A   1      51.413  25.581  26.334  1.00  0.00    -0.051 Br
ENDBRANCH  13  14
ENDBRANCH   5   8
ENDBRANCH   3   4
ENDBRANCH   2   3
ENDBRANCH   1   2
BRANCH   1  21
ATOM     21  N   UNL A   1      39.713  21.556  26.352  1.00  0.00    -0.352 N 
ATOM     22  C   UNL A   1      38.895  22.645  26.197  1.00  0.00     0.251 C 
ATOM     23  H   UNL A   1      39.443  20.757  25.845  1.00  0.00     0.163 HD
ATOM     24  O   UNL A   1      37.789  22.490  25.674  1.00  0.00    -0.269 OA
BRANCH  22  25
ATOM     25  C   UNL A   1      39.318  23.990  26.645  1.00  0.00     0.039 A 
ATOM     26  C   UNL A   1      39.020  24.392  27.951  1.00  0.00     0.014 A 
ATOM     27  C   UNL A   1      39.955  24.876  25.771  1.00  0.00     0.014 A 
ATOM     28  C   UNL A   1      39.400  25.662  28.392  1.00  0.00     0.010 A 
ATOM     29  C   UNL A   1      40.399  26.112  26.235  1.00  0.00     0.010 A 
ATOM     30  C   UNL A   1      40.115  26.524  27.545  1.00  0.00    -0.014 A 
BRANCH  30  31
ATOM     31  C   UNL A   1      40.574  27.857  28.010  1.00  0.00     0.031 A 
ATOM     32  C   UNL A   1      42.043  28.186  28.045  1.00  0.00     0.074 A 
ATOM     33  C   UNL A   1      39.672  28.740  28.484  1.00  0.00     0.049 A 
ATOM     34  N   UNL A   1      42.635  29.270  28.473  1.00  0.00    -0.248 NA
ATOM     35  C   UNL A   1      42.972  27.149  27.562  1.00  0.00     0.031 C 
ATOM     36  C   UNL A   1      38.230  28.507  28.575  1.00  0.00     0.029 A 
ATOM     37  N   UNL A   1      39.838  30.000  29.002  1.00  0.00    -0.354 N 
ATOM     38  C   UNL A   1      44.000  29.034  28.351  1.00  0.00     0.074 A 
ATOM     39  C   UNL A   1      44.150  27.691  27.836  1.00  0.00     0.031 C 
ATOM     40  C   UNL A   1      37.643  29.588  29.112  1.00  0.00     0.029 A 
ATOM     41  C   UNL A   1      38.666  30.579  29.431  1.00  0.00     0.049 A 
ATOM     42  H   UNL A   1      40.713  30.448  29.062  1.00  0.00     0.167 HD
ATOM     43  C   UNL A   1      45.033  29.869  28.617  1.00  0.00     0.034 A 
ATOM     44  C   UNL A   1      38.442  31.769  30.019  1.00  0.00     0.034 A 
ATOM     45  C   UNL A   1      44.875  31.220  29.080  1.00  0.00     0.049 A 
ATOM     46  C   UNL A   1      39.603  32.696  30.256  1.00  0.00     0.074 A 
ATOM     47  C   UNL A   1      45.852  32.179  29.285  1.00  0.00     0.029 A 
ATOM     48  N   UNL A   1      43.665  31.805  29.417  1.00  0.00    -0.354 N 
ATOM     49  N   UNL A   1      40.872  32.515  29.982  1.00  0.00    -0.248 NA
ATOM     50  C   UNL A   1      39.298  34.006  30.848  1.00  0.00     0.031 C 
ATOM     51  C   UNL A   1      45.232  33.337  29.769  1.00  0.00     0.029 A 
ATOM     52  C   UNL A   1      43.868  33.107  29.838  1.00  0.00     0.049 A 
ATOM     53  H   UNL A   1      42.788  31.359  29.364  1.00  0.00     0.167 HD
ATOM     54  C   UNL A   1      41.511  33.698  30.332  1.00  0.00     0.074 A 
ATOM     55  C   UNL A   1      40.485  34.597  30.820  1.00  0.00     0.031 C 
ATOM     56  C   UNL A   1      42.829  34.008  30.270  1.00  0.00     0.034 A 
BRANCH  43  57
ATOM     57  C   UNL A   1      46.429  29.360  28.361  1.00  0.00     0.023 A 
ATOM     58  C   UNL A   1      47.055  29.635  27.128  1.00  0.00     0.012 A 
ATOM     59  C   UNL A   1      47.144  28.668  29.359  1.00  0.00     0.148 A 
ATOM     60  C   UNL A   1      48.356  29.196  26.877  1.00  0.00     0.002 A 
ATOM     61  C   UNL A   1      48.456  28.275  29.119  1.00  0.00     0.091 A 
ATOM     62  F   UNL A   1      46.526  28.399  30.518  1.00  0.00    -0.205 F 
ATOM     63  C   UNL A   1      49.058  28.527  27.874  1.00  0.00     0.022 A 
BRANCH  61  64
ATOM     64  S   UNL A   1      49.473  27.477  30.366  1.00  0.00     0.127 S 
ATOM     65  O   UNL A   1      48.784  26.198  30.534  1.00  0.00    -0.237 OA
ATOM     66  O   UNL A   1      50.770  27.387  29.693  1.00  0.00    -0.237 OA
ATOM     67  O   UNL A   1      49.450  28.356  31.525  1.00  0.00    -0.744 OA
ENDBRANCH  61  64
ENDBRANCH  43  57
BRANCH  44  68
ATOM     68  C   UNL A   1      37.050  32.181  30.357  1.00  0.00     0.023 A 
ATOM     69  C   UNL A   1      36.576  31.998  31.671  1.00  0.00     0.012 A 
ATOM     70  C   UNL A   1      36.208  32.781  29.401  1.00  0.00     0.148 A 
ATOM     71  C   UNL A   1      35.279  32.375  32.018  1.00  0.00     0.002 A 
ATOM     72  C   UNL A   1      34.935  33.205  29.769  1.00  0.00     0.091 A 
ATOM     73  F   UNL A   1      36.673  32.937  28.153  1.00  0.00    -0.205 F 
ATOM     74  C   UNL A   1      34.463  32.988  31.071  1.00  0.00     0.022 A 
BRANCH  72  75
ATOM     75  S   UNL A   1      33.871  34.126  28.653  1.00  0.00     0.127 S 
ATOM     76  O   UNL A   1      33.456  33.087  27.711  1.00  0.00    -0.237 OA
ATOM     77  O   UNL A   1      32.818  34.593  29.557  1.00  0.00    -0.237 OA
ATOM     78  O   UNL A   1      34.700  35.186  28.102  1.00  0.00    -0.744 OA
ENDBRANCH  72  75
ENDBRANCH  44  68
BRANCH  56  79
ATOM     79  C   UNL A   1      43.243  35.390  30.704  1.00  0.00     0.023 A 
ATOM     80  C   UNL A   1      43.642  35.616  32.037  1.00  0.00     0.012 A 
ATOM     81  C   UNL A   1      43.308  36.445  29.773  1.00  0.00     0.148 A 
ATOM     82  C   UNL A   1      44.068  36.880  32.442  1.00  0.00     0.002 A 
ATOM     83  C   UNL A   1      43.782  37.688  30.174  1.00  0.00     0.091 A 
ATOM     84  F   UNL A   1      42.906  36.214  28.515  1.00  0.00    -0.205 F 
ATOM     85  C   UNL A   1      44.150  37.911  31.510  1.00  0.00     0.022 A 
BRANCH  83  86
ATOM     86  S   UNL A   1      44.015  39.045  29.019  1.00  0.00     0.127 S 
ATOM     87  O   UNL A   1      42.645  39.295  28.574  1.00  0.00    -0.237 OA
ATOM     88  O   UNL A   1      44.576  40.090  29.877  1.00  0.00    -0.237 OA
ATOM     89  O   UNL A   1      44.925  38.549  27.997  1.00  0.00    -0.744 OA
ENDBRANCH  83  86
ENDBRANCH  56  79
ENDBRANCH  30  31
ENDBRANCH  22  25
ENDBRANCH   1  21
TORSDOF 14
ENDMDL
