MODEL 1
REMARK VINA RESULT:     -11.7      0.000      0.000
REMARK SMILES COCc1nc2ccccc2n1CC(=O)NCCCNC(=O)c1ccc(-c2c3nc(c(-c4cccc(S(=O)(=O)[O-])c4F)c4ccc([nH]4)c(-c4cccc(S(=O)(=O)[O-])c4F)c4nc(c(-c5cccc(S(=O)(=O)[O-])c5F)c5ccc2[nH]5)C=C4)C=C3)cc1
REMARK SMILES IDX 18 1 17 2 16 3 14 4 15 5 13 7 12 8 4 9 5 10 6 11 11 12 7 13
REMARK SMILES IDX 10 14 8 15 9 16 3 17 2 18 1 19 19 20 20 21 21 22 22 24 23 25
REMARK SMILES IDX 24 26 85 27 25 28 84 29 26 30 27 31 28 32 78 33 29 34 83 35
REMARK SMILES IDX 77 36 79 37 30 38 82 39 76 40 75 41 31 43 63 44 43 45 62 46
REMARK SMILES IDX 44 47 47 48 61 49 80 50 45 51 46 52 60 54 81 55 48 56 32 57
REMARK SMILES IDX 33 58 41 59 34 60 36 61 42 62 35 63 37 64 38 65 39 66 40 67
REMARK SMILES IDX 64 68 65 69 73 70 66 71 68 72 74 73 67 74 69 75 70 76 71 77
REMARK SMILES IDX 72 78 49 79 50 80 58 81 51 82 53 83 59 84 52 85 54 86 55 87
REMARK SMILES IDX 56 88 57 89
REMARK H PARENT 16 6 20 23 79 42 47 53
REMARK Flexibility Score: inf
ROOT
ATOM      1  C   UNL A   1      32.189  30.507  26.557  1.00  0.00     0.042 C 
ENDROOT
BRANCH   1   2
ATOM      2  C   UNL A   1      31.893  29.597  25.367  1.00  0.00     0.117 C 
BRANCH   2   3
ATOM      3  N   UNL A   1      32.696  28.387  25.386  1.00  0.00    -0.354 N 
ATOM      4  C   UNL A   1      32.843  27.413  24.446  1.00  0.00     0.240 C 
ATOM      5  O   UNL A   1      33.628  26.496  24.700  1.00  0.00    -0.273 OA
ATOM      6  H   UNL A   1      33.217  28.249  26.210  1.00  0.00     0.163 HD
BRANCH   4   7
ATOM      7  C   UNL A   1      32.139  27.515  23.111  1.00  0.00     0.223 C 
BRANCH   7   8
ATOM      8  N   UNL A   1      30.687  27.510  23.194  1.00  0.00    -0.316 N 
ATOM      9  C   UNL A   1      29.878  26.530  23.736  1.00  0.00     0.136 A 
ATOM     10  N   UNL A   1      28.616  26.924  23.737  1.00  0.00    -0.231 NA
ATOM     11  C   UNL A   1      28.594  28.146  23.121  1.00  0.00     0.089 A 
ATOM     12  C   UNL A   1      29.869  28.513  22.708  1.00  0.00     0.069 A 
ATOM     13  C   UNL A   1      27.512  29.005  22.876  1.00  0.00     0.030 A 
ATOM     14  C   UNL A   1      30.115  29.699  22.000  1.00  0.00     0.028 A 
ATOM     15  C   UNL A   1      27.745  30.210  22.202  1.00  0.00     0.002 A 
ATOM     16  C   UNL A   1      29.026  30.544  21.763  1.00  0.00     0.002 A 
BRANCH   9  17
ATOM     17  C   UNL A   1      30.332  25.214  24.287  1.00  0.00     0.235 C 
BRANCH  17  18
ATOM     18  O   UNL A   1      30.317  24.205  23.278  1.00  0.00    -0.377 OA
ATOM     19  C   UNL A   1      31.462  23.366  23.290  1.00  0.00     0.195 C 
ENDBRANCH  17  18
ENDBRANCH   9  17
ENDBRANCH   7   8
ENDBRANCH   4   7
ENDBRANCH   2   3
ENDBRANCH   1   2
BRANCH   1  20
ATOM     20  C   UNL A   1      33.615  30.352  27.089  1.00  0.00     0.118 C 
BRANCH  20  21
ATOM     21  N   UNL A   1      33.935  31.249  28.183  1.00  0.00    -0.352 N 
ATOM     22  C   UNL A   1      35.066  31.575  28.873  1.00  0.00     0.251 C 
ATOM     23  H   UNL A   1      33.145  31.739  28.505  1.00  0.00     0.163 HD
ATOM     24  O   UNL A   1      34.928  32.451  29.731  1.00  0.00    -0.269 OA
BRANCH  22  25
ATOM     25  C   UNL A   1      36.384  30.910  28.721  1.00  0.00     0.039 A 
ATOM     26  C   UNL A   1      36.588  29.599  28.285  1.00  0.00     0.014 A 
ATOM     27  C   UNL A   1      37.497  31.672  29.123  1.00  0.00     0.014 A 
ATOM     28  C   UNL A   1      37.841  29.012  28.392  1.00  0.00     0.010 A 
ATOM     29  C   UNL A   1      38.756  31.101  29.203  1.00  0.00     0.010 A 
ATOM     30  C   UNL A   1      38.904  29.750  28.909  1.00  0.00    -0.014 A 
BRANCH  30  31
ATOM     31  C   UNL A   1      40.189  29.086  29.080  1.00  0.00     0.031 A 
ATOM     32  C   UNL A   1      40.611  28.884  30.499  1.00  0.00     0.074 A 
ATOM     33  C   UNL A   1      40.854  28.580  28.021  1.00  0.00     0.049 A 
ATOM     34  N   UNL A   1      41.697  29.279  31.082  1.00  0.00    -0.248 NA
ATOM     35  C   UNL A   1      39.636  28.258  31.409  1.00  0.00     0.031 C 
ATOM     36  C   UNL A   1      40.395  28.484  26.631  1.00  0.00     0.029 A 
ATOM     37  N   UNL A   1      42.028  27.893  27.997  1.00  0.00    -0.354 N 
ATOM     38  C   UNL A   1      41.627  28.783  32.384  1.00  0.00     0.074 A 
ATOM     39  C   UNL A   1      40.288  28.288  32.571  1.00  0.00     0.031 C 
ATOM     40  C   UNL A   1      41.126  27.549  25.986  1.00  0.00     0.029 A 
ATOM     41  C   UNL A   1      42.180  27.088  26.868  1.00  0.00     0.049 A 
ATOM     42  H   UNL A   1      42.705  27.958  28.707  1.00  0.00     0.167 HD
ATOM     43  C   UNL A   1      42.721  28.618  33.178  1.00  0.00     0.034 A 
ATOM     44  C   UNL A   1      43.041  26.046  26.741  1.00  0.00     0.034 A 
ATOM     45  C   UNL A   1      43.869  29.323  32.697  1.00  0.00     0.049 A 
ATOM     46  C   UNL A   1      44.087  26.232  27.777  1.00  0.00     0.074 A 
ATOM     47  C   UNL A   1      44.185  30.655  32.519  1.00  0.00     0.029 A 
ATOM     48  N   UNL A   1      44.770  28.614  31.940  1.00  0.00    -0.354 N 
ATOM     49  N   UNL A   1      44.922  27.232  27.791  1.00  0.00    -0.248 NA
ATOM     50  C   UNL A   1      43.913  25.535  29.041  1.00  0.00     0.031 C 
ATOM     51  C   UNL A   1      44.921  30.692  31.298  1.00  0.00     0.029 A 
ATOM     52  C   UNL A   1      45.057  29.380  30.841  1.00  0.00     0.049 A 
ATOM     53  H   UNL A   1      45.138  27.726  32.149  1.00  0.00     0.167 HD
ATOM     54  C   UNL A   1      45.041  27.562  29.135  1.00  0.00     0.074 A 
ATOM     55  C   UNL A   1      44.469  26.430  29.861  1.00  0.00     0.031 C 
ATOM     56  C   UNL A   1      45.320  28.839  29.527  1.00  0.00     0.034 A 
BRANCH  43  57
ATOM     57  C   UNL A   1      42.813  27.554  34.233  1.00  0.00     0.023 A 
ATOM     58  C   UNL A   1      42.553  27.888  35.576  1.00  0.00     0.012 A 
ATOM     59  C   UNL A   1      43.373  26.283  33.968  1.00  0.00     0.148 A 
ATOM     60  C   UNL A   1      42.819  26.980  36.610  1.00  0.00     0.002 A 
ATOM     61  C   UNL A   1      43.572  25.363  34.988  1.00  0.00     0.091 A 
ATOM     62  F   UNL A   1      43.816  26.011  32.733  1.00  0.00    -0.205 F 
ATOM     63  C   UNL A   1      43.311  25.712  36.315  1.00  0.00     0.022 A 
BRANCH  61  64
ATOM     64  S   UNL A   1      44.176  23.705  34.655  1.00  0.00     0.127 S 
ATOM     65  O   UNL A   1      45.472  23.986  34.034  1.00  0.00    -0.237 OA
ATOM     66  O   UNL A   1      44.248  23.140  36.005  1.00  0.00    -0.237 OA
ATOM     67  O   UNL A   1      43.178  23.090  33.801  1.00  0.00    -0.744 OA
ENDBRANCH  61  64
ENDBRANCH  43  57
BRANCH  44  68
ATOM     68  C   UNL A   1      42.850  24.735  26.062  1.00  0.00     0.023 A 
ATOM     69  C   UNL A   1      43.862  24.258  25.201  1.00  0.00     0.012 A 
ATOM     70  C   UNL A   1      41.852  23.822  26.473  1.00  0.00     0.148 A 
ATOM     71  C   UNL A   1      43.915  22.912  24.815  1.00  0.00     0.002 A 
ATOM     72  C   UNL A   1      41.901  22.487  26.074  1.00  0.00     0.091 A 
ATOM     73  F   UNL A   1      40.912  24.227  27.334  1.00  0.00    -0.205 F 
ATOM     74  C   UNL A   1      42.942  22.024  25.261  1.00  0.00     0.022 A 
BRANCH  72  75
ATOM     75  S   UNL A   1      40.678  21.285  26.618  1.00  0.00     0.127 S 
ATOM     76  O   UNL A   1      39.452  21.796  26.002  1.00  0.00    -0.237 OA
ATOM     77  O   UNL A   1      41.186  20.048  26.033  1.00  0.00    -0.237 OA
ATOM     78  O   UNL A   1      40.683  21.348  28.074  1.00  0.00    -0.744 OA
ENDBRANCH  72  75
ENDBRANCH  44  68
BRANCH  56  79
ATOM     79  C   UNL A   1      45.686  29.842  28.461  1.00  0.00     0.023 A 
ATOM     80  C   UNL A   1      44.728  30.700  27.881  1.00  0.00     0.012 A 
ATOM     81  C   UNL A   1      47.046  30.063  28.201  1.00  0.00     0.148 A 
ATOM     82  C   UNL A   1      45.121  31.759  27.055  1.00  0.00     0.002 A 
ATOM     83  C   UNL A   1      47.435  31.137  27.411  1.00  0.00     0.091 A 
ATOM     84  F   UNL A   1      47.939  29.246  28.779  1.00  0.00    -0.205 F 
ATOM     85  C   UNL A   1      46.476  31.985  26.833  1.00  0.00     0.022 A 
BRANCH  83  86
ATOM     86  S   UNL A   1      49.163  31.558  27.172  1.00  0.00     0.127 S 
ATOM     87  O   UNL A   1      49.672  30.373  26.484  1.00  0.00    -0.237 OA
ATOM     88  O   UNL A   1      49.075  32.758  26.339  1.00  0.00    -0.237 OA
ATOM     89  O   UNL A   1      49.715  31.789  28.501  1.00  0.00    -0.744 OA
ENDBRANCH  83  86
ENDBRANCH  56  79
ENDBRANCH  30  31
ENDBRANCH  22  25
ENDBRANCH  20  21
ENDBRANCH   1  20
TORSDOF 16
ENDMDL
MODEL 2
REMARK VINA RESULT:     -11.6      4.430      9.386
REMARK SMILES COCc1nc2ccccc2n1CC(=O)NCCCNC(=O)c1ccc(-c2c3nc(c(-c4cccc(S(=O)(=O)[O-])c4F)c4ccc([nH]4)c(-c4cccc(S(=O)(=O)[O-])c4F)c4nc(c(-c5cccc(S(=O)(=O)[O-])c5F)c5ccc2[nH]5)C=C4)C=C3)cc1
REMARK SMILES IDX 18 1 17 2 16 3 14 4 15 5 13 7 12 8 4 9 5 10 6 11 11 12 7 13
REMARK SMILES IDX 10 14 8 15 9 16 3 17 2 18 1 19 19 20 20 21 21 22 22 24 23 25
REMARK SMILES IDX 24 26 85 27 25 28 84 29 26 30 27 31 28 32 78 33 29 34 83 35
REMARK SMILES IDX 77 36 79 37 30 38 82 39 76 40 75 41 31 43 63 44 43 45 62 46
REMARK SMILES IDX 44 47 47 48 61 49 80 50 45 51 46 52 60 54 81 55 48 56 32 57
REMARK SMILES IDX 33 58 41 59 34 60 36 61 42 62 35 63 37 64 38 65 39 66 40 67
REMARK SMILES IDX 64 68 65 69 73 70 66 71 68 72 74 73 67 74 69 75 70 76 71 77
REMARK SMILES IDX 72 78 49 79 50 80 58 81 51 82 53 83 59 84 52 85 54 86 55 87
REMARK SMILES IDX 56 88 57 89
REMARK H PARENT 16 6 20 23 79 42 47 53
REMARK Flexibility Score: inf
ROOT
ATOM      1  C   UNL A   1      38.430  21.654  25.577  1.00  0.00     0.042 C 
ENDROOT
BRANCH   1   2
ATOM      2  C   UNL A   1      37.671  22.977  25.526  1.00  0.00     0.117 C 
BRANCH   2   3
ATOM      3  N   UNL A   1      36.613  23.043  26.519  1.00  0.00    -0.354 N 
ATOM      4  C   UNL A   1      35.266  22.894  26.383  1.00  0.00     0.240 C 
ATOM      5  O   UNL A   1      34.584  22.959  27.408  1.00  0.00    -0.273 OA
ATOM      6  H   UNL A   1      36.918  23.224  27.437  1.00  0.00     0.163 HD
BRANCH   4   7
ATOM      7  C   UNL A   1      34.658  22.565  25.037  1.00  0.00     0.223 C 
BRANCH   7   8
ATOM      8  N   UNL A   1      33.686  21.484  25.064  1.00  0.00    -0.316 N 
ATOM      9  C   UNL A   1      32.323  21.581  25.272  1.00  0.00     0.136 A 
ATOM     10  N   UNL A   1      31.748  20.400  25.113  1.00  0.00    -0.231 NA
ATOM     11  C   UNL A   1      32.760  19.510  24.869  1.00  0.00     0.089 A 
ATOM     12  C   UNL A   1      33.995  20.146  24.898  1.00  0.00     0.069 A 
ATOM     13  C   UNL A   1      32.695  18.132  24.615  1.00  0.00     0.030 A 
ATOM     14  C   UNL A   1      35.201  19.448  24.732  1.00  0.00     0.028 A 
ATOM     15  C   UNL A   1      33.887  17.426  24.411  1.00  0.00     0.002 A 
ATOM     16  C   UNL A   1      35.120  18.075  24.480  1.00  0.00     0.002 A 
BRANCH   9  17
ATOM     17  C   UNL A   1      31.566  22.830  25.597  1.00  0.00     0.235 C 
BRANCH  17  18
ATOM     18  O   UNL A   1      31.726  23.808  24.571  1.00  0.00    -0.377 OA
ATOM     19  C   UNL A   1      30.971  23.538  23.399  1.00  0.00     0.195 C 
ENDBRANCH  17  18
ENDBRANCH   9  17
ENDBRANCH   7   8
ENDBRANCH   4   7
ENDBRANCH   2   3
ENDBRANCH   1   2
BRANCH   1  20
ATOM     20  C   UNL A   1      39.632  21.689  26.523  1.00  0.00     0.118 C 
BRANCH  20  21
ATOM     21  N   UNL A   1      40.858  22.147  25.899  1.00  0.00    -0.352 N 
ATOM     22  C   UNL A   1      41.673  23.232  26.039  1.00  0.00     0.251 C 
ATOM     23  H   UNL A   1      41.179  21.524  25.207  1.00  0.00     0.163 HD
ATOM     24  O   UNL A   1      42.683  23.229  25.331  1.00  0.00    -0.269 OA
BRANCH  22  25
ATOM     25  C   UNL A   1      41.390  24.411  26.895  1.00  0.00     0.039 A 
ATOM     26  C   UNL A   1      40.342  25.316  26.712  1.00  0.00     0.014 A 
ATOM     27  C   UNL A   1      42.315  24.645  27.929  1.00  0.00     0.014 A 
ATOM     28  C   UNL A   1      40.303  26.500  27.436  1.00  0.00     0.010 A 
ATOM     29  C   UNL A   1      42.264  25.811  28.676  1.00  0.00     0.010 A 
ATOM     30  C   UNL A   1      41.302  26.766  28.371  1.00  0.00    -0.014 A 
BRANCH  30  31
ATOM     31  C   UNL A   1      41.279  28.049  29.060  1.00  0.00     0.031 A 
ATOM     32  C   UNL A   1      42.271  29.050  28.566  1.00  0.00     0.074 A 
ATOM     33  C   UNL A   1      40.328  28.325  29.977  1.00  0.00     0.049 A 
ATOM     34  N   UNL A   1      43.193  29.669  29.231  1.00  0.00    -0.248 NA
ATOM     35  C   UNL A   1      42.309  29.300  27.115  1.00  0.00     0.031 C 
ATOM     36  C   UNL A   1      39.154  27.519  30.329  1.00  0.00     0.029 A 
ATOM     37  N   UNL A   1      40.123  29.474  30.677  1.00  0.00    -0.354 N 
ATOM     38  C   UNL A   1      43.800  30.533  28.319  1.00  0.00     0.074 A 
ATOM     39  C   UNL A   1      43.317  30.166  27.012  1.00  0.00     0.031 C 
ATOM     40  C   UNL A   1      38.239  28.307  30.934  1.00  0.00     0.029 A 
ATOM     41  C   UNL A   1      38.813  29.624  31.132  1.00  0.00     0.049 A 
ATOM     42  H   UNL A   1      40.832  30.135  30.847  1.00  0.00     0.167 HD
ATOM     43  C   UNL A   1      44.511  31.632  28.693  1.00  0.00     0.034 A 
ATOM     44  C   UNL A   1      38.233  30.787  31.526  1.00  0.00     0.034 A 
ATOM     45  C   UNL A   1      44.875  31.614  30.076  1.00  0.00     0.049 A 
ATOM     46  C   UNL A   1      39.339  31.722  31.849  1.00  0.00     0.074 A 
ATOM     47  C   UNL A   1      45.682  30.812  30.857  1.00  0.00     0.029 A 
ATOM     48  N   UNL A   1      44.064  32.300  30.947  1.00  0.00    -0.354 N 
ATOM     49  N   UNL A   1      40.185  31.535  32.822  1.00  0.00    -0.248 NA
ATOM     50  C   UNL A   1      39.765  32.646  30.810  1.00  0.00     0.031 C 
ATOM     51  C   UNL A   1      44.983  30.689  32.093  1.00  0.00     0.029 A 
ATOM     52  C   UNL A   1      43.827  31.468  32.010  1.00  0.00     0.049 A 
ATOM     53  H   UNL A   1      43.719  33.214  30.830  1.00  0.00     0.167 HD
ATOM     54  C   UNL A   1      41.402  31.961  32.307  1.00  0.00     0.074 A 
ATOM     55  C   UNL A   1      41.066  32.715  31.101  1.00  0.00     0.031 C 
ATOM     56  C   UNL A   1      42.579  31.422  32.737  1.00  0.00     0.034 A 
BRANCH  43  57
ATOM     57  C   UNL A   1      44.606  32.871  27.850  1.00  0.00     0.023 A 
ATOM     58  C   UNL A   1      45.712  33.044  26.997  1.00  0.00     0.012 A 
ATOM     59  C   UNL A   1      43.747  33.976  28.047  1.00  0.00     0.148 A 
ATOM     60  C   UNL A   1      45.939  34.265  26.348  1.00  0.00     0.002 A 
ATOM     61  C   UNL A   1      43.938  35.162  27.351  1.00  0.00     0.091 A 
ATOM     62  F   UNL A   1      42.807  33.911  28.999  1.00  0.00    -0.205 F 
ATOM     63  C   UNL A   1      45.043  35.317  26.510  1.00  0.00     0.022 A 
BRANCH  61  64
ATOM     64  S   UNL A   1      42.793  36.538  27.502  1.00  0.00     0.127 S 
ATOM     65  O   UNL A   1      43.328  37.473  26.510  1.00  0.00    -0.237 OA
ATOM     66  O   UNL A   1      41.523  35.907  27.132  1.00  0.00    -0.237 OA
ATOM     67  O   UNL A   1      42.872  36.960  28.888  1.00  0.00    -0.744 OA
ENDBRANCH  61  64
ENDBRANCH  43  57
BRANCH  44  68
ATOM     68  C   UNL A   1      36.845  31.276  31.307  1.00  0.00     0.023 A 
ATOM     69  C   UNL A   1      36.100  31.736  32.415  1.00  0.00     0.012 A 
ATOM     70  C   UNL A   1      36.358  31.581  30.015  1.00  0.00     0.148 A 
ATOM     71  C   UNL A   1      34.951  32.520  32.245  1.00  0.00     0.002 A 
ATOM     72  C   UNL A   1      35.206  32.350  29.852  1.00  0.00     0.091 A 
ATOM     73  F   UNL A   1      37.071  31.210  28.945  1.00  0.00    -0.205 F 
ATOM     74  C   UNL A   1      34.511  32.837  30.964  1.00  0.00     0.022 A 
BRANCH  72  75
ATOM     75  S   UNL A   1      34.585  32.800  28.224  1.00  0.00     0.127 S 
ATOM     76  O   UNL A   1      34.204  31.498  27.672  1.00  0.00    -0.237 OA
ATOM     77  O   UNL A   1      33.465  33.674  28.558  1.00  0.00    -0.237 OA
ATOM     78  O   UNL A   1      35.703  33.434  27.536  1.00  0.00    -0.744 OA
ENDBRANCH  72  75
ENDBRANCH  44  68
BRANCH  56  79
ATOM     79  C   UNL A   1      42.539  30.489  33.921  1.00  0.00     0.023 A 
ATOM     80  C   UNL A   1      42.297  29.106  33.776  1.00  0.00     0.012 A 
ATOM     81  C   UNL A   1      42.962  30.981  35.165  1.00  0.00     0.148 A 
ATOM     82  C   UNL A   1      42.473  28.231  34.854  1.00  0.00     0.002 A 
ATOM     83  C   UNL A   1      43.171  30.105  36.223  1.00  0.00     0.091 A 
ATOM     84  F   UNL A   1      43.203  32.296  35.273  1.00  0.00    -0.205 F 
ATOM     85  C   UNL A   1      42.924  28.730  36.073  1.00  0.00     0.022 A 
BRANCH  83  86
ATOM     86  S   UNL A   1      43.856  30.656  37.786  1.00  0.00     0.127 S 
ATOM     87  O   UNL A   1      44.405  29.416  38.332  1.00  0.00    -0.237 OA
ATOM     88  O   UNL A   1      44.859  31.631  37.355  1.00  0.00    -0.237 OA
ATOM     89  O   UNL A   1      42.746  31.228  38.539  1.00  0.00    -0.744 OA
ENDBRANCH  83  86
ENDBRANCH  56  79
ENDBRANCH  30  31
ENDBRANCH  22  25
ENDBRANCH  20  21
ENDBRANCH   1  20
TORSDOF 16
ENDMDL
MODEL 3
REMARK VINA RESULT:     -11.6      3.931      9.527
REMARK SMILES COCc1nc2ccccc2n1CC(=O)NCCCNC(=O)c1ccc(-c2c3nc(c(-c4cccc(S(=O)(=O)[O-])c4F)c4ccc([nH]4)c(-c4cccc(S(=O)(=O)[O-])c4F)c4nc(c(-c5cccc(S(=O)(=O)[O-])c5F)c5ccc2[nH]5)C=C4)C=C3)cc1
REMARK SMILES IDX 18 1 17 2 16 3 14 4 15 5 13 7 12 8 4 9 5 10 6 11 11 12 7 13
REMARK SMILES IDX 10 14 8 15 9 16 3 17 2 18 1 19 19 20 20 21 21 22 22 24 23 25
REMARK SMILES IDX 24 26 85 27 25 28 84 29 26 30 27 31 28 32 78 33 29 34 83 35
REMARK SMILES IDX 77 36 79 37 30 38 82 39 76 40 75 41 31 43 63 44 43 45 62 46
REMARK SMILES IDX 44 47 47 48 61 49 80 50 45 51 46 52 60 54 81 55 48 56 32 57
REMARK SMILES IDX 33 58 41 59 34 60 36 61 42 62 35 63 37 64 38 65 39 66 40 67
REMARK SMILES IDX 64 68 65 69 73 70 66 71 68 72 74 73 67 74 69 75 70 76 71 77
REMARK SMILES IDX 72 78 49 79 50 80 58 81 51 82 53 83 59 84 52 85 54 86 55 87
REMARK SMILES IDX 56 88 57 89
REMARK H PARENT 16 6 20 23 79 42 47 53
REMARK Flexibility Score: inf
ROOT
ATOM      1  C   UNL A   1      39.163  20.978  25.799  1.00  0.00     0.042 C 
ENDROOT
BRANCH   1   2
ATOM      2  C   UNL A   1      37.904  21.475  25.093  1.00  0.00     0.117 C 
BRANCH   2   3
ATOM      3  N   UNL A   1      36.950  22.062  26.017  1.00  0.00    -0.354 N 
ATOM      4  C   UNL A   1      35.624  22.331  25.863  1.00  0.00     0.240 C 
ATOM      5  O   UNL A   1      35.026  22.804  26.832  1.00  0.00    -0.273 OA
ATOM      6  H   UNL A   1      37.321  22.305  26.896  1.00  0.00     0.163 HD
BRANCH   4   7
ATOM      7  C   UNL A   1      34.906  21.968  24.581  1.00  0.00     0.223 C 
BRANCH   7   8
ATOM      8  N   UNL A   1      33.858  20.973  24.738  1.00  0.00    -0.316 N 
ATOM      9  C   UNL A   1      32.510  21.195  24.949  1.00  0.00     0.136 A 
ATOM     10  N   UNL A   1      31.847  20.051  24.928  1.00  0.00    -0.231 NA
ATOM     11  C   UNL A   1      32.785  19.066  24.775  1.00  0.00     0.089 A 
ATOM     12  C   UNL A   1      34.064  19.606  24.719  1.00  0.00     0.069 A 
ATOM     13  C   UNL A   1      32.614  17.677  24.676  1.00  0.00     0.030 A 
ATOM     14  C   UNL A   1      35.212  18.805  24.619  1.00  0.00     0.028 A 
ATOM     15  C   UNL A   1      33.746  16.865  24.540  1.00  0.00     0.002 A 
ATOM     16  C   UNL A   1      35.024  17.422  24.523  1.00  0.00     0.002 A 
BRANCH   9  17
ATOM     17  C   UNL A   1      31.854  22.526  25.141  1.00  0.00     0.235 C 
BRANCH  17  18
ATOM     18  O   UNL A   1      31.204  22.598  26.409  1.00  0.00    -0.377 OA
ATOM     19  C   UNL A   1      30.444  23.783  26.598  1.00  0.00     0.195 C 
ENDBRANCH  17  18
ENDBRANCH   9  17
ENDBRANCH   7   8
ENDBRANCH   4   7
ENDBRANCH   2   3
ENDBRANCH   1   2
BRANCH   1  20
ATOM     20  C   UNL A   1      39.842  22.058  26.643  1.00  0.00     0.118 C 
BRANCH  20  21
ATOM     21  N   UNL A   1      41.130  22.482  26.129  1.00  0.00    -0.352 N 
ATOM     22  C   UNL A   1      41.963  23.540  26.347  1.00  0.00     0.251 C 
ATOM     23  H   UNL A   1      41.489  21.854  25.461  1.00  0.00     0.163 HD
ATOM     24  O   UNL A   1      43.029  23.511  25.727  1.00  0.00    -0.269 OA
BRANCH  22  25
ATOM     25  C   UNL A   1      41.644  24.722  27.186  1.00  0.00     0.039 A 
ATOM     26  C   UNL A   1      40.588  25.611  26.970  1.00  0.00     0.014 A 
ATOM     27  C   UNL A   1      42.541  24.977  28.239  1.00  0.00     0.014 A 
ATOM     28  C   UNL A   1      40.516  26.800  27.684  1.00  0.00     0.010 A 
ATOM     29  C   UNL A   1      42.457  26.148  28.975  1.00  0.00     0.010 A 
ATOM     30  C   UNL A   1      41.490  27.088  28.639  1.00  0.00    -0.014 A 
BRANCH  30  31
ATOM     31  C   UNL A   1      41.433  28.375  29.317  1.00  0.00     0.031 A 
ATOM     32  C   UNL A   1      42.413  29.391  28.827  1.00  0.00     0.074 A 
ATOM     33  C   UNL A   1      40.465  28.642  30.219  1.00  0.00     0.049 A 
ATOM     34  N   UNL A   1      43.313  30.034  29.499  1.00  0.00    -0.248 NA
ATOM     35  C   UNL A   1      42.466  29.630  27.375  1.00  0.00     0.031 C 
ATOM     36  C   UNL A   1      39.301  27.816  30.562  1.00  0.00     0.029 A 
ATOM     37  N   UNL A   1      40.229  29.792  30.906  1.00  0.00    -0.354 N 
ATOM     38  C   UNL A   1      43.916  30.901  28.587  1.00  0.00     0.074 A 
ATOM     39  C   UNL A   1      43.458  30.514  27.278  1.00  0.00     0.031 C 
ATOM     40  C   UNL A   1      38.364  28.592  31.148  1.00  0.00     0.029 A 
ATOM     41  C   UNL A   1      38.910  29.921  31.342  1.00  0.00     0.049 A 
ATOM     42  H   UNL A   1      40.922  30.468  31.080  1.00  0.00     0.167 HD
ATOM     43  C   UNL A   1      44.601  32.016  28.961  1.00  0.00     0.034 A 
ATOM     44  C   UNL A   1      38.303  31.076  31.718  1.00  0.00     0.034 A 
ATOM     45  C   UNL A   1      44.947  32.017  30.350  1.00  0.00     0.049 A 
ATOM     46  C   UNL A   1      39.387  32.035  32.048  1.00  0.00     0.074 A 
ATOM     47  C   UNL A   1      45.759  31.237  31.148  1.00  0.00     0.029 A 
ATOM     48  N   UNL A   1      44.112  32.694  31.203  1.00  0.00    -0.354 N 
ATOM     49  N   UNL A   1      40.223  31.872  33.034  1.00  0.00    -0.248 NA
ATOM     50  C   UNL A   1      39.809  32.957  31.006  1.00  0.00     0.031 C 
ATOM     51  C   UNL A   1      45.046  31.111  32.376  1.00  0.00     0.029 A 
ATOM     52  C   UNL A   1      43.876  31.867  32.271  1.00  0.00     0.049 A 
ATOM     53  H   UNL A   1      43.751  33.601  31.074  1.00  0.00     0.167 HD
ATOM     54  C   UNL A   1      41.438  32.317  32.531  1.00  0.00     0.074 A 
ATOM     55  C   UNL A   1      41.104  33.054  31.314  1.00  0.00     0.031 C 
ATOM     56  C   UNL A   1      42.620  31.804  32.981  1.00  0.00     0.034 A 
BRANCH  43  57
ATOM     57  C   UNL A   1      44.684  33.250  28.109  1.00  0.00     0.023 A 
ATOM     58  C   UNL A   1      43.498  33.859  27.657  1.00  0.00     0.012 A 
ATOM     59  C   UNL A   1      45.905  33.694  27.553  1.00  0.00     0.148 A 
ATOM     60  C   UNL A   1      43.532  34.887  26.705  1.00  0.00     0.002 A 
ATOM     61  C   UNL A   1      45.940  34.756  26.660  1.00  0.00     0.091 A 
ATOM     62  F   UNL A   1      47.027  33.006  27.808  1.00  0.00    -0.205 F 
ATOM     63  C   UNL A   1      44.753  35.347  26.220  1.00  0.00     0.022 A 
BRANCH  61  64
ATOM     64  S   UNL A   1      47.490  35.407  26.030  1.00  0.00     0.127 S 
ATOM     65  O   UNL A   1      47.064  36.698  25.485  1.00  0.00    -0.237 OA
ATOM     66  O   UNL A   1      48.295  35.489  27.252  1.00  0.00    -0.237 OA
ATOM     67  O   UNL A   1      47.961  34.430  25.067  1.00  0.00    -0.744 OA
ENDBRANCH  61  64
ENDBRANCH  43  57
BRANCH  44  68
ATOM     68  C   UNL A   1      36.909  31.537  31.477  1.00  0.00     0.023 A 
ATOM     69  C   UNL A   1      36.177  32.091  32.550  1.00  0.00     0.012 A 
ATOM     70  C   UNL A   1      36.402  31.722  30.170  1.00  0.00     0.148 A 
ATOM     71  C   UNL A   1      35.022  32.851  32.327  1.00  0.00     0.002 A 
ATOM     72  C   UNL A   1      35.243  32.467  29.955  1.00  0.00     0.091 A 
ATOM     73  F   UNL A   1      37.102  31.259  29.128  1.00  0.00    -0.205 F 
ATOM     74  C   UNL A   1      34.561  33.050  31.029  1.00  0.00     0.022 A 
BRANCH  72  75
ATOM     75  S   UNL A   1      34.596  32.766  28.303  1.00  0.00     0.127 S 
ATOM     76  O   UNL A   1      35.787  33.230  27.588  1.00  0.00    -0.237 OA
ATOM     77  O   UNL A   1      34.129  31.438  27.915  1.00  0.00    -0.237 OA
ATOM     78  O   UNL A   1      33.564  33.782  28.461  1.00  0.00    -0.744 OA
ENDBRANCH  72  75
ENDBRANCH  44  68
BRANCH  56  79
ATOM     79  C   UNL A   1      42.581  30.880  34.173  1.00  0.00     0.023 A 
ATOM     80  C   UNL A   1      42.568  31.367  35.498  1.00  0.00     0.012 A 
ATOM     81  C   UNL A   1      42.340  29.518  33.945  1.00  0.00     0.148 A 
ATOM     82  C   UNL A   1      42.319  30.509  36.574  1.00  0.00     0.002 A 
ATOM     83  C   UNL A   1      42.057  28.675  35.013  1.00  0.00     0.091 A 
ATOM     84  F   UNL A   1      42.340  29.082  32.676  1.00  0.00    -0.205 F 
ATOM     85  C   UNL A   1      42.049  29.165  36.328  1.00  0.00     0.022 A 
BRANCH  83  86
ATOM     86  S   UNL A   1      41.591  26.960  34.766  1.00  0.00     0.127 S 
ATOM     87  O   UNL A   1      40.469  27.080  33.836  1.00  0.00    -0.237 OA
ATOM     88  O   UNL A   1      42.808  26.391  34.186  1.00  0.00    -0.237 OA
ATOM     89  O   UNL A   1      41.252  26.436  36.084  1.00  0.00    -0.744 OA
ENDBRANCH  83  86
ENDBRANCH  56  79
ENDBRANCH  30  31
ENDBRANCH  22  25
ENDBRANCH  20  21
ENDBRANCH   1  20
TORSDOF 16
ENDMDL
