MODEL 1
REMARK VINA RESULT:     -13.9      0.000      0.000
REMARK SMILES O=C(Cn1nc(C(=O)NCCCNC(=O)c2ccc(-c3c4nc(c(-c5cccc(S(=O)(=O)[O-])c5F)c5ccc([nH]5)c(-c5cccc(S(=O)(=O)[O-])c5F)c5nc(c(-c6cccc(S(=O)(=O)[O-])c6F)c6ccc3[nH]6)C=C5)C=C4)cc2)c2ccccc2c1=O)Nc1ccc2c(c1)C(=O)c1ccccc1C2=O
REMARK SMILES IDX 11 1 10 2 9 3 7 4 8 5 6 7 4 8 5 9 85 10 84 11 86 12 79 13
REMARK SMILES IDX 83 14 80 15 82 16 81 17 3 18 2 19 1 20 87 21 88 23 89 24
REMARK SMILES IDX 93 25 90 26 92 27 91 28 94 29 102 30 95 31 96 32 101 33
REMARK SMILES IDX 103 34 97 35 100 36 98 37 99 38 12 39 13 40 14 41 15 43
REMARK SMILES IDX 16 44 17 45 78 46 18 47 77 48 19 49 20 50 21 51 71 52 22 53
REMARK SMILES IDX 76 54 70 55 72 56 23 57 75 58 69 59 68 60 24 62 56 63 36 64
REMARK SMILES IDX 55 65 37 66 40 67 54 68 73 69 38 70 39 71 53 73 74 74 41 75
REMARK SMILES IDX 25 76 26 77 34 78 27 79 29 80 35 81 28 82 30 83 31 84 32 85
REMARK SMILES IDX 33 86 57 87 58 88 66 89 59 90 61 91 67 92 60 93 62 94 63 95
REMARK SMILES IDX 64 96 65 97 42 98 43 99 51 100 44 101 46 102 52 103 45 104
REMARK SMILES IDX 47 105 48 106 49 107 50 108
REMARK H PARENT 9 6 87 22 13 42 72 61 40 72
REMARK Flexibility Score: inf
ROOT
ATOM      1  C   UNL A   1      47.363  25.312  39.711  1.00  0.00     0.042 C 
ENDROOT
BRANCH   1   2
ATOM      2  C   UNL A   1      47.726  23.847  39.490  1.00  0.00     0.118 C 
BRANCH   2   3
ATOM      3  N   UNL A   1      46.766  23.152  38.649  1.00  0.00    -0.351 N 
ATOM      4  C   UNL A   1      46.566  21.819  38.385  1.00  0.00     0.272 C 
ATOM      5  O   UNL A   1      45.623  21.538  37.651  1.00  0.00    -0.267 OA
ATOM      6  H   UNL A   1      46.141  23.751  38.179  1.00  0.00     0.163 HD
BRANCH   4   7
ATOM      7  C   UNL A   1      47.457  20.710  38.991  1.00  0.00     0.156 A 
ATOM      8  N   UNL A   1      47.688  19.034  40.592  1.00  0.00    -0.219 N 
ATOM      9  N   UNL A   1      46.986  20.066  40.023  1.00  0.00    -0.163 NA
ATOM     10  C   UNL A   1      48.922  18.610  40.122  1.00  0.00     0.275 A 
ATOM     11  C   UNL A   1      49.466  19.294  38.941  1.00  0.00     0.051 A 
ATOM     12  O   UNL A   1      49.519  17.645  40.598  1.00  0.00    -0.267 OA
ATOM     13  C   UNL A   1      48.777  20.367  38.381  1.00  0.00     0.020 A 
ATOM     14  C   UNL A   1      50.669  18.830  38.378  1.00  0.00     0.014 A 
ATOM     15  C   UNL A   1      49.354  21.012  37.276  1.00  0.00     0.011 A 
ATOM     16  C   UNL A   1      51.207  19.456  37.258  1.00  0.00     0.001 A 
ATOM     17  C   UNL A   1      50.557  20.558  36.718  1.00  0.00     0.001 A 
BRANCH   8  18
ATOM     18  C   UNL A   1      47.061  18.375  41.763  1.00  0.00     0.248 C 
BRANCH  18  19
ATOM     19  C   UNL A   1      46.264  17.096  41.411  1.00  0.00     0.246 C 
ATOM     20  O   UNL A   1      46.810  16.016  41.198  1.00  0.00    -0.273 OA
ATOM     21  N   UNL A   1      44.926  17.349  41.207  1.00  0.00    -0.324 N 
ATOM     22  H   UNL A   1      44.705  18.296  41.054  1.00  0.00     0.169 HD
BRANCH  21  23
ATOM     23  C   UNL A   1      43.831  16.480  41.181  1.00  0.00     0.042 A 
ATOM     24  C   UNL A   1      43.261  15.910  40.038  1.00  0.00     0.027 A 
ATOM     25  C   UNL A   1      43.420  16.059  42.445  1.00  0.00     0.039 A 
ATOM     26  C   UNL A   1      42.371  14.828  40.164  1.00  0.00     0.015 A 
ATOM     27  C   UNL A   1      42.599  14.948  42.563  1.00  0.00     0.036 A 
ATOM     28  C   UNL A   1      42.115  14.298  41.432  1.00  0.00     0.034 A 
ATOM     29  C   UNL A   1      42.500  14.315  43.884  1.00  0.00     0.194 C 
ATOM     30  C   UNL A   1      41.566  12.931  41.596  1.00  0.00     0.194 C 
ATOM     31  O   UNL A   1      42.524  14.964  44.921  1.00  0.00    -0.289 OA
ATOM     32  C   UNL A   1      42.545  12.850  43.881  1.00  0.00     0.034 A 
ATOM     33  C   UNL A   1      42.084  12.162  42.757  1.00  0.00     0.034 A 
ATOM     34  O   UNL A   1      40.828  12.421  40.765  1.00  0.00    -0.289 OA
ATOM     35  C   UNL A   1      43.199  12.187  44.920  1.00  0.00     0.013 A 
ATOM     36  C   UNL A   1      42.263  10.782  42.675  1.00  0.00     0.013 A 
ATOM     37  C   UNL A   1      43.419  10.817  44.814  1.00  0.00     0.001 A 
ATOM     38  C   UNL A   1      42.948  10.117  43.698  1.00  0.00     0.001 A 
ENDBRANCH  21  23
ENDBRANCH  18  19
ENDBRANCH   8  18
ENDBRANCH   4   7
ENDBRANCH   2   3
ENDBRANCH   1   2
BRANCH   1  39
ATOM     39  C   UNL A   1      46.865  26.023  38.451  1.00  0.00     0.118 C 
BRANCH  39  40
ATOM     40  N   UNL A   1      47.888  26.137  37.419  1.00  0.00    -0.352 N 
ATOM     41  C   UNL A   1      47.786  26.474  36.090  1.00  0.00     0.251 C 
ATOM     42  H   UNL A   1      48.802  25.939  37.723  1.00  0.00     0.163 HD
ATOM     43  O   UNL A   1      48.761  26.329  35.359  1.00  0.00    -0.269 OA
BRANCH  41  44
ATOM     44  C   UNL A   1      46.514  26.986  35.537  1.00  0.00     0.039 A 
ATOM     45  C   UNL A   1      45.338  26.239  35.629  1.00  0.00     0.014 A 
ATOM     46  C   UNL A   1      46.494  28.251  34.939  1.00  0.00     0.014 A 
ATOM     47  C   UNL A   1      44.183  26.686  34.990  1.00  0.00     0.010 A 
ATOM     48  C   UNL A   1      45.318  28.725  34.351  1.00  0.00     0.010 A 
ATOM     49  C   UNL A   1      44.168  27.924  34.326  1.00  0.00    -0.014 A 
BRANCH  49  50
ATOM     50  C   UNL A   1      42.946  28.339  33.590  1.00  0.00     0.031 A 
ATOM     51  C   UNL A   1      41.946  29.264  34.230  1.00  0.00     0.074 A 
ATOM     52  C   UNL A   1      42.767  27.936  32.317  1.00  0.00     0.049 A 
ATOM     53  N   UNL A   1      40.876  29.805  33.707  1.00  0.00    -0.248 NA
ATOM     54  C   UNL A   1      42.176  29.634  35.637  1.00  0.00     0.031 C 
ATOM     55  C   UNL A   1      43.652  27.024  31.591  1.00  0.00     0.029 A 
ATOM     56  N   UNL A   1      41.796  28.260  31.402  1.00  0.00    -0.354 N 
ATOM     57  C   UNL A   1      40.287  30.547  34.723  1.00  0.00     0.074 A 
ATOM     58  C   UNL A   1      41.115  30.388  35.897  1.00  0.00     0.031 C 
ATOM     59  C   UNL A   1      43.216  26.905  30.327  1.00  0.00     0.029 A 
ATOM     60  C   UNL A   1      42.008  27.710  30.160  1.00  0.00     0.049 A 
ATOM     61  H   UNL A   1      41.024  28.832  31.615  1.00  0.00     0.167 HD
ATOM     62  C   UNL A   1      39.172  31.312  34.677  1.00  0.00     0.034 A 
ATOM     63  C   UNL A   1      41.321  27.852  29.010  1.00  0.00     0.034 A 
ATOM     64  C   UNL A   1      38.378  31.525  33.500  1.00  0.00     0.049 A 
ATOM     65  C   UNL A   1      40.108  28.736  28.977  1.00  0.00     0.074 A 
ATOM     66  C   UNL A   1      37.252  32.317  33.355  1.00  0.00     0.029 A 
ATOM     67  N   UNL A   1      38.630  30.955  32.263  1.00  0.00    -0.354 N 
ATOM     68  N   UNL A   1      39.618  29.495  29.926  1.00  0.00    -0.248 NA
ATOM     69  C   UNL A   1      39.360  28.795  27.712  1.00  0.00     0.031 C 
ATOM     70  C   UNL A   1      36.831  32.237  32.022  1.00  0.00     0.029 A 
ATOM     71  C   UNL A   1      37.686  31.381  31.346  1.00  0.00     0.049 A 
ATOM     72  H   UNL A   1      39.372  30.338  32.065  1.00  0.00     0.167 HD
ATOM     73  C   UNL A   1      38.507  30.121  29.376  1.00  0.00     0.074 A 
ATOM     74  C   UNL A   1      38.410  29.677  28.002  1.00  0.00     0.031 C 
ATOM     75  C   UNL A   1      37.629  30.966  29.970  1.00  0.00     0.034 A 
BRANCH  62  76
ATOM     76  C   UNL A   1      38.779  32.041  35.929  1.00  0.00     0.023 A 
ATOM     77  C   UNL A   1      39.078  33.412  36.040  1.00  0.00     0.012 A 
ATOM     78  C   UNL A   1      38.061  31.398  36.956  1.00  0.00     0.148 A 
ATOM     79  C   UNL A   1      38.674  34.135  37.160  1.00  0.00     0.002 A 
ATOM     80  C   UNL A   1      37.647  32.131  38.062  1.00  0.00     0.091 A 
ATOM     81  F   UNL A   1      37.814  30.086  36.838  1.00  0.00    -0.205 F 
ATOM     82  C   UNL A   1      37.952  33.498  38.165  1.00  0.00     0.022 A 
BRANCH  80  83
ATOM     83  S   UNL A   1      36.678  31.405  39.390  1.00  0.00     0.127 S 
ATOM     84  O   UNL A   1      36.094  30.241  38.725  1.00  0.00    -0.237 OA
ATOM     85  O   UNL A   1      37.704  31.088  40.385  1.00  0.00    -0.237 OA
ATOM     86  O   UNL A   1      35.733  32.433  39.801  1.00  0.00    -0.744 OA
ENDBRANCH  80  83
ENDBRANCH  62  76
BRANCH  63  87
ATOM     87  C   UNL A   1      41.834  27.204  27.773  1.00  0.00     0.023 A 
ATOM     88  C   UNL A   1      42.528  27.989  26.834  1.00  0.00     0.012 A 
ATOM     89  C   UNL A   1      41.714  25.818  27.564  1.00  0.00     0.148 A 
ATOM     90  C   UNL A   1      43.096  27.403  25.703  1.00  0.00     0.002 A 
ATOM     91  C   UNL A   1      42.320  25.235  26.457  1.00  0.00     0.091 A 
ATOM     92  F   UNL A   1      41.029  25.095  28.461  1.00  0.00    -0.205 F 
ATOM     93  C   UNL A   1      43.005  26.025  25.522  1.00  0.00     0.022 A 
BRANCH  91  94
ATOM     94  S   UNL A   1      42.354  23.454  26.216  1.00  0.00     0.127 S 
ATOM     95  O   UNL A   1      42.999  23.341  24.912  1.00  0.00    -0.237 OA
ATOM     96  O   UNL A   1      43.167  23.007  27.348  1.00  0.00    -0.237 OA
ATOM     97  O   UNL A   1      40.961  23.030  26.278  1.00  0.00    -0.744 OA
ENDBRANCH  91  94
ENDBRANCH  63  87
BRANCH  75  98
ATOM     98  C   UNL A   1      36.466  31.452  29.153  1.00  0.00     0.023 A 
ATOM     99  C   UNL A   1      36.420  32.812  28.789  1.00  0.00     0.012 A 
ATOM    100  C   UNL A   1      35.489  30.566  28.665  1.00  0.00     0.148 A 
ATOM    101  C   UNL A   1      35.413  33.285  27.951  1.00  0.00     0.002 A 
ATOM    102  C   UNL A   1      34.500  31.041  27.810  1.00  0.00     0.091 A 
ATOM    103  F   UNL A   1      35.543  29.281  29.044  1.00  0.00    -0.205 F 
ATOM    104  C   UNL A   1      34.460  32.399  27.453  1.00  0.00     0.022 A 
BRANCH 102 105
ATOM    105  S   UNL A   1      33.275  29.952  27.074  1.00  0.00     0.127 S 
ATOM    106  O   UNL A   1      32.114  30.835  26.972  1.00  0.00    -0.237 OA
ATOM    107  O   UNL A   1      33.888  29.601  25.794  1.00  0.00    -0.237 OA
ATOM    108  O   UNL A   1      33.138  28.834  27.998  1.00  0.00    -0.744 OA
ENDBRANCH 102 105
ENDBRANCH  75  98
ENDBRANCH  49  50
ENDBRANCH  41  44
ENDBRANCH  39  40
ENDBRANCH   1  39
TORSDOF 16
ENDMDL
MODEL 2
REMARK VINA RESULT:     -13.9      9.990     13.221
REMARK SMILES O=C(Cn1nc(C(=O)NCCCNC(=O)c2ccc(-c3c4nc(c(-c5cccc(S(=O)(=O)[O-])c5F)c5ccc([nH]5)c(-c5cccc(S(=O)(=O)[O-])c5F)c5nc(c(-c6cccc(S(=O)(=O)[O-])c6F)c6ccc3[nH]6)C=C5)C=C4)cc2)c2ccccc2c1=O)Nc1ccc2c(c1)C(=O)c1ccccc1C2=O
REMARK SMILES IDX 11 1 10 2 9 3 7 4 8 5 6 7 4 8 5 9 85 10 84 11 86 12 79 13
REMARK SMILES IDX 83 14 80 15 82 16 81 17 3 18 2 19 1 20 87 21 88 23 89 24
REMARK SMILES IDX 93 25 90 26 92 27 91 28 94 29 102 30 95 31 96 32 101 33
REMARK SMILES IDX 103 34 97 35 100 36 98 37 99 38 12 39 13 40 14 41 15 43
REMARK SMILES IDX 16 44 17 45 78 46 18 47 77 48 19 49 20 50 21 51 71 52 22 53
REMARK SMILES IDX 76 54 70 55 72 56 23 57 75 58 69 59 68 60 24 62 56 63 36 64
REMARK SMILES IDX 55 65 37 66 40 67 54 68 73 69 38 70 39 71 53 73 74 74 41 75
REMARK SMILES IDX 25 76 26 77 34 78 27 79 29 80 35 81 28 82 30 83 31 84 32 85
REMARK SMILES IDX 33 86 57 87 58 88 66 89 59 90 61 91 67 92 60 93 62 94 63 95
REMARK SMILES IDX 64 96 65 97 42 98 43 99 51 100 44 101 46 102 52 103 45 104
REMARK SMILES IDX 47 105 48 106 49 107 50 108
REMARK H PARENT 9 6 87 22 13 42 72 61 40 72
REMARK Flexibility Score: inf
ROOT
ATOM      1  C   UNL A   1      43.774  25.675  26.395  1.00  0.00     0.042 C 
ENDROOT
BRANCH   1   2
ATOM      2  C   UNL A   1      44.855  24.639  26.107  1.00  0.00     0.118 C 
BRANCH   2   3
ATOM      3  N   UNL A   1      44.764  24.093  24.763  1.00  0.00    -0.351 N 
ATOM      4  C   UNL A   1      44.115  22.995  24.255  1.00  0.00     0.272 C 
ATOM      5  O   UNL A   1      44.193  22.820  23.043  1.00  0.00    -0.267 OA
ATOM      6  H   UNL A   1      45.264  24.609  24.089  1.00  0.00     0.163 HD
BRANCH   4   7
ATOM      7  C   UNL A   1      43.298  22.028  25.145  1.00  0.00     0.156 A 
ATOM      8  N   UNL A   1      41.331  21.639  26.330  1.00  0.00    -0.219 N 
ATOM      9  N   UNL A   1      42.142  22.450  25.577  1.00  0.00    -0.163 NA
ATOM     10  C   UNL A   1      41.674  20.341  26.679  1.00  0.00     0.275 A 
ATOM     11  C   UNL A   1      42.957  19.825  26.182  1.00  0.00     0.051 A 
ATOM     12  O   UNL A   1      40.918  19.598  27.303  1.00  0.00    -0.267 OA
ATOM     13  C   UNL A   1      43.803  20.655  25.449  1.00  0.00     0.020 A 
ATOM     14  C   UNL A   1      43.296  18.484  26.436  1.00  0.00     0.014 A 
ATOM     15  C   UNL A   1      45.033  20.129  25.027  1.00  0.00     0.011 A 
ATOM     16  C   UNL A   1      44.503  17.967  25.976  1.00  0.00     0.001 A 
ATOM     17  C   UNL A   1      45.378  18.795  25.285  1.00  0.00     0.001 A 
BRANCH   8  18
ATOM     18  C   UNL A   1      40.041  22.222  26.771  1.00  0.00     0.248 C 
BRANCH  18  19
ATOM     19  C   UNL A   1      38.847  21.869  25.851  1.00  0.00     0.246 C 
ATOM     20  O   UNL A   1      38.715  20.763  25.335  1.00  0.00    -0.273 OA
ATOM     21  N   UNL A   1      38.067  22.966  25.558  1.00  0.00    -0.324 N 
ATOM     22  H   UNL A   1      38.493  23.835  25.739  1.00  0.00     0.169 HD
BRANCH  21  23
ATOM     23  C   UNL A   1      36.769  23.046  25.046  1.00  0.00     0.042 A 
ATOM     24  C   UNL A   1      36.411  23.537  23.787  1.00  0.00     0.027 A 
ATOM     25  C   UNL A   1      35.811  22.420  25.843  1.00  0.00     0.039 A 
ATOM     26  C   UNL A   1      35.125  23.285  23.275  1.00  0.00     0.015 A 
ATOM     27  C   UNL A   1      34.570  22.112  25.309  1.00  0.00     0.036 A 
ATOM     28  C   UNL A   1      34.239  22.494  24.012  1.00  0.00     0.034 A 
ATOM     29  C   UNL A   1      33.744  21.135  26.029  1.00  0.00     0.194 C 
ATOM     30  C   UNL A   1      33.079  21.835  23.367  1.00  0.00     0.194 C 
ATOM     31  O   UNL A   1      33.733  21.066  27.251  1.00  0.00    -0.289 OA
ATOM     32  C   UNL A   1      33.073  20.141  25.188  1.00  0.00     0.034 A 
ATOM     33  C   UNL A   1      32.740  20.481  23.875  1.00  0.00     0.034 A 
ATOM     34  O   UNL A   1      32.511  22.319  22.398  1.00  0.00    -0.289 OA
ATOM     35  C   UNL A   1      32.935  18.834  25.656  1.00  0.00     0.013 A 
ATOM     36  C   UNL A   1      32.244  19.501  23.016  1.00  0.00     0.013 A 
ATOM     37  C   UNL A   1      32.486  17.848  24.782  1.00  0.00     0.001 A 
ATOM     38  C   UNL A   1      32.136  18.181  23.469  1.00  0.00     0.001 A 
ENDBRANCH  21  23
ENDBRANCH  18  19
ENDBRANCH   8  18
ENDBRANCH   4   7
ENDBRANCH   2   3
ENDBRANCH   1   2
BRANCH   1  39
ATOM     39  C   UNL A   1      42.979  25.401  27.674  1.00  0.00     0.118 C 
BRANCH  39  40
ATOM     40  N   UNL A   1      41.549  25.255  27.436  1.00  0.00    -0.352 N 
ATOM     41  C   UNL A   1      40.486  26.007  27.876  1.00  0.00     0.251 C 
ATOM     42  H   UNL A   1      41.303  24.490  26.867  1.00  0.00     0.163 HD
ATOM     43  O   UNL A   1      39.344  25.592  27.701  1.00  0.00    -0.269 OA
BRANCH  41  44
ATOM     44  C   UNL A   1      40.709  27.293  28.570  1.00  0.00     0.039 A 
ATOM     45  C   UNL A   1      40.144  28.476  28.091  1.00  0.00     0.014 A 
ATOM     46  C   UNL A   1      41.478  27.309  29.739  1.00  0.00     0.014 A 
ATOM     47  C   UNL A   1      40.472  29.691  28.689  1.00  0.00     0.010 A 
ATOM     48  C   UNL A   1      41.757  28.523  30.374  1.00  0.00     0.010 A 
ATOM     49  C   UNL A   1      41.300  29.729  29.823  1.00  0.00    -0.014 A 
BRANCH  49  50
ATOM     50  C   UNL A   1      41.694  31.043  30.393  1.00  0.00     0.031 A 
ATOM     51  C   UNL A   1      40.887  31.668  31.500  1.00  0.00     0.074 A 
ATOM     52  C   UNL A   1      42.817  31.646  29.959  1.00  0.00     0.049 A 
ATOM     53  N   UNL A   1      41.134  32.759  32.179  1.00  0.00    -0.248 NA
ATOM     54  C   UNL A   1      39.646  30.982  31.899  1.00  0.00     0.031 C 
ATOM     55  C   UNL A   1      43.674  31.153  28.880  1.00  0.00     0.029 A 
ATOM     56  N   UNL A   1      43.445  32.789  30.389  1.00  0.00    -0.354 N 
ATOM     57  C   UNL A   1      40.069  32.910  33.058  1.00  0.00     0.074 A 
ATOM     58  C   UNL A   1      39.169  31.801  32.828  1.00  0.00     0.031 C 
ATOM     59  C   UNL A   1      44.744  31.956  28.769  1.00  0.00     0.029 A 
ATOM     60  C   UNL A   1      44.636  33.034  29.749  1.00  0.00     0.049 A 
ATOM     61  H   UNL A   1      43.077  33.376  31.089  1.00  0.00     0.167 HD
ATOM     62  C   UNL A   1      39.869  33.869  33.991  1.00  0.00     0.034 A 
ATOM     63  C   UNL A   1      45.551  34.004  29.942  1.00  0.00     0.034 A 
ATOM     64  C   UNL A   1      40.786  34.938  34.269  1.00  0.00     0.049 A 
ATOM     65  C   UNL A   1      45.322  35.036  31.008  1.00  0.00     0.074 A 
ATOM     66  C   UNL A   1      40.680  35.934  35.225  1.00  0.00     0.029 A 
ATOM     67  N   UNL A   1      41.982  35.147  33.603  1.00  0.00    -0.354 N 
ATOM     68  N   UNL A   1      44.351  35.111  31.884  1.00  0.00    -0.248 NA
ATOM     69  C   UNL A   1      46.321  36.109  31.122  1.00  0.00     0.031 C 
ATOM     70  C   UNL A   1      41.822  36.738  35.146  1.00  0.00     0.029 A 
ATOM     71  C   UNL A   1      42.629  36.251  34.129  1.00  0.00     0.049 A 
ATOM     72  H   UNL A   1      42.322  34.592  32.865  1.00  0.00     0.167 HD
ATOM     73  C   UNL A   1      44.619  36.236  32.653  1.00  0.00     0.074 A 
ATOM     74  C   UNL A   1      45.860  36.797  32.161  1.00  0.00     0.031 C 
ATOM     75  C   UNL A   1      43.885  36.771  33.658  1.00  0.00     0.034 A 
BRANCH  62  76
ATOM     76  C   UNL A   1      38.632  33.768  34.837  1.00  0.00     0.023 A 
ATOM     77  C   UNL A   1      37.430  34.313  34.348  1.00  0.00     0.012 A 
ATOM     78  C   UNL A   1      38.641  33.084  36.067  1.00  0.00     0.148 A 
ATOM     79  C   UNL A   1      36.249  34.184  35.077  1.00  0.00     0.002 A 
ATOM     80  C   UNL A   1      37.455  32.944  36.779  1.00  0.00     0.091 A 
ATOM     81  F   UNL A   1      39.805  32.600  36.522  1.00  0.00    -0.205 F 
ATOM     82  C   UNL A   1      36.260  33.493  36.286  1.00  0.00     0.022 A 
BRANCH  80  83
ATOM     83  S   UNL A   1      37.362  32.039  38.328  1.00  0.00     0.127 S 
ATOM     84  O   UNL A   1      36.069  32.480  38.848  1.00  0.00    -0.237 OA
ATOM     85  O   UNL A   1      37.396  30.646  37.877  1.00  0.00    -0.237 OA
ATOM     86  O   UNL A   1      38.524  32.453  39.102  1.00  0.00    -0.744 OA
ENDBRANCH  80  83
ENDBRANCH  62  76
BRANCH  63  87
ATOM     87  C   UNL A   1      46.814  33.977  29.156  1.00  0.00     0.023 A 
ATOM     88  C   UNL A   1      47.896  33.217  29.638  1.00  0.00     0.012 A 
ATOM     89  C   UNL A   1      46.921  34.622  27.911  1.00  0.00     0.148 A 
ATOM     90  C   UNL A   1      49.067  33.099  28.890  1.00  0.00     0.002 A 
ATOM     91  C   UNL A   1      48.075  34.464  27.151  1.00  0.00     0.091 A 
ATOM     92  F   UNL A   1      45.886  35.359  27.484  1.00  0.00    -0.205 F 
ATOM     93  C   UNL A   1      49.151  33.710  27.641  1.00  0.00     0.022 A 
BRANCH  91  94
ATOM     94  S   UNL A   1      48.214  35.116  25.482  1.00  0.00     0.127 S 
ATOM     95  O   UNL A   1      49.479  34.537  25.040  1.00  0.00    -0.237 OA
ATOM     96  O   UNL A   1      47.023  34.562  24.836  1.00  0.00    -0.237 OA
ATOM     97  O   UNL A   1      48.192  36.565  25.630  1.00  0.00    -0.744 OA
ENDBRANCH  91  94
ENDBRANCH  63  87
BRANCH  75  98
ATOM     98  C   UNL A   1      44.379  38.043  34.284  1.00  0.00     0.023 A 
ATOM     99  C   UNL A   1      45.349  37.961  35.303  1.00  0.00     0.012 A 
ATOM    100  C   UNL A   1      43.973  39.303  33.808  1.00  0.00     0.148 A 
ATOM    101  C   UNL A   1      45.906  39.118  35.842  1.00  0.00     0.002 A 
ATOM    102  C   UNL A   1      44.551  40.453  34.335  1.00  0.00     0.091 A 
ATOM    103  F   UNL A   1      43.033  39.355  32.854  1.00  0.00    -0.205 F 
ATOM    104  C   UNL A   1      45.516  40.363  35.352  1.00  0.00     0.022 A 
BRANCH 102 105
ATOM    105  S   UNL A   1      44.151  42.091  33.714  1.00  0.00     0.127 S 
ATOM    106  O   UNL A   1      42.701  42.134  33.898  1.00  0.00    -0.237 OA
ATOM    107  O   UNL A   1      44.906  42.964  34.611  1.00  0.00    -0.237 OA
ATOM    108  O   UNL A   1      44.613  42.110  32.332  1.00  0.00    -0.744 OA
ENDBRANCH 102 105
ENDBRANCH  75  98
ENDBRANCH  49  50
ENDBRANCH  41  44
ENDBRANCH  39  40
ENDBRANCH   1  39
TORSDOF 16
ENDMDL
MODEL 3
REMARK VINA RESULT:     -13.7      6.410     10.658
REMARK SMILES O=C(Cn1nc(C(=O)NCCCNC(=O)c2ccc(-c3c4nc(c(-c5cccc(S(=O)(=O)[O-])c5F)c5ccc([nH]5)c(-c5cccc(S(=O)(=O)[O-])c5F)c5nc(c(-c6cccc(S(=O)(=O)[O-])c6F)c6ccc3[nH]6)C=C5)C=C4)cc2)c2ccccc2c1=O)Nc1ccc2c(c1)C(=O)c1ccccc1C2=O
REMARK SMILES IDX 11 1 10 2 9 3 7 4 8 5 6 7 4 8 5 9 85 10 84 11 86 12 79 13
REMARK SMILES IDX 83 14 80 15 82 16 81 17 3 18 2 19 1 20 87 21 88 23 89 24
REMARK SMILES IDX 93 25 90 26 92 27 91 28 94 29 102 30 95 31 96 32 101 33
REMARK SMILES IDX 103 34 97 35 100 36 98 37 99 38 12 39 13 40 14 41 15 43
REMARK SMILES IDX 16 44 17 45 78 46 18 47 77 48 19 49 20 50 21 51 71 52 22 53
REMARK SMILES IDX 76 54 70 55 72 56 23 57 75 58 69 59 68 60 24 62 56 63 36 64
REMARK SMILES IDX 55 65 37 66 40 67 54 68 73 69 38 70 39 71 53 73 74 74 41 75
REMARK SMILES IDX 25 76 26 77 34 78 27 79 29 80 35 81 28 82 30 83 31 84 32 85
REMARK SMILES IDX 33 86 57 87 58 88 66 89 59 90 61 91 67 92 60 93 62 94 63 95
REMARK SMILES IDX 64 96 65 97 42 98 43 99 51 100 44 101 46 102 52 103 45 104
REMARK SMILES IDX 47 105 48 106 49 107 50 108
REMARK H PARENT 9 6 87 22 13 42 72 61 40 72
REMARK Flexibility Score: inf
ROOT
ATOM      1  C   UNL A   1      45.063  25.513  37.717  1.00  0.00     0.042 C 
ENDROOT
BRANCH   1   2
ATOM      2  C   UNL A   1      45.390  24.460  38.770  1.00  0.00     0.118 C 
BRANCH   2   3
ATOM      3  N   UNL A   1      46.817  24.340  39.020  1.00  0.00    -0.351 N 
ATOM      4  C   UNL A   1      47.652  23.253  39.096  1.00  0.00     0.272 C 
ATOM      5  O   UNL A   1      48.843  23.484  39.279  1.00  0.00    -0.267 OA
ATOM      6  H   UNL A   1      47.270  25.203  39.162  1.00  0.00     0.163 HD
BRANCH   4   7
ATOM      7  C   UNL A   1      47.141  21.801  38.938  1.00  0.00     0.156 A 
ATOM      8  N   UNL A   1      46.500  19.821  39.984  1.00  0.00    -0.219 N 
ATOM      9  N   UNL A   1      46.996  21.099  40.028  1.00  0.00    -0.163 NA
ATOM     10  C   UNL A   1      46.127  19.196  38.803  1.00  0.00     0.275 A 
ATOM     11  C   UNL A   1      46.249  19.970  37.561  1.00  0.00     0.051 A 
ATOM     12  O   UNL A   1      45.627  18.072  38.776  1.00  0.00    -0.267 OA
ATOM     13  C   UNL A   1      46.786  21.255  37.593  1.00  0.00     0.020 A 
ATOM     14  C   UNL A   1      45.792  19.404  36.357  1.00  0.00     0.014 A 
ATOM     15  C   UNL A   1      46.917  21.942  36.376  1.00  0.00     0.011 A 
ATOM     16  C   UNL A   1      45.893  20.114  35.165  1.00  0.00     0.001 A 
ATOM     17  C   UNL A   1      46.471  21.378  35.174  1.00  0.00     0.001 A 
BRANCH   8  18
ATOM     18  C   UNL A   1      46.380  19.114  41.281  1.00  0.00     0.248 C 
BRANCH  18  19
ATOM     19  C   UNL A   1      44.952  18.600  41.586  1.00  0.00     0.246 C 
ATOM     20  O   UNL A   1      44.028  19.354  41.879  1.00  0.00    -0.273 OA
ATOM     21  N   UNL A   1      44.890  17.227  41.650  1.00  0.00    -0.324 N 
ATOM     22  H   UNL A   1      45.760  16.779  41.755  1.00  0.00     0.169 HD
BRANCH  21  23
ATOM     23  C   UNL A   1      43.792  16.363  41.590  1.00  0.00     0.042 A 
ATOM     24  C   UNL A   1      43.219  15.842  40.425  1.00  0.00     0.027 A 
ATOM     25  C   UNL A   1      43.380  15.891  42.835  1.00  0.00     0.039 A 
ATOM     26  C   UNL A   1      42.327  14.758  40.507  1.00  0.00     0.015 A 
ATOM     27  C   UNL A   1      42.556  14.778  42.909  1.00  0.00     0.036 A 
ATOM     28  C   UNL A   1      42.069  14.177  41.752  1.00  0.00     0.034 A 
ATOM     29  C   UNL A   1      42.456  14.092  44.202  1.00  0.00     0.194 C 
ATOM     30  C   UNL A   1      41.517  12.806  41.860  1.00  0.00     0.194 C 
ATOM     31  O   UNL A   1      42.483  14.697  45.265  1.00  0.00    -0.289 OA
ATOM     32  C   UNL A   1      42.497  12.629  44.138  1.00  0.00     0.034 A 
ATOM     33  C   UNL A   1      42.034  11.988  42.988  1.00  0.00     0.034 A 
ATOM     34  O   UNL A   1      40.777  12.332  41.009  1.00  0.00    -0.289 OA
ATOM     35  C   UNL A   1      43.150  11.921  45.149  1.00  0.00     0.013 A 
ATOM     36  C   UNL A   1      42.209  10.612  42.849  1.00  0.00     0.013 A 
ATOM     37  C   UNL A   1      43.366  10.556  44.986  1.00  0.00     0.001 A 
ATOM     38  C   UNL A   1      42.893   9.903  43.843  1.00  0.00     0.001 A 
ENDBRANCH  21  23
ENDBRANCH  18  19
ENDBRANCH   8  18
ENDBRANCH   4   7
ENDBRANCH   2   3
ENDBRANCH   1   2
BRANCH   1  39
ATOM     39  C   UNL A   1      43.676  26.138  37.876  1.00  0.00     0.118 C 
BRANCH  39  40
ATOM     40  N   UNL A   1      42.603  25.273  37.401  1.00  0.00    -0.352 N 
ATOM     41  C   UNL A   1      42.280  24.862  36.130  1.00  0.00     0.251 C 
ATOM     42  H   UNL A   1      42.012  24.926  38.107  1.00  0.00     0.163 HD
ATOM     43  O   UNL A   1      41.218  24.276  35.941  1.00  0.00    -0.269 OA
BRANCH  41  44
ATOM     44  C   UNL A   1      43.187  25.137  34.995  1.00  0.00     0.039 A 
ATOM     45  C   UNL A   1      43.045  26.294  34.226  1.00  0.00     0.014 A 
ATOM     46  C   UNL A   1      44.215  24.231  34.713  1.00  0.00     0.014 A 
ATOM     47  C   UNL A   1      43.829  26.467  33.087  1.00  0.00     0.010 A 
ATOM     48  C   UNL A   1      45.041  24.438  33.604  1.00  0.00     0.010 A 
ATOM     49  C   UNL A   1      44.821  25.530  32.753  1.00  0.00    -0.014 A 
BRANCH  49  50
ATOM     50  C   UNL A   1      45.589  25.702  31.493  1.00  0.00     0.031 A 
ATOM     51  C   UNL A   1      45.271  24.864  30.284  1.00  0.00     0.074 A 
ATOM     52  C   UNL A   1      46.534  26.659  31.416  1.00  0.00     0.049 A 
ATOM     53  N   UNL A   1      45.771  24.941  29.077  1.00  0.00    -0.248 NA
ATOM     54  C   UNL A   1      44.259  23.805  30.446  1.00  0.00     0.031 C 
ATOM     55  C   UNL A   1      46.949  27.523  32.521  1.00  0.00     0.029 A 
ATOM     56  N   UNL A   1      47.295  27.083  30.355  1.00  0.00    -0.354 N 
ATOM     57  C   UNL A   1      45.166  23.926  28.348  1.00  0.00     0.074 A 
ATOM     58  C   UNL A   1      44.261  23.241  29.245  1.00  0.00     0.031 C 
ATOM     59  C   UNL A   1      47.849  28.410  32.069  1.00  0.00     0.029 A 
ATOM     60  C   UNL A   1      48.094  28.162  30.650  1.00  0.00     0.049 A 
ATOM     61  H   UNL A   1      47.271  26.656  29.468  1.00  0.00     0.167 HD
ATOM     62  C   UNL A   1      45.328  23.607  27.043  1.00  0.00     0.034 A 
ATOM     63  C   UNL A   1      48.916  28.885  29.865  1.00  0.00     0.034 A 
ATOM     64  C   UNL A   1      46.177  24.319  26.130  1.00  0.00     0.049 A 
ATOM     65  C   UNL A   1      49.050  28.533  28.411  1.00  0.00     0.074 A 
ATOM     66  C   UNL A   1      46.372  24.086  24.779  1.00  0.00     0.029 A 
ATOM     67  N   UNL A   1      46.963  25.407  26.468  1.00  0.00    -0.354 N 
ATOM     68  N   UNL A   1      48.405  27.624  27.724  1.00  0.00    -0.248 NA
ATOM     69  C   UNL A   1      50.015  29.314  27.623  1.00  0.00     0.031 C 
ATOM     70  C   UNL A   1      47.268  25.047  24.296  1.00  0.00     0.029 A 
ATOM     71  C   UNL A   1      47.641  25.864  25.352  1.00  0.00     0.049 A 
ATOM     72  H   UNL A   1      47.030  25.799  27.369  1.00  0.00     0.167 HD
ATOM     73  C   UNL A   1      48.883  27.721  26.423  1.00  0.00     0.074 A 
ATOM     74  C   UNL A   1      49.852  28.798  26.410  1.00  0.00     0.031 C 
ATOM     75  C   UNL A   1      48.568  26.964  25.345  1.00  0.00     0.034 A 
BRANCH  62  76
ATOM     76  C   UNL A   1      44.511  22.470  26.500  1.00  0.00     0.023 A 
ATOM     77  C   UNL A   1      43.108  22.581  26.500  1.00  0.00     0.012 A 
ATOM     78  C   UNL A   1      45.122  21.335  25.934  1.00  0.00     0.148 A 
ATOM     79  C   UNL A   1      42.319  21.573  25.949  1.00  0.00     0.002 A 
ATOM     80  C   UNL A   1      44.329  20.342  25.369  1.00  0.00     0.091 A 
ATOM     81  F   UNL A   1      46.459  21.241  25.972  1.00  0.00    -0.205 F 
ATOM     82  C   UNL A   1      42.929  20.460  25.376  1.00  0.00     0.022 A 
BRANCH  80  83
ATOM     83  S   UNL A   1      45.025  18.889  24.575  1.00  0.00     0.127 S 
ATOM     84  O   UNL A   1      44.152  18.746  23.410  1.00  0.00    -0.237 OA
ATOM     85  O   UNL A   1      46.388  19.325  24.267  1.00  0.00    -0.237 OA
ATOM     86  O   UNL A   1      44.939  17.818  25.558  1.00  0.00    -0.744 OA
ENDBRANCH  80  83
ENDBRANCH  62  76
BRANCH  63  87
ATOM     87  C   UNL A   1      49.601  30.077  30.433  1.00  0.00     0.023 A 
ATOM     88  C   UNL A   1      50.836  29.904  31.084  1.00  0.00     0.012 A 
ATOM     89  C   UNL A   1      49.085  31.375  30.263  1.00  0.00     0.148 A 
ATOM     90  C   UNL A   1      51.549  31.005  31.557  1.00  0.00     0.002 A 
ATOM     91  C   UNL A   1      49.821  32.471  30.698  1.00  0.00     0.091 A 
ATOM     92  F   UNL A   1      47.895  31.513  29.660  1.00  0.00    -0.205 F 
ATOM     93  C   UNL A   1      51.049  32.289  31.351  1.00  0.00     0.022 A 
BRANCH  91  94
ATOM     94  S   UNL A   1      49.306  34.160  30.362  1.00  0.00     0.127 S 
ATOM     95  O   UNL A   1      49.171  34.147  28.909  1.00  0.00    -0.237 OA
ATOM     96  O   UNL A   1      48.044  34.249  31.099  1.00  0.00    -0.237 OA
ATOM     97  O   UNL A   1      50.369  35.001  30.896  1.00  0.00    -0.744 OA
ENDBRANCH  91  94
ENDBRANCH  63  87
BRANCH  75  98
ATOM     98  C   UNL A   1      49.290  27.246  24.058  1.00  0.00     0.023 A 
ATOM     99  C   UNL A   1      48.563  27.793  22.983  1.00  0.00     0.012 A 
ATOM    100  C   UNL A   1      50.681  27.072  23.942  1.00  0.00     0.148 A 
ATOM    101  C   UNL A   1      49.211  28.161  21.806  1.00  0.00     0.002 A 
ATOM    102  C   UNL A   1      51.325  27.463  22.773  1.00  0.00     0.091 A 
ATOM    103  F   UNL A   1      51.347  26.529  24.972  1.00  0.00    -0.205 F 
ATOM    104  C   UNL A   1      50.592  28.006  21.705  1.00  0.00     0.022 A 
BRANCH 102 105
ATOM    105  S   UNL A   1      53.109  27.357  22.588  1.00  0.00     0.127 S 
ATOM    106  O   UNL A   1      53.339  28.207  21.421  1.00  0.00    -0.237 OA
ATOM    107  O   UNL A   1      53.594  27.911  23.851  1.00  0.00    -0.237 OA
ATOM    108  O   UNL A   1      53.400  25.941  22.405  1.00  0.00    -0.744 OA
ENDBRANCH 102 105
ENDBRANCH  75  98
ENDBRANCH  49  50
ENDBRANCH  41  44
ENDBRANCH  39  40
ENDBRANCH   1  39
TORSDOF 16
ENDMDL
