MODEL 1
REMARK VINA RESULT:     -10.8      0.000      0.000
REMARK SMILES CC(C)N(CCC#N)C(=O)c1ccncc1/C=C/C(=O)NCCCNC(=O)c1ccc(-c2c3nc(c(-c4cccc(S(=O)(=O)[O-])c4F)c4ccc([nH]4)c(-c4cccc(S(=O)(=O)[O-])c4F)c4nc(c(-c5cccc(S(=O)(=O)[O-])c5F)c5ccc2[nH]5)C=C4)C=C3)cc1
REMARK SMILES IDX 19 1 20 2 21 3 18 5 17 6 16 7 11 8 12 9 13 10 15 11 14 12
REMARK SMILES IDX 9 13 10 14 4 15 2 16 1 17 3 18 5 19 6 20 7 21 8 22 22 23
REMARK SMILES IDX 23 24 24 25 25 26 26 27 27 29 28 30 29 31 90 32 30 33 89 34
REMARK SMILES IDX 31 35 32 36 33 37 83 38 34 39 88 40 82 41 84 42 35 43 87 44
REMARK SMILES IDX 81 45 80 46 36 48 68 49 48 50 67 51 49 52 52 53 66 54 85 55
REMARK SMILES IDX 50 56 51 57 65 59 86 60 53 61 37 62 38 63 46 64 39 65 41 66
REMARK SMILES IDX 47 67 40 68 42 69 43 70 44 71 45 72 69 73 70 74 78 75 71 76
REMARK SMILES IDX 73 77 79 78 72 79 74 80 75 81 76 82 77 83 54 84 55 85 63 86
REMARK SMILES IDX 56 87 58 88 64 89 57 90 59 91 60 92 61 93 62 94
REMARK H PARENT 21 4 25 28 84 47 52 58
REMARK Flexibility Score: inf
ROOT
ATOM      1  C   UNL A   1      31.630  23.233  25.946  1.00  0.00     0.244 C 
ATOM      2  O   UNL A   1      30.518  22.711  25.950  1.00  0.00    -0.270 OA
ATOM      3  N   UNL A   1      32.743  22.496  26.211  1.00  0.00    -0.352 N 
ATOM      4  H   UNL A   1      32.588  21.544  26.407  1.00  0.00     0.163 HD
ENDROOT
BRANCH   1   5
ATOM      5  C   UNL A   1      31.756  24.700  25.822  1.00  0.00     0.072 C 
ATOM      6  C   UNL A   1      32.842  25.389  25.427  1.00  0.00     0.016 C 
BRANCH   6   7
ATOM      7  C   UNL A   1      32.790  26.846  25.602  1.00  0.00     0.006 A 
ATOM      8  C   UNL A   1      33.162  27.792  24.610  1.00  0.00     0.050 A 
ATOM      9  C   UNL A   1      33.625  29.020  25.081  1.00  0.00     0.034 A 
ATOM     10  C   UNL A   1      33.438  29.359  26.418  1.00  0.00     0.112 A 
ATOM     11  C   UNL A   1      32.606  27.298  26.914  1.00  0.00     0.119 A 
ATOM     12  N   UNL A   1      32.889  28.545  27.337  1.00  0.00    -0.264 NA
BRANCH   8  13
ATOM     13  C   UNL A   1      32.952  27.511  23.122  1.00  0.00     0.254 C 
ATOM     14  O   UNL A   1      33.871  27.816  22.363  1.00  0.00    -0.269 OA
BRANCH  13  15
ATOM     15  N   UNL A   1      31.828  26.827  22.564  1.00  0.00    -0.335 N 
BRANCH  15  16
ATOM     16  C   UNL A   1      30.503  27.526  22.560  1.00  0.00     0.079 C 
ATOM     17  C   UNL A   1      29.558  27.107  23.692  1.00  0.00     0.031 C 
ATOM     18  C   UNL A   1      30.623  29.052  22.497  1.00  0.00     0.031 C 
ENDBRANCH  15  16
BRANCH  15  19
ATOM     19  C   UNL A   1      31.849  25.551  21.812  1.00  0.00     0.135 C 
BRANCH  19  20
ATOM     20  C   UNL A   1      33.164  24.760  21.846  1.00  0.00     0.141 C 
BRANCH  20  21
ATOM     21  C   UNL A   1      32.942  23.363  22.401  1.00  0.00     0.064 C 
ATOM     22  N   UNL A   1      32.757  22.203  22.862  1.00  0.00    -0.198 NA
ENDBRANCH  20  21
ENDBRANCH  19  20
ENDBRANCH  15  19
ENDBRANCH  13  15
ENDBRANCH   8  13
ENDBRANCH   6   7
ENDBRANCH   1   5
BRANCH   3  23
ATOM     23  C   UNL A   1      34.125  22.928  26.241  1.00  0.00     0.118 C 
BRANCH  23  24
ATOM     24  C   UNL A   1      35.124  21.785  26.191  1.00  0.00     0.042 C 
BRANCH  24  25
ATOM     25  C   UNL A   1      36.483  22.215  25.666  1.00  0.00     0.118 C 
BRANCH  25  26
ATOM     26  N   UNL A   1      37.451  21.116  25.651  1.00  0.00    -0.352 N 
ATOM     27  C   UNL A   1      38.803  21.105  25.892  1.00  0.00     0.251 C 
ATOM     28  H   UNL A   1      37.067  20.237  25.432  1.00  0.00     0.163 HD
ATOM     29  O   UNL A   1      39.467  20.118  25.609  1.00  0.00    -0.269 OA
BRANCH  27  30
ATOM     30  C   UNL A   1      39.446  22.290  26.489  1.00  0.00     0.039 A 
ATOM     31  C   UNL A   1      40.443  22.121  27.454  1.00  0.00     0.014 A 
ATOM     32  C   UNL A   1      39.062  23.569  26.088  1.00  0.00     0.014 A 
ATOM     33  C   UNL A   1      41.108  23.239  27.958  1.00  0.00     0.010 A 
ATOM     34  C   UNL A   1      39.802  24.665  26.498  1.00  0.00     0.010 A 
ATOM     35  C   UNL A   1      40.821  24.515  27.450  1.00  0.00    -0.014 A 
BRANCH  35  36
ATOM     36  C   UNL A   1      41.550  25.728  27.890  1.00  0.00     0.031 A 
ATOM     37  C   UNL A   1      40.806  26.809  28.625  1.00  0.00     0.074 A 
ATOM     38  C   UNL A   1      42.822  25.924  27.492  1.00  0.00     0.049 A 
ATOM     39  N   UNL A   1      41.198  28.016  28.934  1.00  0.00    -0.248 NA
ATOM     40  C   UNL A   1      39.420  26.506  29.020  1.00  0.00     0.031 C 
ATOM     41  C   UNL A   1      43.615  24.980  26.701  1.00  0.00     0.029 A 
ATOM     42  N   UNL A   1      43.652  27.004  27.655  1.00  0.00    -0.354 N 
ATOM     43  C   UNL A   1      40.090  28.636  29.499  1.00  0.00     0.074 A 
ATOM     44  C   UNL A   1      39.004  27.684  29.460  1.00  0.00     0.031 C 
ATOM     45  C   UNL A   1      44.810  25.529  26.433  1.00  0.00     0.029 A 
ATOM     46  C   UNL A   1      44.850  26.878  26.989  1.00  0.00     0.049 A 
ATOM     47  H   UNL A   1      43.415  27.793  28.193  1.00  0.00     0.167 HD
ATOM     48  C   UNL A   1      39.992  29.881  30.021  1.00  0.00     0.034 A 
ATOM     49  C   UNL A   1      45.854  27.760  26.817  1.00  0.00     0.034 A 
ATOM     50  C   UNL A   1      41.093  30.800  30.094  1.00  0.00     0.049 A 
ATOM     51  C   UNL A   1      45.750  29.118  27.454  1.00  0.00     0.074 A 
ATOM     52  C   UNL A   1      41.140  32.036  30.711  1.00  0.00     0.029 A 
ATOM     53  N   UNL A   1      42.335  30.591  29.515  1.00  0.00    -0.354 N 
ATOM     54  N   UNL A   1      44.752  29.632  28.133  1.00  0.00    -0.248 NA
ATOM     55  C   UNL A   1      46.914  30.006  27.335  1.00  0.00     0.031 C 
ATOM     56  C   UNL A   1      42.399  32.594  30.466  1.00  0.00     0.029 A 
ATOM     57  C   UNL A   1      43.151  31.684  29.739  1.00  0.00     0.049 A 
ATOM     58  H   UNL A   1      42.598  29.783  29.017  1.00  0.00     0.167 HD
ATOM     59  C   UNL A   1      45.179  30.885  28.553  1.00  0.00     0.074 A 
ATOM     60  C   UNL A   1      46.531  31.051  28.057  1.00  0.00     0.031 C 
ATOM     61  C   UNL A   1      44.512  31.814  29.281  1.00  0.00     0.034 A 
BRANCH  48  62
ATOM     62  C   UNL A   1      38.655  30.306  30.568  1.00  0.00     0.023 A 
ATOM     63  C   UNL A   1      38.279  29.945  31.879  1.00  0.00     0.012 A 
ATOM     64  C   UNL A   1      37.777  31.087  29.790  1.00  0.00     0.148 A 
ATOM     65  C   UNL A   1      37.031  30.303  32.386  1.00  0.00     0.002 A 
ATOM     66  C   UNL A   1      36.557  31.487  30.323  1.00  0.00     0.091 A 
ATOM     67  F   UNL A   1      38.138  31.403  28.539  1.00  0.00    -0.205 F 
ATOM     68  C   UNL A   1      36.175  31.081  31.612  1.00  0.00     0.022 A 
BRANCH  66  69
ATOM     69  S   UNL A   1      35.427  32.565  29.437  1.00  0.00     0.127 S 
ATOM     70  O   UNL A   1      34.348  32.725  30.409  1.00  0.00    -0.237 OA
ATOM     71  O   UNL A   1      36.244  33.762  29.230  1.00  0.00    -0.237 OA
ATOM     72  O   UNL A   1      35.073  31.856  28.215  1.00  0.00    -0.744 OA
ENDBRANCH  66  69
ENDBRANCH  48  62
BRANCH  49  73
ATOM     73  C   UNL A   1      47.057  27.353  26.036  1.00  0.00     0.023 A 
ATOM     74  C   UNL A   1      47.994  26.475  26.610  1.00  0.00     0.012 A 
ATOM     75  C   UNL A   1      47.228  27.765  24.698  1.00  0.00     0.148 A 
ATOM     76  C   UNL A   1      49.096  26.034  25.876  1.00  0.00     0.002 A 
ATOM     77  C   UNL A   1      48.293  27.272  23.952  1.00  0.00     0.091 A 
ATOM     78  F   UNL A   1      46.323  28.600  24.171  1.00  0.00    -0.205 F 
ATOM     79  C   UNL A   1      49.238  26.421  24.545  1.00  0.00     0.022 A 
BRANCH  77  80
ATOM     80  S   UNL A   1      48.473  27.591  22.194  1.00  0.00     0.127 S 
ATOM     81  O   UNL A   1      47.192  28.210  21.867  1.00  0.00    -0.237 OA
ATOM     82  O   UNL A   1      49.621  28.498  22.167  1.00  0.00    -0.237 OA
ATOM     83  O   UNL A   1      48.722  26.296  21.573  1.00  0.00    -0.744 OA
ENDBRANCH  77  80
ENDBRANCH  49  73
BRANCH  61  84
ATOM     84  C   UNL A   1      45.232  33.085  29.644  1.00  0.00     0.023 A 
ATOM     85  C   UNL A   1      46.045  33.134  30.793  1.00  0.00     0.012 A 
ATOM     86  C   UNL A   1      45.201  34.187  28.768  1.00  0.00     0.148 A 
ATOM     87  C   UNL A   1      46.806  34.269  31.070  1.00  0.00     0.002 A 
ATOM     88  C   UNL A   1      46.002  35.292  29.021  1.00  0.00     0.091 A 
ATOM     89  F   UNL A   1      44.407  34.121  27.689  1.00  0.00    -0.205 F 
ATOM     90  C   UNL A   1      46.798  35.339  30.177  1.00  0.00     0.022 A 
BRANCH  88  91
ATOM     91  S   UNL A   1      46.138  36.670  27.876  1.00  0.00     0.127 S 
ATOM     92  O   UNL A   1      46.587  36.000  26.657  1.00  0.00    -0.237 OA
ATOM     93  O   UNL A   1      44.763  37.166  27.829  1.00  0.00    -0.237 OA
ATOM     94  O   UNL A   1      47.098  37.594  28.466  1.00  0.00    -0.744 OA
ENDBRANCH  88  91
ENDBRANCH  61  84
ENDBRANCH  35  36
ENDBRANCH  27  30
ENDBRANCH  25  26
ENDBRANCH  24  25
ENDBRANCH  23  24
ENDBRANCH   3  23
TORSDOF 20
ENDMDL
MODEL 2
REMARK VINA RESULT:     -10.8      2.775      8.218
REMARK SMILES CC(C)N(CCC#N)C(=O)c1ccncc1/C=C/C(=O)NCCCNC(=O)c1ccc(-c2c3nc(c(-c4cccc(S(=O)(=O)[O-])c4F)c4ccc([nH]4)c(-c4cccc(S(=O)(=O)[O-])c4F)c4nc(c(-c5cccc(S(=O)(=O)[O-])c5F)c5ccc2[nH]5)C=C4)C=C3)cc1
REMARK SMILES IDX 19 1 20 2 21 3 18 5 17 6 16 7 11 8 12 9 13 10 15 11 14 12
REMARK SMILES IDX 9 13 10 14 4 15 2 16 1 17 3 18 5 19 6 20 7 21 8 22 22 23
REMARK SMILES IDX 23 24 24 25 25 26 26 27 27 29 28 30 29 31 90 32 30 33 89 34
REMARK SMILES IDX 31 35 32 36 33 37 83 38 34 39 88 40 82 41 84 42 35 43 87 44
REMARK SMILES IDX 81 45 80 46 36 48 68 49 48 50 67 51 49 52 52 53 66 54 85 55
REMARK SMILES IDX 50 56 51 57 65 59 86 60 53 61 37 62 38 63 46 64 39 65 41 66
REMARK SMILES IDX 47 67 40 68 42 69 43 70 44 71 45 72 69 73 70 74 78 75 71 76
REMARK SMILES IDX 73 77 79 78 72 79 74 80 75 81 76 82 77 83 54 84 55 85 63 86
REMARK SMILES IDX 56 87 58 88 64 89 57 90 59 91 60 92 61 93 62 94
REMARK H PARENT 21 4 25 28 84 47 52 58
REMARK Flexibility Score: inf
ROOT
ATOM      1  C   UNL A   1      32.798  22.994  26.894  1.00  0.00     0.244 C 
ATOM      2  O   UNL A   1      31.870  23.049  27.697  1.00  0.00    -0.270 OA
ATOM      3  N   UNL A   1      33.918  22.275  27.176  1.00  0.00    -0.352 N 
ATOM      4  H   UNL A   1      33.927  21.824  28.051  1.00  0.00     0.163 HD
ENDROOT
BRANCH   1   5
ATOM      5  C   UNL A   1      32.780  23.845  25.687  1.00  0.00     0.072 C 
ATOM      6  C   UNL A   1      31.936  23.752  24.643  1.00  0.00     0.016 C 
BRANCH   6   7
ATOM      7  C   UNL A   1      32.263  24.565  23.464  1.00  0.00     0.006 A 
ATOM      8  C   UNL A   1      31.563  25.737  23.074  1.00  0.00     0.050 A 
ATOM      9  C   UNL A   1      31.576  26.029  21.709  1.00  0.00     0.034 A 
ATOM     10  C   UNL A   1      32.467  25.365  20.872  1.00  0.00     0.112 A 
ATOM     11  C   UNL A   1      33.154  23.989  22.551  1.00  0.00     0.119 A 
ATOM     12  N   UNL A   1      33.296  24.385  21.272  1.00  0.00    -0.264 NA
BRANCH   8  13
ATOM     13  C   UNL A   1      30.938  26.675  24.107  1.00  0.00     0.254 C 
ATOM     14  O   UNL A   1      29.783  26.431  24.453  1.00  0.00    -0.269 OA
BRANCH  13  15
ATOM     15  N   UNL A   1      31.623  27.737  24.775  1.00  0.00    -0.335 N 
BRANCH  15  16
ATOM     16  C   UNL A   1      31.947  28.974  23.995  1.00  0.00     0.079 C 
ATOM     17  C   UNL A   1      33.326  28.963  23.327  1.00  0.00     0.031 C 
ATOM     18  C   UNL A   1      30.861  29.354  22.984  1.00  0.00     0.031 C 
ENDBRANCH  15  16
BRANCH  15  19
ATOM     19  C   UNL A   1      31.904  27.836  26.227  1.00  0.00     0.135 C 
BRANCH  19  20
ATOM     20  C   UNL A   1      31.847  29.242  26.839  1.00  0.00     0.141 C 
BRANCH  20  21
ATOM     21  C   UNL A   1      33.234  29.713  27.243  1.00  0.00     0.064 C 
ATOM     22  N   UNL A   1      34.384  30.104  27.580  1.00  0.00    -0.198 NA
ENDBRANCH  20  21
ENDBRANCH  19  20
ENDBRANCH  15  19
ENDBRANCH  13  15
ENDBRANCH   8  13
ENDBRANCH   6   7
ENDBRANCH   1   5
BRANCH   3  23
ATOM     23  C   UNL A   1      35.098  22.084  26.359  1.00  0.00     0.118 C 
BRANCH  23  24
ATOM     24  C   UNL A   1      35.962  23.326  26.231  1.00  0.00     0.042 C 
BRANCH  24  25
ATOM     25  C   UNL A   1      37.148  23.124  25.303  1.00  0.00     0.118 C 
BRANCH  25  26
ATOM     26  N   UNL A   1      38.182  22.273  25.894  1.00  0.00    -0.352 N 
ATOM     27  C   UNL A   1      39.354  22.595  26.533  1.00  0.00     0.251 C 
ATOM     28  H   UNL A   1      38.007  21.308  25.823  1.00  0.00     0.163 HD
ATOM     29  O   UNL A   1      40.188  21.728  26.757  1.00  0.00    -0.269 OA
BRANCH  27  30
ATOM     30  C   UNL A   1      39.602  23.990  26.943  1.00  0.00     0.039 A 
ATOM     31  C   UNL A   1      39.329  24.381  28.256  1.00  0.00     0.014 A 
ATOM     32  C   UNL A   1      40.109  24.907  26.023  1.00  0.00     0.014 A 
ATOM     33  C   UNL A   1      39.641  25.679  28.664  1.00  0.00     0.010 A 
ATOM     34  C   UNL A   1      40.526  26.152  26.460  1.00  0.00     0.010 A 
ATOM     35  C   UNL A   1      40.282  26.558  27.780  1.00  0.00    -0.014 A 
BRANCH  35  36
ATOM     36  C   UNL A   1      40.708  27.920  28.182  1.00  0.00     0.031 A 
ATOM     37  C   UNL A   1      42.173  28.216  28.345  1.00  0.00     0.074 A 
ATOM     38  C   UNL A   1      39.783  28.828  28.548  1.00  0.00     0.049 A 
ATOM     39  N   UNL A   1      42.750  29.269  28.860  1.00  0.00    -0.248 NA
ATOM     40  C   UNL A   1      43.112  27.165  27.917  1.00  0.00     0.031 C 
ATOM     41  C   UNL A   1      38.333  28.620  28.514  1.00  0.00     0.029 A 
ATOM     42  N   UNL A   1      39.927  30.088  29.072  1.00  0.00    -0.354 N 
ATOM     43  C   UNL A   1      44.108  28.980  28.877  1.00  0.00     0.074 A 
ATOM     44  C   UNL A   1      44.267  27.643  28.353  1.00  0.00     0.031 C 
ATOM     45  C   UNL A   1      37.722  29.706  29.010  1.00  0.00     0.029 A 
ATOM     46  C   UNL A   1      38.734  30.666  29.443  1.00  0.00     0.049 A 
ATOM     47  H   UNL A   1      40.797  30.535  29.175  1.00  0.00     0.167 HD
ATOM     48  C   UNL A   1      45.135  29.767  29.277  1.00  0.00     0.034 A 
ATOM     49  C   UNL A   1      38.484  31.822  30.090  1.00  0.00     0.034 A 
ATOM     50  C   UNL A   1      44.966  31.111  29.753  1.00  0.00     0.049 A 
ATOM     51  C   UNL A   1      39.636  32.708  30.473  1.00  0.00     0.074 A 
ATOM     52  C   UNL A   1      45.942  32.040  30.066  1.00  0.00     0.029 A 
ATOM     53  N   UNL A   1      43.742  31.712  30.002  1.00  0.00    -0.354 N 
ATOM     54  N   UNL A   1      40.922  32.491  30.330  1.00  0.00    -0.248 NA
ATOM     55  C   UNL A   1      39.311  34.009  31.074  1.00  0.00     0.031 C 
ATOM     56  C   UNL A   1      45.306  33.188  30.549  1.00  0.00     0.029 A 
ATOM     57  C   UNL A   1      43.935  32.992  30.487  1.00  0.00     0.049 A 
ATOM     58  H   UNL A   1      42.865  31.290  29.856  1.00  0.00     0.167 HD
ATOM     59  C   UNL A   1      41.557  33.639  30.787  1.00  0.00     0.074 A 
ATOM     60  C   UNL A   1      40.514  34.553  31.206  1.00  0.00     0.031 C 
ATOM     61  C   UNL A   1      42.884  33.908  30.855  1.00  0.00     0.034 A 
BRANCH  48  62
ATOM     62  C   UNL A   1      46.526  29.196  29.195  1.00  0.00     0.023 A 
ATOM     63  C   UNL A   1      47.059  28.469  30.281  1.00  0.00     0.012 A 
ATOM     64  C   UNL A   1      47.301  29.358  28.030  1.00  0.00     0.148 A 
ATOM     65  C   UNL A   1      48.357  27.965  30.232  1.00  0.00     0.002 A 
ATOM     66  C   UNL A   1      48.574  28.804  27.967  1.00  0.00     0.091 A 
ATOM     67  F   UNL A   1      46.790  30.070  27.015  1.00  0.00    -0.205 F 
ATOM     68  C   UNL A   1      49.110  28.124  29.072  1.00  0.00     0.022 A 
BRANCH  66  69
ATOM     69  S   UNL A   1      49.584  28.878  26.484  1.00  0.00     0.127 S 
ATOM     70  O   UNL A   1      50.626  27.900  26.787  1.00  0.00    -0.237 OA
ATOM     71  O   UNL A   1      48.639  28.462  25.447  1.00  0.00    -0.237 OA
ATOM     72  O   UNL A   1      50.032  30.260  26.375  1.00  0.00    -0.744 OA
ENDBRANCH  66  69
ENDBRANCH  48  62
BRANCH  49  73
ATOM     73  C   UNL A   1      37.072  32.209  30.369  1.00  0.00     0.023 A 
ATOM     74  C   UNL A   1      36.546  32.035  31.662  1.00  0.00     0.012 A 
ATOM     75  C   UNL A   1      36.279  32.827  29.380  1.00  0.00     0.148 A 
ATOM     76  C   UNL A   1      35.245  32.446  31.961  1.00  0.00     0.002 A 
ATOM     77  C   UNL A   1      35.008  33.291  29.701  1.00  0.00     0.091 A 
ATOM     78  F   UNL A   1      36.800  32.983  28.155  1.00  0.00    -0.205 F 
ATOM     79  C   UNL A   1      34.483  33.084  30.986  1.00  0.00     0.022 A 
BRANCH  77  80
ATOM     80  S   UNL A   1      34.013  34.258  28.559  1.00  0.00     0.127 S 
ATOM     81  O   UNL A   1      35.036  34.922  27.757  1.00  0.00    -0.237 OA
ATOM     82  O   UNL A   1      33.260  33.217  27.859  1.00  0.00    -0.237 OA
ATOM     83  O   UNL A   1      33.193  35.135  29.384  1.00  0.00    -0.744 OA
ENDBRANCH  77  80
ENDBRANCH  49  73
BRANCH  61  84
ATOM     84  C   UNL A   1      43.309  35.264  31.352  1.00  0.00     0.023 A 
ATOM     85  C   UNL A   1      43.609  36.292  30.437  1.00  0.00     0.012 A 
ATOM     86  C   UNL A   1      43.281  35.549  32.731  1.00  0.00     0.148 A 
ATOM     87  C   UNL A   1      43.888  37.581  30.890  1.00  0.00     0.002 A 
ATOM     88  C   UNL A   1      43.507  36.846  33.173  1.00  0.00     0.091 A 
ATOM     89  F   UNL A   1      43.008  34.550  33.583  1.00  0.00    -0.205 F 
ATOM     90  C   UNL A   1      43.821  37.861  32.254  1.00  0.00     0.022 A 
BRANCH  88  91
ATOM     91  S   UNL A   1      43.339  37.323  34.896  1.00  0.00     0.127 S 
ATOM     92  O   UNL A   1      41.937  37.001  35.158  1.00  0.00    -0.237 OA
ATOM     93  O   UNL A   1      44.302  36.441  35.555  1.00  0.00    -0.237 OA
ATOM     94  O   UNL A   1      43.671  38.740  34.958  1.00  0.00    -0.744 OA
ENDBRANCH  88  91
ENDBRANCH  61  84
ENDBRANCH  35  36
ENDBRANCH  27  30
ENDBRANCH  25  26
ENDBRANCH  24  25
ENDBRANCH  23  24
ENDBRANCH   3  23
TORSDOF 20
ENDMDL
MODEL 3
REMARK VINA RESULT:     -10.3      1.291      7.784
REMARK SMILES CC(C)N(CCC#N)C(=O)c1ccncc1/C=C/C(=O)NCCCNC(=O)c1ccc(-c2c3nc(c(-c4cccc(S(=O)(=O)[O-])c4F)c4ccc([nH]4)c(-c4cccc(S(=O)(=O)[O-])c4F)c4nc(c(-c5cccc(S(=O)(=O)[O-])c5F)c5ccc2[nH]5)C=C4)C=C3)cc1
REMARK SMILES IDX 19 1 20 2 21 3 18 5 17 6 16 7 11 8 12 9 13 10 15 11 14 12
REMARK SMILES IDX 9 13 10 14 4 15 2 16 1 17 3 18 5 19 6 20 7 21 8 22 22 23
REMARK SMILES IDX 23 24 24 25 25 26 26 27 27 29 28 30 29 31 90 32 30 33 89 34
REMARK SMILES IDX 31 35 32 36 33 37 83 38 34 39 88 40 82 41 84 42 35 43 87 44
REMARK SMILES IDX 81 45 80 46 36 48 68 49 48 50 67 51 49 52 52 53 66 54 85 55
REMARK SMILES IDX 50 56 51 57 65 59 86 60 53 61 37 62 38 63 46 64 39 65 41 66
REMARK SMILES IDX 47 67 40 68 42 69 43 70 44 71 45 72 69 73 70 74 78 75 71 76
REMARK SMILES IDX 73 77 79 78 72 79 74 80 75 81 76 82 77 83 54 84 55 85 63 86
REMARK SMILES IDX 56 87 58 88 64 89 57 90 59 91 60 92 61 93 62 94
REMARK H PARENT 21 4 25 28 84 47 52 58
REMARK Flexibility Score: inf
ROOT
ATOM      1  C   UNL A   1      33.159  21.704  25.229  1.00  0.00     0.244 C 
ATOM      2  O   UNL A   1      32.129  21.559  25.881  1.00  0.00    -0.270 OA
ATOM      3  N   UNL A   1      34.290  21.025  25.560  1.00  0.00    -0.352 N 
ATOM      4  H   UNL A   1      34.220  20.434  26.344  1.00  0.00     0.163 HD
ENDROOT
BRANCH   1   5
ATOM      5  C   UNL A   1      33.230  22.745  24.183  1.00  0.00     0.072 C 
ATOM      6  C   UNL A   1      33.208  24.077  24.363  1.00  0.00     0.016 C 
BRANCH   6   7
ATOM      7  C   UNL A   1      33.063  24.898  23.154  1.00  0.00     0.006 A 
ATOM      8  C   UNL A   1      32.290  26.087  23.074  1.00  0.00     0.050 A 
ATOM      9  C   UNL A   1      31.772  26.394  21.816  1.00  0.00     0.034 A 
ATOM     10  C   UNL A   1      32.248  25.724  20.693  1.00  0.00     0.112 A 
ATOM     11  C   UNL A   1      33.511  24.317  21.962  1.00  0.00     0.119 A 
ATOM     12  N   UNL A   1      33.148  24.726  20.731  1.00  0.00    -0.264 NA
BRANCH   8  13
ATOM     13  C   UNL A   1      32.140  27.023  24.273  1.00  0.00     0.254 C 
ATOM     14  O   UNL A   1      32.405  28.211  24.089  1.00  0.00    -0.269 OA
BRANCH  13  15
ATOM     15  N   UNL A   1      31.616  26.649  25.549  1.00  0.00    -0.335 N 
BRANCH  15  16
ATOM     16  C   UNL A   1      32.343  27.107  26.776  1.00  0.00     0.079 C 
ATOM     17  C   UNL A   1      33.796  27.530  26.535  1.00  0.00     0.031 C 
ATOM     18  C   UNL A   1      31.590  28.187  27.559  1.00  0.00     0.031 C 
ENDBRANCH  15  16
BRANCH  15  19
ATOM     19  C   UNL A   1      30.313  25.995  25.817  1.00  0.00     0.135 C 
BRANCH  19  20
ATOM     20  C   UNL A   1      30.217  24.501  25.478  1.00  0.00     0.141 C 
BRANCH  20  21
ATOM     21  C   UNL A   1      29.878  23.686  26.715  1.00  0.00     0.064 C 
ATOM     22  N   UNL A   1      29.596  23.011  27.742  1.00  0.00    -0.198 NA
ENDBRANCH  20  21
ENDBRANCH  19  20
ENDBRANCH  15  19
ENDBRANCH  13  15
ENDBRANCH   8  13
ENDBRANCH   6   7
ENDBRANCH   1   5
BRANCH   3  23
ATOM     23  C   UNL A   1      35.585  21.055  24.910  1.00  0.00     0.118 C 
BRANCH  23  24
ATOM     24  C   UNL A   1      36.682  21.669  25.761  1.00  0.00     0.042 C 
BRANCH  24  25
ATOM     25  C   UNL A   1      38.061  21.515  25.143  1.00  0.00     0.118 C 
BRANCH  25  26
ATOM     26  N   UNL A   1      38.926  20.624  25.919  1.00  0.00    -0.352 N 
ATOM     27  C   UNL A   1      40.037  20.889  26.681  1.00  0.00     0.251 C 
ATOM     28  H   UNL A   1      38.666  19.675  25.891  1.00  0.00     0.163 HD
ATOM     29  O   UNL A   1      40.747  19.971  27.069  1.00  0.00    -0.269 OA
BRANCH  27  30
ATOM     30  C   UNL A   1      40.369  22.284  27.025  1.00  0.00     0.039 A 
ATOM     31  C   UNL A   1      41.217  22.545  28.105  1.00  0.00     0.014 A 
ATOM     32  C   UNL A   1      39.841  23.333  26.272  1.00  0.00     0.014 A 
ATOM     33  C   UNL A   1      41.595  23.860  28.378  1.00  0.00     0.010 A 
ATOM     34  C   UNL A   1      40.311  24.619  26.470  1.00  0.00     0.010 A 
ATOM     35  C   UNL A   1      41.179  24.900  27.535  1.00  0.00    -0.014 A 
BRANCH  35  36
ATOM     36  C   UNL A   1      41.614  26.304  27.730  1.00  0.00     0.031 A 
ATOM     37  C   UNL A   1      43.015  26.700  27.354  1.00  0.00     0.074 A 
ATOM     38  C   UNL A   1      40.811  27.167  28.382  1.00  0.00     0.049 A 
ATOM     39  N   UNL A   1      43.654  27.811  27.608  1.00  0.00    -0.248 NA
ATOM     40  C   UNL A   1      43.820  25.692  26.643  1.00  0.00     0.031 C 
ATOM     41  C   UNL A   1      39.464  26.866  28.870  1.00  0.00     0.029 A 
ATOM     42  N   UNL A   1      41.035  28.457  28.793  1.00  0.00    -0.354 N 
ATOM     43  C   UNL A   1      44.949  27.611  27.146  1.00  0.00     0.074 A 
ATOM     44  C   UNL A   1      45.014  26.264  26.629  1.00  0.00     0.031 C 
ATOM     45  C   UNL A   1      38.987  27.933  29.528  1.00  0.00     0.029 A 
ATOM     46  C   UNL A   1      40.010  28.974  29.552  1.00  0.00     0.049 A 
ATOM     47  H   UNL A   1      41.848  28.963  28.569  1.00  0.00     0.167 HD
ATOM     48  C   UNL A   1      45.987  28.480  27.138  1.00  0.00     0.034 A 
ATOM     49  C   UNL A   1      39.916  30.141  30.220  1.00  0.00     0.034 A 
ATOM     50  C   UNL A   1      45.895  29.831  27.614  1.00  0.00     0.049 A 
ATOM     51  C   UNL A   1      41.058  31.116  30.149  1.00  0.00     0.074 A 
ATOM     52  C   UNL A   1      46.844  30.834  27.540  1.00  0.00     0.029 A 
ATOM     53  N   UNL A   1      44.796  30.364  28.269  1.00  0.00    -0.354 N 
ATOM     54  N   UNL A   1      42.223  30.975  29.562  1.00  0.00    -0.248 NA
ATOM     55  C   UNL A   1      40.867  32.420  30.798  1.00  0.00     0.031 C 
ATOM     56  C   UNL A   1      46.334  31.961  28.192  1.00  0.00     0.029 A 
ATOM     57  C   UNL A   1      45.049  31.675  28.627  1.00  0.00     0.049 A 
ATOM     58  H   UNL A   1      43.959  29.880  28.453  1.00  0.00     0.167 HD
ATOM     59  C   UNL A   1      42.889  32.182  29.739  1.00  0.00     0.074 A 
ATOM     60  C   UNL A   1      41.994  33.046  30.482  1.00  0.00     0.031 C 
ATOM     61  C   UNL A   1      44.129  32.539  29.324  1.00  0.00     0.034 A 
BRANCH  48  62
ATOM     62  C   UNL A   1      47.299  27.996  26.578  1.00  0.00     0.023 A 
ATOM     63  C   UNL A   1      48.338  27.601  27.449  1.00  0.00     0.012 A 
ATOM     64  C   UNL A   1      47.497  27.908  25.186  1.00  0.00     0.148 A 
ATOM     65  C   UNL A   1      49.568  27.183  26.944  1.00  0.00     0.002 A 
ATOM     66  C   UNL A   1      48.708  27.438  24.691  1.00  0.00     0.091 A 
ATOM     67  F   UNL A   1      46.510  28.308  24.373  1.00  0.00    -0.205 F 
ATOM     68  C   UNL A   1      49.749  27.093  25.568  1.00  0.00     0.022 A 
BRANCH  66  69
ATOM     69  S   UNL A   1      49.003  27.200  22.936  1.00  0.00     0.127 S 
ATOM     70  O   UNL A   1      48.266  25.966  22.677  1.00  0.00    -0.237 OA
ATOM     71  O   UNL A   1      48.402  28.403  22.358  1.00  0.00    -0.237 OA
ATOM     72  O   UNL A   1      50.449  27.113  22.782  1.00  0.00    -0.744 OA
ENDBRANCH  66  69
ENDBRANCH  48  62
BRANCH  49  73
ATOM     73  C   UNL A   1      38.668  30.450  30.975  1.00  0.00     0.023 A 
ATOM     74  C   UNL A   1      38.557  30.062  32.323  1.00  0.00     0.012 A 
ATOM     75  C   UNL A   1      37.630  31.201  30.386  1.00  0.00     0.148 A 
ATOM     76  C   UNL A   1      37.422  30.394  33.065  1.00  0.00     0.002 A 
ATOM     77  C   UNL A   1      36.532  31.582  31.149  1.00  0.00     0.091 A 
ATOM     78  F   UNL A   1      37.757  31.561  29.102  1.00  0.00    -0.205 F 
ATOM     79  C   UNL A   1      36.418  31.163  32.484  1.00  0.00     0.022 A 
BRANCH  77  80
ATOM     80  S   UNL A   1      35.265  32.697  30.534  1.00  0.00     0.127 S 
ATOM     81  O   UNL A   1      34.242  32.593  31.571  1.00  0.00    -0.237 OA
ATOM     82  O   UNL A   1      35.979  33.974  30.497  1.00  0.00    -0.237 OA
ATOM     83  O   UNL A   1      34.884  32.189  29.222  1.00  0.00    -0.744 OA
ENDBRANCH  77  80
ENDBRANCH  49  73
BRANCH  61  84
ATOM     84  C   UNL A   1      44.597  33.941  29.608  1.00  0.00     0.023 A 
ATOM     85  C   UNL A   1      45.127  34.268  30.872  1.00  0.00     0.012 A 
ATOM     86  C   UNL A   1      44.630  34.896  28.573  1.00  0.00     0.148 A 
ATOM     87  C   UNL A   1      45.670  35.532  31.103  1.00  0.00     0.002 A 
ATOM     88  C   UNL A   1      45.220  36.133  28.794  1.00  0.00     0.091 A 
ATOM     89  F   UNL A   1      44.105  34.565  27.385  1.00  0.00    -0.205 F 
ATOM     90  C   UNL A   1      45.731  36.457  30.062  1.00  0.00     0.022 A 
BRANCH  88  91
ATOM     91  S   UNL A   1      45.439  37.346  27.488  1.00  0.00     0.127 S 
ATOM     92  O   UNL A   1      44.103  37.932  27.398  1.00  0.00    -0.237 OA
ATOM     93  O   UNL A   1      46.457  38.229  28.056  1.00  0.00    -0.237 OA
ATOM     94  O   UNL A   1      45.870  36.601  26.311  1.00  0.00    -0.744 OA
ENDBRANCH  88  91
ENDBRANCH  61  84
ENDBRANCH  35  36
ENDBRANCH  27  30
ENDBRANCH  25  26
ENDBRANCH  24  25
ENDBRANCH  23  24
ENDBRANCH   3  23
TORSDOF 20
ENDMDL
