MODEL 1
REMARK VINA RESULT:     -11.3      0.000      0.000
REMARK SMILES CC[NH2+][C@@]1(C(=O)NCCCNC(=O)c2ccc(-c3c4nc(c(-c5cccc(S(=O)(=O)[O-])c5F)c5ccc([nH]5)c(-c5cccc(S(=O)(=O)[O-])c5F)c5nc(c(-c6cccc(S(=O)(=O)[O-])c6F)c6ccc3[nH]6)C=C5)C=C4)cc2)CCC[C@@H]1CC[N@@H+](C)C1CCCC1
REMARK SMILES IDX 8 1 7 2 5 3 6 4 4 6 77 7 80 8 78 9 79 10 3 11 2 14 1 15
REMARK SMILES IDX 81 16 82 17 83 18 84 19 85 21 86 22 89 23 87 24 88 25 9 26
REMARK SMILES IDX 10 27 11 28 12 29 13 31 14 32 15 33 76 34 16 35 75 36 17 37
REMARK SMILES IDX 18 38 19 39 69 40 20 41 74 42 68 43 70 44 21 45 73 46 67 47
REMARK SMILES IDX 66 48 22 50 54 51 34 52 53 53 35 54 38 55 52 56 71 57 36 58
REMARK SMILES IDX 37 59 51 61 72 62 39 63 23 64 24 65 32 66 25 67 27 68 33 69
REMARK SMILES IDX 26 70 28 71 29 72 30 73 31 74 55 75 56 76 64 77 57 78 59 79
REMARK SMILES IDX 65 80 58 81 60 82 61 83 62 84 63 85 40 86 41 87 49 88 42 89
REMARK SMILES IDX 44 90 50 91 43 92 45 93 46 94 47 95 48 96
REMARK H PARENT 7 5 3 12 3 13 83 20 11 30 70 49 38 60
REMARK Flexibility Score: inf
ROOT
ATOM      1  C   UNL A   1      32.212  27.442  26.863  1.00  0.00     0.118 C 
ENDROOT
BRANCH   1   2
ATOM      2  N   UNL A   1      31.177  26.423  26.806  1.00  0.00    -0.351 N 
ATOM      3  C   UNL A   1      31.306  25.122  26.372  1.00  0.00     0.281 C 
ATOM      4  O   UNL A   1      30.885  24.249  27.142  1.00  0.00    -0.268 OA
ATOM      5  H   UNL A   1      30.282  26.692  27.114  1.00  0.00     0.163 HD
BRANCH   3   6
ATOM      6  C   UNL A   1      32.015  24.741  25.004  1.00  0.00     0.178 C 
ATOM      7  C   UNL A   1      33.530  24.795  25.255  1.00  0.00     0.079 C 
ATOM      8  C   UNL A   1      31.664  25.684  23.822  1.00  0.00     0.066 C 
ATOM      9  C   UNL A   1      34.086  25.832  24.296  1.00  0.00     0.008 C 
ATOM     10  C   UNL A   1      32.901  26.591  23.697  1.00  0.00     0.011 C 
BRANCH   6  11
ATOM     11  N   UNL A   1      31.618  23.357  24.576  1.00  0.00    -0.334 N 
ATOM     12  H   UNL A   1      31.971  22.704  25.275  1.00  0.00     0.347 HD
ATOM     13  H   UNL A   1      30.602  23.381  24.492  1.00  0.00     0.347 HD
BRANCH  11  14
ATOM     14  C   UNL A   1      32.105  22.913  23.264  1.00  0.00     0.257 C 
ATOM     15  C   UNL A   1      32.629  21.483  23.295  1.00  0.00     0.071 C 
ENDBRANCH  11  14
ENDBRANCH   6  11
BRANCH   8  16
ATOM     16  C   UNL A   1      30.290  26.419  23.802  1.00  0.00     0.072 C 
BRANCH  16  17
ATOM     17  C   UNL A   1      30.225  27.905  23.321  1.00  0.00     0.262 C 
BRANCH  17  18
ATOM     18  N   UNL A   1      28.950  28.429  22.749  1.00  0.00    -0.335 N 
ATOM     19  C   UNL A   1      27.801  27.798  23.405  1.00  0.00     0.332 C 
ATOM     20  H   UNL A   1      28.939  28.186  21.759  1.00  0.00     0.348 HD
BRANCH  18  21
ATOM     21  C   UNL A   1      28.861  29.892  22.813  1.00  0.00     0.183 C 
ATOM     22  C   UNL A   1      28.983  30.696  21.509  1.00  0.00     0.065 C 
ATOM     23  C   UNL A   1      27.625  30.555  23.430  1.00  0.00     0.065 C 
ATOM     24  C   UNL A   1      28.806  32.140  21.996  1.00  0.00     0.006 C 
ATOM     25  C   UNL A   1      27.869  32.051  23.203  1.00  0.00     0.006 C 
ENDBRANCH  18  21
ENDBRANCH  17  18
ENDBRANCH  16  17
ENDBRANCH   8  16
ENDBRANCH   3   6
ENDBRANCH   1   2
BRANCH   1  26
ATOM     26  C   UNL A   1      31.750  28.878  26.634  1.00  0.00     0.042 C 
BRANCH  26  27
ATOM     27  C   UNL A   1      32.714  29.748  25.842  1.00  0.00     0.118 C 
BRANCH  27  28
ATOM     28  N   UNL A   1      32.613  31.158  26.203  1.00  0.00    -0.352 N 
ATOM     29  C   UNL A   1      33.253  31.898  27.168  1.00  0.00     0.251 C 
ATOM     30  H   UNL A   1      31.973  31.671  25.659  1.00  0.00     0.163 HD
ATOM     31  O   UNL A   1      32.801  32.999  27.470  1.00  0.00    -0.269 OA
BRANCH  29  32
ATOM     32  C   UNL A   1      34.472  31.395  27.841  1.00  0.00     0.039 A 
ATOM     33  C   UNL A   1      35.565  32.253  28.005  1.00  0.00     0.014 A 
ATOM     34  C   UNL A   1      34.572  30.066  28.255  1.00  0.00     0.014 A 
ATOM     35  C   UNL A   1      36.725  31.792  28.635  1.00  0.00     0.010 A 
ATOM     36  C   UNL A   1      35.681  29.641  28.977  1.00  0.00     0.010 A 
ATOM     37  C   UNL A   1      36.779  30.491  29.159  1.00  0.00    -0.014 A 
BRANCH  37  38
ATOM     38  C   UNL A   1      37.969  30.004  29.905  1.00  0.00     0.031 A 
ATOM     39  C   UNL A   1      38.241  30.474  31.309  1.00  0.00     0.074 A 
ATOM     40  C   UNL A   1      38.866  29.217  29.276  1.00  0.00     0.049 A 
ATOM     41  N   UNL A   1      39.250  30.194  32.092  1.00  0.00    -0.248 NA
ATOM     42  C   UNL A   1      37.273  31.415  31.898  1.00  0.00     0.031 C 
ATOM     43  C   UNL A   1      38.774  28.787  27.880  1.00  0.00     0.029 A 
ATOM     44  N   UNL A   1      40.043  28.668  29.717  1.00  0.00    -0.354 N 
ATOM     45  C   UNL A   1      39.066  30.958  33.240  1.00  0.00     0.074 A 
ATOM     46  C   UNL A   1      37.872  31.745  33.032  1.00  0.00     0.031 C 
ATOM     47  C   UNL A   1      39.845  28.036  27.580  1.00  0.00     0.029 A 
ATOM     48  C   UNL A   1      40.713  27.957  28.749  1.00  0.00     0.049 A 
ATOM     49  H   UNL A   1      40.375  28.773  30.638  1.00  0.00     0.167 HD
ATOM     50  C   UNL A   1      39.805  30.981  34.375  1.00  0.00     0.034 A 
ATOM     51  C   UNL A   1      41.900  27.322  28.793  1.00  0.00     0.034 A 
ATOM     52  C   UNL A   1      40.968  30.163  34.589  1.00  0.00     0.049 A 
ATOM     53  C   UNL A   1      42.666  27.296  30.085  1.00  0.00     0.074 A 
ATOM     54  C   UNL A   1      41.717  30.013  35.743  1.00  0.00     0.029 A 
ATOM     55  N   UNL A   1      41.565  29.369  33.620  1.00  0.00    -0.354 N 
ATOM     56  N   UNL A   1      42.375  27.871  31.226  1.00  0.00    -0.248 NA
ATOM     57  C   UNL A   1      43.901  26.501  30.109  1.00  0.00     0.031 C 
ATOM     58  C   UNL A   1      42.788  29.158  35.460  1.00  0.00     0.029 A 
ATOM     59  C   UNL A   1      42.685  28.744  34.140  1.00  0.00     0.049 A 
ATOM     60  H   UNL A   1      41.238  29.264  32.698  1.00  0.00     0.167 HD
ATOM     61  C   UNL A   1      43.377  27.494  32.112  1.00  0.00     0.074 A 
ATOM     62  C   UNL A   1      44.268  26.615  31.379  1.00  0.00     0.031 C 
ATOM     63  C   UNL A   1      43.551  27.853  33.409  1.00  0.00     0.034 A 
BRANCH  50  64
ATOM     64  C   UNL A   1      39.349  31.899  35.482  1.00  0.00     0.023 A 
ATOM     65  C   UNL A   1      38.422  31.439  36.441  1.00  0.00     0.012 A 
ATOM     66  C   UNL A   1      39.848  33.213  35.586  1.00  0.00     0.148 A 
ATOM     67  C   UNL A   1      37.954  32.286  37.446  1.00  0.00     0.002 A 
ATOM     68  C   UNL A   1      39.418  34.033  36.623  1.00  0.00     0.091 A 
ATOM     69  F   UNL A   1      40.713  33.645  34.658  1.00  0.00    -0.205 F 
ATOM     70  C   UNL A   1      38.459  33.579  37.542  1.00  0.00     0.022 A 
BRANCH  68  71
ATOM     71  S   UNL A   1      40.074  35.686  36.880  1.00  0.00     0.127 S 
ATOM     72  O   UNL A   1      39.445  36.060  38.145  1.00  0.00    -0.237 OA
ATOM     73  O   UNL A   1      41.514  35.436  36.968  1.00  0.00    -0.237 OA
ATOM     74  O   UNL A   1      39.665  36.462  35.719  1.00  0.00    -0.744 OA
ENDBRANCH  68  71
ENDBRANCH  50  64
BRANCH  51  75
ATOM     75  C   UNL A   1      42.387  26.609  27.579  1.00  0.00     0.023 A 
ATOM     76  C   UNL A   1      43.256  27.266  26.687  1.00  0.00     0.012 A 
ATOM     77  C   UNL A   1      42.062  25.258  27.355  1.00  0.00     0.148 A 
ATOM     78  C   UNL A   1      43.780  26.593  25.582  1.00  0.00     0.002 A 
ATOM     79  C   UNL A   1      42.633  24.577  26.286  1.00  0.00     0.091 A 
ATOM     80  F   UNL A   1      41.230  24.655  28.216  1.00  0.00    -0.205 F 
ATOM     81  C   UNL A   1      43.480  25.247  25.390  1.00  0.00     0.022 A 
BRANCH  79  82
ATOM     82  S   UNL A   1      42.425  22.809  26.042  1.00  0.00     0.127 S 
ATOM     83  O   UNL A   1      43.086  22.605  24.757  1.00  0.00    -0.237 OA
ATOM     84  O   UNL A   1      43.133  22.263  27.198  1.00  0.00    -0.237 OA
ATOM     85  O   UNL A   1      40.984  22.575  26.052  1.00  0.00    -0.744 OA
ENDBRANCH  79  82
ENDBRANCH  51  75
BRANCH  63  86
ATOM     86  C   UNL A   1      44.746  27.286  34.131  1.00  0.00     0.023 A 
ATOM     87  C   UNL A   1      45.961  28.000  34.144  1.00  0.00     0.012 A 
ATOM     88  C   UNL A   1      44.646  26.078  34.849  1.00  0.00     0.148 A 
ATOM     89  C   UNL A   1      47.069  27.500  34.830  1.00  0.00     0.002 A 
ATOM     90  C   UNL A   1      45.737  25.614  35.573  1.00  0.00     0.091 A 
ATOM     91  F   UNL A   1      43.487  25.404  34.810  1.00  0.00    -0.205 F 
ATOM     92  C   UNL A   1      46.953  26.315  35.553  1.00  0.00     0.022 A 
BRANCH  90  93
ATOM     93  S   UNL A   1      45.650  24.151  36.612  1.00  0.00     0.127 S 
ATOM     94  O   UNL A   1      44.858  23.243  35.783  1.00  0.00    -0.237 OA
ATOM     95  O   UNL A   1      47.060  23.781  36.745  1.00  0.00    -0.237 OA
ATOM     96  O   UNL A   1      45.019  24.576  37.853  1.00  0.00    -0.744 OA
ENDBRANCH  90  93
ENDBRANCH  63  86
ENDBRANCH  37  38
ENDBRANCH  29  32
ENDBRANCH  27  28
ENDBRANCH  26  27
ENDBRANCH   1  26
TORSDOF 19
ENDMDL
MODEL 2
REMARK VINA RESULT:     -11.0      5.014     10.564
REMARK SMILES CC[NH2+][C@@]1(C(=O)NCCCNC(=O)c2ccc(-c3c4nc(c(-c5cccc(S(=O)(=O)[O-])c5F)c5ccc([nH]5)c(-c5cccc(S(=O)(=O)[O-])c5F)c5nc(c(-c6cccc(S(=O)(=O)[O-])c6F)c6ccc3[nH]6)C=C5)C=C4)cc2)CCC[C@@H]1CC[N@@H+](C)C1CCCC1
REMARK SMILES IDX 8 1 7 2 5 3 6 4 4 6 77 7 80 8 78 9 79 10 3 11 2 14 1 15
REMARK SMILES IDX 81 16 82 17 83 18 84 19 85 21 86 22 89 23 87 24 88 25 9 26
REMARK SMILES IDX 10 27 11 28 12 29 13 31 14 32 15 33 76 34 16 35 75 36 17 37
REMARK SMILES IDX 18 38 19 39 69 40 20 41 74 42 68 43 70 44 21 45 73 46 67 47
REMARK SMILES IDX 66 48 22 50 54 51 34 52 53 53 35 54 38 55 52 56 71 57 36 58
REMARK SMILES IDX 37 59 51 61 72 62 39 63 23 64 24 65 32 66 25 67 27 68 33 69
REMARK SMILES IDX 26 70 28 71 29 72 30 73 31 74 55 75 56 76 64 77 57 78 59 79
REMARK SMILES IDX 65 80 58 81 60 82 61 83 62 84 63 85 40 86 41 87 49 88 42 89
REMARK SMILES IDX 44 90 50 91 43 92 45 93 46 94 47 95 48 96
REMARK H PARENT 7 5 3 12 3 13 83 20 11 30 70 49 38 60
REMARK Flexibility Score: inf
ROOT
ATOM      1  C   UNL A   1      35.367  23.030  23.821  1.00  0.00     0.118 C 
ENDROOT
BRANCH   1   2
ATOM      2  N   UNL A   1      34.990  23.889  24.932  1.00  0.00    -0.351 N 
ATOM      3  C   UNL A   1      33.822  23.849  25.661  1.00  0.00     0.281 C 
ATOM      4  O   UNL A   1      33.952  23.807  26.891  1.00  0.00    -0.268 OA
ATOM      5  H   UNL A   1      35.644  24.576  25.194  1.00  0.00     0.163 HD
BRANCH   3   6
ATOM      6  C   UNL A   1      32.389  23.785  24.982  1.00  0.00     0.178 C 
ATOM      7  C   UNL A   1      31.480  24.746  25.765  1.00  0.00     0.079 C 
ATOM      8  C   UNL A   1      31.748  22.371  24.982  1.00  0.00     0.066 C 
ATOM      9  C   UNL A   1      30.342  23.906  26.317  1.00  0.00     0.008 C 
ATOM     10  C   UNL A   1      30.717  22.436  26.122  1.00  0.00     0.011 C 
BRANCH   6  11
ATOM     11  N   UNL A   1      32.469  24.216  23.546  1.00  0.00    -0.334 N 
ATOM     12  H   UNL A   1      33.371  23.911  23.181  1.00  0.00     0.347 HD
ATOM     13  H   UNL A   1      31.662  23.790  23.091  1.00  0.00     0.347 HD
BRANCH  11  14
ATOM     14  C   UNL A   1      32.346  25.656  23.286  1.00  0.00     0.257 C 
ATOM     15  C   UNL A   1      33.557  26.216  22.552  1.00  0.00     0.071 C 
ENDBRANCH  11  14
ENDBRANCH   6  11
BRANCH   8  16
ATOM     16  C   UNL A   1      32.662  21.109  24.977  1.00  0.00     0.072 C 
BRANCH  16  17
ATOM     17  C   UNL A   1      32.815  20.281  23.660  1.00  0.00     0.262 C 
BRANCH  17  18
ATOM     18  N   UNL A   1      32.326  18.872  23.625  1.00  0.00    -0.335 N 
ATOM     19  C   UNL A   1      32.209  18.408  22.240  1.00  0.00     0.332 C 
ATOM     20  H   UNL A   1      31.401  18.860  24.056  1.00  0.00     0.348 HD
BRANCH  18  21
ATOM     21  C   UNL A   1      33.160  17.964  24.420  1.00  0.00     0.183 C 
ATOM     22  C   UNL A   1      32.489  16.777  25.130  1.00  0.00     0.065 C 
ATOM     23  C   UNL A   1      34.352  17.256  23.769  1.00  0.00     0.065 C 
ATOM     24  C   UNL A   1      33.680  16.081  25.801  1.00  0.00     0.006 C 
ATOM     25  C   UNL A   1      34.875  16.337  24.879  1.00  0.00     0.006 C 
ENDBRANCH  18  21
ENDBRANCH  17  18
ENDBRANCH  16  17
ENDBRANCH   8  16
ENDBRANCH   3   6
ENDBRANCH   1   2
BRANCH   1  26
ATOM     26  C   UNL A   1      36.312  21.879  24.155  1.00  0.00     0.042 C 
BRANCH  26  27
ATOM     27  C   UNL A   1      36.635  21.716  25.631  1.00  0.00     0.118 C 
BRANCH  27  28
ATOM     28  N   UNL A   1      37.710  20.755  25.861  1.00  0.00    -0.352 N 
ATOM     29  C   UNL A   1      39.053  20.932  26.089  1.00  0.00     0.251 C 
ATOM     30  H   UNL A   1      37.421  19.815  25.852  1.00  0.00     0.163 HD
ATOM     31  O   UNL A   1      39.806  19.968  25.973  1.00  0.00    -0.269 OA
BRANCH  29  32
ATOM     32  C   UNL A   1      39.602  22.252  26.472  1.00  0.00     0.039 A 
ATOM     33  C   UNL A   1      40.611  22.317  27.440  1.00  0.00     0.014 A 
ATOM     34  C   UNL A   1      39.088  23.432  25.934  1.00  0.00     0.014 A 
ATOM     35  C   UNL A   1      41.138  23.556  27.816  1.00  0.00     0.010 A 
ATOM     36  C   UNL A   1      39.686  24.652  26.227  1.00  0.00     0.010 A 
ATOM     37  C   UNL A   1      40.704  24.733  27.185  1.00  0.00    -0.014 A 
BRANCH  37  38
ATOM     38  C   UNL A   1      41.305  26.054  27.508  1.00  0.00     0.031 A 
ATOM     39  C   UNL A   1      42.715  26.378  27.092  1.00  0.00     0.074 A 
ATOM     40  C   UNL A   1      40.615  26.924  28.272  1.00  0.00     0.049 A 
ATOM     41  N   UNL A   1      43.418  27.455  27.326  1.00  0.00    -0.248 NA
ATOM     42  C   UNL A   1      43.448  25.339  26.348  1.00  0.00     0.031 C 
ATOM     43  C   UNL A   1      39.286  26.680  28.835  1.00  0.00     0.029 A 
ATOM     44  N   UNL A   1      40.948  28.172  28.734  1.00  0.00    -0.354 N 
ATOM     45  C   UNL A   1      44.683  27.207  26.806  1.00  0.00     0.074 A 
ATOM     46  C   UNL A   1      44.664  25.860  26.282  1.00  0.00     0.031 C 
ATOM     47  C   UNL A   1      38.913  27.745  29.560  1.00  0.00     0.029 A 
ATOM     48  C   UNL A   1      39.986  28.733  29.541  1.00  0.00     0.049 A 
ATOM     49  H   UNL A   1      41.793  28.623  28.509  1.00  0.00     0.167 HD
ATOM     50  C   UNL A   1      45.756  28.033  26.742  1.00  0.00     0.034 A 
ATOM     51  C   UNL A   1      39.972  29.906  30.202  1.00  0.00     0.034 A 
ATOM     52  C   UNL A   1      45.753  29.386  27.229  1.00  0.00     0.049 A 
ATOM     53  C   UNL A   1      41.139  30.840  30.055  1.00  0.00     0.074 A 
ATOM     54  C   UNL A   1      46.738  30.349  27.104  1.00  0.00     0.029 A 
ATOM     55  N   UNL A   1      44.719  29.963  27.952  1.00  0.00    -0.354 N 
ATOM     56  N   UNL A   1      42.256  30.663  29.393  1.00  0.00    -0.248 NA
ATOM     57  C   UNL A   1      41.029  32.150  30.710  1.00  0.00     0.031 C 
ATOM     58  C   UNL A   1      46.315  31.496  27.785  1.00  0.00     0.029 A 
ATOM     59  C   UNL A   1      45.050  31.261  28.302  1.00  0.00     0.049 A 
ATOM     60  H   UNL A   1      43.874  29.515  28.183  1.00  0.00     0.167 HD
ATOM     61  C   UNL A   1      42.976  31.844  29.533  1.00  0.00     0.074 A 
ATOM     62  C   UNL A   1      42.151  32.740  30.320  1.00  0.00     0.031 C 
ATOM     63  C   UNL A   1      44.211  32.152  29.064  1.00  0.00     0.034 A 
BRANCH  50  64
ATOM     64  C   UNL A   1      47.007  27.497  26.091  1.00  0.00     0.023 A 
ATOM     65  C   UNL A   1      47.228  27.707  24.713  1.00  0.00     0.012 A 
ATOM     66  C   UNL A   1      47.974  26.801  26.842  1.00  0.00     0.148 A 
ATOM     67  C   UNL A   1      48.356  27.183  24.082  1.00  0.00     0.002 A 
ATOM     68  C   UNL A   1      49.123  26.328  26.217  1.00  0.00     0.091 A 
ATOM     69  F   UNL A   1      47.744  26.591  28.145  1.00  0.00    -0.205 F 
ATOM     70  C   UNL A   1      49.307  26.502  24.836  1.00  0.00     0.022 A 
BRANCH  68  71
ATOM     71  S   UNL A   1      50.446  25.513  27.119  1.00  0.00     0.127 S 
ATOM     72  O   UNL A   1      51.410  25.246  26.053  1.00  0.00    -0.237 OA
ATOM     73  O   UNL A   1      50.857  26.551  28.066  1.00  0.00    -0.237 OA
ATOM     74  O   UNL A   1      49.844  24.339  27.733  1.00  0.00    -0.744 OA
ENDBRANCH  68  71
ENDBRANCH  50  64
BRANCH  51  75
ATOM     75  C   UNL A   1      38.773  30.272  31.007  1.00  0.00     0.023 A 
ATOM     76  C   UNL A   1      38.748  29.996  32.387  1.00  0.00     0.012 A 
ATOM     77  C   UNL A   1      37.697  30.970  30.425  1.00  0.00     0.148 A 
ATOM     78  C   UNL A   1      37.665  30.394  33.172  1.00  0.00     0.002 A 
ATOM     79  C   UNL A   1      36.649  31.415  31.221  1.00  0.00     0.091 A 
ATOM     80  F   UNL A   1      37.741  31.218  29.108  1.00  0.00    -0.205 F 
ATOM     81  C   UNL A   1      36.623  31.114  32.592  1.00  0.00     0.022 A 
BRANCH  79  82
ATOM     82  S   UNL A   1      35.340  32.474  30.597  1.00  0.00     0.127 S 
ATOM     83  O   UNL A   1      34.421  32.515  31.730  1.00  0.00    -0.237 OA
ATOM     84  O   UNL A   1      36.061  33.719  30.338  1.00  0.00    -0.237 OA
ATOM     85  O   UNL A   1      34.831  31.812  29.400  1.00  0.00    -0.744 OA
ENDBRANCH  79  82
ENDBRANCH  51  75
BRANCH  63  86
ATOM     86  C   UNL A   1      44.749  33.525  29.377  1.00  0.00     0.023 A 
ATOM     87  C   UNL A   1      45.531  33.726  30.532  1.00  0.00     0.012 A 
ATOM     88  C   UNL A   1      44.532  34.600  28.493  1.00  0.00     0.148 A 
ATOM     89  C   UNL A   1      46.056  34.985  30.822  1.00  0.00     0.002 A 
ATOM     90  C   UNL A   1      45.103  35.838  28.761  1.00  0.00     0.091 A 
ATOM     91  F   UNL A   1      43.770  34.395  27.410  1.00  0.00    -0.205 F 
ATOM     92  C   UNL A   1      45.852  36.037  29.932  1.00  0.00     0.022 A 
BRANCH  90  93
ATOM     93  S   UNL A   1      44.976  37.223  27.624  1.00  0.00     0.127 S 
ATOM     94  O   UNL A   1      43.577  37.137  27.204  1.00  0.00    -0.237 OA
ATOM     95  O   UNL A   1      45.285  38.363  28.487  1.00  0.00    -0.237 OA
ATOM     96  O   UNL A   1      45.959  36.974  26.578  1.00  0.00    -0.744 OA
ENDBRANCH  90  93
ENDBRANCH  63  86
ENDBRANCH  37  38
ENDBRANCH  29  32
ENDBRANCH  27  28
ENDBRANCH  26  27
ENDBRANCH   1  26
TORSDOF 19
ENDMDL
MODEL 3
REMARK VINA RESULT:     -11.0      2.512      8.326
REMARK SMILES CC[NH2+][C@@]1(C(=O)NCCCNC(=O)c2ccc(-c3c4nc(c(-c5cccc(S(=O)(=O)[O-])c5F)c5ccc([nH]5)c(-c5cccc(S(=O)(=O)[O-])c5F)c5nc(c(-c6cccc(S(=O)(=O)[O-])c6F)c6ccc3[nH]6)C=C5)C=C4)cc2)CCC[C@@H]1CC[N@@H+](C)C1CCCC1
REMARK SMILES IDX 8 1 7 2 5 3 6 4 4 6 77 7 80 8 78 9 79 10 3 11 2 14 1 15
REMARK SMILES IDX 81 16 82 17 83 18 84 19 85 21 86 22 89 23 87 24 88 25 9 26
REMARK SMILES IDX 10 27 11 28 12 29 13 31 14 32 15 33 76 34 16 35 75 36 17 37
REMARK SMILES IDX 18 38 19 39 69 40 20 41 74 42 68 43 70 44 21 45 73 46 67 47
REMARK SMILES IDX 66 48 22 50 54 51 34 52 53 53 35 54 38 55 52 56 71 57 36 58
REMARK SMILES IDX 37 59 51 61 72 62 39 63 23 64 24 65 32 66 25 67 27 68 33 69
REMARK SMILES IDX 26 70 28 71 29 72 30 73 31 74 55 75 56 76 64 77 57 78 59 79
REMARK SMILES IDX 65 80 58 81 60 82 61 83 62 84 63 85 40 86 41 87 49 88 42 89
REMARK SMILES IDX 44 90 50 91 43 92 45 93 46 94 47 95 48 96
REMARK H PARENT 7 5 3 12 3 13 83 20 11 30 70 49 38 60
REMARK Flexibility Score: inf
ROOT
ATOM      1  C   UNL A   1      31.431  30.512  25.675  1.00  0.00     0.118 C 
ENDROOT
BRANCH   1   2
ATOM      2  N   UNL A   1      31.804  29.258  26.309  1.00  0.00    -0.351 N 
ATOM      3  C   UNL A   1      32.553  28.237  25.768  1.00  0.00     0.281 C 
ATOM      4  O   UNL A   1      33.508  27.845  26.450  1.00  0.00    -0.268 OA
ATOM      5  H   UNL A   1      31.487  29.124  27.231  1.00  0.00     0.163 HD
BRANCH   3   6
ATOM      6  C   UNL A   1      32.270  27.637  24.326  1.00  0.00     0.178 C 
ATOM      7  C   UNL A   1      32.258  28.819  23.344  1.00  0.00     0.079 C 
ATOM      8  C   UNL A   1      30.925  26.869  24.210  1.00  0.00     0.066 C 
ATOM      9  C   UNL A   1      30.883  28.828  22.701  1.00  0.00     0.008 C 
ATOM     10  C   UNL A   1      29.997  27.863  23.492  1.00  0.00     0.011 C 
BRANCH   6  11
ATOM     11  N   UNL A   1      33.349  26.665  23.941  1.00  0.00    -0.334 N 
ATOM     12  H   UNL A   1      34.057  27.181  23.418  1.00  0.00     0.347 HD
ATOM     13  H   UNL A   1      33.678  26.265  24.819  1.00  0.00     0.347 HD
BRANCH  11  14
ATOM     14  C   UNL A   1      32.935  25.519  23.122  1.00  0.00     0.257 C 
ATOM     15  C   UNL A   1      34.082  24.550  22.863  1.00  0.00     0.071 C 
ENDBRANCH  11  14
ENDBRANCH   6  11
BRANCH   8  16
ATOM     16  C   UNL A   1      30.321  26.177  25.468  1.00  0.00     0.072 C 
BRANCH  16  17
ATOM     17  C   UNL A   1      30.295  24.615  25.543  1.00  0.00     0.262 C 
BRANCH  17  18
ATOM     18  N   UNL A   1      30.627  23.944  26.834  1.00  0.00    -0.335 N 
ATOM     19  C   UNL A   1      29.590  22.968  27.181  1.00  0.00     0.332 C 
ATOM     20  H   UNL A   1      30.655  24.666  27.554  1.00  0.00     0.348 HD
BRANCH  18  21
ATOM     21  C   UNL A   1      31.957  23.324  26.823  1.00  0.00     0.183 C 
ATOM     22  C   UNL A   1      32.213  22.145  25.871  1.00  0.00     0.065 C 
ATOM     23  C   UNL A   1      33.196  24.180  26.542  1.00  0.00     0.065 C 
ATOM     24  C   UNL A   1      33.688  21.822  26.139  1.00  0.00     0.006 C 
ATOM     25  C   UNL A   1      34.338  23.158  26.509  1.00  0.00     0.006 C 
ENDBRANCH  18  21
ENDBRANCH  17  18
ENDBRANCH  16  17
ENDBRANCH   8  16
ENDBRANCH   3   6
ENDBRANCH   1   2
BRANCH   1  26
ATOM     26  C   UNL A   1      31.356  31.730  26.592  1.00  0.00     0.042 C 
BRANCH  26  27
ATOM     27  C   UNL A   1      32.698  32.324  26.989  1.00  0.00     0.118 C 
BRANCH  27  28
ATOM     28  N   UNL A   1      32.582  33.710  27.430  1.00  0.00    -0.352 N 
ATOM     29  C   UNL A   1      33.147  34.377  28.490  1.00  0.00     0.251 C 
ATOM     30  H   UNL A   1      31.997  34.266  26.868  1.00  0.00     0.163 HD
ATOM     31  O   UNL A   1      32.683  35.464  28.823  1.00  0.00    -0.269 OA
BRANCH  29  32
ATOM     32  C   UNL A   1      34.299  33.813  29.229  1.00  0.00     0.039 A 
ATOM     33  C   UNL A   1      34.068  32.876  30.243  1.00  0.00     0.014 A 
ATOM     34  C   UNL A   1      35.601  34.245  28.976  1.00  0.00     0.014 A 
ATOM     35  C   UNL A   1      35.144  32.336  30.953  1.00  0.00     0.010 A 
ATOM     36  C   UNL A   1      36.676  33.629  29.605  1.00  0.00     0.010 A 
ATOM     37  C   UNL A   1      36.462  32.682  30.615  1.00  0.00    -0.014 A 
BRANCH  37  38
ATOM     38  C   UNL A   1      37.627  32.062  31.298  1.00  0.00     0.031 A 
ATOM     39  C   UNL A   1      38.416  30.967  30.630  1.00  0.00     0.074 A 
ATOM     40  C   UNL A   1      37.910  32.411  32.569  1.00  0.00     0.049 A 
ATOM     41  N   UNL A   1      39.428  30.280  31.092  1.00  0.00    -0.248 NA
ATOM     42  C   UNL A   1      37.987  30.562  29.281  1.00  0.00     0.031 C 
ATOM     43  C   UNL A   1      37.149  33.375  33.366  1.00  0.00     0.029 A 
ATOM     44  N   UNL A   1      38.890  31.974  33.423  1.00  0.00    -0.354 N 
ATOM     45  C   UNL A   1      39.724  29.334  30.116  1.00  0.00     0.074 A 
ATOM     46  C   UNL A   1      38.757  29.508  29.057  1.00  0.00     0.031 C 
ATOM     47  C   UNL A   1      37.693  33.462  34.589  1.00  0.00     0.029 A 
ATOM     48  C   UNL A   1      38.820  32.539  34.675  1.00  0.00     0.049 A 
ATOM     49  H   UNL A   1      39.578  31.319  33.165  1.00  0.00     0.167 HD
ATOM     50  C   UNL A   1      40.727  28.423  30.089  1.00  0.00     0.034 A 
ATOM     51  C   UNL A   1      39.569  32.331  35.774  1.00  0.00     0.034 A 
ATOM     52  C   UNL A   1      41.710  28.285  31.129  1.00  0.00     0.049 A 
ATOM     53  C   UNL A   1      40.724  31.373  35.698  1.00  0.00     0.074 A 
ATOM     54  C   UNL A   1      42.839  27.485  31.148  1.00  0.00     0.029 A 
ATOM     55  N   UNL A   1      41.672  28.951  32.346  1.00  0.00    -0.354 N 
ATOM     56  N   UNL A   1      41.107  30.624  34.694  1.00  0.00    -0.248 NA
ATOM     57  C   UNL A   1      41.574  31.261  36.891  1.00  0.00     0.031 C 
ATOM     58  C   UNL A   1      43.461  27.639  32.391  1.00  0.00     0.029 A 
ATOM     59  C   UNL A   1      42.743  28.564  33.133  1.00  0.00     0.049 A 
ATOM     60  H   UNL A   1      40.984  29.603  32.610  1.00  0.00     0.167 HD
ATOM     61  C   UNL A   1      42.254  29.965  35.122  1.00  0.00     0.074 A 
ATOM     62  C   UNL A   1      42.518  30.429  36.470  1.00  0.00     0.031 C 
ATOM     63  C   UNL A   1      43.010  29.051  34.464  1.00  0.00     0.034 A 
BRANCH  50  64
ATOM     64  C   UNL A   1      40.822  27.531  28.875  1.00  0.00     0.023 A 
ATOM     65  C   UNL A   1      39.959  26.422  28.747  1.00  0.00     0.012 A 
ATOM     66  C   UNL A   1      41.753  27.797  27.852  1.00  0.00     0.148 A 
ATOM     67  C   UNL A   1      40.060  25.561  27.655  1.00  0.00     0.002 A 
ATOM     68  C   UNL A   1      41.811  26.964  26.740  1.00  0.00     0.091 A 
ATOM     69  F   UNL A   1      42.581  28.841  27.994  1.00  0.00    -0.205 F 
ATOM     70  C   UNL A   1      40.979  25.837  26.648  1.00  0.00     0.022 A 
BRANCH  68  71
ATOM     71  S   UNL A   1      42.903  27.286  25.350  1.00  0.00     0.127 S 
ATOM     72  O   UNL A   1      44.172  27.553  26.027  1.00  0.00    -0.237 OA
ATOM     73  O   UNL A   1      42.858  26.017  24.622  1.00  0.00    -0.237 OA
ATOM     74  O   UNL A   1      42.321  28.413  24.638  1.00  0.00    -0.744 OA
ENDBRANCH  68  71
ENDBRANCH  50  64
BRANCH  51  75
ATOM     75  C   UNL A   1      39.274  33.104  37.013  1.00  0.00     0.023 A 
ATOM     76  C   UNL A   1      39.802  34.399  37.169  1.00  0.00     0.012 A 
ATOM     77  C   UNL A   1      38.402  32.593  37.994  1.00  0.00     0.148 A 
ATOM     78  C   UNL A   1      39.480  35.168  38.288  1.00  0.00     0.002 A 
ATOM     79  C   UNL A   1      38.038  33.384  39.076  1.00  0.00     0.091 A 
ATOM     80  F   UNL A   1      37.914  31.355  37.825  1.00  0.00    -0.205 F 
ATOM     81  C   UNL A   1      38.589  34.666  39.234  1.00  0.00     0.022 A 
BRANCH  79  82
ATOM     82  S   UNL A   1      36.787  32.885  40.264  1.00  0.00     0.127 S 
ATOM     83  O   UNL A   1      35.622  32.689  39.407  1.00  0.00    -0.237 OA
ATOM     84  O   UNL A   1      37.366  31.660  40.811  1.00  0.00    -0.237 OA
ATOM     85  O   UNL A   1      36.686  33.984  41.219  1.00  0.00    -0.744 OA
ENDBRANCH  79  82
ENDBRANCH  51  75
BRANCH  63  86
ATOM     86  C   UNL A   1      44.209  28.494  35.186  1.00  0.00     0.023 A 
ATOM     87  C   UNL A   1      45.486  29.046  34.956  1.00  0.00     0.012 A 
ATOM     88  C   UNL A   1      44.063  27.467  36.139  1.00  0.00     0.148 A 
ATOM     89  C   UNL A   1      46.602  28.558  35.636  1.00  0.00     0.002 A 
ATOM     90  C   UNL A   1      45.170  27.024  36.851  1.00  0.00     0.091 A 
ATOM     91  F   UNL A   1      42.844  26.942  36.332  1.00  0.00    -0.205 F 
ATOM     92  C   UNL A   1      46.442  27.557  36.590  1.00  0.00     0.022 A 
BRANCH  90  93
ATOM     93  S   UNL A   1      45.045  25.808  38.167  1.00  0.00     0.127 S 
ATOM     94  O   UNL A   1      46.434  25.706  38.613  1.00  0.00    -0.237 OA
ATOM     95  O   UNL A   1      44.147  26.469  39.116  1.00  0.00    -0.237 OA
ATOM     96  O   UNL A   1      44.495  24.607  37.554  1.00  0.00    -0.744 OA
ENDBRANCH  90  93
ENDBRANCH  63  86
ENDBRANCH  37  38
ENDBRANCH  29  32
ENDBRANCH  27  28
ENDBRANCH  26  27
ENDBRANCH   1  26
TORSDOF 19
ENDMDL
