MODEL 1
REMARK VINA RESULT:     -12.1      0.000      0.000
REMARK SMILES COc1cc(Cn2cc(C(=O)NCCCNC(=O)c3ccc(-c4c5nc(c(-c6cccc(S(=O)(=O)[O-])c6F)c6ccc([nH]6)c(-c6cccc(S(=O)(=O)[O-])c6F)c6nc(c(-c7cccc(S(=O)(=O)[O-])c7F)c7ccc4[nH]7)C=C6)C=C5)cc3)c(=O)[nH]c2=O)ccn1
REMARK SMILES IDX 14 1 13 2 12 3 10 4 11 5 9 7 7 8 8 9 85 10 84 11 86 12 82 13
REMARK SMILES IDX 83 15 6 16 5 17 3 18 4 19 89 20 88 21 87 22 2 23 1 24 15 25
REMARK SMILES IDX 16 26 17 27 18 29 19 30 20 31 81 32 21 33 80 34 22 35 23 36
REMARK SMILES IDX 24 37 74 38 25 39 79 40 73 41 75 42 26 43 78 44 72 45 71 46
REMARK SMILES IDX 27 48 59 49 39 50 58 51 40 52 43 53 57 54 76 55 41 56 42 57
REMARK SMILES IDX 56 59 77 60 44 61 28 62 29 63 37 64 30 65 32 66 38 67 31 68
REMARK SMILES IDX 33 69 34 70 35 71 36 72 60 73 61 74 69 75 62 76 64 77 70 78
REMARK SMILES IDX 63 79 65 80 66 81 67 82 68 83 45 84 46 85 54 86 47 87 49 88
REMARK SMILES IDX 55 89 48 90 50 91 51 92 52 93 53 94
REMARK H PARENT 12 6 84 14 16 28 75 47 43 58
REMARK Flexibility Score: inf
ROOT
ATOM      1  C   UNL A   1      33.035  29.127  24.034  1.00  0.00     0.042 C 
ENDROOT
BRANCH   1   2
ATOM      2  C   UNL A   1      31.746  28.719  23.318  1.00  0.00     0.118 C 
BRANCH   2   3
ATOM      3  N   UNL A   1      32.001  27.626  22.392  1.00  0.00    -0.352 N 
ATOM      4  C   UNL A   1      31.999  26.268  22.536  1.00  0.00     0.258 C 
ATOM      5  O   UNL A   1      32.331  25.601  21.557  1.00  0.00    -0.269 OA
ATOM      6  H   UNL A   1      32.216  27.925  21.480  1.00  0.00     0.163 HD
BRANCH   4   7
ATOM      7  C   UNL A   1      31.596  25.605  23.806  1.00  0.00     0.121 A 
ATOM      8  N   UNL A   1      32.069  24.223  25.712  1.00  0.00    -0.295 N 
ATOM      9  C   UNL A   1      32.420  24.820  24.513  1.00  0.00     0.110 A 
ATOM     10  C   UNL A   1      30.772  24.276  26.195  1.00  0.00     0.328 A 
ATOM     11  N   UNL A   1      29.889  24.967  25.410  1.00  0.00    -0.273 N 
ATOM     12  O   UNL A   1      30.401  23.770  27.251  1.00  0.00    -0.248 OA
ATOM     13  C   UNL A   1      30.197  25.711  24.302  1.00  0.00     0.266 A 
ATOM     14  H   UNL A   1      28.940  24.925  25.667  1.00  0.00     0.175 HD
ATOM     15  O   UNL A   1      29.353  26.446  23.801  1.00  0.00    -0.268 OA
BRANCH   8  16
ATOM     16  C   UNL A   1      33.099  23.555  26.514  1.00  0.00     0.162 C 
BRANCH  16  17
ATOM     17  C   UNL A   1      33.527  22.237  25.905  1.00  0.00    -0.021 A 
ATOM     18  C   UNL A   1      33.055  20.019  25.153  1.00  0.00     0.213 A 
ATOM     19  C   UNL A   1      32.612  21.195  25.737  1.00  0.00     0.074 A 
ATOM     20  N   UNL A   1      34.331  19.777  24.793  1.00  0.00    -0.222 NA
ATOM     21  C   UNL A   1      35.204  20.784  24.984  1.00  0.00     0.115 A 
ATOM     22  C   UNL A   1      34.852  22.018  25.510  1.00  0.00     0.026 A 
BRANCH  18  23
ATOM     23  O   UNL A   1      32.153  19.016  24.901  1.00  0.00    -0.481 OA
ATOM     24  C   UNL A   1      32.622  17.825  25.532  1.00  0.00     0.280 C 
ENDBRANCH  18  23
ENDBRANCH  16  17
ENDBRANCH   8  16
ENDBRANCH   4   7
ENDBRANCH   2   3
ENDBRANCH   1   2
BRANCH   1  25
ATOM     25  C   UNL A   1      32.876  29.230  25.546  1.00  0.00     0.118 C 
BRANCH  25  26
ATOM     26  N   UNL A   1      32.526  30.580  25.963  1.00  0.00    -0.352 N 
ATOM     27  C   UNL A   1      33.134  31.385  26.903  1.00  0.00     0.251 C 
ATOM     28  H   UNL A   1      31.747  30.974  25.510  1.00  0.00     0.163 HD
ATOM     29  O   UNL A   1      32.580  32.412  27.267  1.00  0.00    -0.269 OA
BRANCH  27  30
ATOM     30  C   UNL A   1      34.434  30.979  27.487  1.00  0.00     0.039 A 
ATOM     31  C   UNL A   1      34.701  29.637  27.767  1.00  0.00     0.014 A 
ATOM     32  C   UNL A   1      35.392  31.957  27.768  1.00  0.00     0.014 A 
ATOM     33  C   UNL A   1      35.851  29.294  28.472  1.00  0.00     0.010 A 
ATOM     34  C   UNL A   1      36.583  31.600  28.407  1.00  0.00     0.010 A 
ATOM     35  C   UNL A   1      36.801  30.272  28.807  1.00  0.00    -0.014 A 
BRANCH  35  36
ATOM     36  C   UNL A   1      38.016  29.885  29.571  1.00  0.00     0.031 A 
ATOM     37  C   UNL A   1      38.220  30.357  30.985  1.00  0.00     0.074 A 
ATOM     38  C   UNL A   1      38.924  29.072  28.996  1.00  0.00     0.049 A 
ATOM     39  N   UNL A   1      39.218  30.115  31.795  1.00  0.00    -0.248 NA
ATOM     40  C   UNL A   1      37.171  31.210  31.571  1.00  0.00     0.031 C 
ATOM     41  C   UNL A   1      38.843  28.555  27.628  1.00  0.00     0.029 A 
ATOM     42  N   UNL A   1      40.082  28.528  29.489  1.00  0.00    -0.354 N 
ATOM     43  C   UNL A   1      38.944  30.814  32.964  1.00  0.00     0.074 A 
ATOM     44  C   UNL A   1      37.682  31.492  32.762  1.00  0.00     0.031 C 
ATOM     45  C   UNL A   1      39.884  27.741  27.403  1.00  0.00     0.029 A 
ATOM     46  C   UNL A   1      40.734  27.718  28.590  1.00  0.00     0.049 A 
ATOM     47  H   UNL A   1      40.415  28.702  30.398  1.00  0.00     0.167 HD
ATOM     48  C   UNL A   1      39.667  30.870  34.106  1.00  0.00     0.034 A 
ATOM     49  C   UNL A   1      41.891  27.037  28.699  1.00  0.00     0.034 A 
ATOM     50  C   UNL A   1      40.894  30.155  34.326  1.00  0.00     0.049 A 
ATOM     51  C   UNL A   1      42.665  27.107  29.982  1.00  0.00     0.074 A 
ATOM     52  C   UNL A   1      41.679  30.130  35.467  1.00  0.00     0.029 A 
ATOM     53  N   UNL A   1      41.511  29.334  33.396  1.00  0.00    -0.354 N 
ATOM     54  N   UNL A   1      42.358  27.731  31.092  1.00  0.00    -0.248 NA
ATOM     55  C   UNL A   1      43.937  26.371  30.034  1.00  0.00     0.031 C 
ATOM     56  C   UNL A   1      42.772  29.292  35.225  1.00  0.00     0.029 A 
ATOM     57  C   UNL A   1      42.662  28.792  33.937  1.00  0.00     0.049 A 
ATOM     58  H   UNL A   1      41.179  29.163  32.485  1.00  0.00     0.167 HD
ATOM     59  C   UNL A   1      43.389  27.455  31.980  1.00  0.00     0.074 A 
ATOM     60  C   UNL A   1      44.321  26.590  31.287  1.00  0.00     0.031 C 
ATOM     61  C   UNL A   1      43.556  27.896  33.250  1.00  0.00     0.034 A 
BRANCH  48  62
ATOM     62  C   UNL A   1      39.131  31.696  35.243  1.00  0.00     0.023 A 
ATOM     63  C   UNL A   1      38.212  31.116  36.139  1.00  0.00     0.012 A 
ATOM     64  C   UNL A   1      39.612  32.998  35.486  1.00  0.00     0.148 A 
ATOM     65  C   UNL A   1      37.773  31.821  37.258  1.00  0.00     0.002 A 
ATOM     66  C   UNL A   1      39.191  33.684  36.617  1.00  0.00     0.091 A 
ATOM     67  F   UNL A   1      40.476  33.531  34.609  1.00  0.00    -0.205 F 
ATOM     68  C   UNL A   1      38.270  33.099  37.503  1.00  0.00     0.022 A 
BRANCH  66  69
ATOM     69  S   UNL A   1      39.805  35.315  37.054  1.00  0.00     0.127 S 
ATOM     70  O   UNL A   1      39.349  36.114  35.917  1.00  0.00    -0.237 OA
ATOM     71  O   UNL A   1      39.102  35.582  38.308  1.00  0.00    -0.237 OA
ATOM     72  O   UNL A   1      41.249  35.183  37.178  1.00  0.00    -0.744 OA
ENDBRANCH  66  69
ENDBRANCH  48  62
BRANCH  49  73
ATOM     73  C   UNL A   1      42.346  26.194  27.562  1.00  0.00     0.023 A 
ATOM     74  C   UNL A   1      43.259  26.728  26.633  1.00  0.00     0.012 A 
ATOM     75  C   UNL A   1      41.955  24.846  27.453  1.00  0.00     0.148 A 
ATOM     76  C   UNL A   1      43.774  25.930  25.610  1.00  0.00     0.002 A 
ATOM     77  C   UNL A   1      42.507  24.046  26.460  1.00  0.00     0.091 A 
ATOM     78  F   UNL A   1      41.080  24.368  28.349  1.00  0.00    -0.205 F 
ATOM     79  C   UNL A   1      43.408  24.589  25.531  1.00  0.00     0.022 A 
BRANCH  77  80
ATOM     80  S   UNL A   1      42.191  22.281  26.355  1.00  0.00     0.127 S 
ATOM     81  O   UNL A   1      40.747  22.250  26.134  1.00  0.00    -0.237 OA
ATOM     82  O   UNL A   1      43.001  21.903  25.197  1.00  0.00    -0.237 OA
ATOM     83  O   UNL A   1      42.645  21.721  27.619  1.00  0.00    -0.744 OA
ENDBRANCH  77  80
ENDBRANCH  49  73
BRANCH  61  84
ATOM     84  C   UNL A   1      44.784  27.451  33.991  1.00  0.00     0.023 A 
ATOM     85  C   UNL A   1      45.924  28.276  33.994  1.00  0.00     0.012 A 
ATOM     86  C   UNL A   1      44.770  26.278  34.769  1.00  0.00     0.148 A 
ATOM     87  C   UNL A   1      47.040  27.934  34.755  1.00  0.00     0.002 A 
ATOM     88  C   UNL A   1      45.874  25.959  35.551  1.00  0.00     0.091 A 
ATOM     89  F   UNL A   1      43.675  25.503  34.737  1.00  0.00    -0.205 F 
ATOM     90  C   UNL A   1      47.011  26.785  35.541  1.00  0.00     0.022 A 
BRANCH  88  91
ATOM     91  S   UNL A   1      45.900  24.541  36.652  1.00  0.00     0.127 S 
ATOM     92  O   UNL A   1      47.297  24.526  37.085  1.00  0.00    -0.237 OA
ATOM     93  O   UNL A   1      44.944  24.934  37.687  1.00  0.00    -0.237 OA
ATOM     94  O   UNL A   1      45.486  23.399  35.848  1.00  0.00    -0.744 OA
ENDBRANCH  88  91
ENDBRANCH  61  84
ENDBRANCH  35  36
ENDBRANCH  27  30
ENDBRANCH  25  26
ENDBRANCH   1  25
TORSDOF 16
ENDMDL
MODEL 2
REMARK VINA RESULT:     -12.1      5.009     10.163
REMARK SMILES COc1cc(Cn2cc(C(=O)NCCCNC(=O)c3ccc(-c4c5nc(c(-c6cccc(S(=O)(=O)[O-])c6F)c6ccc([nH]6)c(-c6cccc(S(=O)(=O)[O-])c6F)c6nc(c(-c7cccc(S(=O)(=O)[O-])c7F)c7ccc4[nH]7)C=C6)C=C5)cc3)c(=O)[nH]c2=O)ccn1
REMARK SMILES IDX 14 1 13 2 12 3 10 4 11 5 9 7 7 8 8 9 85 10 84 11 86 12 82 13
REMARK SMILES IDX 83 15 6 16 5 17 3 18 4 19 89 20 88 21 87 22 2 23 1 24 15 25
REMARK SMILES IDX 16 26 17 27 18 29 19 30 20 31 81 32 21 33 80 34 22 35 23 36
REMARK SMILES IDX 24 37 74 38 25 39 79 40 73 41 75 42 26 43 78 44 72 45 71 46
REMARK SMILES IDX 27 48 59 49 39 50 58 51 40 52 43 53 57 54 76 55 41 56 42 57
REMARK SMILES IDX 56 59 77 60 44 61 28 62 29 63 37 64 30 65 32 66 38 67 31 68
REMARK SMILES IDX 33 69 34 70 35 71 36 72 60 73 61 74 69 75 62 76 64 77 70 78
REMARK SMILES IDX 63 79 65 80 66 81 67 82 68 83 45 84 46 85 54 86 47 87 49 88
REMARK SMILES IDX 55 89 48 90 50 91 51 92 52 93 53 94
REMARK H PARENT 12 6 84 14 16 28 75 47 43 58
REMARK Flexibility Score: inf
ROOT
ATOM      1  C   UNL A   1      36.107  21.420  25.427  1.00  0.00     0.042 C 
ENDROOT
BRANCH   1   2
ATOM      2  C   UNL A   1      35.623  22.688  26.131  1.00  0.00     0.118 C 
BRANCH   2   3
ATOM      3  N   UNL A   1      34.706  22.355  27.209  1.00  0.00    -0.352 N 
ATOM      4  C   UNL A   1      33.368  22.564  27.388  1.00  0.00     0.258 C 
ATOM      5  O   UNL A   1      32.886  22.217  28.465  1.00  0.00    -0.269 OA
ATOM      6  H   UNL A   1      35.134  21.883  27.959  1.00  0.00     0.163 HD
BRANCH   4   7
ATOM      7  C   UNL A   1      32.510  23.164  26.331  1.00  0.00     0.121 A 
ATOM      8  N   UNL A   1      31.099  24.919  25.497  1.00  0.00    -0.295 N 
ATOM      9  C   UNL A   1      31.874  24.334  26.484  1.00  0.00     0.110 A 
ATOM     10  C   UNL A   1      30.802  24.254  24.318  1.00  0.00     0.328 A 
ATOM     11  N   UNL A   1      31.341  23.001  24.209  1.00  0.00    -0.273 N 
ATOM     12  O   UNL A   1      30.125  24.721  23.407  1.00  0.00    -0.248 OA
ATOM     13  C   UNL A   1      32.240  22.425  25.068  1.00  0.00     0.266 A 
ATOM     14  H   UNL A   1      31.055  22.460  23.438  1.00  0.00     0.175 HD
ATOM     15  O   UNL A   1      32.802  21.380  24.760  1.00  0.00    -0.268 OA
BRANCH   8  16
ATOM     16  C   UNL A   1      30.615  26.291  25.679  1.00  0.00     0.162 C 
BRANCH  16  17
ATOM     17  C   UNL A   1      31.751  27.287  25.770  1.00  0.00    -0.021 A 
ATOM     18  C   UNL A   1      33.616  28.440  24.821  1.00  0.00     0.213 A 
ATOM     19  C   UNL A   1      32.607  27.498  24.687  1.00  0.00     0.074 A 
ATOM     20  N   UNL A   1      33.878  29.126  25.951  1.00  0.00    -0.222 NA
ATOM     21  C   UNL A   1      33.056  28.893  26.992  1.00  0.00     0.115 A 
ATOM     22  C   UNL A   1      31.985  28.012  26.945  1.00  0.00     0.026 A 
BRANCH  18  23
ATOM     23  O   UNL A   1      34.414  28.723  23.741  1.00  0.00    -0.481 OA
ATOM     24  C   UNL A   1      33.770  28.226  22.568  1.00  0.00     0.280 C 
ENDBRANCH  18  23
ENDBRANCH  16  17
ENDBRANCH   8  16
ENDBRANCH   4   7
ENDBRANCH   2   3
ENDBRANCH   1   2
BRANCH   1  25
ATOM     25  C   UNL A   1      37.534  21.532  24.900  1.00  0.00     0.118 C 
BRANCH  25  26
ATOM     26  N   UNL A   1      38.392  20.486  25.439  1.00  0.00    -0.352 N 
ATOM     27  C   UNL A   1      39.564  20.606  26.156  1.00  0.00     0.251 C 
ATOM     28  H   UNL A   1      38.095  19.564  25.268  1.00  0.00     0.163 HD
ATOM     29  O   UNL A   1      40.256  19.618  26.351  1.00  0.00    -0.269 OA
BRANCH  27  30
ATOM     30  C   UNL A   1      39.987  21.938  26.652  1.00  0.00     0.039 A 
ATOM     31  C   UNL A   1      39.409  23.104  26.146  1.00  0.00     0.014 A 
ATOM     32  C   UNL A   1      40.985  22.016  27.628  1.00  0.00     0.014 A 
ATOM     33  C   UNL A   1      39.937  24.344  26.494  1.00  0.00     0.010 A 
ATOM     34  C   UNL A   1      41.461  23.266  28.035  1.00  0.00     0.010 A 
ATOM     35  C   UNL A   1      40.973  24.439  27.437  1.00  0.00    -0.014 A 
BRANCH  35  36
ATOM     36  C   UNL A   1      41.530  25.772  27.783  1.00  0.00     0.031 A 
ATOM     37  C   UNL A   1      42.913  26.169  27.340  1.00  0.00     0.074 A 
ATOM     38  C   UNL A   1      40.768  26.645  28.472  1.00  0.00     0.049 A 
ATOM     39  N   UNL A   1      43.553  27.290  27.555  1.00  0.00    -0.248 NA
ATOM     40  C   UNL A   1      43.680  25.186  26.556  1.00  0.00     0.031 C 
ATOM     41  C   UNL A   1      39.416  26.374  28.964  1.00  0.00     0.029 A 
ATOM     42  N   UNL A   1      41.013  27.935  28.866  1.00  0.00    -0.354 N 
ATOM     43  C   UNL A   1      44.805  27.135  26.974  1.00  0.00     0.074 A 
ATOM     44  C   UNL A   1      44.839  25.810  26.393  1.00  0.00     0.031 C 
ATOM     45  C   UNL A   1      38.937  27.475  29.561  1.00  0.00     0.029 A 
ATOM     46  C   UNL A   1      39.964  28.511  29.541  1.00  0.00     0.049 A 
ATOM     47  H   UNL A   1      41.860  28.403  28.684  1.00  0.00     0.167 HD
ATOM     48  C   UNL A   1      45.826  28.021  26.912  1.00  0.00     0.034 A 
ATOM     49  C   UNL A   1      39.839  29.734  30.092  1.00  0.00     0.034 A 
ATOM     50  C   UNL A   1      45.774  29.356  27.442  1.00  0.00     0.049 A 
ATOM     51  C   UNL A   1      40.981  30.702  29.997  1.00  0.00     0.074 A 
ATOM     52  C   UNL A   1      46.753  30.335  27.398  1.00  0.00     0.029 A 
ATOM     53  N   UNL A   1      44.688  29.905  28.104  1.00  0.00    -0.354 N 
ATOM     54  N   UNL A   1      42.136  30.552  29.395  1.00  0.00    -0.248 NA
ATOM     55  C   UNL A   1      40.803  32.010  30.644  1.00  0.00     0.031 C 
ATOM     56  C   UNL A   1      46.256  31.477  28.034  1.00  0.00     0.029 A 
ATOM     57  C   UNL A   1      44.967  31.210  28.467  1.00  0.00     0.049 A 
ATOM     58  H   UNL A   1      43.842  29.436  28.289  1.00  0.00     0.167 HD
ATOM     59  C   UNL A   1      42.818  31.747  29.578  1.00  0.00     0.074 A 
ATOM     60  C   UNL A   1      41.940  32.621  30.330  1.00  0.00     0.031 C 
ATOM     61  C   UNL A   1      44.067  32.082  29.175  1.00  0.00     0.034 A 
BRANCH  48  62
ATOM     62  C   UNL A   1      47.083  27.605  26.200  1.00  0.00     0.023 A 
ATOM     63  C   UNL A   1      48.059  26.872  26.902  1.00  0.00     0.012 A 
ATOM     64  C   UNL A   1      47.249  27.843  24.821  1.00  0.00     0.148 A 
ATOM     65  C   UNL A   1      49.188  26.387  26.245  1.00  0.00     0.002 A 
ATOM     66  C   UNL A   1      48.364  27.334  24.167  1.00  0.00     0.091 A 
ATOM     67  F   UNL A   1      46.311  28.556  24.180  1.00  0.00    -0.205 F 
ATOM     68  C   UNL A   1      49.336  26.608  24.878  1.00  0.00     0.022 A 
BRANCH  66  69
ATOM     69  S   UNL A   1      48.627  27.518  22.400  1.00  0.00     0.127 S 
ATOM     70  O   UNL A   1      49.923  28.196  22.365  1.00  0.00    -0.237 OA
ATOM     71  O   UNL A   1      48.655  26.127  21.947  1.00  0.00    -0.237 OA
ATOM     72  O   UNL A   1      47.505  28.301  21.904  1.00  0.00    -0.744 OA
ENDBRANCH  66  69
ENDBRANCH  48  62
BRANCH  49  73
ATOM     73  C   UNL A   1      38.554  30.111  30.737  1.00  0.00     0.023 A 
ATOM     74  C   UNL A   1      38.342  29.785  32.089  1.00  0.00     0.012 A 
ATOM     75  C   UNL A   1      37.588  30.869  30.048  1.00  0.00     0.148 A 
ATOM     76  C   UNL A   1      37.185  30.207  32.746  1.00  0.00     0.002 A 
ATOM     77  C   UNL A   1      36.461  31.325  30.720  1.00  0.00     0.091 A 
ATOM     78  F   UNL A   1      37.815  31.159  28.759  1.00  0.00    -0.205 F 
ATOM     79  C   UNL A   1      36.252  30.986  32.066  1.00  0.00     0.022 A 
BRANCH  77  80
ATOM     80  S   UNL A   1      35.268  32.433  29.963  1.00  0.00     0.127 S 
ATOM     81  O   UNL A   1      34.749  31.612  28.871  1.00  0.00    -0.237 OA
ATOM     82  O   UNL A   1      34.331  32.658  31.065  1.00  0.00    -0.237 OA
ATOM     83  O   UNL A   1      36.021  33.612  29.560  1.00  0.00    -0.744 OA
ENDBRANCH  77  80
ENDBRANCH  49  73
BRANCH  61  84
ATOM     84  C   UNL A   1      44.572  33.453  29.523  1.00  0.00     0.023 A 
ATOM     85  C   UNL A   1      45.282  33.642  30.724  1.00  0.00     0.012 A 
ATOM     86  C   UNL A   1      44.440  34.521  28.615  1.00  0.00     0.148 A 
ATOM     87  C   UNL A   1      45.846  34.881  31.021  1.00  0.00     0.002 A 
ATOM     88  C   UNL A   1      45.034  35.744  28.903  1.00  0.00     0.091 A 
ATOM     89  F   UNL A   1      43.748  34.316  27.484  1.00  0.00    -0.205 F 
ATOM     90  C   UNL A   1      45.733  35.926  30.108  1.00  0.00     0.022 A 
BRANCH  88  91
ATOM     91  S   UNL A   1      45.005  37.125  27.755  1.00  0.00     0.127 S 
ATOM     92  O   UNL A   1      43.569  37.293  27.529  1.00  0.00    -0.237 OA
ATOM     93  O   UNL A   1      45.629  38.191  28.537  1.00  0.00    -0.237 OA
ATOM     94  O   UNL A   1      45.772  36.698  26.593  1.00  0.00    -0.744 OA
ENDBRANCH  88  91
ENDBRANCH  61  84
ENDBRANCH  35  36
ENDBRANCH  27  30
ENDBRANCH  25  26
ENDBRANCH   1  25
TORSDOF 16
ENDMDL
MODEL 3
REMARK VINA RESULT:     -12.0      4.715     10.125
REMARK SMILES COc1cc(Cn2cc(C(=O)NCCCNC(=O)c3ccc(-c4c5nc(c(-c6cccc(S(=O)(=O)[O-])c6F)c6ccc([nH]6)c(-c6cccc(S(=O)(=O)[O-])c6F)c6nc(c(-c7cccc(S(=O)(=O)[O-])c7F)c7ccc4[nH]7)C=C6)C=C5)cc3)c(=O)[nH]c2=O)ccn1
REMARK SMILES IDX 14 1 13 2 12 3 10 4 11 5 9 7 7 8 8 9 85 10 84 11 86 12 82 13
REMARK SMILES IDX 83 15 6 16 5 17 3 18 4 19 89 20 88 21 87 22 2 23 1 24 15 25
REMARK SMILES IDX 16 26 17 27 18 29 19 30 20 31 81 32 21 33 80 34 22 35 23 36
REMARK SMILES IDX 24 37 74 38 25 39 79 40 73 41 75 42 26 43 78 44 72 45 71 46
REMARK SMILES IDX 27 48 59 49 39 50 58 51 40 52 43 53 57 54 76 55 41 56 42 57
REMARK SMILES IDX 56 59 77 60 44 61 28 62 29 63 37 64 30 65 32 66 38 67 31 68
REMARK SMILES IDX 33 69 34 70 35 71 36 72 60 73 61 74 69 75 62 76 64 77 70 78
REMARK SMILES IDX 63 79 65 80 66 81 67 82 68 83 45 84 46 85 54 86 47 87 49 88
REMARK SMILES IDX 55 89 48 90 50 91 51 92 52 93 53 94
REMARK H PARENT 12 6 84 14 16 28 75 47 43 58
REMARK Flexibility Score: inf
ROOT
ATOM      1  C   UNL A   1      34.864  22.071  24.823  1.00  0.00     0.042 C 
ENDROOT
BRANCH   1   2
ATOM      2  C   UNL A   1      34.097  23.389  24.703  1.00  0.00     0.118 C 
BRANCH   2   3
ATOM      3  N   UNL A   1      32.791  23.167  24.102  1.00  0.00    -0.352 N 
ATOM      4  C   UNL A   1      31.642  23.904  24.080  1.00  0.00     0.258 C 
ATOM      5  O   UNL A   1      30.663  23.399  23.532  1.00  0.00    -0.269 OA
ATOM      6  H   UNL A   1      32.723  22.316  23.611  1.00  0.00     0.163 HD
BRANCH   4   7
ATOM      7  C   UNL A   1      31.562  25.268  24.670  1.00  0.00     0.121 A 
ATOM      8  N   UNL A   1      31.472  27.659  24.461  1.00  0.00    -0.295 N 
ATOM      9  C   UNL A   1      31.578  26.385  23.929  1.00  0.00     0.110 A 
ATOM     10  C   UNL A   1      31.493  27.876  25.829  1.00  0.00     0.328 A 
ATOM     11  N   UNL A   1      31.610  26.748  26.593  1.00  0.00    -0.273 N 
ATOM     12  O   UNL A   1      31.400  28.980  26.360  1.00  0.00    -0.248 OA
ATOM     13  C   UNL A   1      31.560  25.454  26.146  1.00  0.00     0.266 A 
ATOM     14  H   UNL A   1      31.743  26.878  27.561  1.00  0.00     0.175 HD
ATOM     15  O   UNL A   1      31.475  24.529  26.946  1.00  0.00    -0.268 OA
BRANCH   8  16
ATOM     16  C   UNL A   1      31.290  28.803  23.563  1.00  0.00     0.162 C 
BRANCH  16  17
ATOM     17  C   UNL A   1      29.831  29.172  23.402  1.00  0.00    -0.021 A 
ATOM     18  C   UNL A   1      28.069  30.783  23.319  1.00  0.00     0.213 A 
ATOM     19  C   UNL A   1      29.414  30.502  23.499  1.00  0.00     0.074 A 
ATOM     20  N   UNL A   1      27.112  29.855  23.123  1.00  0.00    -0.222 NA
ATOM     21  C   UNL A   1      27.529  28.576  23.056  1.00  0.00     0.115 A 
ATOM     22  C   UNL A   1      28.858  28.193  23.168  1.00  0.00     0.026 A 
BRANCH  18  23
ATOM     23  O   UNL A   1      27.652  32.091  23.326  1.00  0.00    -0.481 OA
ATOM     24  C   UNL A   1      28.775  32.918  23.023  1.00  0.00     0.280 C 
ENDBRANCH  18  23
ENDBRANCH  16  17
ENDBRANCH   8  16
ENDBRANCH   4   7
ENDBRANCH   2   3
ENDBRANCH   1   2
BRANCH   1  25
ATOM     25  C   UNL A   1      35.925  22.091  25.917  1.00  0.00     0.118 C 
BRANCH  25  26
ATOM     26  N   UNL A   1      36.952  21.082  25.692  1.00  0.00    -0.352 N 
ATOM     27  C   UNL A   1      38.322  21.204  25.772  1.00  0.00     0.251 C 
ATOM     28  H   UNL A   1      36.621  20.189  25.448  1.00  0.00     0.163 HD
ATOM     29  O   UNL A   1      39.034  20.304  25.351  1.00  0.00    -0.269 OA
BRANCH  27  30
ATOM     30  C   UNL A   1      38.918  22.439  26.336  1.00  0.00     0.039 A 
ATOM     31  C   UNL A   1      38.372  23.691  26.044  1.00  0.00     0.014 A 
ATOM     32  C   UNL A   1      40.044  22.339  27.159  1.00  0.00     0.014 A 
ATOM     33  C   UNL A   1      39.043  24.845  26.438  1.00  0.00     0.010 A 
ATOM     34  C   UNL A   1      40.672  23.500  27.619  1.00  0.00     0.010 A 
ATOM     35  C   UNL A   1      40.204  24.763  27.223  1.00  0.00    -0.014 A 
BRANCH  35  36
ATOM     36  C   UNL A   1      40.910  26.009  27.621  1.00  0.00     0.031 A 
ATOM     37  C   UNL A   1      42.325  26.268  27.178  1.00  0.00     0.074 A 
ATOM     38  C   UNL A   1      40.257  26.929  28.357  1.00  0.00     0.049 A 
ATOM     39  N   UNL A   1      43.090  27.298  27.434  1.00  0.00    -0.248 NA
ATOM     40  C   UNL A   1      42.970  25.241  26.341  1.00  0.00     0.031 C 
ATOM     41  C   UNL A   1      38.887  26.790  28.855  1.00  0.00     0.029 A 
ATOM     42  N   UNL A   1      40.650  28.164  28.805  1.00  0.00    -0.354 N 
ATOM     43  C   UNL A   1      44.311  27.030  26.829  1.00  0.00     0.074 A 
ATOM     44  C   UNL A   1      44.191  25.738  26.191  1.00  0.00     0.031 C 
ATOM     45  C   UNL A   1      38.540  27.909  29.506  1.00  0.00     0.029 A 
ATOM     46  C   UNL A   1      39.678  28.824  29.518  1.00  0.00     0.049 A 
ATOM     47  H   UNL A   1      41.542  28.542  28.633  1.00  0.00     0.167 HD
ATOM     48  C   UNL A   1      45.425  27.798  26.793  1.00  0.00     0.034 A 
ATOM     49  C   UNL A   1      39.696  30.027  30.124  1.00  0.00     0.034 A 
ATOM     50  C   UNL A   1      45.528  29.105  27.383  1.00  0.00     0.049 A 
ATOM     51  C   UNL A   1      40.939  30.864  30.057  1.00  0.00     0.074 A 
ATOM     52  C   UNL A   1      46.611  29.969  27.369  1.00  0.00     0.029 A 
ATOM     53  N   UNL A   1      44.516  29.742  28.082  1.00  0.00    -0.354 N 
ATOM     54  N   UNL A   1      42.064  30.612  29.434  1.00  0.00    -0.248 NA
ATOM     55  C   UNL A   1      40.915  32.153  30.764  1.00  0.00     0.031 C 
ATOM     56  C   UNL A   1      46.251  31.129  28.061  1.00  0.00     0.029 A 
ATOM     57  C   UNL A   1      44.944  30.990  28.499  1.00  0.00     0.049 A 
ATOM     58  H   UNL A   1      43.625  29.363  28.257  1.00  0.00     0.167 HD
ATOM     59  C   UNL A   1      42.878  31.714  29.661  1.00  0.00     0.074 A 
ATOM     60  C   UNL A   1      42.111  32.645  30.462  1.00  0.00     0.031 C 
ATOM     61  C   UNL A   1      44.154  31.924  29.256  1.00  0.00     0.034 A 
BRANCH  48  62
ATOM     62  C   UNL A   1      46.621  27.277  26.047  1.00  0.00     0.023 A 
ATOM     63  C   UNL A   1      46.702  27.475  24.655  1.00  0.00     0.012 A 
ATOM     64  C   UNL A   1      47.705  26.691  26.731  1.00  0.00     0.148 A 
ATOM     65  C   UNL A   1      47.842  27.092  23.951  1.00  0.00     0.002 A 
ATOM     66  C   UNL A   1      48.849  26.336  26.026  1.00  0.00     0.091 A 
ATOM     67  F   UNL A   1      47.596  26.501  28.054  1.00  0.00    -0.205 F 
ATOM     68  C   UNL A   1      48.918  26.533  24.636  1.00  0.00     0.022 A 
BRANCH  66  69
ATOM     69  S   UNL A   1      50.310  25.654  26.818  1.00  0.00     0.127 S 
ATOM     70  O   UNL A   1      50.671  26.730  27.742  1.00  0.00    -0.237 OA
ATOM     71  O   UNL A   1      49.779  24.452  27.459  1.00  0.00    -0.237 OA
ATOM     72  O   UNL A   1      51.269  25.407  25.751  1.00  0.00    -0.744 OA
ENDBRANCH  66  69
ENDBRANCH  48  62
BRANCH  49  73
ATOM     73  C   UNL A   1      38.467  30.516  30.802  1.00  0.00     0.023 A 
ATOM     74  C   UNL A   1      38.346  30.369  32.197  1.00  0.00     0.012 A 
ATOM     75  C   UNL A   1      37.467  31.206  30.090  1.00  0.00     0.148 A 
ATOM     76  C   UNL A   1      37.246  30.901  32.872  1.00  0.00     0.002 A 
ATOM     77  C   UNL A   1      36.399  31.772  30.773  1.00  0.00     0.091 A 
ATOM     78  F   UNL A   1      37.607  31.324  28.762  1.00  0.00    -0.205 F 
ATOM     79  C   UNL A   1      36.281  31.612  32.163  1.00  0.00     0.022 A 
BRANCH  77  80
ATOM     80  S   UNL A   1      35.174  32.807  29.965  1.00  0.00     0.127 S 
ATOM     81  O   UNL A   1      34.296  33.155  31.080  1.00  0.00    -0.237 OA
ATOM     82  O   UNL A   1      35.999  33.907  29.463  1.00  0.00    -0.237 OA
ATOM     83  O   UNL A   1      34.575  31.978  28.929  1.00  0.00    -0.744 OA
ENDBRANCH  77  80
ENDBRANCH  49  73
BRANCH  61  84
ATOM     84  C   UNL A   1      44.813  33.213  29.658  1.00  0.00     0.023 A 
ATOM     85  C   UNL A   1      45.599  33.250  30.825  1.00  0.00     0.012 A 
ATOM     86  C   UNL A   1      44.744  34.347  28.826  1.00  0.00     0.148 A 
ATOM     87  C   UNL A   1      46.301  34.405  31.164  1.00  0.00     0.002 A 
ATOM     88  C   UNL A   1      45.473  35.483  29.154  1.00  0.00     0.091 A 
ATOM     89  F   UNL A   1      43.976  34.287  27.728  1.00  0.00    -0.205 F 
ATOM     90  C   UNL A   1      46.248  35.515  30.325  1.00  0.00     0.022 A 
BRANCH  88  91
ATOM     91  S   UNL A   1      45.525  36.934  28.096  1.00  0.00     0.127 S 
ATOM     92  O   UNL A   1      46.318  37.861  28.904  1.00  0.00    -0.237 OA
ATOM     93  O   UNL A   1      46.205  36.426  26.906  1.00  0.00    -0.237 OA
ATOM     94  O   UNL A   1      44.139  37.325  27.881  1.00  0.00    -0.744 OA
ENDBRANCH  88  91
ENDBRANCH  61  84
ENDBRANCH  35  36
ENDBRANCH  27  30
ENDBRANCH  25  26
ENDBRANCH   1  25
TORSDOF 16
ENDMDL
