MODEL 1
REMARK VINA RESULT:     -12.6      0.000      0.000
REMARK SMILES CC[C@H]1SC[C@H](C(=O)NCCCNC(=O)c2ccc(-c3c4nc(c(-c5cccc(S(=O)(=O)[O-])c5F)c5ccc([nH]5)c(-c5cccc(S(=O)(=O)[O-])c5F)c5nc(c(-c6cccc(S(=O)(=O)[O-])c6F)c6ccc3[nH]6)C=C5)C=C4)cc2)N1C(=O)c1ccc(F)c(F)c1F
REMARK SMILES IDX 11 1 10 2 9 3 7 4 8 5 6 7 3 8 4 9 79 10 5 11 2 12 1 13 80 14
REMARK SMILES IDX 81 15 82 16 83 17 89 18 84 19 87 20 90 21 85 22 88 23 86 24
REMARK SMILES IDX 12 25 13 26 14 27 15 29 16 30 17 31 78 32 18 33 77 34 19 35
REMARK SMILES IDX 20 36 21 37 71 38 22 39 76 40 70 41 72 42 23 43 75 44 69 45
REMARK SMILES IDX 68 46 24 48 56 49 36 50 55 51 37 52 40 53 54 54 73 55 38 56
REMARK SMILES IDX 39 57 53 59 74 60 41 61 25 62 26 63 34 64 27 65 29 66 35 67
REMARK SMILES IDX 28 68 30 69 31 70 32 71 33 72 57 73 58 74 66 75 59 76 61 77
REMARK SMILES IDX 67 78 60 79 62 80 63 81 64 82 65 83 42 84 43 85 51 86 44 87
REMARK SMILES IDX 46 88 52 89 45 90 47 91 48 92 49 93 50 94
REMARK H PARENT 9 6 13 28 72 47 40 58
REMARK Flexibility Score: inf
ROOT
ATOM      1  C   UNL A   1      32.376  30.055  25.386  1.00  0.00     0.042 C 
ENDROOT
BRANCH   1   2
ATOM      2  C   UNL A   1      33.453  28.993  25.271  1.00  0.00     0.117 C 
BRANCH   2   3
ATOM      3  N   UNL A   1      34.086  28.888  23.965  1.00  0.00    -0.354 N 
ATOM      4  C   UNL A   1      33.897  27.941  22.988  1.00  0.00     0.243 C 
ATOM      5  O   UNL A   1      34.280  28.229  21.851  1.00  0.00    -0.273 OA
ATOM      6  H   UNL A   1      34.739  29.593  23.753  1.00  0.00     0.163 HD
BRANCH   4   7
ATOM      7  C   UNL A   1      33.283  26.563  23.354  1.00  0.00     0.185 C 
ATOM      8  C   UNL A   1      31.313  25.839  24.657  1.00  0.00     0.144 C 
ATOM      9  S   UNL A   1      32.601  25.990  25.901  1.00  0.00    -0.134 SA
ATOM     10  N   UNL A   1      31.809  26.588  23.507  1.00  0.00    -0.314 N 
ATOM     11  C   UNL A   1      33.897  26.027  24.657  1.00  0.00     0.107 C 
BRANCH   8  12
ATOM     12  C   UNL A   1      31.044  24.372  24.257  1.00  0.00     0.033 C 
ATOM     13  C   UNL A   1      31.191  23.370  25.392  1.00  0.00     0.007 C 
ENDBRANCH   8  12
BRANCH  10  14
ATOM     14  C   UNL A   1      31.000  26.973  22.444  1.00  0.00     0.258 C 
ATOM     15  O   UNL A   1      31.027  26.428  21.344  1.00  0.00    -0.269 OA
BRANCH  14  16
ATOM     16  C   UNL A   1      30.022  28.070  22.656  1.00  0.00     0.079 A 
ATOM     17  C   UNL A   1      30.406  29.389  22.373  1.00  0.00     0.020 A 
ATOM     18  C   UNL A   1      28.734  27.815  23.136  1.00  0.00     0.174 A 
ATOM     19  C   UNL A   1      29.477  30.427  22.493  1.00  0.00     0.043 A 
ATOM     20  C   UNL A   1      27.809  28.846  23.236  1.00  0.00     0.195 A 
ATOM     21  F   UNL A   1      28.352  26.572  23.463  1.00  0.00    -0.203 F 
ATOM     22  C   UNL A   1      28.178  30.143  22.905  1.00  0.00     0.161 A 
ATOM     23  F   UNL A   1      26.551  28.585  23.622  1.00  0.00    -0.200 F 
ATOM     24  F   UNL A   1      27.278  31.135  22.973  1.00  0.00    -0.204 F 
ENDBRANCH  14  16
ENDBRANCH  10  14
ENDBRANCH   4   7
ENDBRANCH   2   3
ENDBRANCH   1   2
BRANCH   1  25
ATOM     25  C   UNL A   1      32.075  30.514  26.804  1.00  0.00     0.118 C 
BRANCH  25  26
ATOM     26  N   UNL A   1      31.979  31.962  26.955  1.00  0.00    -0.352 N 
ATOM     27  C   UNL A   1      32.854  32.873  27.513  1.00  0.00     0.251 C 
ATOM     28  H   UNL A   1      31.150  32.356  26.598  1.00  0.00     0.163 HD
ATOM     29  O   UNL A   1      32.520  34.043  27.631  1.00  0.00    -0.269 OA
BRANCH  27  30
ATOM     30  C   UNL A   1      34.177  32.427  28.007  1.00  0.00     0.039 A 
ATOM     31  C   UNL A   1      35.251  33.323  27.998  1.00  0.00     0.014 A 
ATOM     32  C   UNL A   1      34.356  31.138  28.499  1.00  0.00     0.014 A 
ATOM     33  C   UNL A   1      36.468  32.958  28.586  1.00  0.00     0.010 A 
ATOM     34  C   UNL A   1      35.517  30.820  29.192  1.00  0.00     0.010 A 
ATOM     35  C   UNL A   1      36.591  31.722  29.239  1.00  0.00    -0.014 A 
BRANCH  35  36
ATOM     36  C   UNL A   1      37.820  31.310  29.971  1.00  0.00     0.031 A 
ATOM     37  C   UNL A   1      38.713  30.256  29.367  1.00  0.00     0.074 A 
ATOM     38  C   UNL A   1      38.051  31.755  31.222  1.00  0.00     0.049 A 
ATOM     39  N   UNL A   1      39.681  29.574  29.921  1.00  0.00    -0.248 NA
ATOM     40  C   UNL A   1      38.442  29.879  27.968  1.00  0.00     0.031 C 
ATOM     41  C   UNL A   1      37.227  32.724  31.949  1.00  0.00     0.029 A 
ATOM     42  N   UNL A   1      39.027  31.411  32.127  1.00  0.00    -0.354 N 
ATOM     43  C   UNL A   1      40.079  28.643  28.969  1.00  0.00     0.074 A 
ATOM     44  C   UNL A   1      39.229  28.827  27.814  1.00  0.00     0.031 C 
ATOM     45  C   UNL A   1      37.729  32.894  33.183  1.00  0.00     0.029 A 
ATOM     46  C   UNL A   1      38.880  32.015  33.355  1.00  0.00     0.049 A 
ATOM     47  H   UNL A   1      39.762  30.791  31.916  1.00  0.00     0.167 HD
ATOM     48  C   UNL A   1      41.080  27.735  29.037  1.00  0.00     0.034 A 
ATOM     49  C   UNL A   1      39.582  31.864  34.497  1.00  0.00     0.034 A 
ATOM     50  C   UNL A   1      41.980  27.621  30.150  1.00  0.00     0.049 A 
ATOM     51  C   UNL A   1      40.744  30.906  34.518  1.00  0.00     0.074 A 
ATOM     52  C   UNL A   1      43.092  26.808  30.277  1.00  0.00     0.029 A 
ATOM     53  N   UNL A   1      41.881  28.356  31.321  1.00  0.00    -0.354 N 
ATOM     54  N   UNL A   1      41.185  30.124  33.563  1.00  0.00    -0.248 NA
ATOM     55  C   UNL A   1      41.528  30.833  35.761  1.00  0.00     0.031 C 
ATOM     56  C   UNL A   1      43.662  27.046  31.531  1.00  0.00     0.029 A 
ATOM     57  C   UNL A   1      42.916  28.022  32.174  1.00  0.00     0.049 A 
ATOM     58  H   UNL A   1      41.178  29.016  31.516  1.00  0.00     0.167 HD
ATOM     59  C   UNL A   1      42.321  29.505  34.069  1.00  0.00     0.074 A 
ATOM     60  C   UNL A   1      42.507  30.006  35.415  1.00  0.00     0.031 C 
ATOM     61  C   UNL A   1      43.133  28.596  33.476  1.00  0.00     0.034 A 
BRANCH  48  62
ATOM     62  C   UNL A   1      41.299  26.839  27.846  1.00  0.00     0.023 A 
ATOM     63  C   UNL A   1      41.973  27.338  26.713  1.00  0.00     0.012 A 
ATOM     64  C   UNL A   1      40.886  25.492  27.866  1.00  0.00     0.148 A 
ATOM     65  C   UNL A   1      42.196  26.526  25.602  1.00  0.00     0.002 A 
ATOM     66  C   UNL A   1      41.155  24.674  26.774  1.00  0.00     0.091 A 
ATOM     67  F   UNL A   1      40.228  25.039  28.942  1.00  0.00    -0.205 F 
ATOM     68  C   UNL A   1      41.797  25.193  25.637  1.00  0.00     0.022 A 
BRANCH  66  69
ATOM     69  S   UNL A   1      40.759  22.923  26.757  1.00  0.00     0.127 S 
ATOM     70  O   UNL A   1      39.324  22.948  26.474  1.00  0.00    -0.237 OA
ATOM     71  O   UNL A   1      41.589  22.429  25.657  1.00  0.00    -0.237 OA
ATOM     72  O   UNL A   1      41.130  22.416  28.070  1.00  0.00    -0.744 OA
ENDBRANCH  66  69
ENDBRANCH  48  62
BRANCH  49  73
ATOM     73  C   UNL A   1      39.252  32.693  35.692  1.00  0.00     0.023 A 
ATOM     74  C   UNL A   1      39.703  34.027  35.745  1.00  0.00     0.012 A 
ATOM     75  C   UNL A   1      38.477  32.189  36.755  1.00  0.00     0.148 A 
ATOM     76  C   UNL A   1      39.416  34.834  36.847  1.00  0.00     0.002 A 
ATOM     77  C   UNL A   1      38.150  33.014  37.826  1.00  0.00     0.091 A 
ATOM     78  F   UNL A   1      38.065  30.915  36.693  1.00  0.00    -0.205 F 
ATOM     79  C   UNL A   1      38.633  34.331  37.882  1.00  0.00     0.022 A 
BRANCH  77  80
ATOM     80  S   UNL A   1      37.039  32.494  39.139  1.00  0.00     0.127 S 
ATOM     81  O   UNL A   1      37.346  33.458  40.192  1.00  0.00    -0.237 OA
ATOM     82  O   UNL A   1      35.727  32.664  38.512  1.00  0.00    -0.237 OA
ATOM     83  O   UNL A   1      37.389  31.110  39.423  1.00  0.00    -0.744 OA
ENDBRANCH  77  80
ENDBRANCH  49  73
BRANCH  61  84
ATOM     84  C   UNL A   1      44.343  28.123  34.233  1.00  0.00     0.023 A 
ATOM     85  C   UNL A   1      45.541  28.860  34.177  1.00  0.00     0.012 A 
ATOM     86  C   UNL A   1      44.246  27.019  35.104  1.00  0.00     0.148 A 
ATOM     87  C   UNL A   1      46.630  28.497  34.968  1.00  0.00     0.002 A 
ATOM     88  C   UNL A   1      45.318  26.692  35.923  1.00  0.00     0.091 A 
ATOM     89  F   UNL A   1      43.099  26.324  35.128  1.00  0.00    -0.205 F 
ATOM     90  C   UNL A   1      46.513  27.425  35.851  1.00  0.00     0.022 A 
BRANCH  88  91
ATOM     91  S   UNL A   1      45.226  25.395  37.162  1.00  0.00     0.127 S 
ATOM     92  O   UNL A   1      46.637  25.193  37.487  1.00  0.00    -0.237 OA
ATOM     93  O   UNL A   1      44.439  26.031  38.219  1.00  0.00    -0.237 OA
ATOM     94  O   UNL A   1      44.569  24.265  36.515  1.00  0.00    -0.744 OA
ENDBRANCH  88  91
ENDBRANCH  61  84
ENDBRANCH  35  36
ENDBRANCH  27  30
ENDBRANCH  25  26
ENDBRANCH   1  25
TORSDOF 16
ENDMDL
MODEL 2
REMARK VINA RESULT:     -12.6      2.033      2.726
REMARK SMILES CC[C@H]1SC[C@H](C(=O)NCCCNC(=O)c2ccc(-c3c4nc(c(-c5cccc(S(=O)(=O)[O-])c5F)c5ccc([nH]5)c(-c5cccc(S(=O)(=O)[O-])c5F)c5nc(c(-c6cccc(S(=O)(=O)[O-])c6F)c6ccc3[nH]6)C=C5)C=C4)cc2)N1C(=O)c1ccc(F)c(F)c1F
REMARK SMILES IDX 11 1 10 2 9 3 7 4 8 5 6 7 3 8 4 9 79 10 5 11 2 12 1 13 80 14
REMARK SMILES IDX 81 15 82 16 83 17 89 18 84 19 87 20 90 21 85 22 88 23 86 24
REMARK SMILES IDX 12 25 13 26 14 27 15 29 16 30 17 31 78 32 18 33 77 34 19 35
REMARK SMILES IDX 20 36 21 37 71 38 22 39 76 40 70 41 72 42 23 43 75 44 69 45
REMARK SMILES IDX 68 46 24 48 56 49 36 50 55 51 37 52 40 53 54 54 73 55 38 56
REMARK SMILES IDX 39 57 53 59 74 60 41 61 25 62 26 63 34 64 27 65 29 66 35 67
REMARK SMILES IDX 28 68 30 69 31 70 32 71 33 72 57 73 58 74 66 75 59 76 61 77
REMARK SMILES IDX 67 78 60 79 62 80 63 81 64 82 65 83 42 84 43 85 51 86 44 87
REMARK SMILES IDX 46 88 52 89 45 90 47 91 48 92 49 93 50 94
REMARK H PARENT 9 6 13 28 72 47 40 58
REMARK Flexibility Score: inf
ROOT
ATOM      1  C   UNL A   1      31.781  28.289  26.632  1.00  0.00     0.042 C 
ENDROOT
BRANCH   1   2
ATOM      2  C   UNL A   1      32.477  26.960  26.858  1.00  0.00     0.117 C 
BRANCH   2   3
ATOM      3  N   UNL A   1      31.598  25.804  26.944  1.00  0.00    -0.354 N 
ATOM      4  C   UNL A   1      31.887  24.481  26.714  1.00  0.00     0.243 C 
ATOM      5  O   UNL A   1      31.094  23.650  27.164  1.00  0.00    -0.273 OA
ATOM      6  H   UNL A   1      30.669  25.996  27.206  1.00  0.00     0.163 HD
BRANCH   4   7
ATOM      7  C   UNL A   1      33.131  24.097  25.867  1.00  0.00     0.185 C 
ATOM      8  C   UNL A   1      33.708  22.187  24.411  1.00  0.00     0.144 C 
ATOM      9  S   UNL A   1      34.211  21.630  26.044  1.00  0.00    -0.134 SA
ATOM     10  N   UNL A   1      32.807  23.308  24.654  1.00  0.00    -0.314 N 
ATOM     11  C   UNL A   1      34.134  23.296  26.713  1.00  0.00     0.107 C 
BRANCH   8  12
ATOM     12  C   UNL A   1      34.903  22.646  23.547  1.00  0.00     0.033 C 
ATOM     13  C   UNL A   1      36.269  22.303  24.123  1.00  0.00     0.007 C 
ENDBRANCH   8  12
BRANCH  10  14
ATOM     14  C   UNL A   1      31.966  23.833  23.680  1.00  0.00     0.258 C 
ATOM     15  O   UNL A   1      31.133  23.163  23.077  1.00  0.00    -0.269 OA
BRANCH  14  16
ATOM     16  C   UNL A   1      32.047  25.284  23.379  1.00  0.00     0.079 A 
ATOM     17  C   UNL A   1      33.274  25.828  22.971  1.00  0.00     0.020 A 
ATOM     18  C   UNL A   1      30.931  26.117  23.500  1.00  0.00     0.174 A 
ATOM     19  C   UNL A   1      33.353  27.177  22.610  1.00  0.00     0.043 A 
ATOM     20  C   UNL A   1      31.009  27.451  23.123  1.00  0.00     0.195 A 
ATOM     21  F   UNL A   1      29.756  25.638  23.936  1.00  0.00    -0.203 F 
ATOM     22  C   UNL A   1      32.213  27.974  22.670  1.00  0.00     0.161 A 
ATOM     23  F   UNL A   1      29.916  28.227  23.166  1.00  0.00    -0.200 F 
ATOM     24  F   UNL A   1      32.284  29.253  22.277  1.00  0.00    -0.204 F 
ENDBRANCH  14  16
ENDBRANCH  10  14
ENDBRANCH   4   7
ENDBRANCH   2   3
ENDBRANCH   1   2
BRANCH   1  25
ATOM     25  C   UNL A   1      32.643  29.364  25.988  1.00  0.00     0.118 C 
BRANCH  25  26
ATOM     26  N   UNL A   1      32.279  30.726  26.366  1.00  0.00    -0.352 N 
ATOM     27  C   UNL A   1      32.948  31.661  27.131  1.00  0.00     0.251 C 
ATOM     28  H   UNL A   1      31.409  31.028  26.017  1.00  0.00     0.163 HD
ATOM     29  O   UNL A   1      32.403  32.717  27.413  1.00  0.00    -0.269 OA
BRANCH  27  30
ATOM     30  C   UNL A   1      34.306  31.368  27.644  1.00  0.00     0.039 A 
ATOM     31  C   UNL A   1      35.243  32.403  27.735  1.00  0.00     0.014 A 
ATOM     32  C   UNL A   1      34.651  30.084  28.057  1.00  0.00     0.014 A 
ATOM     33  C   UNL A   1      36.482  32.168  28.343  1.00  0.00     0.010 A 
ATOM     34  C   UNL A   1      35.824  29.882  28.770  1.00  0.00     0.010 A 
ATOM     35  C   UNL A   1      36.760  30.919  28.918  1.00  0.00    -0.014 A 
BRANCH  35  36
ATOM     36  C   UNL A   1      38.013  30.629  29.666  1.00  0.00     0.031 A 
ATOM     37  C   UNL A   1      39.017  29.674  29.072  1.00  0.00     0.074 A 
ATOM     38  C   UNL A   1      38.179  31.089  30.923  1.00  0.00     0.049 A 
ATOM     39  N   UNL A   1      40.041  29.092  29.638  1.00  0.00    -0.248 NA
ATOM     40  C   UNL A   1      38.806  29.279  27.668  1.00  0.00     0.031 C 
ATOM     41  C   UNL A   1      37.250  31.966  31.640  1.00  0.00     0.029 A 
ATOM     42  N   UNL A   1      39.171  30.842  31.841  1.00  0.00    -0.354 N 
ATOM     43  C   UNL A   1      40.546  28.211  28.689  1.00  0.00     0.074 A 
ATOM     44  C   UNL A   1      39.698  28.313  27.522  1.00  0.00     0.031 C 
ATOM     45  C   UNL A   1      37.714  32.180  32.882  1.00  0.00     0.029 A 
ATOM     46  C   UNL A   1      38.946  31.421  33.069  1.00  0.00     0.049 A 
ATOM     47  H   UNL A   1      39.968  30.300  31.639  1.00  0.00     0.167 HD
ATOM     48  C   UNL A   1      41.633  27.409  28.769  1.00  0.00     0.034 A 
ATOM     49  C   UNL A   1      39.642  31.336  34.221  1.00  0.00     0.034 A 
ATOM     50  C   UNL A   1      42.523  27.382  29.895  1.00  0.00     0.049 A 
ATOM     51  C   UNL A   1      40.895  30.502  34.256  1.00  0.00     0.074 A 
ATOM     52  C   UNL A   1      43.710  26.684  30.037  1.00  0.00     0.029 A 
ATOM     53  N   UNL A   1      42.332  28.096  31.068  1.00  0.00    -0.354 N 
ATOM     54  N   UNL A   1      41.427  29.773  33.305  1.00  0.00    -0.248 NA
ATOM     55  C   UNL A   1      41.664  30.502  35.511  1.00  0.00     0.031 C 
ATOM     56  C   UNL A   1      44.234  26.973  31.300  1.00  0.00     0.029 A 
ATOM     57  C   UNL A   1      43.383  27.865  31.935  1.00  0.00     0.049 A 
ATOM     58  H   UNL A   1      41.563  28.680  31.254  1.00  0.00     0.167 HD
ATOM     59  C   UNL A   1      42.613  29.270  33.826  1.00  0.00     0.074 A 
ATOM     60  C   UNL A   1      42.727  29.780  35.177  1.00  0.00     0.031 C 
ATOM     61  C   UNL A   1      43.521  28.451  33.243  1.00  0.00     0.034 A 
BRANCH  48  62
ATOM     62  C   UNL A   1      41.959  26.546  27.578  1.00  0.00     0.023 A 
ATOM     63  C   UNL A   1      42.643  27.104  26.479  1.00  0.00     0.012 A 
ATOM     64  C   UNL A   1      41.638  25.174  27.567  1.00  0.00     0.148 A 
ATOM     65  C   UNL A   1      42.964  26.324  25.369  1.00  0.00     0.002 A 
ATOM     66  C   UNL A   1      42.005  24.391  26.478  1.00  0.00     0.091 A 
ATOM     67  F   UNL A   1      40.969  24.663  28.611  1.00  0.00    -0.205 F 
ATOM     68  C   UNL A   1      42.655  24.967  25.374  1.00  0.00     0.022 A 
BRANCH  66  69
ATOM     69  S   UNL A   1      41.729  22.617  26.426  1.00  0.00     0.127 S 
ATOM     70  O   UNL A   1      42.341  22.186  27.682  1.00  0.00    -0.237 OA
ATOM     71  O   UNL A   1      40.268  22.533  26.399  1.00  0.00    -0.237 OA
ATOM     72  O   UNL A   1      42.385  22.146  25.215  1.00  0.00    -0.744 OA
ENDBRANCH  66  69
ENDBRANCH  48  62
BRANCH  49  73
ATOM     73  C   UNL A   1      39.212  32.121  35.414  1.00  0.00     0.023 A 
ATOM     74  C   UNL A   1      38.331  31.529  36.342  1.00  0.00     0.012 A 
ATOM     75  C   UNL A   1      39.683  33.427  35.654  1.00  0.00     0.148 A 
ATOM     76  C   UNL A   1      37.903  32.233  37.468  1.00  0.00     0.002 A 
ATOM     77  C   UNL A   1      39.295  34.103  36.805  1.00  0.00     0.091 A 
ATOM     78  F   UNL A   1      40.511  33.978  34.755  1.00  0.00    -0.205 F 
ATOM     79  C   UNL A   1      38.391  33.515  37.705  1.00  0.00     0.022 A 
BRANCH  77  80
ATOM     80  S   UNL A   1      39.975  35.704  37.259  1.00  0.00     0.127 S 
ATOM     81  O   UNL A   1      39.294  35.972  38.523  1.00  0.00    -0.237 OA
ATOM     82  O   UNL A   1      41.402  35.404  37.379  1.00  0.00    -0.237 OA
ATOM     83  O   UNL A   1      39.643  36.596  36.157  1.00  0.00    -0.744 OA
ENDBRANCH  77  80
ENDBRANCH  49  73
BRANCH  61  84
ATOM     84  C   UNL A   1      44.762  28.100  34.016  1.00  0.00     0.023 A 
ATOM     85  C   UNL A   1      45.870  28.968  34.002  1.00  0.00     0.012 A 
ATOM     86  C   UNL A   1      44.773  26.972  34.862  1.00  0.00     0.148 A 
ATOM     87  C   UNL A   1      46.977  28.712  34.810  1.00  0.00     0.002 A 
ATOM     88  C   UNL A   1      45.859  26.749  35.697  1.00  0.00     0.091 A 
ATOM     89  F   UNL A   1      43.712  26.152  34.845  1.00  0.00    -0.205 F 
ATOM     90  C   UNL A   1      46.965  27.613  35.667  1.00  0.00     0.022 A 
BRANCH  88  91
ATOM     91  S   UNL A   1      45.889  25.421  36.907  1.00  0.00     0.127 S 
ATOM     92  O   UNL A   1      44.702  25.720  37.706  1.00  0.00    -0.237 OA
ATOM     93  O   UNL A   1      45.775  24.231  36.063  1.00  0.00    -0.237 OA
ATOM     94  O   UNL A   1      47.159  25.544  37.610  1.00  0.00    -0.744 OA
ENDBRANCH  88  91
ENDBRANCH  61  84
ENDBRANCH  35  36
ENDBRANCH  27  30
ENDBRANCH  25  26
ENDBRANCH   1  25
TORSDOF 16
ENDMDL
MODEL 3
REMARK VINA RESULT:     -12.5      2.023      7.857
REMARK SMILES CC[C@H]1SC[C@H](C(=O)NCCCNC(=O)c2ccc(-c3c4nc(c(-c5cccc(S(=O)(=O)[O-])c5F)c5ccc([nH]5)c(-c5cccc(S(=O)(=O)[O-])c5F)c5nc(c(-c6cccc(S(=O)(=O)[O-])c6F)c6ccc3[nH]6)C=C5)C=C4)cc2)N1C(=O)c1ccc(F)c(F)c1F
REMARK SMILES IDX 11 1 10 2 9 3 7 4 8 5 6 7 3 8 4 9 79 10 5 11 2 12 1 13 80 14
REMARK SMILES IDX 81 15 82 16 83 17 89 18 84 19 87 20 90 21 85 22 88 23 86 24
REMARK SMILES IDX 12 25 13 26 14 27 15 29 16 30 17 31 78 32 18 33 77 34 19 35
REMARK SMILES IDX 20 36 21 37 71 38 22 39 76 40 70 41 72 42 23 43 75 44 69 45
REMARK SMILES IDX 68 46 24 48 56 49 36 50 55 51 37 52 40 53 54 54 73 55 38 56
REMARK SMILES IDX 39 57 53 59 74 60 41 61 25 62 26 63 34 64 27 65 29 66 35 67
REMARK SMILES IDX 28 68 30 69 31 70 32 71 33 72 57 73 58 74 66 75 59 76 61 77
REMARK SMILES IDX 67 78 60 79 62 80 63 81 64 82 65 83 42 84 43 85 51 86 44 87
REMARK SMILES IDX 46 88 52 89 45 90 47 91 48 92 49 93 50 94
REMARK H PARENT 9 6 13 28 72 47 40 58
REMARK Flexibility Score: inf
ROOT
ATOM      1  C   UNL A   1      31.777  28.779  26.500  1.00  0.00     0.042 C 
ENDROOT
BRANCH   1   2
ATOM      2  C   UNL A   1      32.443  27.421  26.608  1.00  0.00     0.117 C 
BRANCH   2   3
ATOM      3  N   UNL A   1      31.545  26.304  26.854  1.00  0.00    -0.354 N 
ATOM      4  C   UNL A   1      31.728  24.971  26.575  1.00  0.00     0.243 C 
ATOM      5  O   UNL A   1      30.995  24.172  27.164  1.00  0.00    -0.273 OA
ATOM      6  H   UNL A   1      30.689  26.534  27.281  1.00  0.00     0.163 HD
BRANCH   4   7
ATOM      7  C   UNL A   1      32.777  24.539  25.516  1.00  0.00     0.185 C 
ATOM      8  C   UNL A   1      33.015  22.596  24.009  1.00  0.00     0.144 C 
ATOM      9  S   UNL A   1      33.802  22.042  25.527  1.00  0.00    -0.134 SA
ATOM     10  N   UNL A   1      32.208  23.747  24.399  1.00  0.00    -0.314 N 
ATOM     11  C   UNL A   1      33.900  23.717  26.171  1.00  0.00     0.107 C 
BRANCH   8  12
ATOM     12  C   UNL A   1      34.036  23.008  22.927  1.00  0.00     0.033 C 
ATOM     13  C   UNL A   1      35.489  22.958  23.378  1.00  0.00     0.007 C 
ENDBRANCH   8  12
BRANCH  10  14
ATOM     14  C   UNL A   1      31.213  24.287  23.593  1.00  0.00     0.258 C 
ATOM     15  O   UNL A   1      30.288  23.626  23.130  1.00  0.00    -0.269 OA
BRANCH  14  16
ATOM     16  C   UNL A   1      31.242  25.744  23.308  1.00  0.00     0.079 A 
ATOM     17  C   UNL A   1      32.383  26.298  22.710  1.00  0.00     0.020 A 
ATOM     18  C   UNL A   1      30.162  26.570  23.628  1.00  0.00     0.174 A 
ATOM     19  C   UNL A   1      32.401  27.653  22.363  1.00  0.00     0.043 A 
ATOM     20  C   UNL A   1      30.176  27.911  23.266  1.00  0.00     0.195 A 
ATOM     21  F   UNL A   1      29.076  26.080  24.245  1.00  0.00    -0.203 F 
ATOM     22  C   UNL A   1      31.287  28.445  22.627  1.00  0.00     0.161 A 
ATOM     23  F   UNL A   1      29.105  28.682  23.505  1.00  0.00    -0.200 F 
ATOM     24  F   UNL A   1      31.291  29.731  22.251  1.00  0.00    -0.204 F 
ENDBRANCH  14  16
ENDBRANCH  10  14
ENDBRANCH   4   7
ENDBRANCH   2   3
ENDBRANCH   1   2
BRANCH   1  25
ATOM     25  C   UNL A   1      32.594  29.841  25.783  1.00  0.00     0.118 C 
BRANCH  25  26
ATOM     26  N   UNL A   1      32.417  31.189  26.313  1.00  0.00    -0.352 N 
ATOM     27  C   UNL A   1      33.167  31.908  27.224  1.00  0.00     0.251 C 
ATOM     28  H   UNL A   1      31.631  31.666  25.964  1.00  0.00     0.163 HD
ATOM     29  O   UNL A   1      32.772  32.997  27.612  1.00  0.00    -0.269 OA
BRANCH  27  30
ATOM     30  C   UNL A   1      34.426  31.342  27.762  1.00  0.00     0.039 A 
ATOM     31  C   UNL A   1      35.506  32.193  28.020  1.00  0.00     0.014 A 
ATOM     32  C   UNL A   1      34.537  29.981  28.034  1.00  0.00     0.014 A 
ATOM     33  C   UNL A   1      36.650  31.694  28.654  1.00  0.00     0.010 A 
ATOM     34  C   UNL A   1      35.615  29.513  28.772  1.00  0.00     0.010 A 
ATOM     35  C   UNL A   1      36.690  30.360  29.087  1.00  0.00    -0.014 A 
BRANCH  35  36
ATOM     36  C   UNL A   1      37.830  29.789  29.854  1.00  0.00     0.031 A 
ATOM     37  C   UNL A   1      38.089  30.278  31.256  1.00  0.00     0.074 A 
ATOM     38  C   UNL A   1      38.712  28.964  29.253  1.00  0.00     0.049 A 
ATOM     39  N   UNL A   1      39.143  30.113  32.010  1.00  0.00    -0.248 NA
ATOM     40  C   UNL A   1      37.041  31.113  31.870  1.00  0.00     0.031 C 
ATOM     41  C   UNL A   1      38.616  28.469  27.878  1.00  0.00     0.029 A 
ATOM     42  N   UNL A   1      39.894  28.434  29.710  1.00  0.00    -0.354 N 
ATOM     43  C   UNL A   1      38.919  30.880  33.146  1.00  0.00     0.074 A 
ATOM     44  C   UNL A   1      37.642  31.535  32.971  1.00  0.00     0.031 C 
ATOM     45  C   UNL A   1      39.690  27.711  27.604  1.00  0.00     0.029 A 
ATOM     46  C   UNL A   1      40.576  27.703  28.764  1.00  0.00     0.049 A 
ATOM     47  H   UNL A   1      40.222  28.564  30.629  1.00  0.00     0.167 HD
ATOM     48  C   UNL A   1      39.691  31.008  34.251  1.00  0.00     0.034 A 
ATOM     49  C   UNL A   1      41.786  27.110  28.817  1.00  0.00     0.034 A 
ATOM     50  C   UNL A   1      40.912  30.282  34.458  1.00  0.00     0.049 A 
ATOM     51  C   UNL A   1      42.587  27.199  30.089  1.00  0.00     0.074 A 
ATOM     52  C   UNL A   1      41.718  30.257  35.582  1.00  0.00     0.029 A 
ATOM     53  N   UNL A   1      41.496  29.439  33.525  1.00  0.00    -0.354 N 
ATOM     54  N   UNL A   1      42.299  27.828  31.202  1.00  0.00    -0.248 NA
ATOM     55  C   UNL A   1      43.865  26.471  30.126  1.00  0.00     0.031 C 
ATOM     56  C   UNL A   1      42.794  29.403  35.326  1.00  0.00     0.029 A 
ATOM     57  C   UNL A   1      42.647  28.882  34.050  1.00  0.00     0.049 A 
ATOM     58  H   UNL A   1      41.144  29.265  32.623  1.00  0.00     0.167 HD
ATOM     59  C   UNL A   1      43.329  27.532  32.086  1.00  0.00     0.074 A 
ATOM     60  C   UNL A   1      44.249  26.663  31.382  1.00  0.00     0.031 C 
ATOM     61  C   UNL A   1      43.503  27.951  33.363  1.00  0.00     0.034 A 
BRANCH  48  62
ATOM     62  C   UNL A   1      39.203  31.915  35.349  1.00  0.00     0.023 A 
ATOM     63  C   UNL A   1      38.245  31.442  36.269  1.00  0.00     0.012 A 
ATOM     64  C   UNL A   1      39.727  33.214  35.505  1.00  0.00     0.148 A 
ATOM     65  C   UNL A   1      37.784  32.259  37.301  1.00  0.00     0.002 A 
ATOM     66  C   UNL A   1      39.299  34.005  36.564  1.00  0.00     0.091 A 
ATOM     67  F   UNL A   1      40.621  33.655  34.609  1.00  0.00    -0.205 F 
ATOM     68  C   UNL A   1      38.319  33.535  37.454  1.00  0.00     0.022 A 
BRANCH  66  69
ATOM     69  S   UNL A   1      39.989  35.629  36.898  1.00  0.00     0.127 S 
ATOM     70  O   UNL A   1      39.314  35.987  38.145  1.00  0.00    -0.237 OA
ATOM     71  O   UNL A   1      41.416  35.336  37.041  1.00  0.00    -0.237 OA
ATOM     72  O   UNL A   1      39.653  36.451  35.745  1.00  0.00    -0.744 OA
ENDBRANCH  66  69
ENDBRANCH  48  62
BRANCH  49  73
ATOM     73  C   UNL A   1      42.280  26.316  27.654  1.00  0.00     0.023 A 
ATOM     74  C   UNL A   1      43.119  26.939  26.707  1.00  0.00     0.012 A 
ATOM     75  C   UNL A   1      41.956  24.955  27.493  1.00  0.00     0.148 A 
ATOM     76  C   UNL A   1      43.599  26.230  25.605  1.00  0.00     0.002 A 
ATOM     77  C   UNL A   1      42.481  24.241  26.421  1.00  0.00     0.091 A 
ATOM     78  F   UNL A   1      41.149  24.382  28.397  1.00  0.00    -0.205 F 
ATOM     79  C   UNL A   1      43.288  24.881  25.466  1.00  0.00     0.022 A 
BRANCH  77  80
ATOM     80  S   UNL A   1      42.242  22.469  26.234  1.00  0.00     0.127 S 
ATOM     81  O   UNL A   1      42.848  21.954  27.459  1.00  0.00    -0.237 OA
ATOM     82  O   UNL A   1      40.784  22.364  26.175  1.00  0.00    -0.237 OA
ATOM     83  O   UNL A   1      42.916  22.113  24.993  1.00  0.00    -0.744 OA
ENDBRANCH  77  80
ENDBRANCH  49  73
BRANCH  61  84
ATOM     84  C   UNL A   1      44.689  27.429  34.127  1.00  0.00     0.023 A 
ATOM     85  C   UNL A   1      45.897  28.153  34.132  1.00  0.00     0.012 A 
ATOM     86  C   UNL A   1      44.559  26.289  34.944  1.00  0.00     0.148 A 
ATOM     87  C   UNL A   1      46.962  27.741  34.932  1.00  0.00     0.002 A 
ATOM     88  C   UNL A   1      45.607  25.912  35.773  1.00  0.00     0.091 A 
ATOM     89  F   UNL A   1      43.403  25.608  34.909  1.00  0.00    -0.205 F 
ATOM     90  C   UNL A   1      46.812  26.632  35.762  1.00  0.00     0.022 A 
BRANCH  88  91
ATOM     91  S   UNL A   1      45.469  24.561  36.949  1.00  0.00     0.127 S 
ATOM     92  O   UNL A   1      46.633  24.793  37.804  1.00  0.00    -0.237 OA
ATOM     93  O   UNL A   1      44.180  24.833  37.584  1.00  0.00    -0.237 OA
ATOM     94  O   UNL A   1      45.510  23.335  36.162  1.00  0.00    -0.744 OA
ENDBRANCH  88  91
ENDBRANCH  61  84
ENDBRANCH  35  36
ENDBRANCH  27  30
ENDBRANCH  25  26
ENDBRANCH   1  25
TORSDOF 16
ENDMDL
