MODEL 1
REMARK VINA RESULT:     -12.3      0.000      0.000
REMARK SMILES CC(=O)N1CCN(c2c(Cl)cccc2[C@@H]2C[C@H](C(=O)NCCCNC(=O)c3ccc(-c4c5nc(c(-c6cccc(S(=O)(=O)[O-])c6F)c6ccc([nH]6)c(-c6cccc(S(=O)(=O)[O-])c6F)c6nc(c(-c7cccc(S(=O)(=O)[O-])c7F)c7ccc4[nH]7)C=C6)C=C5)cc3)CC2=O)CC1
REMARK SMILES IDX 22 1 21 2 20 3 18 4 19 5 17 7 15 8 16 9 91 10 90 11 92 12
REMARK SMILES IDX 14 13 8 14 9 15 10 16 11 17 13 18 12 19 7 20 1 21 2 22 3 23
REMARK SMILES IDX 4 24 5 25 94 26 6 27 93 28 23 29 24 30 25 31 26 33 27 34
REMARK SMILES IDX 28 35 89 36 29 37 88 38 30 39 31 40 32 41 82 42 33 43 87 44
REMARK SMILES IDX 81 45 83 46 34 47 86 48 80 49 79 50 35 52 67 53 47 54 66 55
REMARK SMILES IDX 48 56 51 57 65 58 84 59 49 60 50 61 64 63 85 64 52 65 36 66
REMARK SMILES IDX 37 67 45 68 38 69 40 70 46 71 39 72 41 73 42 74 43 75 44 76
REMARK SMILES IDX 68 77 69 78 77 79 70 80 72 81 78 82 71 83 73 84 74 85 75 86
REMARK SMILES IDX 76 87 53 88 54 89 62 90 55 91 57 92 63 93 56 94 58 95 59 96
REMARK SMILES IDX 60 97 61 98
REMARK H PARENT 20 6 24 32 83 51 51 62
REMARK Flexibility Score: inf
ROOT
ATOM      1  C   UNL A   1      36.560  22.157  23.962  1.00  0.00     0.042 C 
ENDROOT
BRANCH   1   2
ATOM      2  C   UNL A   1      35.558  23.153  23.410  1.00  0.00     0.117 C 
BRANCH   2   3
ATOM      3  N   UNL A   1      34.232  22.593  23.207  1.00  0.00    -0.356 N 
ATOM      4  C   UNL A   1      33.095  22.734  23.947  1.00  0.00     0.223 C 
ATOM      5  O   UNL A   1      32.059  22.241  23.504  1.00  0.00    -0.275 OA
ATOM      6  H   UNL A   1      34.140  22.023  22.408  1.00  0.00     0.163 HD
BRANCH   4   7
ATOM      7  C   UNL A   1      33.156  23.444  25.298  1.00  0.00     0.087 C 
ATOM      8  C   UNL A   1      31.793  25.422  25.993  1.00  0.00     0.089 C 
ATOM      9  C   UNL A   1      32.992  24.960  25.171  1.00  0.00     0.030 C 
ATOM     10  C   UNL A   1      31.219  24.142  26.536  1.00  0.00     0.141 C 
ATOM     11  C   UNL A   1      32.085  22.946  26.269  1.00  0.00     0.089 C 
ATOM     12  O   UNL A   1      30.185  24.079  27.195  1.00  0.00    -0.299 OA
BRANCH   8  13
ATOM     13  C   UNL A   1      30.862  26.263  25.139  1.00  0.00    -0.013 A 
ATOM     14  C   UNL A   1      31.043  27.662  24.998  1.00  0.00     0.060 A 
ATOM     15  C   UNL A   1      30.145  28.358  24.149  1.00  0.00     0.064 A 
ATOM     16  Cl  UNL A   1      30.281  30.067  23.880  1.00  0.00    -0.082 Cl
ATOM     17  C   UNL A   1      29.138  27.695  23.442  1.00  0.00     0.023 A 
ATOM     18  C   UNL A   1      29.845  25.612  24.402  1.00  0.00     0.007 A 
ATOM     19  C   UNL A   1      28.994  26.320  23.562  1.00  0.00     0.002 A 
BRANCH  14  20
ATOM     20  N   UNL A   1      32.079  28.325  25.636  1.00  0.00    -0.367 N 
ATOM     21  C   UNL A   1      36.502  30.083  27.135  1.00  0.00     0.114 C 
ATOM     22  C   UNL A   1      35.296  29.629  27.914  1.00  0.00     0.219 C 
ATOM     23  O   UNL A   1      35.151  29.981  29.084  1.00  0.00    -0.275 OA
ATOM     24  N   UNL A   1      34.361  28.863  27.244  1.00  0.00    -0.339 N 
ATOM     25  C   UNL A   1      33.073  28.571  27.886  1.00  0.00     0.141 C 
ATOM     26  C   UNL A   1      34.541  28.223  25.933  1.00  0.00     0.141 C 
ATOM     27  C   UNL A   1      31.902  28.941  26.957  1.00  0.00     0.138 C 
ATOM     28  C   UNL A   1      33.372  28.514  24.968  1.00  0.00     0.138 C 
ENDBRANCH  14  20
ENDBRANCH   8  13
ENDBRANCH   4   7
ENDBRANCH   2   3
ENDBRANCH   1   2
BRANCH   1  29
ATOM     29  C   UNL A   1      37.206  22.573  25.272  1.00  0.00     0.118 C 
BRANCH  29  30
ATOM     30  N   UNL A   1      38.126  21.574  25.803  1.00  0.00    -0.352 N 
ATOM     31  C   UNL A   1      39.301  21.735  26.499  1.00  0.00     0.251 C 
ATOM     32  H   UNL A   1      37.866  20.639  25.638  1.00  0.00     0.163 HD
ATOM     33  O   UNL A   1      40.009  20.756  26.726  1.00  0.00    -0.269 OA
BRANCH  31  34
ATOM     34  C   UNL A   1      39.726  23.079  26.947  1.00  0.00     0.039 A 
ATOM     35  C   UNL A   1      40.721  23.187  27.923  1.00  0.00     0.014 A 
ATOM     36  C   UNL A   1      39.156  24.233  26.404  1.00  0.00     0.014 A 
ATOM     37  C   UNL A   1      41.193  24.449  28.294  1.00  0.00     0.010 A 
ATOM     38  C   UNL A   1      39.702  25.478  26.694  1.00  0.00     0.010 A 
ATOM     39  C   UNL A   1      40.718  25.604  27.651  1.00  0.00    -0.014 A 
BRANCH  39  40
ATOM     40  C   UNL A   1      41.266  26.950  27.962  1.00  0.00     0.031 A 
ATOM     41  C   UNL A   1      42.687  27.293  27.598  1.00  0.00     0.074 A 
ATOM     42  C   UNL A   1      40.517  27.833  28.652  1.00  0.00     0.049 A 
ATOM     43  N   UNL A   1      43.356  28.391  27.834  1.00  0.00    -0.248 NA
ATOM     44  C   UNL A   1      43.471  26.253  26.908  1.00  0.00     0.031 C 
ATOM     45  C   UNL A   1      39.153  27.595  29.133  1.00  0.00     0.029 A 
ATOM     46  N   UNL A   1      40.804  29.102  29.091  1.00  0.00    -0.354 N 
ATOM     47  C   UNL A   1      44.645  28.160  27.365  1.00  0.00     0.074 A 
ATOM     48  C   UNL A   1      44.674  26.805  26.864  1.00  0.00     0.031 C 
ATOM     49  C   UNL A   1      38.718  28.687  29.781  1.00  0.00     0.029 A 
ATOM     50  C   UNL A   1      39.779  29.688  29.797  1.00  0.00     0.049 A 
ATOM     51  H   UNL A   1      41.662  29.551  28.916  1.00  0.00     0.167 HD
ATOM     52  C   UNL A   1      45.701  29.007  27.328  1.00  0.00     0.034 A 
ATOM     53  C   UNL A   1      39.704  30.893  30.395  1.00  0.00     0.034 A 
ATOM     54  C   UNL A   1      45.654  30.369  27.785  1.00  0.00     0.049 A 
ATOM     55  C   UNL A   1      40.881  31.827  30.309  1.00  0.00     0.074 A 
ATOM     56  C   UNL A   1      46.637  31.339  27.695  1.00  0.00     0.029 A 
ATOM     57  N   UNL A   1      44.574  30.951  28.430  1.00  0.00    -0.354 N 
ATOM     58  N   UNL A   1      42.034  31.648  29.713  1.00  0.00    -0.248 NA
ATOM     59  C   UNL A   1      40.732  33.142  30.950  1.00  0.00     0.031 C 
ATOM     60  C   UNL A   1      46.164  32.497  28.322  1.00  0.00     0.029 A 
ATOM     61  C   UNL A   1      44.872  32.260  28.764  1.00  0.00     0.049 A 
ATOM     62  H   UNL A   1      43.722  30.499  28.623  1.00  0.00     0.167 HD
ATOM     63  C   UNL A   1      42.732  32.842  29.868  1.00  0.00     0.074 A 
ATOM     64  C   UNL A   1      41.863  33.740  30.600  1.00  0.00     0.031 C 
ATOM     65  C   UNL A   1      43.981  33.162  29.449  1.00  0.00     0.034 A 
BRANCH  52  66
ATOM     66  C   UNL A   1      46.991  28.494  26.741  1.00  0.00     0.023 A 
ATOM     67  C   UNL A   1      48.062  28.149  27.590  1.00  0.00     0.012 A 
ATOM     68  C   UNL A   1      47.125  28.304  25.351  1.00  0.00     0.148 A 
ATOM     69  C   UNL A   1      49.261  27.666  27.064  1.00  0.00     0.002 A 
ATOM     70  C   UNL A   1      48.303  27.775  24.839  1.00  0.00     0.091 A 
ATOM     71  F   UNL A   1      46.104  28.658  24.556  1.00  0.00    -0.205 F 
ATOM     72  C   UNL A   1      49.376  27.469  25.691  1.00  0.00     0.022 A 
BRANCH  70  73
ATOM     73  S   UNL A   1      48.520  27.404  23.094  1.00  0.00     0.127 S 
ATOM     74  O   UNL A   1      49.911  27.798  22.881  1.00  0.00    -0.237 OA
ATOM     75  O   UNL A   1      48.280  25.961  23.055  1.00  0.00    -0.237 OA
ATOM     76  O   UNL A   1      47.527  28.202  22.388  1.00  0.00    -0.744 OA
ENDBRANCH  70  73
ENDBRANCH  52  66
BRANCH  53  77
ATOM     77  C   UNL A   1      38.443  31.317  31.069  1.00  0.00     0.023 A 
ATOM     78  C   UNL A   1      38.214  30.936  32.406  1.00  0.00     0.012 A 
ATOM     79  C   UNL A   1      37.482  32.104  30.406  1.00  0.00     0.148 A 
ATOM     80  C   UNL A   1      37.037  31.301  33.059  1.00  0.00     0.002 A 
ATOM     81  C   UNL A   1      36.336  32.510  31.080  1.00  0.00     0.091 A 
ATOM     82  F   UNL A   1      37.714  32.449  29.132  1.00  0.00    -0.205 F 
ATOM     83  C   UNL A   1      36.103  32.094  32.399  1.00  0.00     0.022 A 
BRANCH  81  84
ATOM     84  S   UNL A   1      35.139  33.636  30.355  1.00  0.00     0.127 S 
ATOM     85  O   UNL A   1      34.864  34.538  31.469  1.00  0.00    -0.237 OA
ATOM     86  O   UNL A   1      35.908  34.225  29.258  1.00  0.00    -0.237 OA
ATOM     87  O   UNL A   1      34.024  32.802  29.926  1.00  0.00    -0.744 OA
ENDBRANCH  81  84
ENDBRANCH  53  77
BRANCH  65  88
ATOM     88  C   UNL A   1      44.477  34.557  29.726  1.00  0.00     0.023 A 
ATOM     89  C   UNL A   1      45.195  34.832  30.907  1.00  0.00     0.012 A 
ATOM     90  C   UNL A   1      44.290  35.582  28.777  1.00  0.00     0.148 A 
ATOM     91  C   UNL A   1      45.686  36.113  31.156  1.00  0.00     0.002 A 
ATOM     92  C   UNL A   1      44.830  36.841  29.006  1.00  0.00     0.091 A 
ATOM     93  F   UNL A   1      43.589  35.306  27.668  1.00  0.00    -0.205 F 
ATOM     94  C   UNL A   1      45.515  37.113  30.201  1.00  0.00     0.022 A 
BRANCH  92  95
ATOM     95  S   UNL A   1      44.749  38.159  27.789  1.00  0.00     0.127 S 
ATOM     96  O   UNL A   1      43.306  38.359  27.661  1.00  0.00    -0.237 OA
ATOM     97  O   UNL A   1      45.458  39.248  28.464  1.00  0.00    -0.237 OA
ATOM     98  O   UNL A   1      45.416  37.650  26.599  1.00  0.00    -0.744 OA
ENDBRANCH  92  95
ENDBRANCH  65  88
ENDBRANCH  39  40
ENDBRANCH  31  34
ENDBRANCH  29  30
ENDBRANCH   1  29
TORSDOF 15
ENDMDL
MODEL 2
REMARK VINA RESULT:     -12.1      2.404      8.039
REMARK SMILES CC(=O)N1CCN(c2c(Cl)cccc2[C@@H]2C[C@H](C(=O)NCCCNC(=O)c3ccc(-c4c5nc(c(-c6cccc(S(=O)(=O)[O-])c6F)c6ccc([nH]6)c(-c6cccc(S(=O)(=O)[O-])c6F)c6nc(c(-c7cccc(S(=O)(=O)[O-])c7F)c7ccc4[nH]7)C=C6)C=C5)cc3)CC2=O)CC1
REMARK SMILES IDX 22 1 21 2 20 3 18 4 19 5 17 7 15 8 16 9 91 10 90 11 92 12
REMARK SMILES IDX 14 13 8 14 9 15 10 16 11 17 13 18 12 19 7 20 1 21 2 22 3 23
REMARK SMILES IDX 4 24 5 25 94 26 6 27 93 28 23 29 24 30 25 31 26 33 27 34
REMARK SMILES IDX 28 35 89 36 29 37 88 38 30 39 31 40 32 41 82 42 33 43 87 44
REMARK SMILES IDX 81 45 83 46 34 47 86 48 80 49 79 50 35 52 67 53 47 54 66 55
REMARK SMILES IDX 48 56 51 57 65 58 84 59 49 60 50 61 64 63 85 64 52 65 36 66
REMARK SMILES IDX 37 67 45 68 38 69 40 70 46 71 39 72 41 73 42 74 43 75 44 76
REMARK SMILES IDX 68 77 69 78 77 79 70 80 72 81 78 82 71 83 73 84 74 85 75 86
REMARK SMILES IDX 76 87 53 88 54 89 62 90 55 91 57 92 63 93 56 94 58 95 59 96
REMARK SMILES IDX 60 97 61 98
REMARK H PARENT 20 6 24 32 83 51 51 62
REMARK Flexibility Score: inf
ROOT
ATOM      1  C   UNL A   1      37.987  20.289  25.039  1.00  0.00     0.042 C 
ENDROOT
BRANCH   1   2
ATOM      2  C   UNL A   1      36.807  21.227  25.212  1.00  0.00     0.117 C 
BRANCH   2   3
ATOM      3  N   UNL A   1      35.543  20.541  25.423  1.00  0.00    -0.356 N 
ATOM      4  C   UNL A   1      34.401  20.971  26.033  1.00  0.00     0.223 C 
ATOM      5  O   UNL A   1      33.417  20.233  25.990  1.00  0.00    -0.275 OA
ATOM      6  H   UNL A   1      35.505  19.622  25.069  1.00  0.00     0.163 HD
BRANCH   4   7
ATOM      7  C   UNL A   1      34.396  22.305  26.774  1.00  0.00     0.087 C 
ATOM      8  C   UNL A   1      33.331  24.429  25.993  1.00  0.00     0.089 C 
ATOM      9  C   UNL A   1      34.530  23.501  25.829  1.00  0.00     0.030 C 
ATOM     10  C   UNL A   1      32.461  23.714  26.991  1.00  0.00     0.141 C 
ATOM     11  C   UNL A   1      33.124  22.512  27.599  1.00  0.00     0.089 C 
ATOM     12  O   UNL A   1      31.350  24.103  27.338  1.00  0.00    -0.299 OA
BRANCH   8  13
ATOM     13  C   UNL A   1      32.699  24.717  24.643  1.00  0.00    -0.013 A 
ATOM     14  C   UNL A   1      32.349  26.034  24.253  1.00  0.00     0.060 A 
ATOM     15  C   UNL A   1      31.798  26.210  22.958  1.00  0.00     0.064 A 
ATOM     16  Cl  UNL A   1      31.353  27.778  22.360  1.00  0.00    -0.082 Cl
ATOM     17  C   UNL A   1      31.637  25.139  22.074  1.00  0.00     0.023 A 
ATOM     18  C   UNL A   1      32.540  23.651  23.727  1.00  0.00     0.007 A 
ATOM     19  C   UNL A   1      32.017  23.860  22.457  1.00  0.00     0.002 A 
BRANCH  14  20
ATOM     20  N   UNL A   1      32.566  27.118  25.088  1.00  0.00    -0.367 N 
ATOM     21  C   UNL A   1      32.347  31.463  27.533  1.00  0.00     0.114 C 
ATOM     22  C   UNL A   1      33.511  30.708  26.947  1.00  0.00     0.219 C 
ATOM     23  O   UNL A   1      34.655  30.949  27.329  1.00  0.00    -0.275 OA
ATOM     24  N   UNL A   1      33.225  29.721  26.024  1.00  0.00    -0.339 N 
ATOM     25  C   UNL A   1      34.293  28.817  25.580  1.00  0.00     0.141 C 
ATOM     26  C   UNL A   1      31.934  29.504  25.356  1.00  0.00     0.141 C 
ATOM     27  C   UNL A   1      33.866  27.346  25.733  1.00  0.00     0.138 C 
ATOM     28  C   UNL A   1      31.471  28.033  25.429  1.00  0.00     0.138 C 
ENDBRANCH  14  20
ENDBRANCH   8  13
ENDBRANCH   4   7
ENDBRANCH   2   3
ENDBRANCH   1   2
BRANCH   1  29
ATOM     29  C   UNL A   1      39.087  20.465  26.071  1.00  0.00     0.118 C 
BRANCH  29  30
ATOM     30  N   UNL A   1      40.088  19.405  26.032  1.00  0.00    -0.352 N 
ATOM     31  C   UNL A   1      41.459  19.481  26.093  1.00  0.00     0.251 C 
ATOM     32  H   UNL A   1      39.725  18.493  25.948  1.00  0.00     0.163 HD
ATOM     33  O   UNL A   1      42.131  18.472  25.889  1.00  0.00    -0.269 OA
BRANCH  31  34
ATOM     34  C   UNL A   1      42.125  20.772  26.374  1.00  0.00     0.039 A 
ATOM     35  C   UNL A   1      42.493  21.594  25.306  1.00  0.00     0.014 A 
ATOM     36  C   UNL A   1      42.379  21.180  27.685  1.00  0.00     0.014 A 
ATOM     37  C   UNL A   1      43.044  22.853  25.558  1.00  0.00     0.010 A 
ATOM     38  C   UNL A   1      42.824  22.473  27.935  1.00  0.00     0.010 A 
ATOM     39  C   UNL A   1      43.174  23.322  26.876  1.00  0.00    -0.014 A 
BRANCH  39  40
ATOM     40  C   UNL A   1      43.673  24.690  27.170  1.00  0.00     0.031 A 
ATOM     41  C   UNL A   1      42.736  25.740  27.707  1.00  0.00     0.074 A 
ATOM     42  C   UNL A   1      44.947  25.015  26.872  1.00  0.00     0.049 A 
ATOM     43  N   UNL A   1      42.973  26.998  27.973  1.00  0.00    -0.248 NA
ATOM     44  C   UNL A   1      41.339  25.333  27.943  1.00  0.00     0.031 C 
ATOM     45  C   UNL A   1      45.935  24.112  26.275  1.00  0.00     0.029 A 
ATOM     46  N   UNL A   1      45.625  26.202  27.007  1.00  0.00    -0.354 N 
ATOM     47  C   UNL A   1      41.754  27.541  28.364  1.00  0.00     0.074 A 
ATOM     48  C   UNL A   1      40.771  26.486  28.263  1.00  0.00     0.031 C 
ATOM     49  C   UNL A   1      47.094  24.771  26.115  1.00  0.00     0.029 A 
ATOM     50  C   UNL A   1      46.925  26.150  26.559  1.00  0.00     0.049 A 
ATOM     51  H   UNL A   1      45.219  27.013  27.390  1.00  0.00     0.167 HD
ATOM     52  C   UNL A   1      41.480  28.796  28.793  1.00  0.00     0.034 A 
ATOM     53  C   UNL A   1      47.872  27.108  26.506  1.00  0.00     0.034 A 
ATOM     54  C   UNL A   1      42.469  29.829  28.935  1.00  0.00     0.049 A 
ATOM     55  C   UNL A   1      47.550  28.484  27.022  1.00  0.00     0.074 A 
ATOM     56  C   UNL A   1      42.314  31.100  29.459  1.00  0.00     0.029 A 
ATOM     57  N   UNL A   1      43.792  29.719  28.538  1.00  0.00    -0.354 N 
ATOM     58  N   UNL A   1      46.433  28.930  27.543  1.00  0.00    -0.248 NA
ATOM     59  C   UNL A   1      48.630  29.480  26.972  1.00  0.00     0.031 C 
ATOM     60  C   UNL A   1      43.536  31.772  29.344  1.00  0.00     0.029 A 
ATOM     61  C   UNL A   1      44.462  30.904  28.786  1.00  0.00     0.049 A 
ATOM     62  H   UNL A   1      44.196  28.915  28.138  1.00  0.00     0.167 HD
ATOM     63  C   UNL A   1      46.688  30.243  27.924  1.00  0.00     0.074 A 
ATOM     64  C   UNL A   1      48.071  30.513  27.588  1.00  0.00     0.031 C 
ATOM     65  C   UNL A   1      45.851  31.146  28.493  1.00  0.00     0.034 A 
BRANCH  52  66
ATOM     66  C   UNL A   1      40.057  29.111  29.175  1.00  0.00     0.023 A 
ATOM     67  C   UNL A   1      39.099  29.364  28.171  1.00  0.00     0.012 A 
ATOM     68  C   UNL A   1      39.655  29.107  30.524  1.00  0.00     0.148 A 
ATOM     69  C   UNL A   1      37.775  29.651  28.505  1.00  0.00     0.002 A 
ATOM     70  C   UNL A   1      38.324  29.343  30.848  1.00  0.00     0.091 A 
ATOM     71  F   UNL A   1      40.582  28.886  31.467  1.00  0.00    -0.205 F 
ATOM     72  C   UNL A   1      37.386  29.629  29.842  1.00  0.00     0.022 A 
BRANCH  70  73
ATOM     73  S   UNL A   1      37.706  29.254  32.532  1.00  0.00     0.127 S 
ATOM     74  O   UNL A   1      36.346  29.765  32.374  1.00  0.00    -0.237 OA
ATOM     75  O   UNL A   1      37.791  27.820  32.814  1.00  0.00    -0.237 OA
ATOM     76  O   UNL A   1      38.598  30.082  33.331  1.00  0.00    -0.744 OA
ENDBRANCH  70  73
ENDBRANCH  52  66
BRANCH  53  77
ATOM     77  C   UNL A   1      49.239  26.780  26.011  1.00  0.00     0.023 A 
ATOM     78  C   UNL A   1      50.114  26.045  26.834  1.00  0.00     0.012 A 
ATOM     79  C   UNL A   1      49.673  27.175  24.730  1.00  0.00     0.148 A 
ATOM     80  C   UNL A   1      51.406  25.738  26.408  1.00  0.00     0.002 A 
ATOM     81  C   UNL A   1      50.942  26.819  24.289  1.00  0.00     0.091 A 
ATOM     82  F   UNL A   1      48.829  27.881  23.965  1.00  0.00    -0.205 F 
ATOM     83  C   UNL A   1      51.817  26.117  25.134  1.00  0.00     0.022 A 
BRANCH  81  84
ATOM     84  S   UNL A   1      51.512  27.152  22.619  1.00  0.00     0.127 S 
ATOM     85  O   UNL A   1      50.362  26.739  21.822  1.00  0.00    -0.237 OA
ATOM     86  O   UNL A   1      51.745  28.596  22.665  1.00  0.00    -0.237 OA
ATOM     87  O   UNL A   1      52.719  26.355  22.448  1.00  0.00    -0.744 OA
ENDBRANCH  81  84
ENDBRANCH  53  77
BRANCH  65  88
ATOM     88  C   UNL A   1      46.412  32.502  28.837  1.00  0.00     0.023 A 
ATOM     89  C   UNL A   1      46.997  32.727  30.099  1.00  0.00     0.012 A 
ATOM     90  C   UNL A   1      46.419  33.533  27.877  1.00  0.00     0.148 A 
ATOM     91  C   UNL A   1      47.548  33.968  30.412  1.00  0.00     0.002 A 
ATOM     92  C   UNL A   1      47.019  34.750  28.177  1.00  0.00     0.091 A 
ATOM     93  F   UNL A   1      45.841  33.307  26.689  1.00  0.00    -0.205 F 
ATOM     94  C   UNL A   1      47.570  34.975  29.449  1.00  0.00     0.022 A 
BRANCH  92  95
ATOM     95  S   UNL A   1      47.186  36.066  26.967  1.00  0.00     0.127 S 
ATOM     96  O   UNL A   1      47.713  37.158  27.784  1.00  0.00    -0.237 OA
ATOM     97  O   UNL A   1      48.144  35.495  26.019  1.00  0.00    -0.237 OA
ATOM     98  O   UNL A   1      45.853  36.282  26.421  1.00  0.00    -0.744 OA
ENDBRANCH  92  95
ENDBRANCH  65  88
ENDBRANCH  39  40
ENDBRANCH  31  34
ENDBRANCH  29  30
ENDBRANCH   1  29
TORSDOF 15
ENDMDL
MODEL 3
REMARK VINA RESULT:     -11.8      5.047     10.349
REMARK SMILES CC(=O)N1CCN(c2c(Cl)cccc2[C@@H]2C[C@H](C(=O)NCCCNC(=O)c3ccc(-c4c5nc(c(-c6cccc(S(=O)(=O)[O-])c6F)c6ccc([nH]6)c(-c6cccc(S(=O)(=O)[O-])c6F)c6nc(c(-c7cccc(S(=O)(=O)[O-])c7F)c7ccc4[nH]7)C=C6)C=C5)cc3)CC2=O)CC1
REMARK SMILES IDX 22 1 21 2 20 3 18 4 19 5 17 7 15 8 16 9 91 10 90 11 92 12
REMARK SMILES IDX 14 13 8 14 9 15 10 16 11 17 13 18 12 19 7 20 1 21 2 22 3 23
REMARK SMILES IDX 4 24 5 25 94 26 6 27 93 28 23 29 24 30 25 31 26 33 27 34
REMARK SMILES IDX 28 35 89 36 29 37 88 38 30 39 31 40 32 41 82 42 33 43 87 44
REMARK SMILES IDX 81 45 83 46 34 47 86 48 80 49 79 50 35 52 67 53 47 54 66 55
REMARK SMILES IDX 48 56 51 57 65 58 84 59 49 60 50 61 64 63 85 64 52 65 36 66
REMARK SMILES IDX 37 67 45 68 38 69 40 70 46 71 39 72 41 73 42 74 43 75 44 76
REMARK SMILES IDX 68 77 69 78 77 79 70 80 72 81 78 82 71 83 73 84 74 85 75 86
REMARK SMILES IDX 76 87 53 88 54 89 62 90 55 91 57 92 63 93 56 94 58 95 59 96
REMARK SMILES IDX 60 97 61 98
REMARK H PARENT 20 6 24 32 83 51 51 62
REMARK Flexibility Score: inf
ROOT
ATOM      1  C   UNL A   1      31.827  28.640  27.052  1.00  0.00     0.042 C 
ENDROOT
BRANCH   1   2
ATOM      2  C   UNL A   1      31.239  27.496  26.248  1.00  0.00     0.117 C 
BRANCH   2   3
ATOM      3  N   UNL A   1      30.882  27.863  24.887  1.00  0.00    -0.356 N 
ATOM      4  C   UNL A   1      30.214  27.154  23.932  1.00  0.00     0.223 C 
ATOM      5  O   UNL A   1      29.937  27.730  22.881  1.00  0.00    -0.275 OA
ATOM      6  H   UNL A   1      31.166  28.766  24.612  1.00  0.00     0.163 HD
BRANCH   4   7
ATOM      7  C   UNL A   1      29.881  25.684  24.177  1.00  0.00     0.087 C 
ATOM      8  C   UNL A   1      31.469  23.917  24.957  1.00  0.00     0.089 C 
ATOM      9  C   UNL A   1      31.019  24.749  23.761  1.00  0.00     0.030 C 
ATOM     10  C   UNL A   1      30.629  24.439  26.091  1.00  0.00     0.141 C 
ATOM     11  C   UNL A   1      29.561  25.393  25.644  1.00  0.00     0.089 C 
ATOM     12  O   UNL A   1      30.747  24.074  27.258  1.00  0.00    -0.299 OA
BRANCH   8  13
ATOM     13  C   UNL A   1      32.973  24.024  25.136  1.00  0.00    -0.013 A 
ATOM     14  C   UNL A   1      33.810  22.880  25.083  1.00  0.00     0.060 A 
ATOM     15  C   UNL A   1      35.207  23.083  25.224  1.00  0.00     0.064 A 
ATOM     16  Cl  UNL A   1      36.333  21.764  25.153  1.00  0.00    -0.082 Cl
ATOM     17  C   UNL A   1      35.754  24.360  25.371  1.00  0.00     0.023 A 
ATOM     18  C   UNL A   1      33.551  25.307  25.272  1.00  0.00     0.007 A 
ATOM     19  C   UNL A   1      34.926  25.473  25.386  1.00  0.00     0.002 A 
BRANCH  14  20
ATOM     20  N   UNL A   1      33.292  21.613  24.867  1.00  0.00    -0.367 N 
ATOM     21  C   UNL A   1      32.110  16.769  25.072  1.00  0.00     0.114 C 
ATOM     22  C   UNL A   1      32.444  17.664  23.908  1.00  0.00     0.219 C 
ATOM     23  O   UNL A   1      32.113  17.339  22.768  1.00  0.00    -0.275 OA
ATOM     24  N   UNL A   1      33.074  18.861  24.189  1.00  0.00    -0.339 N 
ATOM     25  C   UNL A   1      33.233  19.861  23.125  1.00  0.00     0.141 C 
ATOM     26  C   UNL A   1      33.690  19.238  25.469  1.00  0.00     0.141 C 
ATOM     27  C   UNL A   1      32.701  21.232  23.578  1.00  0.00     0.138 C 
ATOM     28  C   UNL A   1      33.236  20.631  25.956  1.00  0.00     0.138 C 
ENDBRANCH  14  20
ENDBRANCH   8  13
ENDBRANCH   4   7
ENDBRANCH   2   3
ENDBRANCH   1   2
BRANCH   1  29
ATOM     29  C   UNL A   1      32.840  29.485  26.300  1.00  0.00     0.118 C 
BRANCH  29  30
ATOM     30  N   UNL A   1      32.753  30.906  26.616  1.00  0.00    -0.352 N 
ATOM     31  C   UNL A   1      33.581  31.694  27.379  1.00  0.00     0.251 C 
ATOM     32  H   UNL A   1      31.981  31.373  26.222  1.00  0.00     0.163 HD
ATOM     33  O   UNL A   1      33.244  32.845  27.647  1.00  0.00    -0.269 OA
BRANCH  31  34
ATOM     34  C   UNL A   1      34.857  31.154  27.900  1.00  0.00     0.039 A 
ATOM     35  C   UNL A   1      35.970  31.994  27.975  1.00  0.00     0.014 A 
ATOM     36  C   UNL A   1      34.957  29.826  28.322  1.00  0.00     0.014 A 
ATOM     37  C   UNL A   1      37.156  31.523  28.544  1.00  0.00     0.010 A 
ATOM     38  C   UNL A   1      36.100  29.395  28.985  1.00  0.00     0.010 A 
ATOM     39  C   UNL A   1      37.218  30.233  29.094  1.00  0.00    -0.014 A 
BRANCH  39  40
ATOM     40  C   UNL A   1      38.438  29.738  29.784  1.00  0.00     0.031 A 
ATOM     41  C   UNL A   1      38.815  30.279  31.139  1.00  0.00     0.074 A 
ATOM     42  C   UNL A   1      39.254  28.868  29.156  1.00  0.00     0.049 A 
ATOM     43  N   UNL A   1      39.865  30.010  31.870  1.00  0.00    -0.248 NA
ATOM     44  C   UNL A   1      37.913  31.279  31.735  1.00  0.00     0.031 C 
ATOM     45  C   UNL A   1      39.044  28.328  27.811  1.00  0.00     0.029 A 
ATOM     46  N   UNL A   1      40.440  28.303  29.556  1.00  0.00    -0.354 N 
ATOM     47  C   UNL A   1      39.773  30.834  32.986  1.00  0.00     0.074 A 
ATOM     48  C   UNL A   1      38.585  31.640  32.817  1.00  0.00     0.031 C 
ATOM     49  C   UNL A   1      40.054  27.497  27.506  1.00  0.00     0.029 A 
ATOM     50  C   UNL A   1      41.003  27.473  28.614  1.00  0.00     0.049 A 
ATOM     51  H   UNL A   1      40.850  28.475  30.435  1.00  0.00     0.167 HD
ATOM     52  C   UNL A   1      40.587  30.898  34.066  1.00  0.00     0.034 A 
ATOM     53  C   UNL A   1      42.156  26.776  28.637  1.00  0.00     0.034 A 
ATOM     54  C   UNL A   1      41.741  30.062  34.252  1.00  0.00     0.049 A 
ATOM     55  C   UNL A   1      43.024  26.838  29.865  1.00  0.00     0.074 A 
ATOM     56  C   UNL A   1      42.570  29.975  35.356  1.00  0.00     0.029 A 
ATOM     57  N   UNL A   1      42.241  29.180  33.306  1.00  0.00    -0.354 N 
ATOM     58  N   UNL A   1      42.830  27.500  30.980  1.00  0.00    -0.248 NA
ATOM     59  C   UNL A   1      44.252  26.031  29.850  1.00  0.00     0.031 C 
ATOM     60  C   UNL A   1      43.594  29.068  35.062  1.00  0.00     0.029 A 
ATOM     61  C   UNL A   1      43.378  28.559  33.791  1.00  0.00     0.049 A 
ATOM     62  H   UNL A   1      41.844  29.020  32.419  1.00  0.00     0.167 HD
ATOM     63  C   UNL A   1      43.888  27.156  31.815  1.00  0.00     0.074 A 
ATOM     64  C   UNL A   1      44.709  26.214  31.081  1.00  0.00     0.031 C 
ATOM     65  C   UNL A   1      44.159  27.586  33.072  1.00  0.00     0.034 A 
BRANCH  52  66
ATOM     66  C   UNL A   1      40.236  31.883  35.151  1.00  0.00     0.023 A 
ATOM     67  C   UNL A   1      40.904  33.124  35.218  1.00  0.00     0.012 A 
ATOM     68  C   UNL A   1      39.210  31.604  36.075  1.00  0.00     0.148 A 
ATOM     69  C   UNL A   1      40.588  34.051  36.211  1.00  0.00     0.002 A 
ATOM     70  C   UNL A   1      38.865  32.552  37.030  1.00  0.00     0.091 A 
ATOM     71  F   UNL A   1      38.600  30.411  36.011  1.00  0.00    -0.205 F 
ATOM     72  C   UNL A   1      39.561  33.770  37.109  1.00  0.00     0.022 A 
BRANCH  70  73
ATOM     73  S   UNL A   1      37.502  32.320  38.177  1.00  0.00     0.127 S 
ATOM     74  O   UNL A   1      38.018  32.968  39.381  1.00  0.00    -0.237 OA
ATOM     75  O   UNL A   1      36.416  33.042  37.513  1.00  0.00    -0.237 OA
ATOM     76  O   UNL A   1      37.302  30.882  38.277  1.00  0.00    -0.744 OA
ENDBRANCH  70  73
ENDBRANCH  52  66
BRANCH  53  77
ATOM     77  C   UNL A   1      42.523  25.899  27.488  1.00  0.00     0.023 A 
ATOM     78  C   UNL A   1      43.340  26.414  26.462  1.00  0.00     0.012 A 
ATOM     79  C   UNL A   1      42.087  24.563  27.412  1.00  0.00     0.148 A 
ATOM     80  C   UNL A   1      43.687  25.626  25.365  1.00  0.00     0.002 A 
ATOM     81  C   UNL A   1      42.482  23.766  26.344  1.00  0.00     0.091 A 
ATOM     82  F   UNL A   1      41.304  24.094  28.394  1.00  0.00    -0.205 F 
ATOM     83  C   UNL A   1      43.265  24.301  25.310  1.00  0.00     0.022 A 
BRANCH  81  84
ATOM     84  S   UNL A   1      42.093  22.015  26.251  1.00  0.00     0.127 S 
ATOM     85  O   UNL A   1      42.950  21.576  25.154  1.00  0.00    -0.237 OA
ATOM     86  O   UNL A   1      42.499  21.547  27.577  1.00  0.00    -0.237 OA
ATOM     87  O   UNL A   1      40.659  21.942  26.002  1.00  0.00    -0.744 OA
ENDBRANCH  81  84
ENDBRANCH  53  77
BRANCH  65  88
ATOM     88  C   UNL A   1      45.369  27.012  33.764  1.00  0.00     0.023 A 
ATOM     89  C   UNL A   1      46.600  27.695  33.719  1.00  0.00     0.012 A 
ATOM     90  C   UNL A   1      45.262  25.827  34.518  1.00  0.00     0.148 A 
ATOM     91  C   UNL A   1      47.716  27.188  34.384  1.00  0.00     0.002 A 
ATOM     92  C   UNL A   1      46.363  25.358  35.223  1.00  0.00     0.091 A 
ATOM     93  F   UNL A   1      44.087  25.182  34.534  1.00  0.00    -0.205 F 
ATOM     94  C   UNL A   1      47.595  26.028  35.146  1.00  0.00     0.022 A 
BRANCH  92  95
ATOM     95  S   UNL A   1      46.273  23.931  36.311  1.00  0.00     0.127 S 
ATOM     96  O   UNL A   1      46.022  22.847  35.362  1.00  0.00    -0.237 OA
ATOM     97  O   UNL A   1      47.607  23.917  36.914  1.00  0.00    -0.237 OA
ATOM     98  O   UNL A   1      45.190  24.205  37.245  1.00  0.00    -0.744 OA
ENDBRANCH  92  95
ENDBRANCH  65  88
ENDBRANCH  39  40
ENDBRANCH  31  34
ENDBRANCH  29  30
ENDBRANCH   1  29
TORSDOF 15
ENDMDL
