MODEL 1
REMARK VINA RESULT:     -12.7      0.000      0.000
REMARK SMILES O=C(NCCCNC(=O)c1ccccc1C(=O)Nc1ccc(Cl)cn1)c1ccc(-c2c3nc(c(-c4cccc(S(=O)(=O)[O-])c4F)c4ccc([nH]4)c(-c4cccc(S(=O)(=O)[O-])c4F)c4nc(c(-c5cccc(S(=O)(=O)[O-])c5F)c5ccc2[nH]5)C=C4)C=C3)cc1
REMARK SMILES IDX 4 1 3 2 1 3 2 4 26 6 27 7 88 8 28 9 87 10 29 11 30 12 31 13
REMARK SMILES IDX 81 14 32 15 86 16 80 17 82 18 33 19 85 20 79 21 78 22 34 24
REMARK SMILES IDX 66 25 46 26 65 27 47 28 50 29 64 30 83 31 48 32 49 33 63 35
REMARK SMILES IDX 84 36 51 37 35 38 36 39 44 40 37 41 39 42 45 43 38 44 40 45
REMARK SMILES IDX 41 46 42 47 43 48 67 49 68 50 76 51 69 52 71 53 77 54 70 55
REMARK SMILES IDX 72 56 73 57 74 58 75 59 52 60 53 61 61 62 54 63 56 64 62 65
REMARK SMILES IDX 55 66 57 67 58 68 59 69 60 70 5 71 6 72 7 73 8 74 9 76 10 77
REMARK SMILES IDX 11 78 15 79 12 80 14 81 13 82 16 83 17 84 18 85 19 87 20 88
REMARK SMILES IDX 25 89 21 90 24 91 22 92 23 93
REMARK H PARENT 3 5 82 23 50 34 7 75 18 86
REMARK Flexibility Score: inf
ROOT
ATOM      1  C   UNL A   1      32.859  31.156  26.734  1.00  0.00     0.118 C 
ENDROOT
BRANCH   1   2
ATOM      2  N   UNL A   1      32.783  32.493  27.307  1.00  0.00    -0.352 N 
ATOM      3  O   UNL A   1      33.506  34.248  28.552  1.00  0.00    -0.269 OA
ATOM      4  C   UNL A   1      33.734  33.156  28.064  1.00  0.00     0.251 C 
ATOM      5  H   UNL A   1      31.950  32.988  27.134  1.00  0.00     0.163 HD
BRANCH   4   6
ATOM      6  C   UNL A   1      35.029  32.474  28.295  1.00  0.00     0.039 A 
ATOM      7  C   UNL A   1      35.036  31.141  28.706  1.00  0.00     0.014 A 
ATOM      8  C   UNL A   1      36.213  33.209  28.248  1.00  0.00     0.014 A 
ATOM      9  C   UNL A   1      36.181  30.623  29.296  1.00  0.00     0.010 A 
ATOM     10  C   UNL A   1      37.394  32.639  28.737  1.00  0.00     0.010 A 
ATOM     11  C   UNL A   1      37.373  31.369  29.336  1.00  0.00    -0.014 A 
BRANCH  11  12
ATOM     12  C   UNL A   1      38.564  30.793  30.021  1.00  0.00     0.031 A 
ATOM     13  C   UNL A   1      38.894  31.136  31.455  1.00  0.00     0.074 A 
ATOM     14  C   UNL A   1      39.329  29.907  29.354  1.00  0.00     0.049 A 
ATOM     15  N   UNL A   1      39.858  30.669  32.208  1.00  0.00    -0.248 NA
ATOM     16  C   UNL A   1      38.049  32.134  32.129  1.00  0.00     0.031 C 
ATOM     17  C   UNL A   1      39.138  29.519  27.954  1.00  0.00     0.029 A 
ATOM     18  N   UNL A   1      40.403  29.156  29.761  1.00  0.00    -0.354 N 
ATOM     19  C   UNL A   1      39.775  31.356  33.415  1.00  0.00     0.074 A 
ATOM     20  C   UNL A   1      38.661  32.272  33.298  1.00  0.00     0.031 C 
ATOM     21  C   UNL A   1      40.022  28.564  27.637  1.00  0.00     0.029 A 
ATOM     22  C   UNL A   1      40.883  28.313  28.787  1.00  0.00     0.049 A 
ATOM     23  H   UNL A   1      40.793  29.217  30.663  1.00  0.00     0.167 HD
ATOM     24  C   UNL A   1      40.542  31.224  34.525  1.00  0.00     0.034 A 
ATOM     25  C   UNL A   1      41.903  27.434  28.809  1.00  0.00     0.034 A 
ATOM     26  C   UNL A   1      41.603  30.261  34.668  1.00  0.00     0.049 A 
ATOM     27  C   UNL A   1      42.694  27.267  30.073  1.00  0.00     0.074 A 
ATOM     28  C   UNL A   1      42.384  30.002  35.781  1.00  0.00     0.029 A 
ATOM     29  N   UNL A   1      42.029  29.396  33.672  1.00  0.00    -0.354 N 
ATOM     30  N   UNL A   1      42.518  27.842  31.237  1.00  0.00    -0.248 NA
ATOM     31  C   UNL A   1      43.809  26.312  30.033  1.00  0.00     0.031 C 
ATOM     32  C   UNL A   1      43.290  28.987  35.454  1.00  0.00     0.029 A 
ATOM     33  C   UNL A   1      43.065  28.606  34.142  1.00  0.00     0.049 A 
ATOM     34  H   UNL A   1      41.650  29.351  32.764  1.00  0.00     0.167 HD
ATOM     35  C   UNL A   1      43.486  27.305  32.075  1.00  0.00     0.074 A 
ATOM     36  C   UNL A   1      44.225  26.335  31.293  1.00  0.00     0.031 C 
ATOM     37  C   UNL A   1      43.756  27.606  33.369  1.00  0.00     0.034 A 
BRANCH  24  38
ATOM     38  C   UNL A   1      40.241  32.116  35.704  1.00  0.00     0.023 A 
ATOM     39  C   UNL A   1      40.983  33.298  35.892  1.00  0.00     0.012 A 
ATOM     40  C   UNL A   1      39.172  31.826  36.576  1.00  0.00     0.148 A 
ATOM     41  C   UNL A   1      40.684  34.166  36.943  1.00  0.00     0.002 A 
ATOM     42  C   UNL A   1      38.856  32.714  37.599  1.00  0.00     0.091 A 
ATOM     43  F   UNL A   1      38.491  30.685  36.398  1.00  0.00    -0.205 F 
ATOM     44  C   UNL A   1      39.615  33.880  37.788  1.00  0.00     0.022 A 
BRANCH  42  45
ATOM     45  S   UNL A   1      37.448  32.465  38.688  1.00  0.00     0.127 S 
ATOM     46  O   UNL A   1      37.756  33.381  39.784  1.00  0.00    -0.237 OA
ATOM     47  O   UNL A   1      36.324  32.880  37.847  1.00  0.00    -0.237 OA
ATOM     48  O   UNL A   1      37.454  31.049  39.027  1.00  0.00    -0.744 OA
ENDBRANCH  42  45
ENDBRANCH  24  38
BRANCH  25  49
ATOM     49  C   UNL A   1      42.181  26.602  27.605  1.00  0.00     0.023 A 
ATOM     50  C   UNL A   1      42.910  27.157  26.535  1.00  0.00     0.012 A 
ATOM     51  C   UNL A   1      41.790  25.251  27.543  1.00  0.00     0.148 A 
ATOM     52  C   UNL A   1      43.228  26.385  25.419  1.00  0.00     0.002 A 
ATOM     53  C   UNL A   1      42.164  24.471  26.456  1.00  0.00     0.091 A 
ATOM     54  F   UNL A   1      41.077  24.746  28.560  1.00  0.00    -0.205 F 
ATOM     55  C   UNL A   1      42.870  25.039  25.385  1.00  0.00     0.022 A 
BRANCH  53  56
ATOM     56  S   UNL A   1      41.878  22.698  26.418  1.00  0.00     0.127 S 
ATOM     57  O   UNL A   1      42.534  22.262  27.647  1.00  0.00    -0.237 OA
ATOM     58  O   UNL A   1      40.416  22.621  26.439  1.00  0.00    -0.237 OA
ATOM     59  O   UNL A   1      42.477  22.240  25.172  1.00  0.00    -0.744 OA
ENDBRANCH  53  56
ENDBRANCH  25  49
BRANCH  37  60
ATOM     60  C   UNL A   1      44.886  26.864  34.030  1.00  0.00     0.023 A 
ATOM     61  C   UNL A   1      46.206  27.333  33.879  1.00  0.00     0.012 A 
ATOM     62  C   UNL A   1      44.638  25.739  34.839  1.00  0.00     0.148 A 
ATOM     63  C   UNL A   1      47.266  26.673  34.498  1.00  0.00     0.002 A 
ATOM     64  C   UNL A   1      45.696  25.112  35.487  1.00  0.00     0.091 A 
ATOM     65  F   UNL A   1      43.379  25.292  34.951  1.00  0.00    -0.205 F 
ATOM     66  C   UNL A   1      47.012  25.570  35.310  1.00  0.00     0.022 A 
BRANCH  64  67
ATOM     67  S   UNL A   1      45.437  23.740  36.617  1.00  0.00     0.127 S 
ATOM     68  O   UNL A   1      44.739  22.778  35.767  1.00  0.00    -0.237 OA
ATOM     69  O   UNL A   1      46.804  23.359  36.974  1.00  0.00    -0.237 OA
ATOM     70  O   UNL A   1      44.661  24.286  37.724  1.00  0.00    -0.744 OA
ENDBRANCH  64  67
ENDBRANCH  37  60
ENDBRANCH  11  12
ENDBRANCH   4   6
ENDBRANCH   1   2
BRANCH   1  71
ATOM     71  C   UNL A   1      31.510  30.540  26.379  1.00  0.00     0.042 C 
BRANCH  71  72
ATOM     72  C   UNL A   1      31.594  29.422  25.357  1.00  0.00     0.118 C 
BRANCH  72  73
ATOM     73  N   UNL A   1      32.680  29.629  24.417  1.00  0.00    -0.352 N 
ATOM     74  C   UNL A   1      33.550  28.743  23.861  1.00  0.00     0.252 C 
ATOM     75  H   UNL A   1      32.809  30.564  24.137  1.00  0.00     0.163 HD
ATOM     76  O   UNL A   1      34.448  29.158  23.130  1.00  0.00    -0.269 OA
BRANCH  74  77
ATOM     77  C   UNL A   1      33.507  27.307  24.173  1.00  0.00     0.052 A 
ATOM     78  C   UNL A   1      33.961  27.027  25.481  1.00  0.00     0.014 A 
ATOM     79  C   UNL A   1      33.096  26.262  23.333  1.00  0.00     0.052 A 
ATOM     80  C   UNL A   1      33.937  25.734  25.995  1.00  0.00     0.001 A 
ATOM     81  C   UNL A   1      33.064  24.961  23.888  1.00  0.00     0.014 A 
ATOM     82  C   UNL A   1      33.469  24.700  25.200  1.00  0.00     0.001 A 
BRANCH  79  83
ATOM     83  C   UNL A   1      32.549  26.341  21.947  1.00  0.00     0.257 C 
ATOM     84  O   UNL A   1      33.174  25.735  21.068  1.00  0.00    -0.269 OA
ATOM     85  N   UNL A   1      31.375  26.925  21.568  1.00  0.00    -0.307 N 
ATOM     86  H   UNL A   1      31.103  26.669  20.657  1.00  0.00     0.171 HD
BRANCH  85  87
ATOM     87  C   UNL A   1      30.479  27.793  22.164  1.00  0.00     0.132 A 
ATOM     88  C   UNL A   1      29.492  27.392  23.050  1.00  0.00     0.049 A 
ATOM     89  N   UNL A   1      30.655  29.077  21.784  1.00  0.00    -0.238 NA
ATOM     90  C   UNL A   1      28.572  28.347  23.489  1.00  0.00     0.026 A 
ATOM     91  C   UNL A   1      29.732  29.977  22.200  1.00  0.00     0.134 A 
ATOM     92  C   UNL A   1      28.675  29.656  23.032  1.00  0.00     0.059 A 
ATOM     93  Cl  UNL A   1      27.518  30.838  23.483  1.00  0.00    -0.083 Cl
ENDBRANCH  85  87
ENDBRANCH  79  83
ENDBRANCH  74  77
ENDBRANCH  72  73
ENDBRANCH  71  72
ENDBRANCH   1  71
TORSDOF 15
ENDMDL
MODEL 2
REMARK VINA RESULT:     -12.5      2.280      3.188
REMARK SMILES O=C(NCCCNC(=O)c1ccccc1C(=O)Nc1ccc(Cl)cn1)c1ccc(-c2c3nc(c(-c4cccc(S(=O)(=O)[O-])c4F)c4ccc([nH]4)c(-c4cccc(S(=O)(=O)[O-])c4F)c4nc(c(-c5cccc(S(=O)(=O)[O-])c5F)c5ccc2[nH]5)C=C4)C=C3)cc1
REMARK SMILES IDX 4 1 3 2 1 3 2 4 26 6 27 7 88 8 28 9 87 10 29 11 30 12 31 13
REMARK SMILES IDX 81 14 32 15 86 16 80 17 82 18 33 19 85 20 79 21 78 22 34 24
REMARK SMILES IDX 66 25 46 26 65 27 47 28 50 29 64 30 83 31 48 32 49 33 63 35
REMARK SMILES IDX 84 36 51 37 35 38 36 39 44 40 37 41 39 42 45 43 38 44 40 45
REMARK SMILES IDX 41 46 42 47 43 48 67 49 68 50 76 51 69 52 71 53 77 54 70 55
REMARK SMILES IDX 72 56 73 57 74 58 75 59 52 60 53 61 61 62 54 63 56 64 62 65
REMARK SMILES IDX 55 66 57 67 58 68 59 69 60 70 5 71 6 72 7 73 8 74 9 76 10 77
REMARK SMILES IDX 11 78 15 79 12 80 14 81 13 82 16 83 17 84 18 85 19 87 20 88
REMARK SMILES IDX 25 89 21 90 24 91 22 92 23 93
REMARK H PARENT 3 5 82 23 50 34 7 75 18 86
REMARK Flexibility Score: inf
ROOT
ATOM      1  C   UNL A   1      32.545  30.391  26.480  1.00  0.00     0.118 C 
ENDROOT
BRANCH   1   2
ATOM      2  N   UNL A   1      32.370  31.783  26.875  1.00  0.00    -0.352 N 
ATOM      3  O   UNL A   1      32.961  33.735  27.872  1.00  0.00    -0.269 OA
ATOM      4  C   UNL A   1      33.269  32.607  27.529  1.00  0.00     0.251 C 
ATOM      5  H   UNL A   1      31.502  32.188  26.648  1.00  0.00     0.163 HD
BRANCH   4   6
ATOM      6  C   UNL A   1      34.611  32.059  27.833  1.00  0.00     0.039 A 
ATOM      7  C   UNL A   1      34.738  30.714  28.180  1.00  0.00     0.014 A 
ATOM      8  C   UNL A   1      35.705  32.921  27.918  1.00  0.00     0.014 A 
ATOM      9  C   UNL A   1      35.886  30.292  28.837  1.00  0.00     0.010 A 
ATOM     10  C   UNL A   1      36.902  32.456  28.476  1.00  0.00     0.010 A 
ATOM     11  C   UNL A   1      36.979  31.160  29.010  1.00  0.00    -0.014 A 
BRANCH  11  12
ATOM     12  C   UNL A   1      38.172  30.680  29.763  1.00  0.00     0.031 A 
ATOM     13  C   UNL A   1      38.409  31.072  31.203  1.00  0.00     0.074 A 
ATOM     14  C   UNL A   1      39.026  29.836  29.153  1.00  0.00     0.049 A 
ATOM     15  N   UNL A   1      39.364  30.687  32.011  1.00  0.00    -0.248 NA
ATOM     16  C   UNL A   1      37.466  32.023  31.814  1.00  0.00     0.031 C 
ATOM     17  C   UNL A   1      38.929  29.409  27.755  1.00  0.00     0.029 A 
ATOM     18  N   UNL A   1      40.128  29.168  29.626  1.00  0.00    -0.354 N 
ATOM     19  C   UNL A   1      39.177  31.389  33.197  1.00  0.00     0.074 A 
ATOM     20  C   UNL A   1      38.011  32.225  33.007  1.00  0.00     0.031 C 
ATOM     21  C   UNL A   1      39.890  28.510  27.501  1.00  0.00     0.029 A 
ATOM     22  C   UNL A   1      40.709  28.341  28.695  1.00  0.00     0.049 A 
ATOM     23  H   UNL A   1      40.468  29.272  30.544  1.00  0.00     0.167 HD
ATOM     24  C   UNL A   1      39.896  31.332  34.344  1.00  0.00     0.034 A 
ATOM     25  C   UNL A   1      41.784  27.534  28.784  1.00  0.00     0.034 A 
ATOM     26  C   UNL A   1      41.012  30.447  34.559  1.00  0.00     0.049 A 
ATOM     27  C   UNL A   1      42.522  27.446  30.088  1.00  0.00     0.074 A 
ATOM     28  C   UNL A   1      41.754  30.263  35.712  1.00  0.00     0.029 A 
ATOM     29  N   UNL A   1      41.542  29.594  33.603  1.00  0.00    -0.354 N 
ATOM     30  N   UNL A   1      42.252  28.030  31.229  1.00  0.00    -0.248 NA
ATOM     31  C   UNL A   1      43.700  26.568  30.122  1.00  0.00     0.031 C 
ATOM     32  C   UNL A   1      42.741  29.306  35.451  1.00  0.00     0.029 A 
ATOM     33  C   UNL A   1      42.605  28.885  34.139  1.00  0.00     0.049 A 
ATOM     34  H   UNL A   1      41.212  29.505  32.680  1.00  0.00     0.167 HD
ATOM     35  C   UNL A   1      43.213  27.576  32.124  1.00  0.00     0.074 A 
ATOM     36  C   UNL A   1      44.052  26.644  31.399  1.00  0.00     0.031 C 
ATOM     37  C   UNL A   1      43.398  27.920  33.422  1.00  0.00     0.034 A 
BRANCH  24  38
ATOM     38  C   UNL A   1      39.479  32.223  35.487  1.00  0.00     0.023 A 
ATOM     39  C   UNL A   1      38.665  31.707  36.514  1.00  0.00     0.012 A 
ATOM     40  C   UNL A   1      39.960  33.545  35.587  1.00  0.00     0.148 A 
ATOM     41  C   UNL A   1      38.315  32.496  37.609  1.00  0.00     0.002 A 
ATOM     42  C   UNL A   1      39.636  34.314  36.700  1.00  0.00     0.091 A 
ATOM     43  F   UNL A   1      40.714  34.030  34.590  1.00  0.00    -0.205 F 
ATOM     44  C   UNL A   1      38.809  33.794  37.707  1.00  0.00     0.022 A 
BRANCH  42  45
ATOM     45  S   UNL A   1      40.291  35.970  36.948  1.00  0.00     0.127 S 
ATOM     46  O   UNL A   1      39.760  36.675  35.784  1.00  0.00    -0.237 OA
ATOM     47  O   UNL A   1      39.686  36.358  38.223  1.00  0.00    -0.237 OA
ATOM     48  O   UNL A   1      41.739  35.821  36.990  1.00  0.00    -0.744 OA
ENDBRANCH  42  45
ENDBRANCH  24  38
BRANCH  25  49
ATOM     49  C   UNL A   1      42.175  26.700  27.614  1.00  0.00     0.023 A 
ATOM     50  C   UNL A   1      43.029  27.242  26.635  1.00  0.00     0.012 A 
ATOM     51  C   UNL A   1      41.764  25.358  27.502  1.00  0.00     0.148 A 
ATOM     52  C   UNL A   1      43.452  26.466  25.556  1.00  0.00     0.002 A 
ATOM     53  C   UNL A   1      42.239  24.574  26.458  1.00  0.00     0.091 A 
ATOM     54  F   UNL A   1      40.932  24.866  28.432  1.00  0.00    -0.205 F 
ATOM     55  C   UNL A   1      43.071  25.129  25.475  1.00  0.00     0.022 A 
BRANCH  53  56
ATOM     56  S   UNL A   1      41.920  22.808  26.379  1.00  0.00     0.127 S 
ATOM     57  O   UNL A   1      42.552  22.445  25.114  1.00  0.00    -0.237 OA
ATOM     58  O   UNL A   1      42.606  22.316  27.575  1.00  0.00    -0.237 OA
ATOM     59  O   UNL A   1      40.470  22.678  26.432  1.00  0.00    -0.744 OA
ENDBRANCH  53  56
ENDBRANCH  25  49
BRANCH  37  60
ATOM     60  C   UNL A   1      44.542  27.270  34.151  1.00  0.00     0.023 A 
ATOM     61  C   UNL A   1      45.831  27.833  34.063  1.00  0.00     0.012 A 
ATOM     62  C   UNL A   1      44.335  26.138  34.962  1.00  0.00     0.148 A 
ATOM     63  C   UNL A   1      46.902  27.259  34.746  1.00  0.00     0.002 A 
ATOM     64  C   UNL A   1      45.399  25.597  35.673  1.00  0.00     0.091 A 
ATOM     65  F   UNL A   1      43.107  25.600  35.013  1.00  0.00    -0.205 F 
ATOM     66  C   UNL A   1      46.686  26.149  35.559  1.00  0.00     0.022 A 
BRANCH  64  67
ATOM     67  S   UNL A   1      45.181  24.221  36.807  1.00  0.00     0.127 S 
ATOM     68  O   UNL A   1      44.671  23.178  35.920  1.00  0.00    -0.237 OA
ATOM     69  O   UNL A   1      46.541  23.994  37.298  1.00  0.00    -0.237 OA
ATOM     70  O   UNL A   1      44.251  24.696  37.825  1.00  0.00    -0.744 OA
ENDBRANCH  64  67
ENDBRANCH  37  60
ENDBRANCH  11  12
ENDBRANCH   4   6
ENDBRANCH   1   2
BRANCH   1  71
ATOM     71  C   UNL A   1      31.668  29.401  27.239  1.00  0.00     0.042 C 
BRANCH  71  72
ATOM     72  C   UNL A   1      32.312  28.043  27.447  1.00  0.00     0.118 C 
BRANCH  72  73
ATOM     73  N   UNL A   1      33.170  27.676  26.337  1.00  0.00    -0.352 N 
ATOM     74  C   UNL A   1      32.862  27.281  25.072  1.00  0.00     0.252 C 
ATOM     75  H   UNL A   1      34.135  27.719  26.531  1.00  0.00     0.163 HD
ATOM     76  O   UNL A   1      33.766  26.949  24.307  1.00  0.00    -0.269 OA
BRANCH  74  77
ATOM     77  C   UNL A   1      31.471  27.153  24.612  1.00  0.00     0.052 A 
ATOM     78  C   UNL A   1      31.106  28.177  23.711  1.00  0.00     0.014 A 
ATOM     79  C   UNL A   1      30.536  26.176  24.982  1.00  0.00     0.052 A 
ATOM     80  C   UNL A   1      29.853  28.199  23.108  1.00  0.00     0.001 A 
ATOM     81  C   UNL A   1      29.276  26.211  24.339  1.00  0.00     0.014 A 
ATOM     82  C   UNL A   1      28.941  27.201  23.410  1.00  0.00     0.001 A 
BRANCH  79  83
ATOM     83  C   UNL A   1      30.724  24.996  25.876  1.00  0.00     0.257 C 
ATOM     84  O   UNL A   1      29.910  24.863  26.798  1.00  0.00    -0.269 OA
ATOM     85  N   UNL A   1      31.638  23.995  25.721  1.00  0.00    -0.307 N 
ATOM     86  H   UNL A   1      31.443  23.214  26.288  1.00  0.00     0.171 HD
BRANCH  85  87
ATOM     87  C   UNL A   1      32.775  23.821  24.954  1.00  0.00     0.132 A 
ATOM     88  C   UNL A   1      32.754  23.587  23.588  1.00  0.00     0.049 A 
ATOM     89  N   UNL A   1      33.915  23.890  25.675  1.00  0.00    -0.238 NA
ATOM     90  C   UNL A   1      33.965  23.307  22.948  1.00  0.00     0.026 A 
ATOM     91  C   UNL A   1      35.070  23.584  25.037  1.00  0.00     0.134 A 
ATOM     92  C   UNL A   1      35.139  23.275  23.691  1.00  0.00     0.059 A 
ATOM     93  Cl  UNL A   1      36.631  22.854  22.958  1.00  0.00    -0.083 Cl
ENDBRANCH  85  87
ENDBRANCH  79  83
ENDBRANCH  74  77
ENDBRANCH  72  73
ENDBRANCH  71  72
ENDBRANCH   1  71
TORSDOF 15
ENDMDL
MODEL 3
REMARK VINA RESULT:     -12.4      5.501     10.413
REMARK SMILES O=C(NCCCNC(=O)c1ccccc1C(=O)Nc1ccc(Cl)cn1)c1ccc(-c2c3nc(c(-c4cccc(S(=O)(=O)[O-])c4F)c4ccc([nH]4)c(-c4cccc(S(=O)(=O)[O-])c4F)c4nc(c(-c5cccc(S(=O)(=O)[O-])c5F)c5ccc2[nH]5)C=C4)C=C3)cc1
REMARK SMILES IDX 4 1 3 2 1 3 2 4 26 6 27 7 88 8 28 9 87 10 29 11 30 12 31 13
REMARK SMILES IDX 81 14 32 15 86 16 80 17 82 18 33 19 85 20 79 21 78 22 34 24
REMARK SMILES IDX 66 25 46 26 65 27 47 28 50 29 64 30 83 31 48 32 49 33 63 35
REMARK SMILES IDX 84 36 51 37 35 38 36 39 44 40 37 41 39 42 45 43 38 44 40 45
REMARK SMILES IDX 41 46 42 47 43 48 67 49 68 50 76 51 69 52 71 53 77 54 70 55
REMARK SMILES IDX 72 56 73 57 74 58 75 59 52 60 53 61 61 62 54 63 56 64 62 65
REMARK SMILES IDX 55 66 57 67 58 68 59 69 60 70 5 71 6 72 7 73 8 74 9 76 10 77
REMARK SMILES IDX 11 78 15 79 12 80 14 81 13 82 16 83 17 84 18 85 19 87 20 88
REMARK SMILES IDX 25 89 21 90 24 91 22 92 23 93
REMARK H PARENT 3 5 82 23 50 34 7 75 18 86
REMARK Flexibility Score: inf
ROOT
ATOM      1  C   UNL A   1      36.879  22.055  25.055  1.00  0.00     0.118 C 
ENDROOT
BRANCH   1   2
ATOM      2  N   UNL A   1      37.839  20.967  25.183  1.00  0.00    -0.352 N 
ATOM      3  O   UNL A   1      39.802  20.009  25.803  1.00  0.00    -0.269 OA
ATOM      4  C   UNL A   1      39.056  20.971  25.844  1.00  0.00     0.251 C 
ATOM      5  H   UNL A   1      37.591  20.121  24.745  1.00  0.00     0.163 HD
BRANCH   4   6
ATOM      6  C   UNL A   1      39.440  22.202  26.572  1.00  0.00     0.039 A 
ATOM      7  C   UNL A   1      38.901  23.427  26.177  1.00  0.00     0.014 A 
ATOM      8  C   UNL A   1      40.446  22.147  27.537  1.00  0.00     0.014 A 
ATOM      9  C   UNL A   1      39.532  24.600  26.568  1.00  0.00     0.010 A 
ATOM     10  C   UNL A   1      41.002  23.339  28.017  1.00  0.00     0.010 A 
ATOM     11  C   UNL A   1      40.603  24.573  27.481  1.00  0.00    -0.014 A 
BRANCH  11  12
ATOM     12  C   UNL A   1      41.283  25.851  27.836  1.00  0.00     0.031 A 
ATOM     13  C   UNL A   1      42.669  26.175  27.333  1.00  0.00     0.074 A 
ATOM     14  C   UNL A   1      40.615  26.754  28.581  1.00  0.00     0.049 A 
ATOM     15  N   UNL A   1      43.368  27.270  27.503  1.00  0.00    -0.248 NA
ATOM     16  C   UNL A   1      43.369  25.143  26.552  1.00  0.00     0.031 C 
ATOM     17  C   UNL A   1      39.284  26.547  29.158  1.00  0.00     0.029 A 
ATOM     18  N   UNL A   1      40.947  28.029  28.965  1.00  0.00    -0.354 N 
ATOM     19  C   UNL A   1      44.604  27.038  26.909  1.00  0.00     0.074 A 
ATOM     20  C   UNL A   1      44.561  25.696  26.367  1.00  0.00     0.031 C 
ATOM     21  C   UNL A   1      38.889  27.672  29.769  1.00  0.00     0.029 A 
ATOM     22  C   UNL A   1      39.959  28.660  29.683  1.00  0.00     0.049 A 
ATOM     23  H   UNL A   1      41.809  28.451  28.746  1.00  0.00     0.167 HD
ATOM     24  C   UNL A   1      45.670  27.869  26.806  1.00  0.00     0.034 A 
ATOM     25  C   UNL A   1      39.913  29.894  30.219  1.00  0.00     0.034 A 
ATOM     26  C   UNL A   1      45.686  29.229  27.279  1.00  0.00     0.049 A 
ATOM     27  C   UNL A   1      41.085  30.813  30.035  1.00  0.00     0.074 A 
ATOM     28  C   UNL A   1      46.692  30.171  27.152  1.00  0.00     0.029 A 
ATOM     29  N   UNL A   1      44.649  29.843  27.964  1.00  0.00    -0.354 N 
ATOM     30  N   UNL A   1      42.193  30.610  29.365  1.00  0.00    -0.248 NA
ATOM     31  C   UNL A   1      40.990  32.139  30.659  1.00  0.00     0.031 C 
ATOM     32  C   UNL A   1      46.267  31.353  27.771  1.00  0.00     0.029 A 
ATOM     33  C   UNL A   1      44.992  31.149  28.271  1.00  0.00     0.049 A 
ATOM     34  H   UNL A   1      43.795  29.412  28.198  1.00  0.00     0.167 HD
ATOM     35  C   UNL A   1      42.919  31.789  29.470  1.00  0.00     0.074 A 
ATOM     36  C   UNL A   1      42.111  32.712  30.240  1.00  0.00     0.031 C 
ATOM     37  C   UNL A   1      44.156  32.074  28.992  1.00  0.00     0.034 A 
BRANCH  24  38
ATOM     38  C   UNL A   1      46.907  27.352  26.116  1.00  0.00     0.023 A 
ATOM     39  C   UNL A   1      47.107  27.622  24.748  1.00  0.00     0.012 A 
ATOM     40  C   UNL A   1      47.909  26.672  26.838  1.00  0.00     0.148 A 
ATOM     41  C   UNL A   1      48.271  27.203  24.102  1.00  0.00     0.002 A 
ATOM     42  C   UNL A   1      49.083  26.291  26.197  1.00  0.00     0.091 A 
ATOM     43  F   UNL A   1      47.694  26.403  28.133  1.00  0.00    -0.205 F 
ATOM     44  C   UNL A   1      49.262  26.548  24.829  1.00  0.00     0.022 A 
BRANCH  42  45
ATOM     45  S   UNL A   1      50.447  25.511  27.071  1.00  0.00     0.127 S 
ATOM     46  O   UNL A   1      51.411  25.307  25.993  1.00  0.00    -0.237 OA
ATOM     47  O   UNL A   1      50.826  26.540  28.041  1.00  0.00    -0.237 OA
ATOM     48  O   UNL A   1      49.896  24.300  27.665  1.00  0.00    -0.744 OA
ENDBRANCH  42  45
ENDBRANCH  24  38
BRANCH  25  49
ATOM     49  C   UNL A   1      38.679  30.344  30.922  1.00  0.00     0.023 A 
ATOM     50  C   UNL A   1      38.576  30.170  32.316  1.00  0.00     0.012 A 
ATOM     51  C   UNL A   1      37.641  31.001  30.233  1.00  0.00     0.148 A 
ATOM     52  C   UNL A   1      37.455  30.628  33.006  1.00  0.00     0.002 A 
ATOM     53  C   UNL A   1      36.557  31.509  30.936  1.00  0.00     0.091 A 
ATOM     54  F   UNL A   1      37.746  31.136  28.903  1.00  0.00    -0.205 F 
ATOM     55  C   UNL A   1      36.453  31.311  32.321  1.00  0.00     0.022 A 
BRANCH  53  56
ATOM     56  S   UNL A   1      35.312  32.535  30.145  1.00  0.00     0.127 S 
ATOM     57  O   UNL A   1      34.839  31.662  29.075  1.00  0.00    -0.237 OA
ATOM     58  O   UNL A   1      34.356  32.752  31.232  1.00  0.00    -0.237 OA
ATOM     59  O   UNL A   1      36.018  33.739  29.727  1.00  0.00    -0.744 OA
ENDBRANCH  53  56
ENDBRANCH  25  49
BRANCH  37  60
ATOM     60  C   UNL A   1      44.704  33.447  29.271  1.00  0.00     0.023 A 
ATOM     61  C   UNL A   1      45.371  33.694  30.488  1.00  0.00     0.012 A 
ATOM     62  C   UNL A   1      44.608  34.474  28.314  1.00  0.00     0.148 A 
ATOM     63  C   UNL A   1      45.904  34.952  30.760  1.00  0.00     0.002 A 
ATOM     64  C   UNL A   1      45.179  35.714  28.574  1.00  0.00     0.091 A 
ATOM     65  F   UNL A   1      43.948  34.229  27.172  1.00  0.00    -0.205 F 
ATOM     66  C   UNL A   1      45.819  35.959  29.801  1.00  0.00     0.022 A 
BRANCH  64  67
ATOM     67  S   UNL A   1      45.186  37.032  27.353  1.00  0.00     0.127 S 
ATOM     68  O   UNL A   1      45.980  36.441  26.279  1.00  0.00    -0.237 OA
ATOM     69  O   UNL A   1      43.763  37.187  27.046  1.00  0.00    -0.237 OA
ATOM     70  O   UNL A   1      45.781  38.182  28.022  1.00  0.00    -0.744 OA
ENDBRANCH  64  67
ENDBRANCH  37  60
ENDBRANCH  11  12
ENDBRANCH   4   6
ENDBRANCH   1   2
BRANCH   1  71
ATOM     71  C   UNL A   1      36.479  22.383  23.620  1.00  0.00     0.042 C 
BRANCH  71  72
ATOM     72  C   UNL A   1      35.253  23.270  23.511  1.00  0.00     0.118 C 
BRANCH  72  73
ATOM     73  N   UNL A   1      35.102  24.130  24.670  1.00  0.00    -0.352 N 
ATOM     74  C   UNL A   1      34.212  25.127  24.922  1.00  0.00     0.252 C 
ATOM     75  H   UNL A   1      35.752  23.966  25.391  1.00  0.00     0.163 HD
ATOM     76  O   UNL A   1      34.315  25.779  25.960  1.00  0.00    -0.269 OA
BRANCH  74  77
ATOM     77  C   UNL A   1      33.177  25.513  23.951  1.00  0.00     0.052 A 
ATOM     78  C   UNL A   1      33.713  26.191  22.834  1.00  0.00     0.014 A 
ATOM     79  C   UNL A   1      31.795  25.293  24.043  1.00  0.00     0.052 A 
ATOM     80  C   UNL A   1      32.908  26.583  21.769  1.00  0.00     0.001 A 
ATOM     81  C   UNL A   1      31.003  25.684  22.937  1.00  0.00     0.014 A 
ATOM     82  C   UNL A   1      31.550  26.311  21.814  1.00  0.00     0.001 A 
BRANCH  79  83
ATOM     83  C   UNL A   1      31.035  24.569  25.103  1.00  0.00     0.257 C 
ATOM     84  O   UNL A   1      30.185  25.222  25.720  1.00  0.00    -0.269 OA
ATOM     85  N   UNL A   1      31.109  23.237  25.392  1.00  0.00    -0.307 N 
ATOM     86  H   UNL A   1      30.369  22.934  25.967  1.00  0.00     0.171 HD
BRANCH  85  87
ATOM     87  C   UNL A   1      31.980  22.215  25.067  1.00  0.00     0.132 A 
ATOM     88  C   UNL A   1      31.972  21.555  23.848  1.00  0.00     0.049 A 
ATOM     89  N   UNL A   1      32.837  21.912  26.067  1.00  0.00    -0.238 NA
ATOM     90  C   UNL A   1      32.821  20.457  23.687  1.00  0.00     0.026 A 
ATOM     91  C   UNL A   1      33.627  20.825  25.895  1.00  0.00     0.134 A 
ATOM     92  C   UNL A   1      33.641  20.067  24.739  1.00  0.00     0.059 A 
ATOM     93  Cl  UNL A   1      34.637  18.677  24.608  1.00  0.00    -0.083 Cl
ENDBRANCH  85  87
ENDBRANCH  79  83
ENDBRANCH  74  77
ENDBRANCH  72  73
ENDBRANCH  71  72
ENDBRANCH   1  71
TORSDOF 15
ENDMDL
