MODEL 1
REMARK VINA RESULT:     -12.5      0.000      0.000
REMARK SMILES O=C(CCC(=O)N1CCC(c2nnc3ccccn23)CC1)NCCCNC(=O)c1ccc(-c2c3nc(c(-c4cccc(S(=O)(=O)[O-])c4F)c4ccc([nH]4)c(-c4cccc(S(=O)(=O)[O-])c4F)c4nc(c(-c5cccc(S(=O)(=O)[O-])c5F)c5ccc2[nH]5)C=C4)C=C3)cc1
REMARK SMILES IDX 24 1 23 2 22 3 1 4 2 5 3 7 4 8 5 9 6 10 7 11 8 12 21 13 9 14
REMARK SMILES IDX 20 15 10 16 11 17 12 18 19 19 13 20 14 21 18 22 15 23 17 24
REMARK SMILES IDX 16 25 25 26 26 27 27 28 28 30 29 31 30 32 91 33 31 34 90 35
REMARK SMILES IDX 32 36 33 37 34 38 84 39 35 40 89 41 83 42 85 43 36 44 88 45
REMARK SMILES IDX 82 46 81 47 37 49 69 50 49 51 68 52 50 53 53 54 67 55 86 56
REMARK SMILES IDX 51 57 52 58 66 60 87 61 54 62 38 63 39 64 47 65 40 66 42 67
REMARK SMILES IDX 48 68 41 69 43 70 44 71 45 72 46 73 70 74 71 75 79 76 72 77
REMARK SMILES IDX 74 78 80 79 73 80 75 81 76 82 77 83 78 84 55 85 56 86 64 87
REMARK SMILES IDX 57 88 59 89 65 90 58 91 60 92 61 93 62 94 63 95
REMARK H PARENT 22 6 26 29 85 48 53 59
REMARK Flexibility Score: inf
ROOT
ATOM      1  C   UNL A   1      31.312  31.601  26.845  1.00  0.00     0.042 C 
ENDROOT
BRANCH   1   2
ATOM      2  C   UNL A   1      31.827  30.206  26.479  1.00  0.00     0.117 C 
BRANCH   2   3
ATOM      3  N   UNL A   1      32.251  30.031  25.097  1.00  0.00    -0.356 N 
ATOM      4  O   UNL A   1      34.045  28.710  25.657  1.00  0.00    -0.275 OA
ATOM      5  C   UNL A   1      33.284  29.152  24.801  1.00  0.00     0.220 C 
ATOM      6  H   UNL A   1      31.808  30.535  24.376  1.00  0.00     0.163 HD
BRANCH   5   7
ATOM      7  C   UNL A   1      33.306  28.654  23.355  1.00  0.00     0.110 C 
BRANCH   7   8
ATOM      8  C   UNL A   1      31.934  28.102  22.932  1.00  0.00     0.110 C 
BRANCH   8   9
ATOM      9  C   UNL A   1      31.323  26.890  23.659  1.00  0.00     0.223 C 
ATOM     10  O   UNL A   1      30.641  27.085  24.669  1.00  0.00    -0.275 OA
ATOM     11  N   UNL A   1      31.400  25.628  23.085  1.00  0.00    -0.343 N 
ATOM     12  C   UNL A   1      30.476  24.559  23.464  1.00  0.00     0.120 C 
ATOM     13  C   UNL A   1      32.485  25.174  22.253  1.00  0.00     0.120 C 
ATOM     14  C   UNL A   1      31.189  23.347  24.088  1.00  0.00     0.033 C 
ATOM     15  C   UNL A   1      33.299  24.162  23.031  1.00  0.00     0.033 C 
ATOM     16  C   UNL A   1      32.438  22.926  23.297  1.00  0.00     0.062 C 
BRANCH  16  17
ATOM     17  C   UNL A   1      33.251  21.900  24.022  1.00  0.00     0.140 A 
ATOM     18  N   UNL A   1      34.244  22.159  24.855  1.00  0.00    -0.134 NA
ATOM     19  N   UNL A   1      33.145  20.534  23.857  1.00  0.00    -0.286 N 
ATOM     20  N   UNL A   1      34.826  20.971  25.223  1.00  0.00    -0.130 NA
ATOM     21  C   UNL A   1      34.180  20.002  24.615  1.00  0.00     0.160 A 
ATOM     22  C   UNL A   1      32.258  19.746  23.122  1.00  0.00     0.095 A 
ATOM     23  C   UNL A   1      34.360  18.593  24.591  1.00  0.00     0.050 A 
ATOM     24  C   UNL A   1      32.412  18.410  23.125  1.00  0.00     0.019 A 
ATOM     25  C   UNL A   1      33.512  17.826  23.877  1.00  0.00     0.005 A 
ENDBRANCH  16  17
ENDBRANCH   8   9
ENDBRANCH   7   8
ENDBRANCH   5   7
ENDBRANCH   2   3
ENDBRANCH   1   2
BRANCH   1  26
ATOM     26  C   UNL A   1      32.198  32.787  26.444  1.00  0.00     0.118 C 
BRANCH  26  27
ATOM     27  N   UNL A   1      32.289  33.840  27.450  1.00  0.00    -0.352 N 
ATOM     28  C   UNL A   1      33.297  34.139  28.346  1.00  0.00     0.251 C 
ATOM     29  H   UNL A   1      31.506  34.433  27.498  1.00  0.00     0.163 HD
ATOM     30  O   UNL A   1      33.171  35.148  29.043  1.00  0.00    -0.269 OA
BRANCH  28  31
ATOM     31  C   UNL A   1      34.495  33.274  28.527  1.00  0.00     0.039 A 
ATOM     32  C   UNL A   1      35.752  33.825  28.233  1.00  0.00     0.014 A 
ATOM     33  C   UNL A   1      34.423  31.952  28.966  1.00  0.00     0.014 A 
ATOM     34  C   UNL A   1      36.924  33.107  28.506  1.00  0.00     0.010 A 
ATOM     35  C   UNL A   1      35.589  31.249  29.283  1.00  0.00     0.010 A 
ATOM     36  C   UNL A   1      36.846  31.844  29.111  1.00  0.00    -0.014 A 
BRANCH  36  37
ATOM     37  C   UNL A   1      38.018  31.256  29.808  1.00  0.00     0.031 A 
ATOM     38  C   UNL A   1      38.849  30.162  29.205  1.00  0.00     0.074 A 
ATOM     39  C   UNL A   1      38.209  31.631  31.091  1.00  0.00     0.049 A 
ATOM     40  N   UNL A   1      39.870  29.531  29.724  1.00  0.00    -0.248 NA
ATOM     41  C   UNL A   1      38.483  29.706  27.856  1.00  0.00     0.031 C 
ATOM     42  C   UNL A   1      37.382  32.608  31.808  1.00  0.00     0.029 A 
ATOM     43  N   UNL A   1      39.110  31.211  32.035  1.00  0.00    -0.354 N 
ATOM     44  C   UNL A   1      40.267  28.594  28.778  1.00  0.00     0.074 A 
ATOM     45  C   UNL A   1      39.364  28.732  27.653  1.00  0.00     0.031 C 
ATOM     46  C   UNL A   1      37.797  32.695  33.079  1.00  0.00     0.029 A 
ATOM     47  C   UNL A   1      38.900  31.766  33.277  1.00  0.00     0.049 A 
ATOM     48  H   UNL A   1      39.837  30.575  31.844  1.00  0.00     0.167 HD
ATOM     49  C   UNL A   1      41.294  27.709  28.844  1.00  0.00     0.034 A 
ATOM     50  C   UNL A   1      39.513  31.543  34.455  1.00  0.00     0.034 A 
ATOM     51  C   UNL A   1      42.160  27.571  29.989  1.00  0.00     0.049 A 
ATOM     52  C   UNL A   1      40.661  30.578  34.492  1.00  0.00     0.074 A 
ATOM     53  C   UNL A   1      43.281  26.770  30.131  1.00  0.00     0.029 A 
ATOM     54  N   UNL A   1      41.983  28.222  31.201  1.00  0.00    -0.354 N 
ATOM     55  N   UNL A   1      41.149  29.847  33.520  1.00  0.00    -0.248 NA
ATOM     56  C   UNL A   1      41.371  30.439  35.768  1.00  0.00     0.031 C 
ATOM     57  C   UNL A   1      43.757  26.909  31.440  1.00  0.00     0.029 A 
ATOM     58  C   UNL A   1      42.959  27.827  32.103  1.00  0.00     0.049 A 
ATOM     59  H   UNL A   1      41.267  28.871  31.394  1.00  0.00     0.167 HD
ATOM     60  C   UNL A   1      42.246  29.186  34.055  1.00  0.00     0.074 A 
ATOM     61  C   UNL A   1      42.359  29.620  35.434  1.00  0.00     0.031 C 
ATOM     62  C   UNL A   1      43.078  28.296  33.461  1.00  0.00     0.034 A 
BRANCH  49  63
ATOM     63  C   UNL A   1      41.568  26.844  27.636  1.00  0.00     0.023 A 
ATOM     64  C   UNL A   1      42.163  27.420  26.494  1.00  0.00     0.012 A 
ATOM     65  C   UNL A   1      41.322  25.456  27.654  1.00  0.00     0.148 A 
ATOM     66  C   UNL A   1      42.477  26.640  25.382  1.00  0.00     0.002 A 
ATOM     67  C   UNL A   1      41.675  24.676  26.557  1.00  0.00     0.091 A 
ATOM     68  F   UNL A   1      40.748  24.923  28.743  1.00  0.00    -0.205 F 
ATOM     69  C   UNL A   1      42.242  25.268  25.416  1.00  0.00     0.022 A 
BRANCH  67  70
ATOM     70  S   UNL A   1      41.488  22.889  26.529  1.00  0.00     0.127 S 
ATOM     71  O   UNL A   1      42.169  22.502  27.764  1.00  0.00    -0.237 OA
ATOM     72  O   UNL A   1      40.033  22.731  26.563  1.00  0.00    -0.237 OA
ATOM     73  O   UNL A   1      42.122  22.436  25.300  1.00  0.00    -0.744 OA
ENDBRANCH  67  70
ENDBRANCH  49  63
BRANCH  50  74
ATOM     74  C   UNL A   1      39.090  32.307  35.662  1.00  0.00     0.023 A 
ATOM     75  C   UNL A   1      38.210  31.709  36.584  1.00  0.00     0.012 A 
ATOM     76  C   UNL A   1      39.610  33.587  35.940  1.00  0.00     0.148 A 
ATOM     77  C   UNL A   1      37.832  32.381  37.746  1.00  0.00     0.002 A 
ATOM     78  C   UNL A   1      39.274  34.228  37.127  1.00  0.00     0.091 A 
ATOM     79  F   UNL A   1      40.446  34.140  35.050  1.00  0.00    -0.205 F 
ATOM     80  C   UNL A   1      38.373  33.634  38.023  1.00  0.00     0.022 A 
BRANCH  78  81
ATOM     81  S   UNL A   1      40.034  35.775  37.633  1.00  0.00     0.127 S 
ATOM     82  O   UNL A   1      39.622  36.676  36.559  1.00  0.00    -0.237 OA
ATOM     83  O   UNL A   1      39.391  36.021  38.925  1.00  0.00    -0.237 OA
ATOM     84  O   UNL A   1      41.462  35.503  37.720  1.00  0.00    -0.744 OA
ENDBRANCH  78  81
ENDBRANCH  50  74
BRANCH  62  85
ATOM     85  C   UNL A   1      44.210  27.753  34.291  1.00  0.00     0.023 A 
ATOM     86  C   UNL A   1      45.410  28.483  34.410  1.00  0.00     0.012 A 
ATOM     87  C   UNL A   1      44.057  26.549  35.005  1.00  0.00     0.148 A 
ATOM     88  C   UNL A   1      46.453  28.004  35.201  1.00  0.00     0.002 A 
ATOM     89  C   UNL A   1      45.080  26.106  35.832  1.00  0.00     0.091 A 
ATOM     90  F   UNL A   1      42.916  25.860  34.859  1.00  0.00    -0.205 F 
ATOM     91  C   UNL A   1      46.284  26.824  35.922  1.00  0.00     0.022 A 
BRANCH  89  92
ATOM     92  S   UNL A   1      44.916  24.649  36.870  1.00  0.00     0.127 S 
ATOM     93  O   UNL A   1      46.258  24.535  37.439  1.00  0.00    -0.237 OA
ATOM     94  O   UNL A   1      43.885  25.064  37.822  1.00  0.00    -0.237 OA
ATOM     95  O   UNL A   1      44.520  23.563  35.983  1.00  0.00    -0.744 OA
ENDBRANCH  89  92
ENDBRANCH  62  85
ENDBRANCH  36  37
ENDBRANCH  28  31
ENDBRANCH  26  27
ENDBRANCH   1  26
TORSDOF 16
ENDMDL
MODEL 2
REMARK VINA RESULT:     -12.3      5.162     10.795
REMARK SMILES O=C(CCC(=O)N1CCC(c2nnc3ccccn23)CC1)NCCCNC(=O)c1ccc(-c2c3nc(c(-c4cccc(S(=O)(=O)[O-])c4F)c4ccc([nH]4)c(-c4cccc(S(=O)(=O)[O-])c4F)c4nc(c(-c5cccc(S(=O)(=O)[O-])c5F)c5ccc2[nH]5)C=C4)C=C3)cc1
REMARK SMILES IDX 24 1 23 2 22 3 1 4 2 5 3 7 4 8 5 9 6 10 7 11 8 12 21 13 9 14
REMARK SMILES IDX 20 15 10 16 11 17 12 18 19 19 13 20 14 21 18 22 15 23 17 24
REMARK SMILES IDX 16 25 25 26 26 27 27 28 28 30 29 31 30 32 91 33 31 34 90 35
REMARK SMILES IDX 32 36 33 37 34 38 84 39 35 40 89 41 83 42 85 43 36 44 88 45
REMARK SMILES IDX 82 46 81 47 37 49 69 50 49 51 68 52 50 53 53 54 67 55 86 56
REMARK SMILES IDX 51 57 52 58 66 60 87 61 54 62 38 63 39 64 47 65 40 66 42 67
REMARK SMILES IDX 48 68 41 69 43 70 44 71 45 72 46 73 70 74 71 75 79 76 72 77
REMARK SMILES IDX 74 78 80 79 73 80 75 81 76 82 77 83 78 84 55 85 56 86 64 87
REMARK SMILES IDX 57 88 59 89 65 90 58 91 60 92 61 93 62 94 63 95
REMARK H PARENT 22 6 26 29 85 48 53 59
REMARK Flexibility Score: inf
ROOT
ATOM      1  C   UNL A   1      37.887  20.186  24.511  1.00  0.00     0.042 C 
ENDROOT
BRANCH   1   2
ATOM      2  C   UNL A   1      36.980  21.418  24.568  1.00  0.00     0.117 C 
BRANCH   2   3
ATOM      3  N   UNL A   1      36.064  21.478  25.699  1.00  0.00    -0.356 N 
ATOM      4  O   UNL A   1      36.531  23.681  26.153  1.00  0.00    -0.275 OA
ATOM      5  C   UNL A   1      35.820  22.694  26.322  1.00  0.00     0.220 C 
ATOM      6  H   UNL A   1      35.622  20.658  26.021  1.00  0.00     0.163 HD
BRANCH   5   7
ATOM      7  C   UNL A   1      34.512  22.756  27.112  1.00  0.00     0.110 C 
BRANCH   7   8
ATOM      8  C   UNL A   1      33.373  22.041  26.367  1.00  0.00     0.110 C 
BRANCH   8   9
ATOM      9  C   UNL A   1      32.867  22.577  25.015  1.00  0.00     0.223 C 
ATOM     10  O   UNL A   1      33.453  22.235  23.983  1.00  0.00    -0.275 OA
ATOM     11  N   UNL A   1      31.676  23.287  24.954  1.00  0.00    -0.343 N 
ATOM     12  C   UNL A   1      30.925  23.414  23.705  1.00  0.00     0.120 C 
ATOM     13  C   UNL A   1      31.175  24.132  26.007  1.00  0.00     0.120 C 
ATOM     14  C   UNL A   1      30.789  24.872  23.234  1.00  0.00     0.033 C 
ATOM     15  C   UNL A   1      31.308  25.577  25.572  1.00  0.00     0.033 C 
ATOM     16  C   UNL A   1      30.392  25.825  24.373  1.00  0.00     0.062 C 
BRANCH  16  17
ATOM     17  C   UNL A   1      30.480  27.262  23.968  1.00  0.00     0.140 A 
ATOM     18  N   UNL A   1      31.579  27.996  23.986  1.00  0.00    -0.134 NA
ATOM     19  N   UNL A   1      29.412  28.058  23.606  1.00  0.00    -0.286 N 
ATOM     20  N   UNL A   1      31.245  29.290  23.668  1.00  0.00    -0.130 NA
ATOM     21  C   UNL A   1      29.949  29.330  23.457  1.00  0.00     0.160 A 
ATOM     22  C   UNL A   1      28.060  27.776  23.408  1.00  0.00     0.095 A 
ATOM     23  C   UNL A   1      29.058  30.390  23.138  1.00  0.00     0.050 A 
ATOM     24  C   UNL A   1      27.224  28.775  23.077  1.00  0.00     0.019 A 
ATOM     25  C   UNL A   1      27.750  30.127  22.954  1.00  0.00     0.005 A 
ENDBRANCH  16  17
ENDBRANCH   8   9
ENDBRANCH   7   8
ENDBRANCH   5   7
ENDBRANCH   2   3
ENDBRANCH   1   2
BRANCH   1  26
ATOM     26  C   UNL A   1      38.394  19.644  25.853  1.00  0.00     0.118 C 
BRANCH  26  27
ATOM     27  N   UNL A   1      39.789  19.213  25.841  1.00  0.00    -0.352 N 
ATOM     28  C   UNL A   1      40.926  19.845  26.302  1.00  0.00     0.251 C 
ATOM     29  H   UNL A   1      39.943  18.328  25.441  1.00  0.00     0.163 HD
ATOM     30  O   UNL A   1      41.991  19.227  26.257  1.00  0.00    -0.269 OA
BRANCH  28  31
ATOM     31  C   UNL A   1      40.919  21.246  26.806  1.00  0.00     0.039 A 
ATOM     32  C   UNL A   1      41.382  21.476  28.111  1.00  0.00     0.014 A 
ATOM     33  C   UNL A   1      40.472  22.329  26.048  1.00  0.00     0.014 A 
ATOM     34  C   UNL A   1      41.522  22.783  28.596  1.00  0.00     0.010 A 
ATOM     35  C   UNL A   1      40.653  23.635  26.508  1.00  0.00     0.010 A 
ATOM     36  C   UNL A   1      41.234  23.873  27.761  1.00  0.00    -0.014 A 
BRANCH  36  37
ATOM     37  C   UNL A   1      41.772  25.226  28.056  1.00  0.00     0.031 A 
ATOM     38  C   UNL A   1      40.927  26.320  28.637  1.00  0.00     0.074 A 
ATOM     39  C   UNL A   1      43.024  25.486  27.622  1.00  0.00     0.049 A 
ATOM     40  N   UNL A   1      41.261  27.557  28.902  1.00  0.00    -0.248 NA
ATOM     41  C   UNL A   1      39.527  25.995  28.949  1.00  0.00     0.031 C 
ATOM     42  C   UNL A   1      43.890  24.518  26.939  1.00  0.00     0.029 A 
ATOM     43  N   UNL A   1      43.768  26.638  27.633  1.00  0.00    -0.354 N 
ATOM     44  C   UNL A   1      40.116  28.168  29.399  1.00  0.00     0.074 A 
ATOM     45  C   UNL A   1      39.071  27.165  29.387  1.00  0.00     0.031 C 
ATOM     46  C   UNL A   1      45.032  25.118  26.580  1.00  0.00     0.029 A 
ATOM     47  C   UNL A   1      44.973  26.517  26.980  1.00  0.00     0.049 A 
ATOM     48  H   UNL A   1      43.469  27.470  28.067  1.00  0.00     0.167 HD
ATOM     49  C   UNL A   1      39.960  29.446  29.830  1.00  0.00     0.034 A 
ATOM     50  C   UNL A   1      45.925  27.432  26.713  1.00  0.00     0.034 A 
ATOM     51  C   UNL A   1      41.008  30.435  29.803  1.00  0.00     0.049 A 
ATOM     52  C   UNL A   1      45.735  28.830  27.223  1.00  0.00     0.074 A 
ATOM     53  C   UNL A   1      40.986  31.730  30.292  1.00  0.00     0.029 A 
ATOM     54  N   UNL A   1      42.257  30.253  29.224  1.00  0.00    -0.354 N 
ATOM     55  N   UNL A   1      44.716  29.333  27.876  1.00  0.00    -0.248 NA
ATOM     56  C   UNL A   1      46.838  29.772  27.005  1.00  0.00     0.031 C 
ATOM     57  C   UNL A   1      42.205  32.341  29.975  1.00  0.00     0.029 A 
ATOM     58  C   UNL A   1      43.004  31.415  29.325  1.00  0.00     0.049 A 
ATOM     59  H   UNL A   1      42.566  29.418  28.803  1.00  0.00     0.167 HD
ATOM     60  C   UNL A   1      45.067  30.641  28.179  1.00  0.00     0.074 A 
ATOM     61  C   UNL A   1      46.403  30.844  27.652  1.00  0.00     0.031 C 
ATOM     62  C   UNL A   1      44.346  31.589  28.827  1.00  0.00     0.034 A 
BRANCH  49  63
ATOM     63  C   UNL A   1      38.620  29.844  30.404  1.00  0.00     0.023 A 
ATOM     64  C   UNL A   1      38.306  29.493  31.734  1.00  0.00     0.012 A 
ATOM     65  C   UNL A   1      37.712  30.635  29.672  1.00  0.00     0.148 A 
ATOM     66  C   UNL A   1      37.101  29.890  32.312  1.00  0.00     0.002 A 
ATOM     67  C   UNL A   1      36.529  31.062  30.268  1.00  0.00     0.091 A 
ATOM     68  F   UNL A   1      38.019  30.955  28.406  1.00  0.00    -0.205 F 
ATOM     69  C   UNL A   1      36.217  30.681  31.584  1.00  0.00     0.022 A 
BRANCH  67  70
ATOM     70  S   UNL A   1      35.359  32.151  29.445  1.00  0.00     0.127 S 
ATOM     71  O   UNL A   1      34.416  32.441  30.526  1.00  0.00    -0.237 OA
ATOM     72  O   UNL A   1      36.208  33.280  29.061  1.00  0.00    -0.237 OA
ATOM     73  O   UNL A   1      34.815  31.390  28.331  1.00  0.00    -0.744 OA
ENDBRANCH  67  70
ENDBRANCH  49  63
BRANCH  50  74
ATOM     74  C   UNL A   1      47.161  27.021  25.991  1.00  0.00     0.023 A 
ATOM     75  C   UNL A   1      47.281  27.295  24.616  1.00  0.00     0.012 A 
ATOM     76  C   UNL A   1      48.245  26.428  26.670  1.00  0.00     0.148 A 
ATOM     77  C   UNL A   1      48.445  26.964  23.922  1.00  0.00     0.002 A 
ATOM     78  C   UNL A   1      49.423  26.152  25.986  1.00  0.00     0.091 A 
ATOM     79  F   UNL A   1      48.111  26.173  27.979  1.00  0.00    -0.205 F 
ATOM     80  C   UNL A   1      49.519  26.404  24.609  1.00  0.00     0.022 A 
BRANCH  78  81
ATOM     81  S   UNL A   1      50.904  25.566  26.818  1.00  0.00     0.127 S 
ATOM     82  O   UNL A   1      50.408  24.379  27.510  1.00  0.00    -0.237 OA
ATOM     83  O   UNL A   1      51.798  25.296  25.691  1.00  0.00    -0.237 OA
ATOM     84  O   UNL A   1      51.336  26.664  27.672  1.00  0.00    -0.744 OA
ENDBRANCH  78  81
ENDBRANCH  50  74
BRANCH  62  85
ATOM     85  C   UNL A   1      45.000  32.928  29.033  1.00  0.00     0.023 A 
ATOM     86  C   UNL A   1      45.731  33.182  30.211  1.00  0.00     0.012 A 
ATOM     87  C   UNL A   1      44.942  33.913  28.027  1.00  0.00     0.148 A 
ATOM     88  C   UNL A   1      46.367  34.409  30.399  1.00  0.00     0.002 A 
ATOM     89  C   UNL A   1      45.622  35.112  28.199  1.00  0.00     0.091 A 
ATOM     90  F   UNL A   1      44.223  33.659  26.925  1.00  0.00    -0.205 F 
ATOM     91  C   UNL A   1      46.323  35.367  29.389  1.00  0.00     0.022 A 
BRANCH  89  92
ATOM     92  S   UNL A   1      45.702  36.365  26.915  1.00  0.00     0.127 S 
ATOM     93  O   UNL A   1      45.950  35.556  25.723  1.00  0.00    -0.237 OA
ATOM     94  O   UNL A   1      44.367  36.960  26.983  1.00  0.00    -0.237 OA
ATOM     95  O   UNL A   1      46.785  37.264  27.295  1.00  0.00    -0.744 OA
ENDBRANCH  89  92
ENDBRANCH  62  85
ENDBRANCH  36  37
ENDBRANCH  28  31
ENDBRANCH  26  27
ENDBRANCH   1  26
TORSDOF 16
ENDMDL
MODEL 3
REMARK VINA RESULT:     -12.1      2.168      2.789
REMARK SMILES O=C(CCC(=O)N1CCC(c2nnc3ccccn23)CC1)NCCCNC(=O)c1ccc(-c2c3nc(c(-c4cccc(S(=O)(=O)[O-])c4F)c4ccc([nH]4)c(-c4cccc(S(=O)(=O)[O-])c4F)c4nc(c(-c5cccc(S(=O)(=O)[O-])c5F)c5ccc2[nH]5)C=C4)C=C3)cc1
REMARK SMILES IDX 24 1 23 2 22 3 1 4 2 5 3 7 4 8 5 9 6 10 7 11 8 12 21 13 9 14
REMARK SMILES IDX 20 15 10 16 11 17 12 18 19 19 13 20 14 21 18 22 15 23 17 24
REMARK SMILES IDX 16 25 25 26 26 27 27 28 28 30 29 31 30 32 91 33 31 34 90 35
REMARK SMILES IDX 32 36 33 37 34 38 84 39 35 40 89 41 83 42 85 43 36 44 88 45
REMARK SMILES IDX 82 46 81 47 37 49 69 50 49 51 68 52 50 53 53 54 67 55 86 56
REMARK SMILES IDX 51 57 52 58 66 60 87 61 54 62 38 63 39 64 47 65 40 66 42 67
REMARK SMILES IDX 48 68 41 69 43 70 44 71 45 72 46 73 70 74 71 75 79 76 72 77
REMARK SMILES IDX 74 78 80 79 73 80 75 81 76 82 77 83 78 84 55 85 56 86 64 87
REMARK SMILES IDX 57 88 59 89 65 90 58 91 60 92 61 93 62 94 63 95
REMARK H PARENT 22 6 26 29 85 48 53 59
REMARK Flexibility Score: inf
ROOT
ATOM      1  C   UNL A   1      32.474  30.491  27.125  1.00  0.00     0.042 C 
ENDROOT
BRANCH   1   2
ATOM      2  C   UNL A   1      31.775  30.411  25.765  1.00  0.00     0.117 C 
BRANCH   2   3
ATOM      3  N   UNL A   1      31.360  29.080  25.344  1.00  0.00    -0.356 N 
ATOM      4  O   UNL A   1      30.220  29.854  23.505  1.00  0.00    -0.275 OA
ATOM      5  C   UNL A   1      30.709  28.916  24.129  1.00  0.00     0.220 C 
ATOM      6  H   UNL A   1      31.539  28.301  25.920  1.00  0.00     0.163 HD
BRANCH   5   7
ATOM      7  C   UNL A   1      30.782  27.502  23.551  1.00  0.00     0.110 C 
BRANCH   7   8
ATOM      8  C   UNL A   1      29.891  26.528  24.340  1.00  0.00     0.110 C 
BRANCH   8   9
ATOM      9  C   UNL A   1      30.469  25.720  25.517  1.00  0.00     0.223 C 
ATOM     10  O   UNL A   1      30.727  26.310  26.572  1.00  0.00    -0.275 OA
ATOM     11  N   UNL A   1      30.533  24.336  25.442  1.00  0.00    -0.343 N 
ATOM     12  C   UNL A   1      30.624  23.509  26.646  1.00  0.00     0.120 C 
ATOM     13  C   UNL A   1      30.734  23.593  24.225  1.00  0.00     0.120 C 
ATOM     14  C   UNL A   1      31.918  22.680  26.705  1.00  0.00     0.033 C 
ATOM     15  C   UNL A   1      32.132  23.011  24.240  1.00  0.00     0.033 C 
ATOM     16  C   UNL A   1      32.236  21.986  25.370  1.00  0.00     0.062 C 
BRANCH  16  17
ATOM     17  C   UNL A   1      33.599  21.370  25.361  1.00  0.00     0.140 A 
ATOM     18  N   UNL A   1      34.733  22.018  25.566  1.00  0.00    -0.134 NA
ATOM     19  N   UNL A   1      33.880  20.057  25.044  1.00  0.00    -0.286 N 
ATOM     20  N   UNL A   1      35.776  21.149  25.356  1.00  0.00    -0.130 NA
ATOM     21  C   UNL A   1      35.267  19.983  25.029  1.00  0.00     0.160 A 
ATOM     22  C   UNL A   1      33.058  18.962  24.773  1.00  0.00     0.095 A 
ATOM     23  C   UNL A   1      35.859  18.742  24.670  1.00  0.00     0.050 A 
ATOM     24  C   UNL A   1      33.620  17.781  24.463  1.00  0.00     0.019 A 
ATOM     25  C   UNL A   1      35.071  17.683  24.399  1.00  0.00     0.005 A 
ENDBRANCH  16  17
ENDBRANCH   8   9
ENDBRANCH   7   8
ENDBRANCH   5   7
ENDBRANCH   2   3
ENDBRANCH   1   2
BRANCH   1  26
ATOM     26  C   UNL A   1      33.476  31.636  27.316  1.00  0.00     0.118 C 
BRANCH  26  27
ATOM     27  N   UNL A   1      32.867  32.924  27.632  1.00  0.00    -0.352 N 
ATOM     28  C   UNL A   1      33.298  33.939  28.464  1.00  0.00     0.251 C 
ATOM     29  H   UNL A   1      32.012  33.098  27.179  1.00  0.00     0.163 HD
ATOM     30  O   UNL A   1      32.640  34.980  28.495  1.00  0.00    -0.269 OA
BRANCH  28  31
ATOM     31  C   UNL A   1      34.490  33.804  29.346  1.00  0.00     0.039 A 
ATOM     32  C   UNL A   1      34.316  33.184  30.592  1.00  0.00     0.014 A 
ATOM     33  C   UNL A   1      35.757  34.269  28.994  1.00  0.00     0.014 A 
ATOM     34  C   UNL A   1      35.420  32.910  31.410  1.00  0.00     0.010 A 
ATOM     35  C   UNL A   1      36.867  33.957  29.783  1.00  0.00     0.010 A 
ATOM     36  C   UNL A   1      36.714  33.225  30.968  1.00  0.00    -0.014 A 
BRANCH  36  37
ATOM     37  C   UNL A   1      37.907  32.576  31.569  1.00  0.00     0.031 A 
ATOM     38  C   UNL A   1      38.588  31.398  30.938  1.00  0.00     0.074 A 
ATOM     39  C   UNL A   1      38.259  32.987  32.806  1.00  0.00     0.049 A 
ATOM     40  N   UNL A   1      39.610  30.712  31.380  1.00  0.00    -0.248 NA
ATOM     41  C   UNL A   1      38.050  30.918  29.656  1.00  0.00     0.031 C 
ATOM     42  C   UNL A   1      37.584  34.052  33.556  1.00  0.00     0.029 A 
ATOM     43  N   UNL A   1      39.221  32.536  33.673  1.00  0.00    -0.354 N 
ATOM     44  C   UNL A   1      39.836  29.709  30.444  1.00  0.00     0.074 A 
ATOM     45  C   UNL A   1      38.833  29.871  29.412  1.00  0.00     0.031 C 
ATOM     46  C   UNL A   1      38.135  34.159  34.772  1.00  0.00     0.029 A 
ATOM     47  C   UNL A   1      39.183  33.155  34.901  1.00  0.00     0.049 A 
ATOM     48  H   UNL A   1      39.875  31.839  33.439  1.00  0.00     0.167 HD
ATOM     49  C   UNL A   1      40.797  28.751  30.448  1.00  0.00     0.034 A 
ATOM     50  C   UNL A   1      39.898  32.934  36.021  1.00  0.00     0.034 A 
ATOM     51  C   UNL A   1      41.767  28.592  31.504  1.00  0.00     0.049 A 
ATOM     52  C   UNL A   1      40.970  31.885  35.988  1.00  0.00     0.074 A 
ATOM     53  C   UNL A   1      42.835  27.714  31.570  1.00  0.00     0.029 A 
ATOM     54  N   UNL A   1      41.765  29.304  32.696  1.00  0.00    -0.354 N 
ATOM     55  N   UNL A   1      41.300  31.080  35.006  1.00  0.00    -0.248 NA
ATOM     56  C   UNL A   1      41.799  31.743  37.190  1.00  0.00     0.031 C 
ATOM     57  C   UNL A   1      43.454  27.869  32.815  1.00  0.00     0.029 A 
ATOM     58  C   UNL A   1      42.799  28.871  33.511  1.00  0.00     0.049 A 
ATOM     59  H   UNL A   1      41.123  30.013  32.929  1.00  0.00     0.167 HD
ATOM     60  C   UNL A   1      42.396  30.359  35.458  1.00  0.00     0.074 A 
ATOM     61  C   UNL A   1      42.685  30.838  36.796  1.00  0.00     0.031 C 
ATOM     62  C   UNL A   1      43.094  29.384  34.826  1.00  0.00     0.034 A 
BRANCH  49  63
ATOM     63  C   UNL A   1      40.879  27.820  29.262  1.00  0.00     0.023 A 
ATOM     64  C   UNL A   1      40.044  26.685  29.214  1.00  0.00     0.012 A 
ATOM     65  C   UNL A   1      41.710  28.106  28.159  1.00  0.00     0.148 A 
ATOM     66  C   UNL A   1      40.058  25.833  28.110  1.00  0.00     0.002 A 
ATOM     67  C   UNL A   1      41.689  27.275  27.043  1.00  0.00     0.091 A 
ATOM     68  F   UNL A   1      42.505  29.184  28.220  1.00  0.00    -0.205 F 
ATOM     69  C   UNL A   1      40.872  26.132  27.021  1.00  0.00     0.022 A 
BRANCH  67  70
ATOM     70  S   UNL A   1      42.639  27.613  25.555  1.00  0.00     0.127 S 
ATOM     71  O   UNL A   1      42.002  28.837  25.070  1.00  0.00    -0.237 OA
ATOM     72  O   UNL A   1      43.989  27.802  26.089  1.00  0.00    -0.237 OA
ATOM     73  O   UNL A   1      42.480  26.447  24.700  1.00  0.00    -0.744 OA
ENDBRANCH  67  70
ENDBRANCH  49  63
BRANCH  50  74
ATOM     74  C   UNL A   1      39.661  33.775  37.227  1.00  0.00     0.023 A 
ATOM     75  C   UNL A   1      40.095  35.114  37.230  1.00  0.00     0.012 A 
ATOM     76  C   UNL A   1      38.946  33.283  38.336  1.00  0.00     0.148 A 
ATOM     77  C   UNL A   1      39.847  35.940  38.327  1.00  0.00     0.002 A 
ATOM     78  C   UNL A   1      38.652  34.126  39.402  1.00  0.00     0.091 A 
ATOM     79  F   UNL A   1      38.541  32.004  38.315  1.00  0.00    -0.205 F 
ATOM     80  C   UNL A   1      39.116  35.450  39.406  1.00  0.00     0.022 A 
BRANCH  78  81
ATOM     81  S   UNL A   1      37.595  33.623  40.764  1.00  0.00     0.127 S 
ATOM     82  O   UNL A   1      36.434  33.083  40.059  1.00  0.00    -0.237 OA
ATOM     83  O   UNL A   1      38.425  32.625  41.440  1.00  0.00    -0.237 OA
ATOM     84  O   UNL A   1      37.358  34.830  41.545  1.00  0.00    -0.744 OA
ENDBRANCH  78  81
ENDBRANCH  50  74
BRANCH  62  85
ATOM     85  C   UNL A   1      44.264  28.789  35.562  1.00  0.00     0.023 A 
ATOM     86  C   UNL A   1      45.558  29.315  35.370  1.00  0.00     0.012 A 
ATOM     87  C   UNL A   1      44.069  27.750  36.492  1.00  0.00     0.148 A 
ATOM     88  C   UNL A   1      46.645  28.791  36.070  1.00  0.00     0.002 A 
ATOM     89  C   UNL A   1      45.147  27.271  37.224  1.00  0.00     0.091 A 
ATOM     90  F   UNL A   1      42.833  27.251  36.642  1.00  0.00    -0.205 F 
ATOM     91  C   UNL A   1      46.437  27.779  37.006  1.00  0.00     0.022 A 
BRANCH  89  92
ATOM     92  S   UNL A   1      44.961  26.037  38.516  1.00  0.00     0.127 S 
ATOM     93  O   UNL A   1      44.022  26.695  39.424  1.00  0.00    -0.237 OA
ATOM     94  O   UNL A   1      44.403  24.902  37.780  1.00  0.00    -0.237 OA
ATOM     95  O   UNL A   1      46.295  25.812  39.056  1.00  0.00    -0.744 OA
ENDBRANCH  89  92
ENDBRANCH  62  85
ENDBRANCH  36  37
ENDBRANCH  28  31
ENDBRANCH  26  27
ENDBRANCH   1  26
TORSDOF 16
ENDMDL
