MODEL 1
REMARK VINA RESULT:     -11.7      0.000      0.000
REMARK SMILES O=C(NCCCNC(=O)[C@@H]1C=C[C@H](NC(=O)[C@@H]2CCSC2)C1)c1ccc(-c2c3nc(c(-c4cccc(S(=O)(=O)[O-])c4F)c4ccc([nH]4)c(-c4cccc(S(=O)(=O)[O-])c4F)c4nc(c(-c5cccc(S(=O)(=O)[O-])c5F)c5ccc2[nH]5)C=C4)C=C3)cc1
REMARK SMILES IDX 4 1 3 2 1 3 2 4 23 6 24 7 85 8 25 9 84 10 26 11 27 12 28 13
REMARK SMILES IDX 78 14 29 15 83 16 77 17 79 18 30 19 82 20 76 21 75 22 31 24
REMARK SMILES IDX 63 25 43 26 62 27 44 28 47 29 61 30 80 31 45 32 46 33 60 35
REMARK SMILES IDX 81 36 48 37 32 38 33 39 41 40 34 41 36 42 42 43 35 44 37 45
REMARK SMILES IDX 38 46 39 47 40 48 64 49 65 50 73 51 66 52 68 53 74 54 67 55
REMARK SMILES IDX 69 56 70 57 71 58 72 59 49 60 50 61 58 62 51 63 53 64 59 65
REMARK SMILES IDX 52 66 54 67 55 68 56 69 57 70 5 71 6 72 7 73 8 74 9 76 10 77
REMARK SMILES IDX 11 78 22 79 12 80 13 81 14 82 15 83 16 85 17 86 18 87 21 88
REMARK SMILES IDX 19 89 20 90
REMARK H PARENT 3 5 79 23 47 34 7 75 14 84
REMARK Flexibility Score: inf
ROOT
ATOM      1  C   UNL A   1      33.299  29.218  25.340  1.00  0.00     0.118 C 
ENDROOT
BRANCH   1   2
ATOM      2  N   UNL A   1      32.704  30.485  25.747  1.00  0.00    -0.352 N 
ATOM      3  O   UNL A   1      32.290  32.217  27.128  1.00  0.00    -0.269 OA
ATOM      4  C   UNL A   1      33.043  31.302  26.802  1.00  0.00     0.251 C 
ATOM      5  H   UNL A   1      31.957  30.800  25.190  1.00  0.00     0.163 HD
BRANCH   4   6
ATOM      6  C   UNL A   1      34.299  31.053  27.545  1.00  0.00     0.039 A 
ATOM      7  C   UNL A   1      34.529  29.801  28.110  1.00  0.00     0.014 A 
ATOM      8  C   UNL A   1      35.247  32.068  27.693  1.00  0.00     0.014 A 
ATOM      9  C   UNL A   1      35.575  29.628  28.998  1.00  0.00     0.010 A 
ATOM     10  C   UNL A   1      36.402  31.832  28.451  1.00  0.00     0.010 A 
ATOM     11  C   UNL A   1      36.563  30.616  29.131  1.00  0.00    -0.014 A 
BRANCH  11  12
ATOM     12  C   UNL A   1      37.795  30.256  29.881  1.00  0.00     0.031 A 
ATOM     13  C   UNL A   1      38.039  30.713  31.291  1.00  0.00     0.074 A 
ATOM     14  C   UNL A   1      38.678  29.442  29.265  1.00  0.00     0.049 A 
ATOM     15  N   UNL A   1      39.034  30.408  32.084  1.00  0.00    -0.248 NA
ATOM     16  C   UNL A   1      37.059  31.633  31.890  1.00  0.00     0.031 C 
ATOM     17  C   UNL A   1      38.567  28.984  27.874  1.00  0.00     0.029 A 
ATOM     18  N   UNL A   1      39.817  28.831  29.718  1.00  0.00    -0.354 N 
ATOM     19  C   UNL A   1      38.825  31.120  33.257  1.00  0.00     0.074 A 
ATOM     20  C   UNL A   1      37.609  31.884  33.072  1.00  0.00     0.031 C 
ATOM     21  C   UNL A   1      39.550  28.115  27.612  1.00  0.00     0.029 A 
ATOM     22  C   UNL A   1      40.417  28.028  28.777  1.00  0.00     0.049 A 
ATOM     23  H   UNL A   1      40.170  28.954  30.628  1.00  0.00     0.167 HD
ATOM     24  C   UNL A   1      39.573  31.125  34.387  1.00  0.00     0.034 A 
ATOM     25  C   UNL A   1      41.560  27.320  28.824  1.00  0.00     0.034 A 
ATOM     26  C   UNL A   1      40.772  30.345  34.564  1.00  0.00     0.049 A 
ATOM     27  C   UNL A   1      42.348  27.330  30.098  1.00  0.00     0.074 A 
ATOM     28  C   UNL A   1      41.585  30.255  35.682  1.00  0.00     0.029 A 
ATOM     29  N   UNL A   1      41.337  29.523  33.599  1.00  0.00    -0.354 N 
ATOM     30  N   UNL A   1      42.075  27.932  31.229  1.00  0.00    -0.248 NA
ATOM     31  C   UNL A   1      43.590  26.548  30.110  1.00  0.00     0.031 C 
ATOM     32  C   UNL A   1      42.651  29.400  35.384  1.00  0.00     0.029 A 
ATOM     33  C   UNL A   1      42.486  28.928  34.093  1.00  0.00     0.049 A 
ATOM     34  H   UNL A   1      40.973  29.384  32.694  1.00  0.00     0.167 HD
ATOM     35  C   UNL A   1      43.104  27.592  32.095  1.00  0.00     0.074 A 
ATOM     36  C   UNL A   1      43.978  26.691  31.369  1.00  0.00     0.031 C 
ATOM     37  C   UNL A   1      43.323  28.007  33.367  1.00  0.00     0.034 A 
BRANCH  24  38
ATOM     38  C   UNL A   1      39.106  31.971  35.544  1.00  0.00     0.023 A 
ATOM     39  C   UNL A   1      38.187  31.437  36.471  1.00  0.00     0.012 A 
ATOM     40  C   UNL A   1      39.640  33.257  35.768  1.00  0.00     0.148 A 
ATOM     41  C   UNL A   1      37.790  32.174  37.587  1.00  0.00     0.002 A 
ATOM     42  C   UNL A   1      39.272  33.969  36.905  1.00  0.00     0.091 A 
ATOM     43  F   UNL A   1      40.501  33.755  34.870  1.00  0.00    -0.205 F 
ATOM     44  C   UNL A   1      38.341  33.433  37.809  1.00  0.00     0.022 A 
BRANCH  42  45
ATOM     45  S   UNL A   1      39.980  35.566  37.328  1.00  0.00     0.127 S 
ATOM     46  O   UNL A   1      39.290  35.871  38.581  1.00  0.00    -0.237 OA
ATOM     47  O   UNL A   1      41.398  35.241  37.478  1.00  0.00    -0.237 OA
ATOM     48  O   UNL A   1      39.669  36.453  36.216  1.00  0.00    -0.744 OA
ENDBRANCH  42  45
ENDBRANCH  24  38
BRANCH  25  49
ATOM     49  C   UNL A   1      42.015  26.557  27.629  1.00  0.00     0.023 A 
ATOM     50  C   UNL A   1      42.802  27.188  26.647  1.00  0.00     0.012 A 
ATOM     51  C   UNL A   1      41.694  25.193  27.479  1.00  0.00     0.148 A 
ATOM     52  C   UNL A   1      43.227  26.483  25.520  1.00  0.00     0.002 A 
ATOM     53  C   UNL A   1      42.181  24.481  26.392  1.00  0.00     0.091 A 
ATOM     54  F   UNL A   1      40.930  24.612  28.416  1.00  0.00    -0.205 F 
ATOM     55  C   UNL A   1      42.928  25.129  25.398  1.00  0.00     0.022 A 
BRANCH  53  56
ATOM     56  S   UNL A   1      41.972  22.703  26.252  1.00  0.00     0.127 S 
ATOM     57  O   UNL A   1      42.666  22.418  25.000  1.00  0.00    -0.237 OA
ATOM     58  O   UNL A   1      42.650  22.221  27.457  1.00  0.00    -0.237 OA
ATOM     59  O   UNL A   1      40.532  22.480  26.251  1.00  0.00    -0.744 OA
ENDBRANCH  53  56
ENDBRANCH  25  49
BRANCH  37  60
ATOM     60  C   UNL A   1      44.549  27.466  34.052  1.00  0.00     0.023 A 
ATOM     61  C   UNL A   1      45.765  28.175  33.978  1.00  0.00     0.012 A 
ATOM     62  C   UNL A   1      44.490  26.267  34.786  1.00  0.00     0.148 A 
ATOM     63  C   UNL A   1      46.917  27.669  34.578  1.00  0.00     0.002 A 
ATOM     64  C   UNL A   1      45.629  25.798  35.429  1.00  0.00     0.091 A 
ATOM     65  F   UNL A   1      43.330  25.596  34.828  1.00  0.00    -0.205 F 
ATOM     66  C   UNL A   1      46.846  26.487  35.311  1.00  0.00     0.022 A 
BRANCH  64  67
ATOM     67  S   UNL A   1      45.610  24.335  36.470  1.00  0.00     0.127 S 
ATOM     68  O   UNL A   1      46.977  24.320  36.987  1.00  0.00    -0.237 OA
ATOM     69  O   UNL A   1      44.587  24.673  37.459  1.00  0.00    -0.237 OA
ATOM     70  O   UNL A   1      45.259  23.225  35.594  1.00  0.00    -0.744 OA
ENDBRANCH  64  67
ENDBRANCH  37  60
ENDBRANCH  11  12
ENDBRANCH   4   6
ENDBRANCH   1   2
BRANCH   1  71
ATOM     71  C   UNL A   1      32.382  28.050  25.626  1.00  0.00     0.042 C 
BRANCH  71  72
ATOM     72  C   UNL A   1      33.146  26.740  25.709  1.00  0.00     0.117 C 
BRANCH  72  73
ATOM     73  N   UNL A   1      33.447  26.236  24.383  1.00  0.00    -0.356 N 
ATOM     74  C   UNL A   1      34.178  25.170  23.967  1.00  0.00     0.227 C 
ATOM     75  H   UNL A   1      33.049  26.763  23.652  1.00  0.00     0.163 HD
ATOM     76  O   UNL A   1      34.290  25.022  22.745  1.00  0.00    -0.274 OA
BRANCH  74  77
ATOM     77  C   UNL A   1      34.763  24.113  24.913  1.00  0.00     0.103 C 
ATOM     78  C   UNL A   1      35.807  23.330  24.197  1.00  0.00    -0.016 C 
ATOM     79  C   UNL A   1      33.854  23.041  25.532  1.00  0.00     0.047 C 
ATOM     80  C   UNL A   1      35.575  22.018  24.260  1.00  0.00    -0.006 C 
ATOM     81  C   UNL A   1      34.380  21.655  25.077  1.00  0.00     0.106 C 
BRANCH  81  82
ATOM     82  N   UNL A   1      33.406  20.939  24.276  1.00  0.00    -0.350 N 
ATOM     83  C   UNL A   1      33.018  19.652  24.152  1.00  0.00     0.224 C 
ATOM     84  H   UNL A   1      32.906  21.538  23.675  1.00  0.00     0.164 HD
ATOM     85  O   UNL A   1      32.148  19.439  23.298  1.00  0.00    -0.275 OA
BRANCH  83  86
ATOM     86  C   UNL A   1      33.592  18.474  24.924  1.00  0.00     0.089 C 
ATOM     87  C   UNL A   1      34.649  17.629  24.218  1.00  0.00     0.025 C 
ATOM     88  C   UNL A   1      32.528  17.610  25.586  1.00  0.00     0.083 C 
ATOM     89  C   UNL A   1      34.108  16.248  23.914  1.00  0.00     0.070 C 
ATOM     90  S   UNL A   1      32.987  15.880  25.279  1.00  0.00    -0.161 SA
ENDBRANCH  83  86
ENDBRANCH  81  82
ENDBRANCH  74  77
ENDBRANCH  72  73
ENDBRANCH  71  72
ENDBRANCH   1  71
TORSDOF 15
ENDMDL
MODEL 2
REMARK VINA RESULT:     -11.6      1.383      1.643
REMARK SMILES O=C(NCCCNC(=O)[C@@H]1C=C[C@H](NC(=O)[C@@H]2CCSC2)C1)c1ccc(-c2c3nc(c(-c4cccc(S(=O)(=O)[O-])c4F)c4ccc([nH]4)c(-c4cccc(S(=O)(=O)[O-])c4F)c4nc(c(-c5cccc(S(=O)(=O)[O-])c5F)c5ccc2[nH]5)C=C4)C=C3)cc1
REMARK SMILES IDX 4 1 3 2 1 3 2 4 23 6 24 7 85 8 25 9 84 10 26 11 27 12 28 13
REMARK SMILES IDX 78 14 29 15 83 16 77 17 79 18 30 19 82 20 76 21 75 22 31 24
REMARK SMILES IDX 63 25 43 26 62 27 44 28 47 29 61 30 80 31 45 32 46 33 60 35
REMARK SMILES IDX 81 36 48 37 32 38 33 39 41 40 34 41 36 42 42 43 35 44 37 45
REMARK SMILES IDX 38 46 39 47 40 48 64 49 65 50 73 51 66 52 68 53 74 54 67 55
REMARK SMILES IDX 69 56 70 57 71 58 72 59 49 60 50 61 58 62 51 63 53 64 59 65
REMARK SMILES IDX 52 66 54 67 55 68 56 69 57 70 5 71 6 72 7 73 8 74 9 76 10 77
REMARK SMILES IDX 11 78 22 79 12 80 13 81 14 82 15 83 16 85 17 86 18 87 21 88
REMARK SMILES IDX 19 89 20 90
REMARK H PARENT 3 5 79 23 47 34 7 75 14 84
REMARK Flexibility Score: inf
ROOT
ATOM      1  C   UNL A   1      33.784  28.841  25.351  1.00  0.00     0.118 C 
ENDROOT
BRANCH   1   2
ATOM      2  N   UNL A   1      33.147  30.069  25.809  1.00  0.00    -0.352 N 
ATOM      3  O   UNL A   1      32.698  31.744  27.248  1.00  0.00    -0.269 OA
ATOM      4  C   UNL A   1      33.479  30.872  26.877  1.00  0.00     0.251 C 
ATOM      5  H   UNL A   1      32.372  30.366  25.280  1.00  0.00     0.163 HD
BRANCH   4   6
ATOM      6  C   UNL A   1      34.765  30.659  27.578  1.00  0.00     0.039 A 
ATOM      7  C   UNL A   1      35.014  29.441  28.206  1.00  0.00     0.014 A 
ATOM      8  C   UNL A   1      35.723  31.674  27.627  1.00  0.00     0.014 A 
ATOM      9  C   UNL A   1      36.097  29.314  29.058  1.00  0.00     0.010 A 
ATOM     10  C   UNL A   1      36.908  31.476  28.347  1.00  0.00     0.010 A 
ATOM     11  C   UNL A   1      37.094  30.301  29.090  1.00  0.00    -0.014 A 
BRANCH  11  12
ATOM     12  C   UNL A   1      38.355  29.978  29.807  1.00  0.00     0.031 A 
ATOM     13  C   UNL A   1      38.654  30.501  31.182  1.00  0.00     0.074 A 
ATOM     14  C   UNL A   1      39.215  29.136  29.195  1.00  0.00     0.049 A 
ATOM     15  N   UNL A   1      39.681  30.234  31.948  1.00  0.00    -0.248 NA
ATOM     16  C   UNL A   1      37.696  31.447  31.776  1.00  0.00     0.031 C 
ATOM     17  C   UNL A   1      39.051  28.612  27.832  1.00  0.00     0.029 A 
ATOM     18  N   UNL A   1      40.372  28.547  29.631  1.00  0.00    -0.354 N 
ATOM     19  C   UNL A   1      39.517  31.001  33.094  1.00  0.00     0.074 A 
ATOM     20  C   UNL A   1      38.292  31.754  32.922  1.00  0.00     0.031 C 
ATOM     21  C   UNL A   1      40.024  27.732  27.573  1.00  0.00     0.029 A 
ATOM     22  C   UNL A   1      40.937  27.701  28.705  1.00  0.00     0.049 A 
ATOM     23  H   UNL A   1      40.761  28.714  30.519  1.00  0.00     0.167 HD
ATOM     24  C   UNL A   1      40.309  31.059  34.193  1.00  0.00     0.034 A 
ATOM     25  C   UNL A   1      42.082  26.996  28.741  1.00  0.00     0.034 A 
ATOM     26  C   UNL A   1      41.515  30.289  34.358  1.00  0.00     0.049 A 
ATOM     27  C   UNL A   1      42.920  27.067  29.980  1.00  0.00     0.074 A 
ATOM     28  C   UNL A   1      42.372  30.253  35.446  1.00  0.00     0.029 A 
ATOM     29  N   UNL A   1      42.043  29.423  33.411  1.00  0.00    -0.354 N 
ATOM     30  N   UNL A   1      42.690  27.722  31.092  1.00  0.00    -0.248 NA
ATOM     31  C   UNL A   1      44.163  26.287  29.980  1.00  0.00     0.031 C 
ATOM     32  C   UNL A   1      43.427  29.385  35.147  1.00  0.00     0.029 A 
ATOM     33  C   UNL A   1      43.213  28.852  33.887  1.00  0.00     0.049 A 
ATOM     34  H   UNL A   1      41.645  29.241  32.529  1.00  0.00     0.167 HD
ATOM     35  C   UNL A   1      43.754  27.423  31.931  1.00  0.00     0.074 A 
ATOM     36  C   UNL A   1      44.601  26.490  31.214  1.00  0.00     0.031 C 
ATOM     37  C   UNL A   1      44.023  27.899  33.172  1.00  0.00     0.034 A 
BRANCH  24  38
ATOM     38  C   UNL A   1      39.885  31.959  35.326  1.00  0.00     0.023 A 
ATOM     39  C   UNL A   1      40.284  33.312  35.326  1.00  0.00     0.012 A 
ATOM     40  C   UNL A   1      39.022  31.496  36.340  1.00  0.00     0.148 A 
ATOM     41  C   UNL A   1      39.851  34.183  36.326  1.00  0.00     0.002 A 
ATOM     42  C   UNL A   1      38.559  32.380  37.309  1.00  0.00     0.091 A 
ATOM     43  F   UNL A   1      38.663  30.205  36.332  1.00  0.00    -0.205 F 
ATOM     44  C   UNL A   1      38.981  33.719  37.309  1.00  0.00     0.022 A 
BRANCH  42  45
ATOM     45  S   UNL A   1      37.374  31.908  38.575  1.00  0.00     0.127 S 
ATOM     46  O   UNL A   1      36.313  32.892  38.367  1.00  0.00    -0.237 OA
ATOM     47  O   UNL A   1      37.028  30.545  38.175  1.00  0.00    -0.237 OA
ATOM     48  O   UNL A   1      38.077  32.013  39.846  1.00  0.00    -0.744 OA
ENDBRANCH  42  45
ENDBRANCH  24  38
BRANCH  25  49
ATOM     49  C   UNL A   1      42.492  26.179  27.566  1.00  0.00     0.023 A 
ATOM     50  C   UNL A   1      43.366  26.716  26.602  1.00  0.00     0.012 A 
ATOM     51  C   UNL A   1      42.039  24.852  27.418  1.00  0.00     0.148 A 
ATOM     52  C   UNL A   1      43.749  25.959  25.494  1.00  0.00     0.002 A 
ATOM     53  C   UNL A   1      42.482  24.082  26.351  1.00  0.00     0.091 A 
ATOM     54  F   UNL A   1      41.194  24.362  28.337  1.00  0.00    -0.205 F 
ATOM     55  C   UNL A   1      43.318  24.641  25.375  1.00  0.00     0.022 A 
BRANCH  53  56
ATOM     56  S   UNL A   1      42.098  22.333  26.220  1.00  0.00     0.127 S 
ATOM     57  O   UNL A   1      42.816  21.960  25.005  1.00  0.00    -0.237 OA
ATOM     58  O   UNL A   1      42.667  21.803  27.461  1.00  0.00    -0.237 OA
ATOM     59  O   UNL A   1      40.645  22.259  26.153  1.00  0.00    -0.744 OA
ENDBRANCH  53  56
ENDBRANCH  25  49
BRANCH  37  60
ATOM     60  C   UNL A   1      45.276  27.391  33.834  1.00  0.00     0.023 A 
ATOM     61  C   UNL A   1      46.497  28.068  33.637  1.00  0.00     0.012 A 
ATOM     62  C   UNL A   1      45.240  26.257  34.665  1.00  0.00     0.148 A 
ATOM     63  C   UNL A   1      47.672  27.590  34.214  1.00  0.00     0.002 A 
ATOM     64  C   UNL A   1      46.405  25.819  35.282  1.00  0.00     0.091 A 
ATOM     65  F   UNL A   1      44.073  25.614  34.823  1.00  0.00    -0.205 F 
ATOM     66  C   UNL A   1      47.624  26.473  35.043  1.00  0.00     0.022 A 
BRANCH  64  67
ATOM     67  S   UNL A   1      46.420  24.447  36.439  1.00  0.00     0.127 S 
ATOM     68  O   UNL A   1      46.055  23.325  35.575  1.00  0.00    -0.237 OA
ATOM     69  O   UNL A   1      47.811  24.439  36.892  1.00  0.00    -0.237 OA
ATOM     70  O   UNL A   1      45.451  24.783  37.473  1.00  0.00    -0.744 OA
ENDBRANCH  64  67
ENDBRANCH  37  60
ENDBRANCH  11  12
ENDBRANCH   4   6
ENDBRANCH   1   2
BRANCH   1  71
ATOM     71  C   UNL A   1      33.407  28.511  23.924  1.00  0.00     0.042 C 
BRANCH  71  72
ATOM     72  C   UNL A   1      32.440  27.342  23.851  1.00  0.00     0.117 C 
BRANCH  72  73
ATOM     73  N   UNL A   1      32.800  26.445  22.770  1.00  0.00    -0.356 N 
ATOM     74  C   UNL A   1      33.442  25.249  22.767  1.00  0.00     0.227 C 
ATOM     75  H   UNL A   1      32.530  26.761  21.878  1.00  0.00     0.163 HD
ATOM     76  O   UNL A   1      33.646  24.735  21.661  1.00  0.00    -0.274 OA
BRANCH  74  77
ATOM     77  C   UNL A   1      33.820  24.477  24.038  1.00  0.00     0.103 C 
ATOM     78  C   UNL A   1      35.070  23.705  23.798  1.00  0.00    -0.016 C 
ATOM     79  C   UNL A   1      32.853  23.441  24.631  1.00  0.00     0.047 C 
ATOM     80  C   UNL A   1      34.921  22.412  24.089  1.00  0.00    -0.006 C 
ATOM     81  C   UNL A   1      33.576  22.069  24.638  1.00  0.00     0.106 C 
BRANCH  81  82
ATOM     82  N   UNL A   1      32.908  21.095  23.798  1.00  0.00    -0.350 N 
ATOM     83  C   UNL A   1      32.814  19.749  23.768  1.00  0.00     0.224 C 
ATOM     84  H   UNL A   1      32.398  21.521  23.070  1.00  0.00     0.164 HD
ATOM     85  O   UNL A   1      32.152  19.283  22.832  1.00  0.00    -0.275 OA
BRANCH  83  86
ATOM     86  C   UNL A   1      33.485  18.791  24.739  1.00  0.00     0.089 C 
ATOM     87  C   UNL A   1      34.741  18.073  24.252  1.00  0.00     0.025 C 
ATOM     88  C   UNL A   1      32.512  17.833  25.412  1.00  0.00     0.083 C 
ATOM     89  C   UNL A   1      34.475  16.592  24.088  1.00  0.00     0.070 C 
ATOM     90  S   UNL A   1      33.284  16.189  25.382  1.00  0.00    -0.161 SA
ENDBRANCH  83  86
ENDBRANCH  81  82
ENDBRANCH  74  77
ENDBRANCH  72  73
ENDBRANCH  71  72
ENDBRANCH   1  71
TORSDOF 15
ENDMDL
MODEL 3
REMARK VINA RESULT:     -11.4      2.808      8.430
REMARK SMILES O=C(NCCCNC(=O)[C@@H]1C=C[C@H](NC(=O)[C@@H]2CCSC2)C1)c1ccc(-c2c3nc(c(-c4cccc(S(=O)(=O)[O-])c4F)c4ccc([nH]4)c(-c4cccc(S(=O)(=O)[O-])c4F)c4nc(c(-c5cccc(S(=O)(=O)[O-])c5F)c5ccc2[nH]5)C=C4)C=C3)cc1
REMARK SMILES IDX 4 1 3 2 1 3 2 4 23 6 24 7 85 8 25 9 84 10 26 11 27 12 28 13
REMARK SMILES IDX 78 14 29 15 83 16 77 17 79 18 30 19 82 20 76 21 75 22 31 24
REMARK SMILES IDX 63 25 43 26 62 27 44 28 47 29 61 30 80 31 45 32 46 33 60 35
REMARK SMILES IDX 81 36 48 37 32 38 33 39 41 40 34 41 36 42 42 43 35 44 37 45
REMARK SMILES IDX 38 46 39 47 40 48 64 49 65 50 73 51 66 52 68 53 74 54 67 55
REMARK SMILES IDX 69 56 70 57 71 58 72 59 49 60 50 61 58 62 51 63 53 64 59 65
REMARK SMILES IDX 52 66 54 67 55 68 56 69 57 70 5 71 6 72 7 73 8 74 9 76 10 77
REMARK SMILES IDX 11 78 22 79 12 80 13 81 14 82 15 83 16 85 17 86 18 87 21 88
REMARK SMILES IDX 19 89 20 90
REMARK H PARENT 3 5 79 23 47 34 7 75 14 84
REMARK Flexibility Score: inf
ROOT
ATOM      1  C   UNL A   1      32.845  32.878  27.219  1.00  0.00     0.118 C 
ENDROOT
BRANCH   1   2
ATOM      2  N   UNL A   1      32.615  34.194  27.801  1.00  0.00    -0.352 N 
ATOM      3  O   UNL A   1      32.708  35.789  29.390  1.00  0.00    -0.269 OA
ATOM      4  C   UNL A   1      33.185  34.759  28.920  1.00  0.00     0.251 C 
ATOM      5  H   UNL A   1      31.961  34.756  27.327  1.00  0.00     0.163 HD
BRANCH   4   6
ATOM      6  C   UNL A   1      34.352  34.106  29.553  1.00  0.00     0.039 A 
ATOM      7  C   UNL A   1      34.155  33.204  30.596  1.00  0.00     0.014 A 
ATOM      8  C   UNL A   1      35.648  34.398  29.123  1.00  0.00     0.014 A 
ATOM      9  C   UNL A   1      35.234  32.773  31.347  1.00  0.00     0.010 A 
ATOM     10  C   UNL A   1      36.743  33.817  29.775  1.00  0.00     0.010 A 
ATOM     11  C   UNL A   1      36.545  33.018  30.911  1.00  0.00    -0.014 A 
BRANCH  11  12
ATOM     12  C   UNL A   1      37.644  32.296  31.605  1.00  0.00     0.031 A 
ATOM     13  C   UNL A   1      38.413  31.184  30.951  1.00  0.00     0.074 A 
ATOM     14  C   UNL A   1      37.974  32.718  32.844  1.00  0.00     0.049 A 
ATOM     15  N   UNL A   1      39.443  30.525  31.417  1.00  0.00    -0.248 NA
ATOM     16  C   UNL A   1      37.976  30.744  29.617  1.00  0.00     0.031 C 
ATOM     17  C   UNL A   1      37.254  33.754  33.597  1.00  0.00     0.029 A 
ATOM     18  N   UNL A   1      39.001  32.365  33.679  1.00  0.00    -0.354 N 
ATOM     19  C   UNL A   1      39.756  29.571  30.458  1.00  0.00     0.074 A 
ATOM     20  C   UNL A   1      38.800  29.730  29.382  1.00  0.00     0.031 C 
ATOM     21  C   UNL A   1      37.899  34.000  34.743  1.00  0.00     0.029 A 
ATOM     22  C   UNL A   1      39.016  33.076  34.856  1.00  0.00     0.049 A 
ATOM     23  H   UNL A   1      39.661  31.670  33.457  1.00  0.00     0.167 HD
ATOM     24  C   UNL A   1      40.758  28.658  30.470  1.00  0.00     0.034 A 
ATOM     25  C   UNL A   1      39.819  32.979  35.932  1.00  0.00     0.034 A 
ATOM     26  C   UNL A   1      41.714  28.524  31.540  1.00  0.00     0.049 A 
ATOM     27  C   UNL A   1      40.929  31.974  35.900  1.00  0.00     0.074 A 
ATOM     28  C   UNL A   1      42.785  27.651  31.634  1.00  0.00     0.029 A 
ATOM     29  N   UNL A   1      41.715  29.277  32.705  1.00  0.00    -0.354 N 
ATOM     30  N   UNL A   1      41.266  31.152  34.936  1.00  0.00    -0.248 NA
ATOM     31  C   UNL A   1      41.781  31.896  37.092  1.00  0.00     0.031 C 
ATOM     32  C   UNL A   1      43.417  27.861  32.864  1.00  0.00     0.029 A 
ATOM     33  C   UNL A   1      42.763  28.888  33.524  1.00  0.00     0.049 A 
ATOM     34  H   UNL A   1      41.065  29.986  32.920  1.00  0.00     0.167 HD
ATOM     35  C   UNL A   1      42.380  30.467  35.400  1.00  0.00     0.074 A 
ATOM     36  C   UNL A   1      42.686  31.007  36.710  1.00  0.00     0.031 C 
ATOM     37  C   UNL A   1      43.072  29.461  34.808  1.00  0.00     0.034 A 
BRANCH  24  38
ATOM     38  C   UNL A   1      40.902  27.748  29.277  1.00  0.00     0.023 A 
ATOM     39  C   UNL A   1      40.143  26.561  29.212  1.00  0.00     0.012 A 
ATOM     40  C   UNL A   1      41.715  28.106  28.182  1.00  0.00     0.148 A 
ATOM     41  C   UNL A   1      40.207  25.735  28.090  1.00  0.00     0.002 A 
ATOM     42  C   UNL A   1      41.740  27.300  27.049  1.00  0.00     0.091 A 
ATOM     43  F   UNL A   1      42.440  29.230  28.266  1.00  0.00    -0.205 F 
ATOM     44  C   UNL A   1      40.996  26.110  27.006  1.00  0.00     0.022 A 
BRANCH  42  45
ATOM     45  S   UNL A   1      42.661  27.729  25.566  1.00  0.00     0.127 S 
ATOM     46  O   UNL A   1      41.989  28.959  25.148  1.00  0.00    -0.237 OA
ATOM     47  O   UNL A   1      44.012  27.922  26.091  1.00  0.00    -0.237 OA
ATOM     48  O   UNL A   1      42.512  26.601  24.657  1.00  0.00    -0.744 OA
ENDBRANCH  42  45
ENDBRANCH  24  38
BRANCH  25  49
ATOM     49  C   UNL A   1      39.589  33.852  37.115  1.00  0.00     0.023 A 
ATOM     50  C   UNL A   1      39.990  35.201  37.086  1.00  0.00     0.012 A 
ATOM     51  C   UNL A   1      38.943  33.353  38.264  1.00  0.00     0.148 A 
ATOM     52  C   UNL A   1      39.785  36.025  38.193  1.00  0.00     0.002 A 
ATOM     53  C   UNL A   1      38.679  34.197  39.334  1.00  0.00     0.091 A 
ATOM     54  F   UNL A   1      38.582  32.061  38.282  1.00  0.00    -0.205 F 
ATOM     55  C   UNL A   1      39.119  35.528  39.311  1.00  0.00     0.022 A 
BRANCH  53  56
ATOM     56  S   UNL A   1      37.687  33.671  40.735  1.00  0.00     0.127 S 
ATOM     57  O   UNL A   1      38.586  32.735  41.403  1.00  0.00    -0.237 OA
ATOM     58  O   UNL A   1      37.470  34.933  41.446  1.00  0.00    -0.237 OA
ATOM     59  O   UNL A   1      36.478  33.097  40.161  1.00  0.00    -0.744 OA
ENDBRANCH  53  56
ENDBRANCH  25  49
BRANCH  37  60
ATOM     60  C   UNL A   1      44.241  28.904  35.574  1.00  0.00     0.023 A 
ATOM     61  C   UNL A   1      45.529  29.444  35.379  1.00  0.00     0.012 A 
ATOM     62  C   UNL A   1      44.062  27.861  36.501  1.00  0.00     0.148 A 
ATOM     63  C   UNL A   1      46.628  28.916  36.055  1.00  0.00     0.002 A 
ATOM     64  C   UNL A   1      45.153  27.377  37.212  1.00  0.00     0.091 A 
ATOM     65  F   UNL A   1      42.833  27.346  36.658  1.00  0.00    -0.205 F 
ATOM     66  C   UNL A   1      46.438  27.891  36.977  1.00  0.00     0.022 A 
BRANCH  64  67
ATOM     67  S   UNL A   1      44.988  26.124  38.487  1.00  0.00     0.127 S 
ATOM     68  O   UNL A   1      44.082  26.776  39.431  1.00  0.00    -0.237 OA
ATOM     69  O   UNL A   1      44.399  25.007  37.749  1.00  0.00    -0.237 OA
ATOM     70  O   UNL A   1      46.336  25.876  38.981  1.00  0.00    -0.744 OA
ENDBRANCH  64  67
ENDBRANCH  37  60
ENDBRANCH  11  12
ENDBRANCH   4   6
ENDBRANCH   1   2
BRANCH   1  71
ATOM     71  C   UNL A   1      31.552  32.213  26.802  1.00  0.00     0.042 C 
BRANCH  71  72
ATOM     72  C   UNL A   1      31.749  30.742  26.486  1.00  0.00     0.117 C 
BRANCH  72  73
ATOM     73  N   UNL A   1      31.354  30.453  25.121  1.00  0.00    -0.356 N 
ATOM     74  C   UNL A   1      31.312  29.290  24.420  1.00  0.00     0.227 C 
ATOM     75  H   UNL A   1      31.066  31.243  24.609  1.00  0.00     0.163 HD
ATOM     76  O   UNL A   1      30.967  29.372  23.236  1.00  0.00    -0.274 OA
BRANCH  74  77
ATOM     77  C   UNL A   1      31.561  27.909  25.040  1.00  0.00     0.103 C 
ATOM     78  C   UNL A   1      33.021  27.717  25.256  1.00  0.00    -0.016 C 
ATOM     79  C   UNL A   1      31.125  26.638  24.297  1.00  0.00     0.047 C 
ATOM     80  C   UNL A   1      33.465  26.594  24.690  1.00  0.00    -0.006 C 
ATOM     81  C   UNL A   1      32.394  25.781  24.043  1.00  0.00     0.106 C 
BRANCH  81  82
ATOM     82  N   UNL A   1      32.660  25.607  22.629  1.00  0.00    -0.350 N 
ATOM     83  C   UNL A   1      33.077  24.591  21.844  1.00  0.00     0.224 C 
ATOM     84  H   UNL A   1      32.499  26.432  22.116  1.00  0.00     0.164 HD
ATOM     85  O   UNL A   1      33.220  24.869  20.646  1.00  0.00    -0.275 OA
BRANCH  83  86
ATOM     86  C   UNL A   1      33.422  23.188  22.316  1.00  0.00     0.089 C 
ATOM     87  C   UNL A   1      32.270  22.318  22.813  1.00  0.00     0.025 C 
ATOM     88  C   UNL A   1      34.611  23.145  23.266  1.00  0.00     0.083 C 
ATOM     89  C   UNL A   1      32.391  22.078  24.303  1.00  0.00     0.070 C 
ATOM     90  S   UNL A   1      34.166  22.021  24.620  1.00  0.00    -0.161 SA
ENDBRANCH  83  86
ENDBRANCH  81  82
ENDBRANCH  74  77
ENDBRANCH  72  73
ENDBRANCH  71  72
ENDBRANCH   1  71
TORSDOF 15
ENDMDL
