MODEL 1
REMARK VINA RESULT:     -13.5      0.000      0.000
REMARK SMILES Cc1ccc([C@H](C)NC(=O)[C@H]2[C@@H]3CC[C@@H](C3)[C@@H]2C(=O)NCCCNC(=O)c2ccc(-c3c4nc(c(-c5cccc(S(=O)(=O)[O-])c5F)c5ccc([nH]5)c(-c5cccc(S(=O)(=O)[O-])c5F)c5nc(c(-c6cccc(S(=O)(=O)[O-])c6F)c6ccc3[nH]6)C=C5)C=C4)cc2)cc1
REMARK SMILES IDX 22 1 21 2 20 3 18 4 19 5 17 7 11 8 12 9 13 10 16 11 15 12
REMARK SMILES IDX 14 13 9 14 8 15 10 17 6 18 7 19 5 20 1 21 2 22 3 23 91 24
REMARK SMILES IDX 4 25 90 26 23 27 24 28 25 29 26 31 27 32 28 33 89 34 29 35
REMARK SMILES IDX 88 36 30 37 31 38 32 39 82 40 33 41 87 42 81 43 83 44 34 45
REMARK SMILES IDX 86 46 80 47 79 48 35 50 67 51 47 52 66 53 48 54 51 55 65 56
REMARK SMILES IDX 84 57 49 58 50 59 64 61 85 62 52 63 36 64 37 65 45 66 38 67
REMARK SMILES IDX 40 68 46 69 39 70 41 71 42 72 43 73 44 74 68 75 69 76 77 77
REMARK SMILES IDX 70 78 72 79 78 80 71 81 73 82 74 83 75 84 76 85 53 86 54 87
REMARK SMILES IDX 62 88 55 89 57 90 63 91 56 92 58 93 59 94 60 95 61 96
REMARK H PARENT 20 6 8 16 24 30 83 49 51 60
REMARK Flexibility Score: inf
ROOT
ATOM      1  C   UNL A   1      37.815  23.131  25.095  1.00  0.00     0.042 C 
ENDROOT
BRANCH   1   2
ATOM      2  C   UNL A   1      36.455  23.688  25.505  1.00  0.00     0.117 C 
BRANCH   2   3
ATOM      3  N   UNL A   1      35.833  22.928  26.578  1.00  0.00    -0.356 N 
ATOM      4  C   UNL A   1      34.534  22.613  26.835  1.00  0.00     0.224 C 
ATOM      5  O   UNL A   1      34.320  21.827  27.762  1.00  0.00    -0.275 OA
ATOM      6  H   UNL A   1      36.469  22.576  27.242  1.00  0.00     0.163 HD
BRANCH   4   7
ATOM      7  C   UNL A   1      33.391  23.070  25.926  1.00  0.00     0.094 C 
ATOM      8  C   UNL A   1      31.981  22.535  26.185  1.00  0.00     0.094 C 
ATOM      9  C   UNL A   1      31.522  21.966  24.822  1.00  0.00     0.002 C 
ATOM     10  C   UNL A   1      32.277  20.639  24.590  1.00  0.00     0.005 C 
ATOM     11  C   UNL A   1      32.216  22.877  23.820  1.00  0.00     0.009 C 
ATOM     12  C   UNL A   1      33.601  22.652  24.435  1.00  0.00     0.002 C 
ATOM     13  C   UNL A   1      33.707  21.116  24.295  1.00  0.00     0.005 C 
BRANCH   8  14
ATOM     14  C   UNL A   1      30.930  23.431  26.841  1.00  0.00     0.224 C 
ATOM     15  N   UNL A   1      30.721  24.746  26.605  1.00  0.00    -0.349 N 
ATOM     16  H   UNL A   1      30.138  25.161  27.280  1.00  0.00     0.164 HD
ATOM     17  O   UNL A   1      30.174  22.926  27.682  1.00  0.00    -0.275 OA
BRANCH  15  18
ATOM     18  C   UNL A   1      31.156  25.694  25.587  1.00  0.00     0.109 C 
ATOM     19  C   UNL A   1      29.934  26.192  24.810  1.00  0.00     0.036 C 
BRANCH  18  20
ATOM     20  C   UNL A   1      31.944  26.858  26.167  1.00  0.00    -0.026 A 
ATOM     21  C   UNL A   1      34.226  30.327  27.400  1.00  0.00     0.044 C 
ATOM     22  C   UNL A   1      33.433  29.112  27.019  1.00  0.00    -0.051 A 
ATOM     23  C   UNL A   1      34.066  28.045  26.378  1.00  0.00     0.004 A 
ATOM     24  C   UNL A   1      32.060  29.026  27.273  1.00  0.00     0.004 A 
ATOM     25  C   UNL A   1      33.330  26.938  25.951  1.00  0.00     0.006 A 
ATOM     26  C   UNL A   1      31.325  27.909  26.859  1.00  0.00     0.006 A 
ENDBRANCH  18  20
ENDBRANCH  15  18
ENDBRANCH   8  14
ENDBRANCH   4   7
ENDBRANCH   2   3
ENDBRANCH   1   2
BRANCH   1  27
ATOM     27  C   UNL A   1      38.427  22.194  26.117  1.00  0.00     0.118 C 
BRANCH  27  28
ATOM     28  N   UNL A   1      39.877  22.261  26.183  1.00  0.00    -0.352 N 
ATOM     29  C   UNL A   1      40.683  23.374  26.350  1.00  0.00     0.251 C 
ATOM     30  H   UNL A   1      40.349  21.401  26.097  1.00  0.00     0.163 HD
ATOM     31  O   UNL A   1      41.897  23.257  26.221  1.00  0.00    -0.269 OA
BRANCH  29  32
ATOM     32  C   UNL A   1      40.072  24.645  26.813  1.00  0.00     0.039 A 
ATOM     33  C   UNL A   1      40.480  25.825  26.183  1.00  0.00     0.014 A 
ATOM     34  C   UNL A   1      39.346  24.701  28.000  1.00  0.00     0.014 A 
ATOM     35  C   UNL A   1      40.410  27.031  26.877  1.00  0.00     0.010 A 
ATOM     36  C   UNL A   1      39.370  25.865  28.732  1.00  0.00     0.010 A 
ATOM     37  C   UNL A   1      39.968  27.008  28.196  1.00  0.00    -0.014 A 
BRANCH  37  38
ATOM     38  C   UNL A   1      40.129  28.102  29.135  1.00  0.00     0.031 A 
ATOM     39  C   UNL A   1      39.243  29.273  29.058  1.00  0.00     0.074 A 
ATOM     40  C   UNL A   1      40.970  27.937  30.179  1.00  0.00     0.049 A 
ATOM     41  N   UNL A   1      39.513  30.418  29.582  1.00  0.00    -0.248 NA
ATOM     42  C   UNL A   1      37.964  29.232  28.361  1.00  0.00     0.031 C 
ATOM     43  C   UNL A   1      41.023  28.714  31.412  1.00  0.00     0.029 A 
ATOM     44  N   UNL A   1      42.113  27.132  30.234  1.00  0.00    -0.354 N 
ATOM     45  C   UNL A   1      38.354  31.163  29.546  1.00  0.00     0.074 A 
ATOM     46  C   UNL A   1      37.444  30.411  28.714  1.00  0.00     0.031 C 
ATOM     47  C   UNL A   1      42.245  28.576  31.953  1.00  0.00     0.029 A 
ATOM     48  C   UNL A   1      43.054  27.858  30.984  1.00  0.00     0.049 A 
ATOM     49  H   UNL A   1      42.232  26.242  29.832  1.00  0.00     0.167 HD
ATOM     50  C   UNL A   1      38.239  32.248  30.362  1.00  0.00     0.034 A 
ATOM     51  C   UNL A   1      44.249  28.286  30.478  1.00  0.00     0.034 A 
ATOM     52  C   UNL A   1      39.471  32.454  31.137  1.00  0.00     0.049 A 
ATOM     53  C   UNL A   1      44.435  29.791  30.581  1.00  0.00     0.074 A 
ATOM     54  C   UNL A   1      39.845  32.082  32.419  1.00  0.00     0.029 A 
ATOM     55  N   UNL A   1      40.633  32.851  30.489  1.00  0.00    -0.354 N 
ATOM     56  N   UNL A   1      43.491  30.631  30.904  1.00  0.00    -0.248 NA
ATOM     57  C   UNL A   1      45.697  30.468  30.305  1.00  0.00     0.031 C 
ATOM     58  C   UNL A   1      41.255  32.204  32.519  1.00  0.00     0.029 A 
ATOM     59  C   UNL A   1      41.737  32.670  31.307  1.00  0.00     0.049 A 
ATOM     60  H   UNL A   1      40.668  33.211  29.574  1.00  0.00     0.167 HD
ATOM     61  C   UNL A   1      43.934  31.921  30.752  1.00  0.00     0.074 A 
ATOM     62  C   UNL A   1      45.349  31.758  30.458  1.00  0.00     0.031 C 
ATOM     63  C   UNL A   1      43.078  32.992  30.824  1.00  0.00     0.034 A 
BRANCH  50  64
ATOM     64  C   UNL A   1      36.919  32.906  30.719  1.00  0.00     0.023 A 
ATOM     65  C   UNL A   1      36.418  32.690  32.024  1.00  0.00     0.012 A 
ATOM     66  C   UNL A   1      36.098  33.671  29.860  1.00  0.00     0.148 A 
ATOM     67  C   UNL A   1      35.141  33.099  32.420  1.00  0.00     0.002 A 
ATOM     68  C   UNL A   1      34.793  34.016  30.228  1.00  0.00     0.091 A 
ATOM     69  F   UNL A   1      36.598  34.140  28.712  1.00  0.00    -0.205 F 
ATOM     70  C   UNL A   1      34.310  33.726  31.507  1.00  0.00     0.022 A 
BRANCH  68  71
ATOM     71  S   UNL A   1      33.620  34.743  29.067  1.00  0.00     0.127 S 
ATOM     72  O   UNL A   1      33.405  33.647  28.118  1.00  0.00    -0.237 OA
ATOM     73  O   UNL A   1      32.472  35.039  29.920  1.00  0.00    -0.237 OA
ATOM     74  O   UNL A   1      34.296  35.898  28.489  1.00  0.00    -0.744 OA
ENDBRANCH  68  71
ENDBRANCH  50  64
BRANCH  51  75
ATOM     75  C   UNL A   1      44.771  27.427  29.369  1.00  0.00     0.023 A 
ATOM     76  C   UNL A   1      45.097  26.088  29.696  1.00  0.00     0.012 A 
ATOM     77  C   UNL A   1      44.567  27.761  28.020  1.00  0.00     0.148 A 
ATOM     78  C   UNL A   1      45.054  25.082  28.730  1.00  0.00     0.002 A 
ATOM     79  C   UNL A   1      44.547  26.753  27.057  1.00  0.00     0.091 A 
ATOM     80  F   UNL A   1      44.324  29.039  27.702  1.00  0.00    -0.205 F 
ATOM     81  C   UNL A   1      44.739  25.409  27.416  1.00  0.00     0.022 A 
BRANCH  79  82
ATOM     82  S   UNL A   1      44.165  27.122  25.337  1.00  0.00     0.127 S 
ATOM     83  O   UNL A   1      43.097  28.105  25.482  1.00  0.00    -0.237 OA
ATOM     84  O   UNL A   1      45.428  27.659  24.835  1.00  0.00    -0.237 OA
ATOM     85  O   UNL A   1      43.795  25.835  24.766  1.00  0.00    -0.744 OA
ENDBRANCH  79  82
ENDBRANCH  51  75
BRANCH  63  86
ATOM     86  C   UNL A   1      43.390  34.436  30.437  1.00  0.00     0.023 A 
ATOM     87  C   UNL A   1      43.792  35.407  31.372  1.00  0.00     0.012 A 
ATOM     88  C   UNL A   1      43.414  34.841  29.073  1.00  0.00     0.148 A 
ATOM     89  C   UNL A   1      44.153  36.708  30.995  1.00  0.00     0.002 A 
ATOM     90  C   UNL A   1      43.886  36.097  28.693  1.00  0.00     0.091 A 
ATOM     91  F   UNL A   1      42.949  34.022  28.118  1.00  0.00    -0.205 F 
ATOM     92  C   UNL A   1      44.229  37.046  29.653  1.00  0.00     0.022 A 
BRANCH  90  93
ATOM     93  S   UNL A   1      44.221  36.479  26.966  1.00  0.00     0.127 S 
ATOM     94  O   UNL A   1      45.137  35.405  26.588  1.00  0.00    -0.237 OA
ATOM     95  O   UNL A   1      42.892  36.385  26.358  1.00  0.00    -0.237 OA
ATOM     96  O   UNL A   1      44.774  37.826  26.980  1.00  0.00    -0.744 OA
ENDBRANCH  90  93
ENDBRANCH  63  86
ENDBRANCH  37  38
ENDBRANCH  29  32
ENDBRANCH  27  28
ENDBRANCH   1  27
TORSDOF 16
ENDMDL
MODEL 2
REMARK VINA RESULT:     -13.5      4.253      9.913
REMARK SMILES Cc1ccc([C@H](C)NC(=O)[C@H]2[C@@H]3CC[C@@H](C3)[C@@H]2C(=O)NCCCNC(=O)c2ccc(-c3c4nc(c(-c5cccc(S(=O)(=O)[O-])c5F)c5ccc([nH]5)c(-c5cccc(S(=O)(=O)[O-])c5F)c5nc(c(-c6cccc(S(=O)(=O)[O-])c6F)c6ccc3[nH]6)C=C5)C=C4)cc2)cc1
REMARK SMILES IDX 22 1 21 2 20 3 18 4 19 5 17 7 11 8 12 9 13 10 16 11 15 12
REMARK SMILES IDX 14 13 9 14 8 15 10 17 6 18 7 19 5 20 1 21 2 22 3 23 91 24
REMARK SMILES IDX 4 25 90 26 23 27 24 28 25 29 26 31 27 32 28 33 89 34 29 35
REMARK SMILES IDX 88 36 30 37 31 38 32 39 82 40 33 41 87 42 81 43 83 44 34 45
REMARK SMILES IDX 86 46 80 47 79 48 35 50 67 51 47 52 66 53 48 54 51 55 65 56
REMARK SMILES IDX 84 57 49 58 50 59 64 61 85 62 52 63 36 64 37 65 45 66 38 67
REMARK SMILES IDX 40 68 46 69 39 70 41 71 42 72 43 73 44 74 68 75 69 76 77 77
REMARK SMILES IDX 70 78 72 79 78 80 71 81 73 82 74 83 75 84 76 85 53 86 54 87
REMARK SMILES IDX 62 88 55 89 57 90 63 91 56 92 58 93 59 94 60 95 61 96
REMARK H PARENT 20 6 8 16 24 30 83 49 51 60
REMARK Flexibility Score: inf
ROOT
ATOM      1  C   UNL A   1      33.091  31.238  27.267  1.00  0.00     0.042 C 
ENDROOT
BRANCH   1   2
ATOM      2  C   UNL A   1      32.359  30.430  26.199  1.00  0.00     0.117 C 
BRANCH   2   3
ATOM      3  N   UNL A   1      33.263  29.710  25.316  1.00  0.00    -0.356 N 
ATOM      4  C   UNL A   1      33.174  28.487  24.726  1.00  0.00     0.224 C 
ATOM      5  O   UNL A   1      34.050  28.195  23.907  1.00  0.00    -0.275 OA
ATOM      6  H   UNL A   1      34.093  30.197  25.107  1.00  0.00     0.163 HD
BRANCH   4   7
ATOM      7  C   UNL A   1      31.966  27.570  24.930  1.00  0.00     0.094 C 
ATOM      8  C   UNL A   1      32.104  26.082  24.602  1.00  0.00     0.094 C 
ATOM      9  C   UNL A   1      30.926  25.781  23.646  1.00  0.00     0.002 C 
ATOM     10  C   UNL A   1      31.270  26.395  22.271  1.00  0.00     0.005 C 
ATOM     11  C   UNL A   1      29.843  26.734  24.128  1.00  0.00     0.009 C 
ATOM     12  C   UNL A   1      30.751  27.965  24.030  1.00  0.00     0.002 C 
ATOM     13  C   UNL A   1      31.122  27.901  22.531  1.00  0.00     0.005 C 
BRANCH   8  14
ATOM     14  C   UNL A   1      32.232  25.058  25.730  1.00  0.00     0.224 C 
ATOM     15  N   UNL A   1      33.014  23.956  25.742  1.00  0.00    -0.349 N 
ATOM     16  H   UNL A   1      32.786  23.340  26.475  1.00  0.00     0.164 HD
ATOM     17  O   UNL A   1      31.560  25.231  26.756  1.00  0.00    -0.275 OA
BRANCH  15  18
ATOM     18  C   UNL A   1      34.117  23.462  24.925  1.00  0.00     0.109 C 
ATOM     19  C   UNL A   1      35.443  23.869  25.573  1.00  0.00     0.036 C 
BRANCH  18  20
ATOM     20  C   UNL A   1      34.057  21.959  24.704  1.00  0.00    -0.026 A 
ATOM     21  C   UNL A   1      33.899  17.634  24.518  1.00  0.00     0.044 C 
ATOM     22  C   UNL A   1      33.951  19.133  24.535  1.00  0.00    -0.051 A 
ATOM     23  C   UNL A   1      35.148  19.781  24.848  1.00  0.00     0.004 A 
ATOM     24  C   UNL A   1      32.819  19.907  24.261  1.00  0.00     0.004 A 
ATOM     25  C   UNL A   1      35.197  21.174  24.939  1.00  0.00     0.006 A 
ATOM     26  C   UNL A   1      32.872  21.304  24.337  1.00  0.00     0.006 A 
ENDBRANCH  18  20
ENDBRANCH  15  18
ENDBRANCH   8  14
ENDBRANCH   4   7
ENDBRANCH   2   3
ENDBRANCH   1   2
BRANCH   1  27
ATOM     27  C   UNL A   1      34.440  30.664  27.652  1.00  0.00     0.118 C 
BRANCH  27  28
ATOM     28  N   UNL A   1      35.430  31.670  28.000  1.00  0.00    -0.352 N 
ATOM     29  C   UNL A   1      36.725  31.487  28.450  1.00  0.00     0.251 C 
ATOM     30  H   UNL A   1      35.140  32.606  27.902  1.00  0.00     0.163 HD
ATOM     31  O   UNL A   1      37.363  32.457  28.847  1.00  0.00    -0.269 OA
BRANCH  29  32
ATOM     32  C   UNL A   1      37.355  30.149  28.316  1.00  0.00     0.039 A 
ATOM     33  C   UNL A   1      37.366  29.322  29.443  1.00  0.00     0.014 A 
ATOM     34  C   UNL A   1      38.147  29.838  27.213  1.00  0.00     0.014 A 
ATOM     35  C   UNL A   1      38.364  28.361  29.577  1.00  0.00     0.010 A 
ATOM     36  C   UNL A   1      39.198  28.967  27.382  1.00  0.00     0.010 A 
ATOM     37  C   UNL A   1      39.344  28.285  28.593  1.00  0.00    -0.014 A 
BRANCH  37  38
ATOM     38  C   UNL A   1      40.598  27.569  28.736  1.00  0.00     0.031 A 
ATOM     39  C   UNL A   1      40.639  26.113  28.538  1.00  0.00     0.074 A 
ATOM     40  C   UNL A   1      41.737  28.285  28.864  1.00  0.00     0.049 A 
ATOM     41  N   UNL A   1      41.581  25.352  28.977  1.00  0.00    -0.248 NA
ATOM     42  C   UNL A   1      39.591  25.398  27.822  1.00  0.00     0.031 C 
ATOM     43  C   UNL A   1      43.105  27.824  28.659  1.00  0.00     0.029 A 
ATOM     44  N   UNL A   1      41.886  29.558  29.422  1.00  0.00    -0.354 N 
ATOM     45  C   UNL A   1      41.424  24.123  28.373  1.00  0.00     0.074 A 
ATOM     46  C   UNL A   1      40.134  24.181  27.724  1.00  0.00     0.031 C 
ATOM     47  C   UNL A   1      43.936  28.640  29.328  1.00  0.00     0.029 A 
ATOM     48  C   UNL A   1      43.104  29.527  30.123  1.00  0.00     0.049 A 
ATOM     49  H   UNL A   1      41.266  30.318  29.341  1.00  0.00     0.167 HD
ATOM     50  C   UNL A   1      42.476  23.258  28.348  1.00  0.00     0.034 A 
ATOM     51  C   UNL A   1      43.199  29.703  31.474  1.00  0.00     0.034 A 
ATOM     52  C   UNL A   1      43.633  23.820  29.058  1.00  0.00     0.049 A 
ATOM     53  C   UNL A   1      43.866  28.535  32.182  1.00  0.00     0.074 A 
ATOM     54  C   UNL A   1      44.757  24.505  28.623  1.00  0.00     0.029 A 
ATOM     55  N   UNL A   1      43.581  23.985  30.436  1.00  0.00    -0.354 N 
ATOM     56  N   UNL A   1      44.127  27.386  31.623  1.00  0.00    -0.248 NA
ATOM     57  C   UNL A   1      44.270  28.566  33.583  1.00  0.00     0.031 C 
ATOM     58  C   UNL A   1      45.351  25.135  29.748  1.00  0.00     0.029 A 
ATOM     59  C   UNL A   1      44.603  24.816  30.869  1.00  0.00     0.049 A 
ATOM     60  H   UNL A   1      42.911  23.569  31.024  1.00  0.00     0.167 HD
ATOM     61  C   UNL A   1      44.581  26.495  32.565  1.00  0.00     0.074 A 
ATOM     62  C   UNL A   1      44.731  27.314  33.756  1.00  0.00     0.031 C 
ATOM     63  C   UNL A   1      44.729  25.160  32.283  1.00  0.00     0.034 A 
BRANCH  50  64
ATOM     64  C   UNL A   1      42.581  22.075  27.403  1.00  0.00     0.023 A 
ATOM     65  C   UNL A   1      41.713  20.983  27.631  1.00  0.00     0.012 A 
ATOM     66  C   UNL A   1      43.504  21.921  26.344  1.00  0.00     0.148 A 
ATOM     67  C   UNL A   1      41.823  19.772  26.940  1.00  0.00     0.002 A 
ATOM     68  C   UNL A   1      43.666  20.689  25.702  1.00  0.00     0.091 A 
ATOM     69  F   UNL A   1      44.177  22.986  25.892  1.00  0.00    -0.205 F 
ATOM     70  C   UNL A   1      42.829  19.610  26.002  1.00  0.00     0.022 A 
BRANCH  68  71
ATOM     71  S   UNL A   1      45.012  20.369  24.546  1.00  0.00     0.127 S 
ATOM     72  O   UNL A   1      44.634  21.194  23.394  1.00  0.00    -0.237 OA
ATOM     73  O   UNL A   1      46.181  20.851  25.278  1.00  0.00    -0.237 OA
ATOM     74  O   UNL A   1      44.976  18.936  24.280  1.00  0.00    -0.744 OA
ENDBRANCH  68  71
ENDBRANCH  50  64
BRANCH  51  75
ATOM     75  C   UNL A   1      42.100  30.544  32.046  1.00  0.00     0.023 A 
ATOM     76  C   UNL A   1      41.992  31.871  31.562  1.00  0.00     0.012 A 
ATOM     77  C   UNL A   1      40.993  29.969  32.692  1.00  0.00     0.148 A 
ATOM     78  C   UNL A   1      40.768  32.540  31.572  1.00  0.00     0.002 A 
ATOM     79  C   UNL A   1      39.779  30.654  32.717  1.00  0.00     0.091 A 
ATOM     80  F   UNL A   1      41.114  28.739  33.208  1.00  0.00    -0.205 F 
ATOM     81  C   UNL A   1      39.651  31.916  32.113  1.00  0.00     0.022 A 
BRANCH  79  82
ATOM     82  S   UNL A   1      38.305  29.902  33.423  1.00  0.00     0.127 S 
ATOM     83  O   UNL A   1      37.247  30.671  32.776  1.00  0.00    -0.237 OA
ATOM     84  O   UNL A   1      38.409  28.512  32.981  1.00  0.00    -0.237 OA
ATOM     85  O   UNL A   1      38.459  30.083  34.859  1.00  0.00    -0.744 OA
ENDBRANCH  79  82
ENDBRANCH  51  75
BRANCH  63  86
ATOM     86  C   UNL A   1      44.985  24.039  33.289  1.00  0.00     0.023 A 
ATOM     87  C   UNL A   1      44.044  23.030  33.565  1.00  0.00     0.012 A 
ATOM     88  C   UNL A   1      46.258  23.886  33.908  1.00  0.00     0.148 A 
ATOM     89  C   UNL A   1      44.321  21.962  34.429  1.00  0.00     0.002 A 
ATOM     90  C   UNL A   1      46.567  22.761  34.671  1.00  0.00     0.091 A 
ATOM     91  F   UNL A   1      47.185  24.848  33.790  1.00  0.00    -0.205 F 
ATOM     92  C   UNL A   1      45.591  21.810  34.960  1.00  0.00     0.022 A 
BRANCH  90  93
ATOM     93  S   UNL A   1      48.262  22.416  35.172  1.00  0.00     0.127 S 
ATOM     94  O   UNL A   1      48.446  23.347  36.284  1.00  0.00    -0.237 OA
ATOM     95  O   UNL A   1      48.195  21.007  35.564  1.00  0.00    -0.237 OA
ATOM     96  O   UNL A   1      49.063  22.665  33.981  1.00  0.00    -0.744 OA
ENDBRANCH  90  93
ENDBRANCH  63  86
ENDBRANCH  37  38
ENDBRANCH  29  32
ENDBRANCH  27  28
ENDBRANCH   1  27
TORSDOF 16
ENDMDL
MODEL 3
REMARK VINA RESULT:     -13.4      4.270      9.704
REMARK SMILES Cc1ccc([C@H](C)NC(=O)[C@H]2[C@@H]3CC[C@@H](C3)[C@@H]2C(=O)NCCCNC(=O)c2ccc(-c3c4nc(c(-c5cccc(S(=O)(=O)[O-])c5F)c5ccc([nH]5)c(-c5cccc(S(=O)(=O)[O-])c5F)c5nc(c(-c6cccc(S(=O)(=O)[O-])c6F)c6ccc3[nH]6)C=C5)C=C4)cc2)cc1
REMARK SMILES IDX 22 1 21 2 20 3 18 4 19 5 17 7 11 8 12 9 13 10 16 11 15 12
REMARK SMILES IDX 14 13 9 14 8 15 10 17 6 18 7 19 5 20 1 21 2 22 3 23 91 24
REMARK SMILES IDX 4 25 90 26 23 27 24 28 25 29 26 31 27 32 28 33 89 34 29 35
REMARK SMILES IDX 88 36 30 37 31 38 32 39 82 40 33 41 87 42 81 43 83 44 34 45
REMARK SMILES IDX 86 46 80 47 79 48 35 50 67 51 47 52 66 53 48 54 51 55 65 56
REMARK SMILES IDX 84 57 49 58 50 59 64 61 85 62 52 63 36 64 37 65 45 66 38 67
REMARK SMILES IDX 40 68 46 69 39 70 41 71 42 72 43 73 44 74 68 75 69 76 77 77
REMARK SMILES IDX 70 78 72 79 78 80 71 81 73 82 74 83 75 84 76 85 53 86 54 87
REMARK SMILES IDX 62 88 55 89 57 90 63 91 56 92 58 93 59 94 60 95 61 96
REMARK H PARENT 20 6 8 16 24 30 83 49 51 60
REMARK Flexibility Score: inf
ROOT
ATOM      1  C   UNL A   1      33.367  30.202  26.754  1.00  0.00     0.042 C 
ENDROOT
BRANCH   1   2
ATOM      2  C   UNL A   1      33.902  28.933  26.097  1.00  0.00     0.117 C 
BRANCH   2   3
ATOM      3  N   UNL A   1      34.157  29.097  24.674  1.00  0.00    -0.356 N 
ATOM      4  C   UNL A   1      33.815  28.339  23.596  1.00  0.00     0.224 C 
ATOM      5  O   UNL A   1      34.058  28.809  22.481  1.00  0.00    -0.275 OA
ATOM      6  H   UNL A   1      34.671  29.905  24.448  1.00  0.00     0.163 HD
BRANCH   4   7
ATOM      7  C   UNL A   1      33.020  27.038  23.735  1.00  0.00     0.094 C 
ATOM      8  C   UNL A   1      32.376  26.430  22.488  1.00  0.00     0.094 C 
ATOM      9  C   UNL A   1      30.893  26.221  22.876  1.00  0.00     0.002 C 
ATOM     10  C   UNL A   1      30.212  27.607  22.886  1.00  0.00     0.005 C 
ATOM     11  C   UNL A   1      30.969  25.923  24.366  1.00  0.00     0.009 C 
ATOM     12  C   UNL A   1      31.780  27.187  24.673  1.00  0.00     0.002 C 
ATOM     13  C   UNL A   1      30.803  28.262  24.142  1.00  0.00     0.005 C 
BRANCH   8  14
ATOM     14  C   UNL A   1      32.998  25.199  21.827  1.00  0.00     0.224 C 
ATOM     15  N   UNL A   1      33.436  24.080  22.444  1.00  0.00    -0.349 N 
ATOM     16  H   UNL A   1      33.979  23.512  21.852  1.00  0.00     0.164 HD
ATOM     17  O   UNL A   1      33.124  25.199  20.594  1.00  0.00    -0.275 OA
BRANCH  15  18
ATOM     18  C   UNL A   1      33.295  23.514  23.780  1.00  0.00     0.109 C 
ATOM     19  C   UNL A   1      32.308  22.345  23.730  1.00  0.00     0.036 C 
BRANCH  18  20
ATOM     20  C   UNL A   1      34.624  23.080  24.377  1.00  0.00    -0.026 A 
ATOM     21  C   UNL A   1      38.509  21.670  25.676  1.00  0.00     0.044 C 
ATOM     22  C   UNL A   1      37.157  22.176  25.270  1.00  0.00    -0.051 A 
ATOM     23  C   UNL A   1      36.107  21.274  25.083  1.00  0.00     0.004 A 
ATOM     24  C   UNL A   1      36.921  23.538  25.054  1.00  0.00     0.004 A 
ATOM     25  C   UNL A   1      34.862  21.719  24.635  1.00  0.00     0.006 A 
ATOM     26  C   UNL A   1      35.667  23.986  24.620  1.00  0.00     0.006 A 
ENDBRANCH  18  20
ENDBRANCH  15  18
ENDBRANCH   8  14
ENDBRANCH   4   7
ENDBRANCH   2   3
ENDBRANCH   1   2
BRANCH   1  27
ATOM     27  C   UNL A   1      33.973  30.491  28.113  1.00  0.00     0.118 C 
BRANCH  27  28
ATOM     28  N   UNL A   1      34.949  31.568  28.105  1.00  0.00    -0.352 N 
ATOM     29  C   UNL A   1      36.314  31.496  28.322  1.00  0.00     0.251 C 
ATOM     30  H   UNL A   1      34.593  32.466  27.920  1.00  0.00     0.163 HD
ATOM     31  O   UNL A   1      36.956  32.535  28.434  1.00  0.00    -0.269 OA
BRANCH  29  32
ATOM     32  C   UNL A   1      36.985  30.172  28.279  1.00  0.00     0.039 A 
ATOM     33  C   UNL A   1      37.115  29.474  29.483  1.00  0.00     0.014 A 
ATOM     34  C   UNL A   1      37.701  29.769  27.155  1.00  0.00     0.014 A 
ATOM     35  C   UNL A   1      38.159  28.565  29.637  1.00  0.00     0.010 A 
ATOM     36  C   UNL A   1      38.796  28.954  27.330  1.00  0.00     0.010 A 
ATOM     37  C   UNL A   1      39.062  28.413  28.590  1.00  0.00    -0.014 A 
BRANCH  37  38
ATOM     38  C   UNL A   1      40.351  27.758  28.706  1.00  0.00     0.031 A 
ATOM     39  C   UNL A   1      40.456  26.304  28.512  1.00  0.00     0.074 A 
ATOM     40  C   UNL A   1      41.458  28.526  28.804  1.00  0.00     0.049 A 
ATOM     41  N   UNL A   1      41.442  25.590  28.930  1.00  0.00    -0.248 NA
ATOM     42  C   UNL A   1      39.426  25.538  27.823  1.00  0.00     0.031 C 
ATOM     43  C   UNL A   1      42.842  28.129  28.569  1.00  0.00     0.029 A 
ATOM     44  N   UNL A   1      41.561  29.807  29.355  1.00  0.00    -0.354 N 
ATOM     45  C   UNL A   1      41.329  24.353  28.334  1.00  0.00     0.074 A 
ATOM     46  C   UNL A   1      40.023  24.347  27.716  1.00  0.00     0.031 C 
ATOM     47  C   UNL A   1      43.649  28.985  29.216  1.00  0.00     0.029 A 
ATOM     48  C   UNL A   1      42.795  29.836  30.026  1.00  0.00     0.049 A 
ATOM     49  H   UNL A   1      40.905  30.538  29.286  1.00  0.00     0.167 HD
ATOM     50  C   UNL A   1      42.419  23.537  28.288  1.00  0.00     0.034 A 
ATOM     51  C   UNL A   1      42.913  30.022  31.375  1.00  0.00     0.034 A 
ATOM     52  C   UNL A   1      43.565  24.156  28.968  1.00  0.00     0.049 A 
ATOM     53  C   UNL A   1      43.650  28.890  32.070  1.00  0.00     0.074 A 
ATOM     54  C   UNL A   1      44.646  24.890  28.505  1.00  0.00     0.029 A 
ATOM     55  N   UNL A   1      43.538  24.324  30.346  1.00  0.00    -0.354 N 
ATOM     56  N   UNL A   1      43.952  27.751  31.509  1.00  0.00    -0.248 NA
ATOM     57  C   UNL A   1      44.085  28.945  33.462  1.00  0.00     0.031 C 
ATOM     58  C   UNL A   1      45.236  25.552  29.613  1.00  0.00     0.029 A 
ATOM     59  C   UNL A   1      44.529  25.204  30.752  1.00  0.00     0.049 A 
ATOM     60  H   UNL A   1      42.901  23.880  30.952  1.00  0.00     0.167 HD
ATOM     61  C   UNL A   1      44.469  26.887  32.443  1.00  0.00     0.074 A 
ATOM     62  C   UNL A   1      44.609  27.718  33.628  1.00  0.00     0.031 C 
ATOM     63  C   UNL A   1      44.672  25.559  32.162  1.00  0.00     0.034 A 
BRANCH  50  64
ATOM     64  C   UNL A   1      42.557  22.357  27.344  1.00  0.00     0.023 A 
ATOM     65  C   UNL A   1      41.716  21.243  27.570  1.00  0.00     0.012 A 
ATOM     66  C   UNL A   1      43.487  22.225  26.288  1.00  0.00     0.148 A 
ATOM     67  C   UNL A   1      41.859  20.035  26.881  1.00  0.00     0.002 A 
ATOM     68  C   UNL A   1      43.683  20.996  25.648  1.00  0.00     0.091 A 
ATOM     69  F   UNL A   1      44.135  23.306  25.838  1.00  0.00    -0.205 F 
ATOM     70  C   UNL A   1      42.872  19.897  25.947  1.00  0.00     0.022 A 
BRANCH  68  71
ATOM     71  S   UNL A   1      45.040  20.709  24.497  1.00  0.00     0.127 S 
ATOM     72  O   UNL A   1      45.052  19.247  24.390  1.00  0.00    -0.237 OA
ATOM     73  O   UNL A   1      44.588  21.401  23.293  1.00  0.00    -0.237 OA
ATOM     74  O   UNL A   1      46.229  21.261  25.138  1.00  0.00    -0.744 OA
ENDBRANCH  68  71
ENDBRANCH  50  64
BRANCH  51  75
ATOM     75  C   UNL A   1      41.790  30.813  31.970  1.00  0.00     0.023 A 
ATOM     76  C   UNL A   1      41.591  32.121  31.464  1.00  0.00     0.012 A 
ATOM     77  C   UNL A   1      40.741  30.192  32.668  1.00  0.00     0.148 A 
ATOM     78  C   UNL A   1      40.332  32.722  31.505  1.00  0.00     0.002 A 
ATOM     79  C   UNL A   1      39.491  30.810  32.723  1.00  0.00     0.091 A 
ATOM     80  F   UNL A   1      40.949  28.983  33.203  1.00  0.00    -0.205 F 
ATOM     81  C   UNL A   1      39.272  32.049  32.100  1.00  0.00     0.022 A 
BRANCH  79  82
ATOM     82  S   UNL A   1      38.088  29.993  33.498  1.00  0.00     0.127 S 
ATOM     83  O   UNL A   1      36.967  30.694  32.881  1.00  0.00    -0.237 OA
ATOM     84  O   UNL A   1      38.249  28.603  33.072  1.00  0.00    -0.237 OA
ATOM     85  O   UNL A   1      38.287  30.206  34.923  1.00  0.00    -0.744 OA
ENDBRANCH  79  82
ENDBRANCH  51  75
BRANCH  63  86
ATOM     86  C   UNL A   1      45.004  24.456  33.165  1.00  0.00     0.023 A 
ATOM     87  C   UNL A   1      44.152  23.363  33.409  1.00  0.00     0.012 A 
ATOM     88  C   UNL A   1      46.270  24.413  33.815  1.00  0.00     0.148 A 
ATOM     89  C   UNL A   1      44.503  22.315  34.271  1.00  0.00     0.002 A 
ATOM     90  C   UNL A   1      46.661  23.312  34.577  1.00  0.00     0.091 A 
ATOM     91  F   UNL A   1      47.108  25.455  33.729  1.00  0.00    -0.205 F 
ATOM     92  C   UNL A   1      45.769  22.274  34.833  1.00  0.00     0.022 A 
BRANCH  90  93
ATOM     93  S   UNL A   1      48.367  23.117  35.119  1.00  0.00     0.127 S 
ATOM     94  O   UNL A   1      49.107  23.327  33.876  1.00  0.00    -0.237 OA
ATOM     95  O   UNL A   1      48.512  24.194  36.101  1.00  0.00    -0.237 OA
ATOM     96  O   UNL A   1      48.429  21.778  35.690  1.00  0.00    -0.744 OA
ENDBRANCH  90  93
ENDBRANCH  63  86
ENDBRANCH  37  38
ENDBRANCH  29  32
ENDBRANCH  27  28
ENDBRANCH   1  27
TORSDOF 16
ENDMDL
