MODEL 1
REMARK VINA RESULT:     -13.5      0.000      0.000
REMARK SMILES COc1ccccc1C(=O)N/C(=C/c1ccc2c(c1)OCO2)C(=O)Nc1ccc(C(=O)NCCCNC(=O)c2ccc(-c3c4nc(c(-c5cccc(S(=O)(=O)[O-])c5F)c5ccc([nH]5)c(-c5cccc(S(=O)(=O)[O-])c5F)c5nc(c(-c6cccc(S(=O)(=O)[O-])c6F)c6ccc3[nH]6)C=C5)C=C4)cc2)cc1
REMARK SMILES IDX 33 1 32 2 30 3 31 4 29 6 26 7 27 8 103 9 28 10 102 11 25 12
REMARK SMILES IDX 23 13 24 14 12 16 13 17 11 18 9 19 10 20 8 22 3 23 4 24 5 25
REMARK SMILES IDX 7 26 6 27 2 28 1 29 14 30 15 31 19 32 16 33 18 34 17 35
REMARK SMILES IDX 20 36 22 37 21 38 34 39 35 40 36 41 37 42 38 44 39 45 40 46
REMARK SMILES IDX 101 47 41 48 100 49 42 50 43 51 44 52 94 53 45 54 99 55
REMARK SMILES IDX 93 56 95 57 46 58 98 59 92 60 91 61 47 63 79 64 59 65 78 66
REMARK SMILES IDX 60 67 63 68 77 69 96 70 61 71 62 72 76 74 97 75 64 76 48 77
REMARK SMILES IDX 49 78 57 79 50 80 52 81 58 82 51 83 53 84 54 85 55 86 56 87
REMARK SMILES IDX 80 88 81 89 89 90 82 91 84 92 90 93 83 94 85 95 86 96 87 97
REMARK SMILES IDX 88 98 65 99 66 100 74 101 67 102 69 103 75 104 68 105 70 106
REMARK SMILES IDX 71 107 72 108 73 109
REMARK H PARENT 32 5 25 15 11 21 36 43 95 62 63 73
REMARK Flexibility Score: inf
ROOT
ATOM      1  C   UNL A   1      37.032  20.347  24.940  1.00  0.00     0.118 C 
ENDROOT
BRANCH   1   2
ATOM      2  N   UNL A   1      35.872  19.483  24.851  1.00  0.00    -0.352 N 
ATOM      3  C   UNL A   1      34.548  19.813  24.870  1.00  0.00     0.251 C 
ATOM      4  O   UNL A   1      33.689  18.966  24.653  1.00  0.00    -0.269 OA
ATOM      5  H   UNL A   1      36.067  18.522  24.764  1.00  0.00     0.163 HD
BRANCH   3   6
ATOM      6  C   UNL A   1      34.143  21.203  25.073  1.00  0.00     0.039 A 
ATOM      7  C   UNL A   1      33.206  24.766  25.581  1.00  0.00     0.041 A 
ATOM      8  C   UNL A   1      34.688  24.167  26.332  1.00  0.00     0.027 A 
ATOM      9  C   UNL A   1      32.276  23.674  24.564  1.00  0.00     0.027 A 
ATOM     10  C   UNL A   1      35.188  22.222  26.125  1.00  0.00     0.016 A 
ATOM     11  C   UNL A   1      32.734  21.962  24.314  1.00  0.00     0.016 A 
BRANCH   7  12
ATOM     12  N   UNL A   1      32.574  25.720  26.390  1.00  0.00    -0.321 N 
ATOM     13  C   UNL A   1      31.595  26.559  25.868  1.00  0.00     0.272 C 
ATOM     14  O   UNL A   1      30.450  26.564  26.322  1.00  0.00    -0.267 OA
ATOM     15  H   UNL A   1      32.827  25.798  27.339  1.00  0.00     0.170 HD
BRANCH  13  16
ATOM     16  C   UNL A   1      32.008  27.650  24.852  1.00  0.00     0.108 C 
ATOM     17  C   UNL A   1      32.527  28.882  25.137  1.00  0.00     0.040 C 
BRANCH  16  18
ATOM     18  N   UNL A   1      31.895  27.340  23.499  1.00  0.00    -0.317 N 
ATOM     19  C   UNL A   1      30.882  27.365  22.559  1.00  0.00     0.259 C 
ATOM     20  O   UNL A   1      31.155  26.969  21.421  1.00  0.00    -0.269 OA
ATOM     21  H   UNL A   1      32.746  27.027  23.117  1.00  0.00     0.170 HD
BRANCH  19  22
ATOM     22  C   UNL A   1      29.486  27.779  22.812  1.00  0.00     0.082 A 
ATOM     23  C   UNL A   1      28.886  28.977  22.409  1.00  0.00     0.131 A 
ATOM     24  C   UNL A   1      27.607  29.290  22.901  1.00  0.00     0.047 A 
ATOM     25  C   UNL A   1      26.878  28.375  23.662  1.00  0.00     0.004 A 
ATOM     26  C   UNL A   1      28.713  26.827  23.509  1.00  0.00     0.018 A 
ATOM     27  C   UNL A   1      27.413  27.121  23.924  1.00  0.00     0.001 A 
BRANCH  23  28
ATOM     28  O   UNL A   1      29.393  29.972  21.624  1.00  0.00    -0.496 OA
ATOM     29  C   UNL A   1      28.900  31.292  21.804  1.00  0.00     0.278 C 
ENDBRANCH  23  28
ENDBRANCH  19  22
ENDBRANCH  16  18
BRANCH  17  30
ATOM     30  C   UNL A   1      32.568  29.533  26.475  1.00  0.00    -0.019 A 
ATOM     31  C   UNL A   1      34.206  29.301  27.177  1.00  0.00     0.012 A 
ATOM     32  C   UNL A   1      31.738  31.071  26.788  1.00  0.00     0.058 A 
ATOM     33  C   UNL A   1      35.074  30.854  28.140  1.00  0.00     0.051 A 
ATOM     34  C   UNL A   1      32.511  32.395  27.687  1.00  0.00     0.166 A 
ATOM     35  C   UNL A   1      34.105  32.339  28.343  1.00  0.00     0.165 A 
ATOM     36  O   UNL A   1      32.227  33.731  27.519  1.00  0.00    -0.454 OA
ATOM     37  O   UNL A   1      34.554  33.613  28.491  1.00  0.00    -0.454 OA
ATOM     38  C   UNL A   1      33.559  34.334  27.696  1.00  0.00     0.468 C 
ENDBRANCH  17  30
ENDBRANCH  13  16
ENDBRANCH   7  12
ENDBRANCH   3   6
ENDBRANCH   1   2
BRANCH   1  39
ATOM     39  C   UNL A   1      38.329  19.556  24.850  1.00  0.00     0.042 C 
BRANCH  39  40
ATOM     40  C   UNL A   1      39.417  20.071  25.780  1.00  0.00     0.118 C 
BRANCH  40  41
ATOM     41  N   UNL A   1      40.495  19.108  25.941  1.00  0.00    -0.352 N 
ATOM     42  C   UNL A   1      41.847  19.325  26.031  1.00  0.00     0.251 C 
ATOM     43  H   UNL A   1      40.215  18.166  25.994  1.00  0.00     0.163 HD
ATOM     44  O   UNL A   1      42.623  18.386  25.877  1.00  0.00    -0.269 OA
BRANCH  42  45
ATOM     45  C   UNL A   1      42.359  20.681  26.316  1.00  0.00     0.039 A 
ATOM     46  C   UNL A   1      42.599  21.053  27.640  1.00  0.00     0.014 A 
ATOM     47  C   UNL A   1      42.569  21.598  25.281  1.00  0.00     0.014 A 
ATOM     48  C   UNL A   1      43.079  22.333  27.919  1.00  0.00     0.010 A 
ATOM     49  C   UNL A   1      43.144  22.831  25.551  1.00  0.00     0.010 A 
ATOM     50  C   UNL A   1      43.372  23.226  26.875  1.00  0.00    -0.014 A 
BRANCH  50  51
ATOM     51  C   UNL A   1      43.884  24.590  27.155  1.00  0.00     0.031 A 
ATOM     52  C   UNL A   1      42.965  25.638  27.727  1.00  0.00     0.074 A 
ATOM     53  C   UNL A   1      45.157  24.897  26.838  1.00  0.00     0.049 A 
ATOM     54  N   UNL A   1      43.228  26.881  28.038  1.00  0.00    -0.248 NA
ATOM     55  C   UNL A   1      41.561  25.252  27.949  1.00  0.00     0.031 C 
ATOM     56  C   UNL A   1      46.109  23.990  26.191  1.00  0.00     0.029 A 
ATOM     57  N   UNL A   1      45.864  26.059  27.002  1.00  0.00    -0.354 N 
ATOM     58  C   UNL A   1      42.022  27.430  28.456  1.00  0.00     0.074 A 
ATOM     59  C   UNL A   1      41.016  26.403  28.315  1.00  0.00     0.031 C 
ATOM     60  C   UNL A   1      47.282  24.624  26.034  1.00  0.00     0.029 A 
ATOM     61  C   UNL A   1      47.158  25.986  26.541  1.00  0.00     0.049 A 
ATOM     62  H   UNL A   1      45.482  26.869  27.412  1.00  0.00     0.167 HD
ATOM     63  C   UNL A   1      41.779  28.667  28.949  1.00  0.00     0.034 A 
ATOM     64  C   UNL A   1      48.134  26.914  26.533  1.00  0.00     0.034 A 
ATOM     65  C   UNL A   1      42.796  29.667  29.131  1.00  0.00     0.049 A 
ATOM     66  C   UNL A   1      47.856  28.259  27.146  1.00  0.00     0.074 A 
ATOM     67  C   UNL A   1      42.681  30.919  29.705  1.00  0.00     0.029 A 
ATOM     68  N   UNL A   1      44.117  29.527  28.734  1.00  0.00    -0.354 N 
ATOM     69  N   UNL A   1      46.749  28.706  27.690  1.00  0.00    -0.248 NA
ATOM     70  C   UNL A   1      48.971  29.214  27.184  1.00  0.00     0.031 C 
ATOM     71  C   UNL A   1      43.928  31.549  29.632  1.00  0.00     0.029 A 
ATOM     72  C   UNL A   1      44.828  30.674  29.042  1.00  0.00     0.049 A 
ATOM     73  H   UNL A   1      44.494  28.730  28.297  1.00  0.00     0.167 HD
ATOM     74  C   UNL A   1      47.043  29.978  28.165  1.00  0.00     0.074 A 
ATOM     75  C   UNL A   1      48.440  30.219  27.867  1.00  0.00     0.031 C 
ATOM     76  C   UNL A   1      46.229  30.874  28.776  1.00  0.00     0.034 A 
BRANCH  63  77
ATOM     77  C   UNL A   1      40.369  28.988  29.377  1.00  0.00     0.023 A 
ATOM     78  C   UNL A   1      39.425  29.408  28.415  1.00  0.00     0.012 A 
ATOM     79  C   UNL A   1      39.961  28.829  30.716  1.00  0.00     0.148 A 
ATOM     80  C   UNL A   1      38.113  29.703  28.784  1.00  0.00     0.002 A 
ATOM     81  C   UNL A   1      38.639  29.078  31.067  1.00  0.00     0.091 A 
ATOM     82  F   UNL A   1      40.875  28.451  31.621  1.00  0.00    -0.205 F 
ATOM     83  C   UNL A   1      37.718  29.527  30.106  1.00  0.00     0.022 A 
BRANCH  81  84
ATOM     84  S   UNL A   1      38.008  28.803  32.727  1.00  0.00     0.127 S 
ATOM     85  O   UNL A   1      36.661  29.365  32.627  1.00  0.00    -0.237 OA
ATOM     86  O   UNL A   1      38.054  27.345  32.835  1.00  0.00    -0.237 OA
ATOM     87  O   UNL A   1      38.913  29.508  33.623  1.00  0.00    -0.744 OA
ENDBRANCH  81  84
ENDBRANCH  63  77
BRANCH  64  88
ATOM     88  C   UNL A   1      49.482  26.571  25.999  1.00  0.00     0.023 A 
ATOM     89  C   UNL A   1      50.336  25.740  26.751  1.00  0.00     0.012 A 
ATOM     90  C   UNL A   1      49.909  27.034  24.739  1.00  0.00     0.148 A 
ATOM     91  C   UNL A   1      51.603  25.404  26.272  1.00  0.00     0.002 A 
ATOM     92  C   UNL A   1      51.149  26.648  24.244  1.00  0.00     0.091 A 
ATOM     93  F   UNL A   1      49.086  27.830  24.044  1.00  0.00    -0.205 F 
ATOM     94  C   UNL A   1      52.005  25.849  25.016  1.00  0.00     0.022 A 
BRANCH  92  95
ATOM     95  S   UNL A   1      51.687  27.057  22.579  1.00  0.00     0.127 S 
ATOM     96  O   UNL A   1      50.528  26.662  21.784  1.00  0.00    -0.237 OA
ATOM     97  O   UNL A   1      51.904  28.501  22.679  1.00  0.00    -0.237 OA
ATOM     98  O   UNL A   1      52.901  26.285  22.358  1.00  0.00    -0.744 OA
ENDBRANCH  92  95
ENDBRANCH  64  88
BRANCH  76  99
ATOM     99  C   UNL A   1      46.838  32.187  29.195  1.00  0.00     0.023 A 
ATOM    100  C   UNL A   1      47.573  32.269  30.394  1.00  0.00     0.012 A 
ATOM    101  C   UNL A   1      46.728  33.323  28.370  1.00  0.00     0.148 A 
ATOM    102  C   UNL A   1      48.152  33.474  30.787  1.00  0.00     0.002 A 
ATOM    103  C   UNL A   1      47.353  34.506  28.743  1.00  0.00     0.091 A 
ATOM    104  F   UNL A   1      46.009  33.229  27.242  1.00  0.00    -0.205 F 
ATOM    105  C   UNL A   1      48.052  34.588  29.958  1.00  0.00     0.022 A 
BRANCH 103 106
ATOM    106  S   UNL A   1      47.361  35.960  27.688  1.00  0.00     0.127 S 
ATOM    107  O   UNL A   1      45.938  36.295  27.632  1.00  0.00    -0.237 OA
ATOM    108  O   UNL A   1      48.179  36.898  28.456  1.00  0.00    -0.237 OA
ATOM    109  O   UNL A   1      47.955  35.536  26.428  1.00  0.00    -0.744 OA
ENDBRANCH 103 106
ENDBRANCH  76  99
ENDBRANCH  50  51
ENDBRANCH  42  45
ENDBRANCH  40  41
ENDBRANCH  39  40
ENDBRANCH   1  39
TORSDOF 19
ENDMDL
MODEL 2
REMARK VINA RESULT:     -13.1      5.966     11.570
REMARK SMILES COc1ccccc1C(=O)N/C(=C/c1ccc2c(c1)OCO2)C(=O)Nc1ccc(C(=O)NCCCNC(=O)c2ccc(-c3c4nc(c(-c5cccc(S(=O)(=O)[O-])c5F)c5ccc([nH]5)c(-c5cccc(S(=O)(=O)[O-])c5F)c5nc(c(-c6cccc(S(=O)(=O)[O-])c6F)c6ccc3[nH]6)C=C5)C=C4)cc2)cc1
REMARK SMILES IDX 33 1 32 2 30 3 31 4 29 6 26 7 27 8 103 9 28 10 102 11 25 12
REMARK SMILES IDX 23 13 24 14 12 16 13 17 11 18 9 19 10 20 8 22 3 23 4 24 5 25
REMARK SMILES IDX 7 26 6 27 2 28 1 29 14 30 15 31 19 32 16 33 18 34 17 35
REMARK SMILES IDX 20 36 22 37 21 38 34 39 35 40 36 41 37 42 38 44 39 45 40 46
REMARK SMILES IDX 101 47 41 48 100 49 42 50 43 51 44 52 94 53 45 54 99 55
REMARK SMILES IDX 93 56 95 57 46 58 98 59 92 60 91 61 47 63 79 64 59 65 78 66
REMARK SMILES IDX 60 67 63 68 77 69 96 70 61 71 62 72 76 74 97 75 64 76 48 77
REMARK SMILES IDX 49 78 57 79 50 80 52 81 58 82 51 83 53 84 54 85 55 86 56 87
REMARK SMILES IDX 80 88 81 89 89 90 82 91 84 92 90 93 83 94 85 95 86 96 87 97
REMARK SMILES IDX 88 98 65 99 66 100 74 101 67 102 69 103 75 104 68 105 70 106
REMARK SMILES IDX 71 107 72 108 73 109
REMARK H PARENT 32 5 25 15 11 21 36 43 95 62 63 73
REMARK Flexibility Score: inf
ROOT
ATOM      1  C   UNL A   1      50.823  27.920  24.789  1.00  0.00     0.118 C 
ENDROOT
BRANCH   1   2
ATOM      2  N   UNL A   1      50.254  27.129  23.717  1.00  0.00    -0.352 N 
ATOM      3  C   UNL A   1      48.994  26.616  23.600  1.00  0.00     0.251 C 
ATOM      4  O   UNL A   1      48.634  26.073  22.562  1.00  0.00    -0.269 OA
ATOM      5  H   UNL A   1      50.861  26.933  22.968  1.00  0.00     0.163 HD
BRANCH   3   6
ATOM      6  C   UNL A   1      48.034  26.778  24.690  1.00  0.00     0.039 A 
ATOM      7  C   UNL A   1      45.657  27.159  27.525  1.00  0.00     0.041 A 
ATOM      8  C   UNL A   1      46.689  25.726  27.474  1.00  0.00     0.027 A 
ATOM      9  C   UNL A   1      45.849  28.381  26.275  1.00  0.00     0.027 A 
ATOM     10  C   UNL A   1      47.944  25.464  25.914  1.00  0.00     0.016 A 
ATOM     11  C   UNL A   1      47.000  28.199  24.916  1.00  0.00     0.016 A 
BRANCH   7  12
ATOM     12  N   UNL A   1      44.397  26.861  28.061  1.00  0.00    -0.321 N 
ATOM     13  C   UNL A   1      43.769  25.654  27.777  1.00  0.00     0.272 C 
ATOM     14  O   UNL A   1      43.467  24.864  28.673  1.00  0.00    -0.267 OA
ATOM     15  H   UNL A   1      43.951  27.516  28.647  1.00  0.00     0.170 HD
BRANCH  13  16
ATOM     16  C   UNL A   1      43.250  25.400  26.342  1.00  0.00     0.108 C 
ATOM     17  C   UNL A   1      43.061  24.187  25.741  1.00  0.00     0.040 C 
BRANCH  16  18
ATOM     18  N   UNL A   1      42.882  26.512  25.588  1.00  0.00    -0.317 N 
ATOM     19  C   UNL A   1      41.978  27.547  25.728  1.00  0.00     0.259 C 
ATOM     20  O   UNL A   1      41.901  28.361  24.803  1.00  0.00    -0.269 OA
ATOM     21  H   UNL A   1      43.392  26.577  24.749  1.00  0.00     0.170 HD
BRANCH  19  22
ATOM     22  C   UNL A   1      41.058  27.734  26.869  1.00  0.00     0.082 A 
ATOM     23  C   UNL A   1      40.151  26.795  27.372  1.00  0.00     0.131 A 
ATOM     24  C   UNL A   1      39.218  27.207  28.339  1.00  0.00     0.047 A 
ATOM     25  C   UNL A   1      39.271  28.482  28.901  1.00  0.00     0.004 A 
ATOM     26  C   UNL A   1      41.159  28.992  27.500  1.00  0.00     0.018 A 
ATOM     27  C   UNL A   1      40.276  29.360  28.516  1.00  0.00     0.001 A 
BRANCH  23  28
ATOM     28  O   UNL A   1      39.976  25.489  27.011  1.00  0.00    -0.496 OA
ATOM     29  C   UNL A   1      39.035  24.709  27.735  1.00  0.00     0.278 C 
ENDBRANCH  23  28
ENDBRANCH  19  22
ENDBRANCH  16  18
BRANCH  17  30
ATOM     30  C   UNL A   1      43.549  22.871  26.238  1.00  0.00    -0.019 A 
ATOM     31  C   UNL A   1      42.150  21.751  26.367  1.00  0.00     0.012 A 
ATOM     32  C   UNL A   1      45.109  22.200  25.718  1.00  0.00     0.058 A 
ATOM     33  C   UNL A   1      42.385  19.835  25.763  1.00  0.00     0.051 A 
ATOM     34  C   UNL A   1      45.292  20.496  25.246  1.00  0.00     0.166 A 
ATOM     35  C   UNL A   1      44.017  19.333  25.245  1.00  0.00     0.165 A 
ATOM     36  O   UNL A   1      46.225  20.022  24.354  1.00  0.00    -0.454 OA
ATOM     37  O   UNL A   1      44.348  18.335  24.384  1.00  0.00    -0.454 OA
ATOM     38  C   UNL A   1      45.463  18.963  23.672  1.00  0.00     0.468 C 
ENDBRANCH  17  30
ENDBRANCH  13  16
ENDBRANCH   7  12
ENDBRANCH   3   6
ENDBRANCH   1   2
BRANCH   1  39
ATOM     39  C   UNL A   1      52.211  27.429  25.173  1.00  0.00     0.042 C 
BRANCH  39  40
ATOM     40  C   UNL A   1      52.883  28.285  26.236  1.00  0.00     0.118 C 
BRANCH  40  41
ATOM     41  N   UNL A   1      53.510  27.476  27.269  1.00  0.00    -0.352 N 
ATOM     42  C   UNL A   1      53.106  27.251  28.561  1.00  0.00     0.251 C 
ATOM     43  H   UNL A   1      54.344  27.024  27.004  1.00  0.00     0.163 HD
ATOM     44  O   UNL A   1      53.900  26.780  29.371  1.00  0.00    -0.269 OA
BRANCH  42  45
ATOM     45  C   UNL A   1      51.723  27.574  28.968  1.00  0.00     0.039 A 
ATOM     46  C   UNL A   1      50.665  26.852  28.412  1.00  0.00     0.014 A 
ATOM     47  C   UNL A   1      51.467  28.611  29.870  1.00  0.00     0.014 A 
ATOM     48  C   UNL A   1      49.355  27.152  28.786  1.00  0.00     0.010 A 
ATOM     49  C   UNL A   1      50.173  28.838  30.320  1.00  0.00     0.010 A 
ATOM     50  C   UNL A   1      49.100  28.136  29.757  1.00  0.00    -0.014 A 
BRANCH  50  51
ATOM     51  C   UNL A   1      47.713  28.465  30.167  1.00  0.00     0.031 A 
ATOM     52  C   UNL A   1      46.982  27.576  31.139  1.00  0.00     0.074 A 
ATOM     53  C   UNL A   1      47.096  29.530  29.619  1.00  0.00     0.049 A 
ATOM     54  N   UNL A   1      45.771  27.699  31.616  1.00  0.00    -0.248 NA
ATOM     55  C   UNL A   1      47.691  26.374  31.614  1.00  0.00     0.031 C 
ATOM     56  C   UNL A   1      47.673  30.407  28.595  1.00  0.00     0.029 A 
ATOM     57  N   UNL A   1      45.845  30.046  29.832  1.00  0.00    -0.354 N 
ATOM     58  C   UNL A   1      45.562  26.580  32.413  1.00  0.00     0.074 A 
ATOM     59  C   UNL A   1      46.751  25.764  32.320  1.00  0.00     0.031 C 
ATOM     60  C   UNL A   1      46.784  31.364  28.287  1.00  0.00     0.029 A 
ATOM     61  C   UNL A   1      45.569  31.155  29.067  1.00  0.00     0.049 A 
ATOM     62  H   UNL A   1      45.205  29.661  30.473  1.00  0.00     0.167 HD
ATOM     63  C   UNL A   1      44.491  26.276  33.183  1.00  0.00     0.034 A 
ATOM     64  C   UNL A   1      44.462  31.918  29.006  1.00  0.00     0.034 A 
ATOM     65  C   UNL A   1      43.333  27.118  33.307  1.00  0.00     0.049 A 
ATOM     66  C   UNL A   1      43.311  31.596  29.919  1.00  0.00     0.074 A 
ATOM     67  C   UNL A   1      42.231  26.954  34.126  1.00  0.00     0.029 A 
ATOM     68  N   UNL A   1      43.125  28.282  32.582  1.00  0.00    -0.354 N 
ATOM     69  N   UNL A   1      43.198  30.623  30.792  1.00  0.00    -0.248 NA
ATOM     70  C   UNL A   1      42.153  32.499  29.874  1.00  0.00     0.031 C 
ATOM     71  C   UNL A   1      41.344  28.007  33.879  1.00  0.00     0.029 A 
ATOM     72  C   UNL A   1      41.908  28.844  32.928  1.00  0.00     0.049 A 
ATOM     73  H   UNL A   1      43.750  28.653  31.919  1.00  0.00     0.167 HD
ATOM     74  C   UNL A   1      41.975  30.815  31.423  1.00  0.00     0.074 A 
ATOM     75  C   UNL A   1      41.397  32.014  30.849  1.00  0.00     0.031 C 
ATOM     76  C   UNL A   1      41.374  30.062  32.376  1.00  0.00     0.034 A 
BRANCH  63  77
ATOM     77  C   UNL A   1      44.548  25.005  33.994  1.00  0.00     0.023 A 
ATOM     78  C   UNL A   1      44.173  23.780  33.400  1.00  0.00     0.012 A 
ATOM     79  C   UNL A   1      45.016  25.011  35.322  1.00  0.00     0.148 A 
ATOM     80  C   UNL A   1      44.225  22.591  34.126  1.00  0.00     0.002 A 
ATOM     81  C   UNL A   1      45.111  23.814  36.023  1.00  0.00     0.091 A 
ATOM     82  F   UNL A   1      45.347  26.185  35.878  1.00  0.00    -0.205 F 
ATOM     83  C   UNL A   1      44.704  22.606  35.433  1.00  0.00     0.022 A 
BRANCH  81  84
ATOM     84  S   UNL A   1      45.793  23.713  37.683  1.00  0.00     0.127 S 
ATOM     85  O   UNL A   1      47.118  24.301  37.493  1.00  0.00    -0.237 OA
ATOM     86  O   UNL A   1      44.861  24.543  38.447  1.00  0.00    -0.237 OA
ATOM     87  O   UNL A   1      45.781  22.302  38.039  1.00  0.00    -0.744 OA
ENDBRANCH  81  84
ENDBRANCH  63  77
BRANCH  64  88
ATOM     88  C   UNL A   1      44.423  33.105  28.105  1.00  0.00     0.023 A 
ATOM     89  C   UNL A   1      44.073  32.937  26.750  1.00  0.00     0.012 A 
ATOM     90  C   UNL A   1      44.697  34.399  28.587  1.00  0.00     0.148 A 
ATOM     91  C   UNL A   1      44.029  34.032  25.886  1.00  0.00     0.002 A 
ATOM     92  C   UNL A   1      44.595  35.492  27.735  1.00  0.00     0.091 A 
ATOM     93  F   UNL A   1      45.037  34.537  29.876  1.00  0.00    -0.205 F 
ATOM     94  C   UNL A   1      44.280  35.309  26.380  1.00  0.00     0.022 A 
BRANCH  92  95
ATOM     95  S   UNL A   1      44.762  37.184  28.317  1.00  0.00     0.127 S 
ATOM     96  O   UNL A   1      44.389  37.947  27.130  1.00  0.00    -0.237 OA
ATOM     97  O   UNL A   1      43.788  37.224  29.409  1.00  0.00    -0.237 OA
ATOM     98  O   UNL A   1      46.146  37.316  28.748  1.00  0.00    -0.744 OA
ENDBRANCH  92  95
ENDBRANCH  64  88
BRANCH  76  99
ATOM     99  C   UNL A   1      40.036  30.531  32.885  1.00  0.00     0.023 A 
ATOM    100  C   UNL A   1      38.857  30.146  32.218  1.00  0.00     0.012 A 
ATOM    101  C   UNL A   1      39.947  31.306  34.058  1.00  0.00     0.148 A 
ATOM    102  C   UNL A   1      37.611  30.563  32.686  1.00  0.00     0.002 A 
ATOM    103  C   UNL A   1      38.700  31.672  34.548  1.00  0.00     0.091 A 
ATOM    104  F   UNL A   1      41.082  31.678  34.668  1.00  0.00    -0.205 F 
ATOM    105  C   UNL A   1      37.532  31.315  33.855  1.00  0.00     0.022 A 
BRANCH 103 106
ATOM    106  S   UNL A   1      38.501  32.554  36.099  1.00  0.00     0.127 S 
ATOM    107  O   UNL A   1      37.045  32.611  36.226  1.00  0.00    -0.237 OA
ATOM    108  O   UNL A   1      39.162  31.661  37.052  1.00  0.00    -0.237 OA
ATOM    109  O   UNL A   1      39.166  33.837  35.917  1.00  0.00    -0.744 OA
ENDBRANCH 103 106
ENDBRANCH  76  99
ENDBRANCH  50  51
ENDBRANCH  42  45
ENDBRANCH  40  41
ENDBRANCH  39  40
ENDBRANCH   1  39
TORSDOF 19
ENDMDL
MODEL 3
REMARK VINA RESULT:     -12.7      3.784      8.354
REMARK SMILES COc1ccccc1C(=O)N/C(=C/c1ccc2c(c1)OCO2)C(=O)Nc1ccc(C(=O)NCCCNC(=O)c2ccc(-c3c4nc(c(-c5cccc(S(=O)(=O)[O-])c5F)c5ccc([nH]5)c(-c5cccc(S(=O)(=O)[O-])c5F)c5nc(c(-c6cccc(S(=O)(=O)[O-])c6F)c6ccc3[nH]6)C=C5)C=C4)cc2)cc1
REMARK SMILES IDX 33 1 32 2 30 3 31 4 29 6 26 7 27 8 103 9 28 10 102 11 25 12
REMARK SMILES IDX 23 13 24 14 12 16 13 17 11 18 9 19 10 20 8 22 3 23 4 24 5 25
REMARK SMILES IDX 7 26 6 27 2 28 1 29 14 30 15 31 19 32 16 33 18 34 17 35
REMARK SMILES IDX 20 36 22 37 21 38 34 39 35 40 36 41 37 42 38 44 39 45 40 46
REMARK SMILES IDX 101 47 41 48 100 49 42 50 43 51 44 52 94 53 45 54 99 55
REMARK SMILES IDX 93 56 95 57 46 58 98 59 92 60 91 61 47 63 79 64 59 65 78 66
REMARK SMILES IDX 60 67 63 68 77 69 96 70 61 71 62 72 76 74 97 75 64 76 48 77
REMARK SMILES IDX 49 78 57 79 50 80 52 81 58 82 51 83 53 84 54 85 55 86 56 87
REMARK SMILES IDX 80 88 81 89 89 90 82 91 84 92 90 93 83 94 85 95 86 96 87 97
REMARK SMILES IDX 88 98 65 99 66 100 74 101 67 102 69 103 75 104 68 105 70 106
REMARK SMILES IDX 71 107 72 108 73 109
REMARK H PARENT 32 5 25 15 11 21 36 43 95 62 63 73
REMARK Flexibility Score: inf
ROOT
ATOM      1  C   UNL A   1      34.771  32.713  31.133  1.00  0.00     0.118 C 
ENDROOT
BRANCH   1   2
ATOM      2  N   UNL A   1      35.906  33.015  30.284  1.00  0.00    -0.352 N 
ATOM      3  C   UNL A   1      36.147  32.631  28.997  1.00  0.00     0.251 C 
ATOM      4  O   UNL A   1      37.104  33.083  28.378  1.00  0.00    -0.269 OA
ATOM      5  H   UNL A   1      36.603  33.577  30.695  1.00  0.00     0.163 HD
BRANCH   3   6
ATOM      6  C   UNL A   1      35.218  31.731  28.316  1.00  0.00     0.039 A 
ATOM      7  C   UNL A   1      32.842  29.508  26.515  1.00  0.00     0.041 A 
ATOM      8  C   UNL A   1      32.474  31.233  26.617  1.00  0.00     0.027 A 
ATOM      9  C   UNL A   1      34.353  28.927  27.202  1.00  0.00     0.027 A 
ATOM     10  C   UNL A   1      33.715  32.451  27.643  1.00  0.00     0.016 A 
ATOM     11  C   UNL A   1      35.499  30.000  28.061  1.00  0.00     0.016 A 
BRANCH   7  12
ATOM     12  N   UNL A   1      31.676  28.733  26.565  1.00  0.00    -0.321 N 
ATOM     13  C   UNL A   1      31.717  27.367  26.309  1.00  0.00     0.272 C 
ATOM     14  O   UNL A   1      31.359  26.547  27.156  1.00  0.00    -0.267 OA
ATOM     15  H   UNL A   1      30.816  29.162  26.784  1.00  0.00     0.170 HD
BRANCH  13  16
ATOM     16  C   UNL A   1      32.011  26.884  24.870  1.00  0.00     0.108 C 
ATOM     17  C   UNL A   1      32.218  25.596  24.463  1.00  0.00     0.040 C 
BRANCH  16  18
ATOM     18  N   UNL A   1      32.016  27.844  23.860  1.00  0.00    -0.317 N 
ATOM     19  C   UNL A   1      31.055  28.505  23.120  1.00  0.00     0.259 C 
ATOM     20  O   UNL A   1      31.449  29.293  22.254  1.00  0.00    -0.269 OA
ATOM     21  H   UNL A   1      32.927  28.120  23.615  1.00  0.00     0.170 HD
BRANCH  19  22
ATOM     22  C   UNL A   1      29.595  28.313  23.241  1.00  0.00     0.082 A 
ATOM     23  C   UNL A   1      28.605  29.273  23.001  1.00  0.00     0.131 A 
ATOM     24  C   UNL A   1      27.277  28.975  23.351  1.00  0.00     0.047 A 
ATOM     25  C   UNL A   1      26.911  27.704  23.795  1.00  0.00     0.004 A 
ATOM     26  C   UNL A   1      29.206  27.008  23.609  1.00  0.00     0.018 A 
ATOM     27  C   UNL A   1      27.871  26.704  23.877  1.00  0.00     0.001 A 
BRANCH  23  28
ATOM     28  O   UNL A   1      28.737  30.543  22.516  1.00  0.00    -0.496 OA
ATOM     29  C   UNL A   1      28.148  31.609  23.246  1.00  0.00     0.278 C 
ENDBRANCH  23  28
ENDBRANCH  19  22
ENDBRANCH  16  18
BRANCH  17  30
ATOM     30  C   UNL A   1      32.458  24.420  25.345  1.00  0.00    -0.019 A 
ATOM     31  C   UNL A   1      31.393  23.075  24.812  1.00  0.00     0.012 A 
ATOM     32  C   UNL A   1      34.084  24.014  25.933  1.00  0.00     0.058 A 
ATOM     33  C   UNL A   1      32.155  21.202  24.758  1.00  0.00     0.051 A 
ATOM     34  C   UNL A   1      34.701  22.347  25.922  1.00  0.00     0.166 A 
ATOM     35  C   UNL A   1      33.818  20.975  25.363  1.00  0.00     0.165 A 
ATOM     36  O   UNL A   1      36.028  22.000  25.819  1.00  0.00    -0.454 OA
ATOM     37  O   UNL A   1      34.705  20.006  25.017  1.00  0.00    -0.454 OA
ATOM     38  C   UNL A   1      35.946  20.783  24.995  1.00  0.00     0.468 C 
ENDBRANCH  17  30
ENDBRANCH  13  16
ENDBRANCH   7  12
ENDBRANCH   3   6
ENDBRANCH   1   2
BRANCH   1  39
ATOM     39  C   UNL A   1      35.094  32.938  32.602  1.00  0.00     0.042 C 
BRANCH  39  40
ATOM     40  C   UNL A   1      36.481  32.454  32.998  1.00  0.00     0.118 C 
BRANCH  40  41
ATOM     41  N   UNL A   1      36.523  31.012  33.179  1.00  0.00    -0.352 N 
ATOM     42  C   UNL A   1      37.354  30.088  32.598  1.00  0.00     0.251 C 
ATOM     43  H   UNL A   1      35.860  30.645  33.808  1.00  0.00     0.163 HD
ATOM     44  O   UNL A   1      37.063  28.896  32.646  1.00  0.00    -0.269 OA
BRANCH  42  45
ATOM     45  C   UNL A   1      38.592  30.530  31.924  1.00  0.00     0.039 A 
ATOM     46  C   UNL A   1      38.624  30.584  30.529  1.00  0.00     0.014 A 
ATOM     47  C   UNL A   1      39.732  30.858  32.665  1.00  0.00     0.014 A 
ATOM     48  C   UNL A   1      39.790  30.996  29.883  1.00  0.00     0.010 A 
ATOM     49  C   UNL A   1      40.854  31.367  32.026  1.00  0.00     0.010 A 
ATOM     50  C   UNL A   1      40.908  31.408  30.627  1.00  0.00    -0.014 A 
BRANCH  50  51
ATOM     51  C   UNL A   1      42.154  31.851  29.956  1.00  0.00     0.031 A 
ATOM     52  C   UNL A   1      42.348  33.303  29.606  1.00  0.00     0.074 A 
ATOM     53  C   UNL A   1      43.081  30.936  29.610  1.00  0.00     0.049 A 
ATOM     54  N   UNL A   1      43.365  33.880  29.020  1.00  0.00    -0.248 NA
ATOM     55  C   UNL A   1      41.243  34.224  29.925  1.00  0.00     0.031 C 
ATOM     56  C   UNL A   1      42.958  29.489  29.813  1.00  0.00     0.029 A 
ATOM     57  N   UNL A   1      44.300  31.083  29.003  1.00  0.00    -0.354 N 
ATOM     58  C   UNL A   1      43.009  35.215  28.870  1.00  0.00     0.074 A 
ATOM     59  C   UNL A   1      41.665  35.356  29.382  1.00  0.00     0.031 C 
ATOM     60  C   UNL A   1      44.067  28.886  29.357  1.00  0.00     0.029 A 
ATOM     61  C   UNL A   1      44.965  29.895  28.807  1.00  0.00     0.049 A 
ATOM     62  H   UNL A   1      44.666  31.956  28.733  1.00  0.00     0.167 HD
ATOM     63  C   UNL A   1      43.748  36.240  28.385  1.00  0.00     0.034 A 
ATOM     64  C   UNL A   1      46.167  29.651  28.250  1.00  0.00     0.034 A 
ATOM     65  C   UNL A   1      45.101  36.099  27.922  1.00  0.00     0.049 A 
ATOM     66  C   UNL A   1      46.994  30.814  27.778  1.00  0.00     0.074 A 
ATOM     67  C   UNL A   1      45.974  37.082  27.496  1.00  0.00     0.029 A 
ATOM     68  N   UNL A   1      45.777  34.892  27.821  1.00  0.00    -0.354 N 
ATOM     69  N   UNL A   1      46.706  32.094  27.797  1.00  0.00    -0.248 NA
ATOM     70  C   UNL A   1      48.329  30.507  27.246  1.00  0.00     0.031 C 
ATOM     71  C   UNL A   1      47.170  36.467  27.111  1.00  0.00     0.029 A 
ATOM     72  C   UNL A   1      47.053  35.103  27.330  1.00  0.00     0.049 A 
ATOM     73  H   UNL A   1      45.403  34.013  28.062  1.00  0.00     0.167 HD
ATOM     74  C   UNL A   1      47.833  32.747  27.314  1.00  0.00     0.074 A 
ATOM     75  C   UNL A   1      48.819  31.721  27.036  1.00  0.00     0.031 C 
ATOM     76  C   UNL A   1      48.033  34.071  27.103  1.00  0.00     0.034 A 
BRANCH  63  77
ATOM     77  C   UNL A   1      43.125  37.614  28.381  1.00  0.00     0.023 A 
ATOM     78  C   UNL A   1      42.306  38.006  27.300  1.00  0.00     0.012 A 
ATOM     79  C   UNL A   1      43.307  38.498  29.462  1.00  0.00     0.148 A 
ATOM     80  C   UNL A   1      41.712  39.268  27.277  1.00  0.00     0.002 A 
ATOM     81  C   UNL A   1      42.672  39.735  29.454  1.00  0.00     0.091 A 
ATOM     82  F   UNL A   1      44.105  38.119  30.470  1.00  0.00    -0.205 F 
ATOM     83  C   UNL A   1      41.886  40.127  28.358  1.00  0.00     0.022 A 
BRANCH  81  84
ATOM     84  S   UNL A   1      42.765  40.882  30.835  1.00  0.00     0.127 S 
ATOM     85  O   UNL A   1      41.586  41.716  30.604  1.00  0.00    -0.237 OA
ATOM     86  O   UNL A   1      42.661  39.984  31.985  1.00  0.00    -0.237 OA
ATOM     87  O   UNL A   1      44.045  41.562  30.708  1.00  0.00    -0.744 OA
ENDBRANCH  81  84
ENDBRANCH  63  77
BRANCH  64  88
ATOM     88  C   UNL A   1      46.687  28.256  28.186  1.00  0.00     0.023 A 
ATOM     89  C   UNL A   1      47.528  27.780  29.212  1.00  0.00     0.012 A 
ATOM     90  C   UNL A   1      46.328  27.388  27.136  1.00  0.00     0.148 A 
ATOM     91  C   UNL A   1      48.027  26.477  29.175  1.00  0.00     0.002 A 
ATOM     92  C   UNL A   1      46.783  26.075  27.137  1.00  0.00     0.091 A 
ATOM     93  F   UNL A   1      45.535  27.862  26.165  1.00  0.00    -0.205 F 
ATOM     94  C   UNL A   1      47.648  25.623  28.144  1.00  0.00     0.022 A 
BRANCH  92  95
ATOM     95  S   UNL A   1      46.230  24.867  25.926  1.00  0.00     0.127 S 
ATOM     96  O   UNL A   1      47.055  23.710  26.261  1.00  0.00    -0.237 OA
ATOM     97  O   UNL A   1      44.812  24.732  26.261  1.00  0.00    -0.237 OA
ATOM     98  O   UNL A   1      46.482  25.470  24.626  1.00  0.00    -0.744 OA
ENDBRANCH  92  95
ENDBRANCH  64  88
BRANCH  76  99
ATOM     99  C   UNL A   1      49.379  34.492  26.576  1.00  0.00     0.023 A 
ATOM    100  C   UNL A   1      49.564  34.680  25.192  1.00  0.00     0.012 A 
ATOM    101  C   UNL A   1      50.444  34.755  27.460  1.00  0.00     0.148 A 
ATOM    102  C   UNL A   1      50.802  35.080  24.692  1.00  0.00     0.002 A 
ATOM    103  C   UNL A   1      51.658  35.206  26.958  1.00  0.00     0.091 A 
ATOM    104  F   UNL A   1      50.253  34.553  28.771  1.00  0.00    -0.205 F 
ATOM    105  C   UNL A   1      51.844  35.354  25.574  1.00  0.00     0.022 A 
BRANCH 103 106
ATOM    106  S   UNL A   1      53.021  35.678  28.028  1.00  0.00     0.127 S 
ATOM    107  O   UNL A   1      54.107  34.846  27.512  1.00  0.00    -0.237 OA
ATOM    108  O   UNL A   1      53.160  37.107  27.743  1.00  0.00    -0.237 OA
ATOM    109  O   UNL A   1      52.588  35.374  29.385  1.00  0.00    -0.744 OA
ENDBRANCH 103 106
ENDBRANCH  76  99
ENDBRANCH  50  51
ENDBRANCH  42  45
ENDBRANCH  40  41
ENDBRANCH  39  40
ENDBRANCH   1  39
TORSDOF 19
ENDMDL
