MODEL 1
REMARK VINA RESULT:     -11.3      0.000      0.000
REMARK SMILES Cc1nc(N2CCN(c3ccccc3)CC2)nc(OCC(=O)NCCCNC(=O)c2ccc(-c3c4nc(c(-c5cccc(S(=O)(=O)[O-])c5F)c5ccc([nH]5)c(-c5cccc(S(=O)(=O)[O-])c5F)c5nc(c(-c6cccc(S(=O)(=O)[O-])c6F)c6ccc3[nH]6)C=C5)C=C4)cc2)c1C
REMARK SMILES IDX 24 1 23 2 21 3 22 4 20 6 19 7 18 8 1 9 2 10 3 11 93 12 4 13
REMARK SMILES IDX 94 14 17 15 5 16 6 17 16 18 7 19 15 20 8 21 9 22 10 23 14 24
REMARK SMILES IDX 11 25 13 26 12 27 25 28 26 29 27 30 28 31 29 33 30 34 31 35
REMARK SMILES IDX 92 36 32 37 91 38 33 39 34 40 35 41 85 42 36 43 90 44 84 45
REMARK SMILES IDX 86 46 37 47 89 48 83 49 82 50 38 52 70 53 50 54 69 55 51 56
REMARK SMILES IDX 54 57 68 58 87 59 52 60 53 61 67 63 88 64 55 65 39 66 40 67
REMARK SMILES IDX 48 68 41 69 43 70 49 71 42 72 44 73 45 74 46 75 47 76 71 77
REMARK SMILES IDX 72 78 80 79 73 80 75 81 81 82 74 83 76 84 77 85 78 86 79 87
REMARK SMILES IDX 56 88 57 89 65 90 58 91 60 92 66 93 59 94 61 95 62 96 63 97
REMARK SMILES IDX 64 98
REMARK H PARENT 23 5 27 32 86 51 54 62
REMARK Flexibility Score: inf
ROOT
ATOM      1  C   UNL A   1      33.987  24.791  26.132  1.00  0.00     0.117 C 
ENDROOT
BRANCH   1   2
ATOM      2  N   UNL A   1      34.223  26.194  25.840  1.00  0.00    -0.353 N 
ATOM      3  C   UNL A   1      33.342  27.231  25.836  1.00  0.00     0.258 C 
ATOM      4  O   UNL A   1      33.783  28.370  25.666  1.00  0.00    -0.271 OA
ATOM      5  H   UNL A   1      35.152  26.427  25.613  1.00  0.00     0.163 HD
BRANCH   3   6
ATOM      6  C   UNL A   1      31.857  26.987  26.123  1.00  0.00     0.331 C 
BRANCH   6   7
ATOM      7  O   UNL A   1      31.005  26.492  25.127  1.00  0.00    -0.467 OA
BRANCH   7   8
ATOM      8  C   UNL A   1      31.396  25.865  23.993  1.00  0.00     0.221 A 
ATOM      9  C   UNL A   1      32.527  25.784  20.408  1.00  0.00     0.067 C 
ATOM     10  C   UNL A   1      32.156  25.433  21.822  1.00  0.00     0.050 A 
ATOM     11  N   UNL A   1      32.234  24.117  22.096  1.00  0.00    -0.218 NA
ATOM     12  C   UNL A   1      31.707  26.382  22.745  1.00  0.00     0.033 A 
ATOM     13  C   UNL A   1      31.829  23.693  23.292  1.00  0.00     0.229 A 
ATOM     14  C   UNL A   1      31.639  27.816  22.331  1.00  0.00     0.052 C 
ATOM     15  N   UNL A   1      31.408  24.538  24.236  1.00  0.00    -0.177 NA
BRANCH  13  16
ATOM     16  N   UNL A   1      31.836  22.340  23.572  1.00  0.00    -0.337 N 
ATOM     17  C   UNL A   1      32.304  21.945  24.909  1.00  0.00     0.141 C 
ATOM     18  C   UNL A   1      32.293  21.497  22.453  1.00  0.00     0.141 C 
ATOM     19  C   UNL A   1      32.071  20.440  25.159  1.00  0.00     0.138 C 
ATOM     20  C   UNL A   1      32.154  19.984  22.751  1.00  0.00     0.138 C 
ATOM     21  N   UNL A   1      32.713  19.671  24.080  1.00  0.00    -0.368 N 
BRANCH  21  22
ATOM     22  C   UNL A   1      33.013  18.331  24.304  1.00  0.00     0.037 A 
ATOM     23  C   UNL A   1      33.757  17.554  23.411  1.00  0.00     0.026 A 
ATOM     24  C   UNL A   1      32.560  17.718  25.483  1.00  0.00     0.026 A 
ATOM     25  C   UNL A   1      34.023  16.208  23.676  1.00  0.00     0.002 A 
ATOM     26  C   UNL A   1      32.820  16.371  25.751  1.00  0.00     0.002 A 
ATOM     27  C   UNL A   1      33.552  15.614  24.843  1.00  0.00     0.000 A 
ENDBRANCH  21  22
ENDBRANCH  13  16
ENDBRANCH   7   8
ENDBRANCH   6   7
ENDBRANCH   3   6
ENDBRANCH   1   2
BRANCH   1  28
ATOM     28  C   UNL A   1      35.128  23.887  25.681  1.00  0.00     0.042 C 
BRANCH  28  29
ATOM     29  C   UNL A   1      35.551  22.827  26.696  1.00  0.00     0.118 C 
BRANCH  29  30
ATOM     30  N   UNL A   1      36.365  21.762  26.123  1.00  0.00    -0.352 N 
ATOM     31  C   UNL A   1      37.700  21.722  25.799  1.00  0.00     0.251 C 
ATOM     32  H   UNL A   1      35.874  20.929  25.937  1.00  0.00     0.163 HD
ATOM     33  O   UNL A   1      38.138  20.745  25.196  1.00  0.00    -0.269 OA
BRANCH  31  34
ATOM     34  C   UNL A   1      38.606  22.842  26.141  1.00  0.00     0.039 A 
ATOM     35  C   UNL A   1      38.520  24.022  25.395  1.00  0.00     0.014 A 
ATOM     36  C   UNL A   1      39.553  22.734  27.161  1.00  0.00     0.014 A 
ATOM     37  C   UNL A   1      39.324  25.116  25.726  1.00  0.00     0.010 A 
ATOM     38  C   UNL A   1      40.303  23.848  27.537  1.00  0.00     0.010 A 
ATOM     39  C   UNL A   1      40.195  25.052  26.827  1.00  0.00    -0.014 A 
BRANCH  39  40
ATOM     40  C   UNL A   1      40.966  26.248  27.259  1.00  0.00     0.031 A 
ATOM     41  C   UNL A   1      40.326  27.313  28.109  1.00  0.00     0.074 A 
ATOM     42  C   UNL A   1      42.238  26.403  26.833  1.00  0.00     0.049 A 
ATOM     43  N   UNL A   1      40.855  28.408  28.589  1.00  0.00    -0.248 NA
ATOM     44  C   UNL A   1      38.904  27.139  28.449  1.00  0.00     0.031 C 
ATOM     45  C   UNL A   1      42.947  25.479  25.946  1.00  0.00     0.029 A 
ATOM     46  N   UNL A   1      43.157  27.392  27.083  1.00  0.00    -0.354 N 
ATOM     47  C   UNL A   1      39.833  29.063  29.264  1.00  0.00     0.074 A 
ATOM     48  C   UNL A   1      38.640  28.262  29.103  1.00  0.00     0.031 C 
ATOM     49  C   UNL A   1      44.198  25.924  25.755  1.00  0.00     0.029 A 
ATOM     50  C   UNL A   1      44.378  27.178  26.482  1.00  0.00     0.049 A 
ATOM     51  H   UNL A   1      42.963  28.181  27.639  1.00  0.00     0.167 HD
ATOM     52  C   UNL A   1      39.892  30.207  29.985  1.00  0.00     0.034 A 
ATOM     53  C   UNL A   1      45.516  27.898  26.527  1.00  0.00     0.034 A 
ATOM     54  C   UNL A   1      41.094  30.967  30.196  1.00  0.00     0.049 A 
ATOM     55  C   UNL A   1      45.556  29.153  27.359  1.00  0.00     0.074 A 
ATOM     56  C   UNL A   1      41.273  32.081  30.996  1.00  0.00     0.029 A 
ATOM     57  N   UNL A   1      42.319  30.693  29.610  1.00  0.00    -0.354 N 
ATOM     58  N   UNL A   1      44.626  29.659  28.130  1.00  0.00    -0.248 NA
ATOM     59  C   UNL A   1      46.811  29.920  27.352  1.00  0.00     0.031 C 
ATOM     60  C   UNL A   1      42.603  32.490  30.883  1.00  0.00     0.029 A 
ATOM     61  C   UNL A   1      43.257  31.624  30.020  1.00  0.00     0.049 A 
ATOM     62  H   UNL A   1      42.497  29.945  28.994  1.00  0.00     0.167 HD
ATOM     63  C   UNL A   1      45.192  30.780  28.727  1.00  0.00     0.074 A 
ATOM     64  C   UNL A   1      46.554  30.869  28.243  1.00  0.00     0.031 C 
ATOM     65  C   UNL A   1      44.627  31.666  29.583  1.00  0.00     0.034 A 
BRANCH  52  66
ATOM     66  C   UNL A   1      38.642  30.675  30.682  1.00  0.00     0.023 A 
ATOM     67  C   UNL A   1      38.528  30.494  32.074  1.00  0.00     0.012 A 
ATOM     68  C   UNL A   1      37.646  31.393  29.991  1.00  0.00     0.148 A 
ATOM     69  C   UNL A   1      37.433  31.007  32.769  1.00  0.00     0.002 A 
ATOM     70  C   UNL A   1      36.578  31.935  30.697  1.00  0.00     0.091 A 
ATOM     71  F   UNL A   1      37.769  31.542  28.665  1.00  0.00    -0.205 F 
ATOM     72  C   UNL A   1      36.467  31.737  32.083  1.00  0.00     0.022 A 
BRANCH  70  73
ATOM     73  S   UNL A   1      35.317  32.957  29.926  1.00  0.00     0.127 S 
ATOM     74  O   UNL A   1      36.120  34.041  29.363  1.00  0.00    -0.237 OA
ATOM     75  O   UNL A   1      34.744  32.044  28.937  1.00  0.00    -0.237 OA
ATOM     76  O   UNL A   1      34.407  33.350  30.994  1.00  0.00    -0.744 OA
ENDBRANCH  70  73
ENDBRANCH  52  66
BRANCH  53  77
ATOM     77  C   UNL A   1      46.748  27.386  25.858  1.00  0.00     0.023 A 
ATOM     78  C   UNL A   1      47.565  26.465  26.544  1.00  0.00     0.012 A 
ATOM     79  C   UNL A   1      47.094  27.753  24.545  1.00  0.00     0.148 A 
ATOM     80  C   UNL A   1      48.711  25.938  25.946  1.00  0.00     0.002 A 
ATOM     81  C   UNL A   1      48.202  27.173  23.932  1.00  0.00     0.091 A 
ATOM     82  F   UNL A   1      46.334  28.654  23.905  1.00  0.00    -0.205 F 
ATOM     83  C   UNL A   1      49.022  26.280  24.634  1.00  0.00     0.022 A 
BRANCH  81  84
ATOM     84  S   UNL A   1      48.544  27.470  22.197  1.00  0.00     0.127 S 
ATOM     85  O   UNL A   1      49.799  28.211  22.270  1.00  0.00    -0.237 OA
ATOM     86  O   UNL A   1      48.659  26.117  21.650  1.00  0.00    -0.237 OA
ATOM     87  O   UNL A   1      47.371  28.199  21.730  1.00  0.00    -0.744 OA
ENDBRANCH  81  84
ENDBRANCH  53  77
BRANCH  65  88
ATOM     88  C   UNL A   1      45.469  32.812  30.079  1.00  0.00     0.023 A 
ATOM     89  C   UNL A   1      46.258  32.638  31.232  1.00  0.00     0.012 A 
ATOM     90  C   UNL A   1      45.582  34.003  29.333  1.00  0.00     0.148 A 
ATOM     91  C   UNL A   1      47.141  33.636  31.642  1.00  0.00     0.002 A 
ATOM     92  C   UNL A   1      46.496  34.974  29.722  1.00  0.00     0.091 A 
ATOM     93  F   UNL A   1      44.809  34.152  28.248  1.00  0.00    -0.205 F 
ATOM     94  C   UNL A   1      47.271  34.795  30.881  1.00  0.00     0.022 A 
BRANCH  92  95
ATOM     95  S   UNL A   1      46.810  36.451  28.749  1.00  0.00     0.127 S 
ATOM     96  O   UNL A   1      48.147  36.830  29.207  1.00  0.00    -0.237 OA
ATOM     97  O   UNL A   1      46.758  35.938  27.380  1.00  0.00    -0.237 OA
ATOM     98  O   UNL A   1      45.747  37.388  29.086  1.00  0.00    -0.744 OA
ENDBRANCH  92  95
ENDBRANCH  65  88
ENDBRANCH  39  40
ENDBRANCH  31  34
ENDBRANCH  29  30
ENDBRANCH  28  29
ENDBRANCH   1  28
TORSDOF 17
ENDMDL
MODEL 2
REMARK VINA RESULT:     -11.3      3.154      9.110
REMARK SMILES Cc1nc(N2CCN(c3ccccc3)CC2)nc(OCC(=O)NCCCNC(=O)c2ccc(-c3c4nc(c(-c5cccc(S(=O)(=O)[O-])c5F)c5ccc([nH]5)c(-c5cccc(S(=O)(=O)[O-])c5F)c5nc(c(-c6cccc(S(=O)(=O)[O-])c6F)c6ccc3[nH]6)C=C5)C=C4)cc2)c1C
REMARK SMILES IDX 24 1 23 2 21 3 22 4 20 6 19 7 18 8 1 9 2 10 3 11 93 12 4 13
REMARK SMILES IDX 94 14 17 15 5 16 6 17 16 18 7 19 15 20 8 21 9 22 10 23 14 24
REMARK SMILES IDX 11 25 13 26 12 27 25 28 26 29 27 30 28 31 29 33 30 34 31 35
REMARK SMILES IDX 92 36 32 37 91 38 33 39 34 40 35 41 85 42 36 43 90 44 84 45
REMARK SMILES IDX 86 46 37 47 89 48 83 49 82 50 38 52 70 53 50 54 69 55 51 56
REMARK SMILES IDX 54 57 68 58 87 59 52 60 53 61 67 63 88 64 55 65 39 66 40 67
REMARK SMILES IDX 48 68 41 69 43 70 49 71 42 72 44 73 45 74 46 75 47 76 71 77
REMARK SMILES IDX 72 78 80 79 73 80 75 81 81 82 74 83 76 84 77 85 78 86 79 87
REMARK SMILES IDX 56 88 57 89 65 90 58 91 60 92 66 93 59 94 61 95 62 96 63 97
REMARK SMILES IDX 64 98
REMARK H PARENT 23 5 27 32 86 51 54 62
REMARK Flexibility Score: inf
ROOT
ATOM      1  C   UNL A   1      37.770  23.492  26.125  1.00  0.00     0.117 C 
ENDROOT
BRANCH   1   2
ATOM      2  N   UNL A   1      37.546  23.073  24.753  1.00  0.00    -0.353 N 
ATOM      3  C   UNL A   1      36.504  23.362  23.926  1.00  0.00     0.258 C 
ATOM      4  O   UNL A   1      36.571  22.988  22.752  1.00  0.00    -0.271 OA
ATOM      5  H   UNL A   1      38.246  22.498  24.367  1.00  0.00     0.163 HD
BRANCH   3   6
ATOM      6  C   UNL A   1      35.327  24.204  24.426  1.00  0.00     0.331 C 
BRANCH   6   7
ATOM      7  O   UNL A   1      34.083  24.153  23.784  1.00  0.00    -0.467 OA
BRANCH   7   8
ATOM      8  C   UNL A   1      32.878  24.107  24.399  1.00  0.00     0.221 A 
ATOM      9  C   UNL A   1      30.237  22.462  26.511  1.00  0.00     0.067 C 
ATOM     10  C   UNL A   1      31.052  23.428  25.695  1.00  0.00     0.050 A 
ATOM     11  N   UNL A   1      30.455  24.619  25.505  1.00  0.00    -0.218 NA
ATOM     12  C   UNL A   1      32.286  23.090  25.132  1.00  0.00     0.033 A 
ATOM     13  C   UNL A   1      31.052  25.507  24.711  1.00  0.00     0.229 A 
ATOM     14  C   UNL A   1      32.850  21.731  25.390  1.00  0.00     0.052 C 
ATOM     15  N   UNL A   1      32.242  25.270  24.153  1.00  0.00    -0.177 NA
BRANCH  13  16
ATOM     16  N   UNL A   1      30.427  26.711  24.446  1.00  0.00    -0.337 N 
ATOM     17  C   UNL A   1      29.262  26.666  23.549  1.00  0.00     0.141 C 
ATOM     18  C   UNL A   1      31.353  27.839  24.246  1.00  0.00     0.141 C 
ATOM     19  C   UNL A   1      28.543  28.030  23.502  1.00  0.00     0.138 C 
ATOM     20  C   UNL A   1      30.619  29.194  24.095  1.00  0.00     0.138 C 
ATOM     21  N   UNL A   1      29.514  29.071  23.125  1.00  0.00    -0.368 N 
BRANCH  21  22
ATOM     22  C   UNL A   1      29.037  30.270  22.603  1.00  0.00     0.037 A 
ATOM     23  C   UNL A   1      28.521  30.389  21.309  1.00  0.00     0.026 A 
ATOM     24  C   UNL A   1      29.062  31.421  23.405  1.00  0.00     0.026 A 
ATOM     25  C   UNL A   1      28.064  31.618  20.826  1.00  0.00     0.002 A 
ATOM     26  C   UNL A   1      28.609  32.654  22.926  1.00  0.00     0.002 A 
ATOM     27  C   UNL A   1      28.111  32.751  21.632  1.00  0.00     0.000 A 
ENDBRANCH  21  22
ENDBRANCH  13  16
ENDBRANCH   7   8
ENDBRANCH   6   7
ENDBRANCH   3   6
ENDBRANCH   1   2
BRANCH   1  28
ATOM     28  C   UNL A   1      39.232  23.799  26.424  1.00  0.00     0.042 C 
BRANCH  28  29
ATOM     29  C   UNL A   1      40.066  22.598  26.864  1.00  0.00     0.118 C 
BRANCH  29  30
ATOM     30  N   UNL A   1      41.154  22.275  25.947  1.00  0.00    -0.352 N 
ATOM     31  C   UNL A   1      42.250  23.006  25.557  1.00  0.00     0.251 C 
ATOM     32  H   UNL A   1      41.092  21.382  25.540  1.00  0.00     0.163 HD
ATOM     33  O   UNL A   1      42.968  22.571  24.659  1.00  0.00    -0.269 OA
BRANCH  31  34
ATOM     34  C   UNL A   1      42.562  24.313  26.179  1.00  0.00     0.039 A 
ATOM     35  C   UNL A   1      42.442  25.469  25.401  1.00  0.00     0.014 A 
ATOM     36  C   UNL A   1      42.997  24.410  27.502  1.00  0.00     0.014 A 
ATOM     37  C   UNL A   1      42.678  26.722  25.973  1.00  0.00     0.010 A 
ATOM     38  C   UNL A   1      43.162  25.663  28.092  1.00  0.00     0.010 A 
ATOM     39  C   UNL A   1      43.001  26.833  27.336  1.00  0.00    -0.014 A 
BRANCH  39  40
ATOM     40  C   UNL A   1      43.137  28.166  27.981  1.00  0.00     0.031 A 
ATOM     41  C   UNL A   1      44.469  28.864  28.036  1.00  0.00     0.074 A 
ATOM     42  C   UNL A   1      42.061  28.725  28.575  1.00  0.00     0.049 A 
ATOM     43  N   UNL A   1      44.763  30.034  28.542  1.00  0.00    -0.248 NA
ATOM     44  C   UNL A   1      45.627  28.153  27.468  1.00  0.00     0.031 C 
ATOM     45  C   UNL A   1      40.733  28.115  28.655  1.00  0.00     0.029 A 
ATOM     46  N   UNL A   1      41.913  29.925  29.225  1.00  0.00    -0.354 N 
ATOM     47  C   UNL A   1      46.133  30.190  28.377  1.00  0.00     0.074 A 
ATOM     48  C   UNL A   1      46.624  28.979  27.756  1.00  0.00     0.031 C 
ATOM     49  C   UNL A   1      39.898  28.957  29.283  1.00  0.00     0.029 A 
ATOM     50  C   UNL A   1      40.632  30.157  29.675  1.00  0.00     0.049 A 
ATOM     51  H   UNL A   1      42.653  30.561  29.358  1.00  0.00     0.167 HD
ATOM     52  C   UNL A   1      46.906  31.258  28.680  1.00  0.00     0.034 A 
ATOM     53  C   UNL A   1      40.105  31.221  30.313  1.00  0.00     0.034 A 
ATOM     54  C   UNL A   1      46.405  32.485  29.238  1.00  0.00     0.049 A 
ATOM     55  C   UNL A   1      40.987  32.405  30.613  1.00  0.00     0.074 A 
ATOM     56  C   UNL A   1      47.094  33.659  29.482  1.00  0.00     0.029 A 
ATOM     57  N   UNL A   1      45.095  32.697  29.637  1.00  0.00    -0.354 N 
ATOM     58  N   UNL A   1      42.242  32.599  30.290  1.00  0.00    -0.248 NA
ATOM     59  C   UNL A   1      40.374  33.529  31.337  1.00  0.00     0.031 C 
ATOM     60  C   UNL A   1      46.205  34.578  30.042  1.00  0.00     0.029 A 
ATOM     61  C   UNL A   1      44.958  33.980  30.137  1.00  0.00     0.049 A 
ATOM     62  H   UNL A   1      44.369  32.035  29.573  1.00  0.00     0.167 HD
ATOM     63  C   UNL A   1      42.558  33.877  30.738  1.00  0.00     0.074 A 
ATOM     64  C   UNL A   1      41.357  34.420  31.338  1.00  0.00     0.031 C 
ATOM     65  C   UNL A   1      43.742  34.533  30.673  1.00  0.00     0.034 A 
BRANCH  52  66
ATOM     66  C   UNL A   1      48.370  31.199  28.335  1.00  0.00     0.023 A 
ATOM     67  C   UNL A   1      48.813  31.783  27.132  1.00  0.00     0.012 A 
ATOM     68  C   UNL A   1      49.314  30.680  29.243  1.00  0.00     0.148 A 
ATOM     69  C   UNL A   1      50.173  31.840  26.829  1.00  0.00     0.002 A 
ATOM     70  C   UNL A   1      50.670  30.775  28.952  1.00  0.00     0.091 A 
ATOM     71  F   UNL A   1      48.870  30.117  30.375  1.00  0.00    -0.205 F 
ATOM     72  C   UNL A   1      51.100  31.349  27.744  1.00  0.00     0.022 A 
BRANCH  70  73
ATOM     73  S   UNL A   1      51.953  30.244  30.092  1.00  0.00     0.127 S 
ATOM     74  O   UNL A   1      51.657  31.059  31.269  1.00  0.00    -0.237 OA
ATOM     75  O   UNL A   1      51.656  28.819  30.246  1.00  0.00    -0.237 OA
ATOM     76  O   UNL A   1      53.221  30.536  29.438  1.00  0.00    -0.744 OA
ENDBRANCH  70  73
ENDBRANCH  52  66
BRANCH  53  77
ATOM     77  C   UNL A   1      38.642  31.264  30.605  1.00  0.00     0.023 A 
ATOM     78  C   UNL A   1      38.170  30.701  31.807  1.00  0.00     0.012 A 
ATOM     79  C   UNL A   1      37.726  31.893  29.744  1.00  0.00     0.148 A 
ATOM     80  C   UNL A   1      36.814  30.744  32.135  1.00  0.00     0.002 A 
ATOM     81  C   UNL A   1      36.385  31.989  30.110  1.00  0.00     0.091 A 
ATOM     82  F   UNL A   1      38.171  32.400  28.585  1.00  0.00    -0.205 F 
ATOM     83  C   UNL A   1      35.922  31.402  31.294  1.00  0.00     0.022 A 
BRANCH  81  84
ATOM     84  S   UNL A   1      35.240  32.961  29.129  1.00  0.00     0.127 S 
ATOM     85  O   UNL A   1      35.905  34.261  29.108  1.00  0.00    -0.237 OA
ATOM     86  O   UNL A   1      35.230  32.256  27.846  1.00  0.00    -0.237 OA
ATOM     87  O   UNL A   1      33.985  32.871  29.864  1.00  0.00    -0.744 OA
ENDBRANCH  81  84
ENDBRANCH  53  77
BRANCH  65  88
ATOM     88  C   UNL A   1      43.818  35.923  31.250  1.00  0.00     0.023 A 
ATOM     89  C   UNL A   1      44.147  36.086  32.609  1.00  0.00     0.012 A 
ATOM     90  C   UNL A   1      43.703  37.057  30.421  1.00  0.00     0.148 A 
ATOM     91  C   UNL A   1      44.347  37.360  33.139  1.00  0.00     0.002 A 
ATOM     92  C   UNL A   1      43.948  38.320  30.946  1.00  0.00     0.091 A 
ATOM     93  F   UNL A   1      43.375  36.877  29.134  1.00  0.00    -0.205 F 
ATOM     94  C   UNL A   1      44.263  38.473  32.306  1.00  0.00     0.022 A 
BRANCH  92  95
ATOM     95  S   UNL A   1      43.968  39.802  29.930  1.00  0.00     0.127 S 
ATOM     96  O   UNL A   1      44.636  40.758  30.812  1.00  0.00    -0.237 OA
ATOM     97  O   UNL A   1      44.762  39.378  28.777  1.00  0.00    -0.237 OA
ATOM     98  O   UNL A   1      42.574  40.100  29.628  1.00  0.00    -0.744 OA
ENDBRANCH  92  95
ENDBRANCH  65  88
ENDBRANCH  39  40
ENDBRANCH  31  34
ENDBRANCH  29  30
ENDBRANCH  28  29
ENDBRANCH   1  28
TORSDOF 17
ENDMDL
MODEL 3
REMARK VINA RESULT:     -11.2      5.123     10.068
REMARK SMILES Cc1nc(N2CCN(c3ccccc3)CC2)nc(OCC(=O)NCCCNC(=O)c2ccc(-c3c4nc(c(-c5cccc(S(=O)(=O)[O-])c5F)c5ccc([nH]5)c(-c5cccc(S(=O)(=O)[O-])c5F)c5nc(c(-c6cccc(S(=O)(=O)[O-])c6F)c6ccc3[nH]6)C=C5)C=C4)cc2)c1C
REMARK SMILES IDX 24 1 23 2 21 3 22 4 20 6 19 7 18 8 1 9 2 10 3 11 93 12 4 13
REMARK SMILES IDX 94 14 17 15 5 16 6 17 16 18 7 19 15 20 8 21 9 22 10 23 14 24
REMARK SMILES IDX 11 25 13 26 12 27 25 28 26 29 27 30 28 31 29 33 30 34 31 35
REMARK SMILES IDX 92 36 32 37 91 38 33 39 34 40 35 41 85 42 36 43 90 44 84 45
REMARK SMILES IDX 86 46 37 47 89 48 83 49 82 50 38 52 70 53 50 54 69 55 51 56
REMARK SMILES IDX 54 57 68 58 87 59 52 60 53 61 67 63 88 64 55 65 39 66 40 67
REMARK SMILES IDX 48 68 41 69 43 70 49 71 42 72 44 73 45 74 46 75 47 76 71 77
REMARK SMILES IDX 72 78 80 79 73 80 75 81 81 82 74 83 76 84 77 85 78 86 79 87
REMARK SMILES IDX 56 88 57 89 65 90 58 91 60 92 66 93 59 94 61 95 62 96 63 97
REMARK SMILES IDX 64 98
REMARK H PARENT 23 5 27 32 86 51 54 62
REMARK Flexibility Score: inf
ROOT
ATOM      1  C   UNL A   1      33.103  36.424  31.819  1.00  0.00     0.117 C 
ENDROOT
BRANCH   1   2
ATOM      2  N   UNL A   1      33.117  37.162  30.568  1.00  0.00    -0.353 N 
ATOM      3  C   UNL A   1      33.305  36.702  29.301  1.00  0.00     0.258 C 
ATOM      4  O   UNL A   1      33.165  37.495  28.367  1.00  0.00    -0.271 OA
ATOM      5  H   UNL A   1      32.970  38.132  30.649  1.00  0.00     0.163 HD
BRANCH   3   6
ATOM      6  C   UNL A   1      33.594  35.219  29.051  1.00  0.00     0.331 C 
BRANCH   6   7
ATOM      7  O   UNL A   1      34.816  34.809  28.500  1.00  0.00    -0.467 OA
BRANCH   7   8
ATOM      8  C   UNL A   1      35.320  33.554  28.545  1.00  0.00     0.221 A 
ATOM      9  C   UNL A   1      37.771  30.949  29.706  1.00  0.00     0.067 C 
ATOM     10  C   UNL A   1      36.611  31.678  29.087  1.00  0.00     0.050 A 
ATOM     11  N   UNL A   1      35.795  30.889  28.363  1.00  0.00    -0.218 NA
ATOM     12  C   UNL A   1      36.439  33.061  29.198  1.00  0.00     0.033 A 
ATOM     13  C   UNL A   1      34.794  31.459  27.692  1.00  0.00     0.229 A 
ATOM     14  C   UNL A   1      37.417  33.847  30.010  1.00  0.00     0.052 C 
ATOM     15  N   UNL A   1      34.549  32.769  27.764  1.00  0.00    -0.177 NA
BRANCH  13  16
ATOM     16  N   UNL A   1      33.984  30.678  26.890  1.00  0.00    -0.337 N 
ATOM     17  C   UNL A   1      32.537  30.923  26.978  1.00  0.00     0.141 C 
ATOM     18  C   UNL A   1      34.396  29.266  26.812  1.00  0.00     0.141 C 
ATOM     19  C   UNL A   1      31.771  30.135  25.893  1.00  0.00     0.138 C 
ATOM     20  C   UNL A   1      33.555  28.454  25.796  1.00  0.00     0.138 C 
ATOM     21  N   UNL A   1      32.116  28.708  26.005  1.00  0.00    -0.368 N 
BRANCH  21  22
ATOM     22  C   UNL A   1      31.254  27.768  25.449  1.00  0.00     0.037 A 
ATOM     23  C   UNL A   1      30.771  26.662  26.155  1.00  0.00     0.026 A 
ATOM     24  C   UNL A   1      30.834  27.930  24.120  1.00  0.00     0.026 A 
ATOM     25  C   UNL A   1      29.915  25.739  25.549  1.00  0.00     0.002 A 
ATOM     26  C   UNL A   1      29.980  27.007  23.508  1.00  0.00     0.002 A 
ATOM     27  C   UNL A   1      29.522  25.908  24.225  1.00  0.00     0.000 A 
ENDBRANCH  21  22
ENDBRANCH  13  16
ENDBRANCH   7   8
ENDBRANCH   6   7
ENDBRANCH   3   6
ENDBRANCH   1   2
BRANCH   1  28
ATOM     28  C   UNL A   1      34.412  36.533  32.591  1.00  0.00     0.042 C 
BRANCH  28  29
ATOM     29  C   UNL A   1      35.054  35.198  32.965  1.00  0.00     0.118 C 
BRANCH  29  30
ATOM     30  N   UNL A   1      34.927  34.865  34.379  1.00  0.00    -0.352 N 
ATOM     31  C   UNL A   1      35.691  34.059  35.187  1.00  0.00     0.251 C 
ATOM     32  H   UNL A   1      34.163  35.291  34.831  1.00  0.00     0.163 HD
ATOM     33  O   UNL A   1      35.306  33.822  36.330  1.00  0.00    -0.269 OA
BRANCH  31  34
ATOM     34  C   UNL A   1      36.950  33.454  34.696  1.00  0.00     0.039 A 
ATOM     35  C   UNL A   1      36.873  32.404  33.776  1.00  0.00     0.014 A 
ATOM     36  C   UNL A   1      38.198  33.886  35.151  1.00  0.00     0.014 A 
ATOM     37  C   UNL A   1      38.044  31.846  33.253  1.00  0.00     0.010 A 
ATOM     38  C   UNL A   1      39.364  33.380  34.576  1.00  0.00     0.010 A 
ATOM     39  C   UNL A   1      39.300  32.358  33.619  1.00  0.00    -0.014 A 
BRANCH  39  40
ATOM     40  C   UNL A   1      40.544  31.853  32.980  1.00  0.00     0.031 A 
ATOM     41  C   UNL A   1      41.198  30.585  33.460  1.00  0.00     0.074 A 
ATOM     42  C   UNL A   1      41.121  32.575  31.996  1.00  0.00     0.049 A 
ATOM     43  N   UNL A   1      42.273  29.993  33.007  1.00  0.00    -0.248 NA
ATOM     44  C   UNL A   1      40.581  29.902  34.609  1.00  0.00     0.031 C 
ATOM     45  C   UNL A   1      40.626  33.857  31.492  1.00  0.00     0.029 A 
ATOM     46  N   UNL A   1      42.248  32.340  31.248  1.00  0.00    -0.354 N 
ATOM     47  C   UNL A   1      42.475  28.888  33.823  1.00  0.00     0.074 A 
ATOM     48  C   UNL A   1      41.432  28.907  34.826  1.00  0.00     0.031 C 
ATOM     49  C   UNL A   1      41.422  34.277  30.497  1.00  0.00     0.029 A 
ATOM     50  C   UNL A   1      42.499  33.311  30.304  1.00  0.00     0.049 A 
ATOM     51  H   UNL A   1      42.823  31.550  31.373  1.00  0.00     0.167 HD
ATOM     52  C   UNL A   1      43.418  27.923  33.724  1.00  0.00     0.034 A 
ATOM     53  C   UNL A   1      43.475  33.403  29.379  1.00  0.00     0.034 A 
ATOM     54  C   UNL A   1      44.413  27.871  32.687  1.00  0.00     0.049 A 
ATOM     55  C   UNL A   1      44.495  32.300  29.277  1.00  0.00     0.074 A 
ATOM     56  C   UNL A   1      45.346  26.878  32.445  1.00  0.00     0.029 A 
ATOM     57  N   UNL A   1      44.607  28.848  31.725  1.00  0.00    -0.354 N 
ATOM     58  N   UNL A   1      44.562  31.176  29.949  1.00  0.00    -0.248 NA
ATOM     59  C   UNL A   1      45.557  32.461  28.272  1.00  0.00     0.031 C 
ATOM     60  C   UNL A   1      46.112  27.260  31.342  1.00  0.00     0.029 A 
ATOM     61  C   UNL A   1      45.651  28.487  30.891  1.00  0.00     0.049 A 
ATOM     62  H   UNL A   1      44.079  29.675  31.643  1.00  0.00     0.167 HD
ATOM     63  C   UNL A   1      45.646  30.482  29.424  1.00  0.00     0.074 A 
ATOM     64  C   UNL A   1      46.197  31.303  28.365  1.00  0.00     0.031 C 
ATOM     65  C   UNL A   1      46.151  29.281  29.799  1.00  0.00     0.034 A 
BRANCH  52  66
ATOM     66  C   UNL A   1      43.378  26.783  34.706  1.00  0.00     0.023 A 
ATOM     67  C   UNL A   1      42.797  25.561  34.312  1.00  0.00     0.012 A 
ATOM     68  C   UNL A   1      44.012  26.877  35.961  1.00  0.00     0.148 A 
ATOM     69  C   UNL A   1      42.835  24.452  35.156  1.00  0.00     0.002 A 
ATOM     70  C   UNL A   1      44.079  25.756  36.780  1.00  0.00     0.091 A 
ATOM     71  F   UNL A   1      44.546  28.052  36.321  1.00  0.00    -0.205 F 
ATOM     72  C   UNL A   1      43.487  24.546  36.382  1.00  0.00     0.022 A 
BRANCH  70  73
ATOM     73  S   UNL A   1      44.960  25.744  38.347  1.00  0.00     0.127 S 
ATOM     74  O   UNL A   1      44.129  26.632  39.159  1.00  0.00    -0.237 OA
ATOM     75  O   UNL A   1      44.893  24.332  38.725  1.00  0.00    -0.237 OA
ATOM     76  O   UNL A   1      46.300  26.238  38.061  1.00  0.00    -0.744 OA
ENDBRANCH  70  73
ENDBRANCH  52  66
BRANCH  53  77
ATOM     77  C   UNL A   1      43.463  34.525  28.395  1.00  0.00     0.023 A 
ATOM     78  C   UNL A   1      42.967  34.289  27.097  1.00  0.00     0.012 A 
ATOM     79  C   UNL A   1      43.885  35.823  28.735  1.00  0.00     0.148 A 
ATOM     80  C   UNL A   1      42.911  35.316  26.153  1.00  0.00     0.002 A 
ATOM     81  C   UNL A   1      43.764  36.856  27.808  1.00  0.00     0.091 A 
ATOM     82  F   UNL A   1      44.386  36.039  29.960  1.00  0.00    -0.205 F 
ATOM     83  C   UNL A   1      43.295  36.604  26.512  1.00  0.00     0.022 A 
BRANCH  81  84
ATOM     84  S   UNL A   1      44.102  38.552  28.285  1.00  0.00     0.127 S 
ATOM     85  O   UNL A   1      45.559  38.546  28.367  1.00  0.00    -0.237 OA
ATOM     86  O   UNL A   1      43.553  39.321  27.167  1.00  0.00    -0.237 OA
ATOM     87  O   UNL A   1      43.368  38.717  29.533  1.00  0.00    -0.744 OA
ENDBRANCH  81  84
ENDBRANCH  53  77
BRANCH  65  88
ATOM     88  C   UNL A   1      47.354  28.753  29.064  1.00  0.00     0.023 A 
ATOM     89  C   UNL A   1      48.641  29.027  29.564  1.00  0.00     0.012 A 
ATOM     90  C   UNL A   1      47.206  27.879  27.968  1.00  0.00     0.148 A 
ATOM     91  C   UNL A   1      49.766  28.449  28.977  1.00  0.00     0.002 A 
ATOM     92  C   UNL A   1      48.327  27.271  27.418  1.00  0.00     0.091 A 
ATOM     93  F   UNL A   1      45.972  27.645  27.500  1.00  0.00    -0.205 F 
ATOM     94  C   UNL A   1      49.608  27.560  27.916  1.00  0.00     0.022 A 
BRANCH  92  95
ATOM     95  S   UNL A   1      48.216  26.033  26.119  1.00  0.00     0.127 S 
ATOM     96  O   UNL A   1      49.607  25.595  26.006  1.00  0.00    -0.237 OA
ATOM     97  O   UNL A   1      47.312  25.046  26.707  1.00  0.00    -0.237 OA
ATOM     98  O   UNL A   1      47.684  26.723  24.952  1.00  0.00    -0.744 OA
ENDBRANCH  92  95
ENDBRANCH  65  88
ENDBRANCH  39  40
ENDBRANCH  31  34
ENDBRANCH  29  30
ENDBRANCH  28  29
ENDBRANCH   1  28
TORSDOF 17
ENDMDL
