MODEL 1
REMARK VINA RESULT:     -12.5      0.000      0.000
REMARK SMILES O=C(NCCCNC(=O)[C@@H]1CCN(C(=O)c2c(F)cc(Br)cc2F)C1)c1ccc(-c2c3nc(c(-c4cccc(S(=O)(=O)[O-])c4F)c4ccc([nH]4)c(-c4cccc(S(=O)(=O)[O-])c4F)c4nc(c(-c5cccc(S(=O)(=O)[O-])c5F)c5ccc2[nH]5)C=C4)C=C3)cc1
REMARK SMILES IDX 4 1 3 2 1 3 2 4 26 6 27 7 88 8 28 9 87 10 29 11 30 12 31 13
REMARK SMILES IDX 81 14 32 15 86 16 80 17 82 18 33 19 85 20 79 21 78 22 34 24
REMARK SMILES IDX 66 25 46 26 65 27 47 28 50 29 64 30 83 31 48 32 49 33 63 35
REMARK SMILES IDX 84 36 51 37 35 38 36 39 44 40 37 41 39 42 45 43 38 44 40 45
REMARK SMILES IDX 41 46 42 47 43 48 67 49 68 50 76 51 69 52 71 53 77 54 70 55
REMARK SMILES IDX 72 56 73 57 74 58 75 59 52 60 53 61 61 62 54 63 56 64 62 65
REMARK SMILES IDX 55 66 57 67 58 68 59 69 60 70 5 71 6 72 7 73 8 74 9 76 10 77
REMARK SMILES IDX 11 78 25 79 12 80 13 81 14 82 15 83 16 84 17 85 23 86 18 87
REMARK SMILES IDX 19 88 22 89 24 90 20 91 21 92
REMARK H PARENT 3 5 82 23 50 34 7 75
REMARK Flexibility Score: inf
ROOT
ATOM      1  C   UNL A   1      32.545  30.032  25.854  1.00  0.00     0.118 C 
ENDROOT
BRANCH   1   2
ATOM      2  N   UNL A   1      32.316  31.387  26.340  1.00  0.00    -0.352 N 
ATOM      3  O   UNL A   1      32.526  33.219  27.615  1.00  0.00    -0.269 OA
ATOM      4  C   UNL A   1      33.008  32.148  27.252  1.00  0.00     0.251 C 
ATOM      5  H   UNL A   1      31.531  31.833  25.948  1.00  0.00     0.163 HD
BRANCH   4   6
ATOM      6  C   UNL A   1      34.296  31.686  27.819  1.00  0.00     0.039 A 
ATOM      7  C   UNL A   1      34.510  30.346  28.145  1.00  0.00     0.014 A 
ATOM      8  C   UNL A   1      35.328  32.614  28.000  1.00  0.00     0.014 A 
ATOM      9  C   UNL A   1      35.676  29.970  28.810  1.00  0.00     0.010 A 
ATOM     10  C   UNL A   1      36.534  32.216  28.588  1.00  0.00     0.010 A 
ATOM     11  C   UNL A   1      36.699  30.901  29.049  1.00  0.00    -0.014 A 
BRANCH  11  12
ATOM     12  C   UNL A   1      37.930  30.469  29.766  1.00  0.00     0.031 A 
ATOM     13  C   UNL A   1      38.189  30.886  31.191  1.00  0.00     0.074 A 
ATOM     14  C   UNL A   1      38.811  29.667  29.134  1.00  0.00     0.049 A 
ATOM     15  N   UNL A   1      39.162  30.525  31.988  1.00  0.00    -0.248 NA
ATOM     16  C   UNL A   1      37.244  31.837  31.798  1.00  0.00     0.031 C 
ATOM     17  C   UNL A   1      38.707  29.236  27.739  1.00  0.00     0.029 A 
ATOM     18  N   UNL A   1      39.960  29.065  29.581  1.00  0.00    -0.354 N 
ATOM     19  C   UNL A   1      38.972  31.232  33.171  1.00  0.00     0.074 A 
ATOM     20  C   UNL A   1      37.797  32.053  32.984  1.00  0.00     0.031 C 
ATOM     21  C   UNL A   1      39.724  28.409  27.456  1.00  0.00     0.029 A 
ATOM     22  C   UNL A   1      40.574  28.279  28.634  1.00  0.00     0.049 A 
ATOM     23  H   UNL A   1      40.311  29.184  30.494  1.00  0.00     0.167 HD
ATOM     24  C   UNL A   1      39.697  31.187  34.315  1.00  0.00     0.034 A 
ATOM     25  C   UNL A   1      41.693  27.530  28.705  1.00  0.00     0.034 A 
ATOM     26  C   UNL A   1      40.835  30.331  34.520  1.00  0.00     0.049 A 
ATOM     27  C   UNL A   1      42.442  27.455  30.006  1.00  0.00     0.074 A 
ATOM     28  C   UNL A   1      41.586  30.158  35.671  1.00  0.00     0.029 A 
ATOM     29  N   UNL A   1      41.391  29.506  33.556  1.00  0.00    -0.354 N 
ATOM     30  N   UNL A   1      42.156  28.014  31.156  1.00  0.00    -0.248 NA
ATOM     31  C   UNL A   1      43.648  26.615  30.029  1.00  0.00     0.031 C 
ATOM     32  C   UNL A   1      42.603  29.237  35.398  1.00  0.00     0.029 A 
ATOM     33  C   UNL A   1      42.476  28.824  34.081  1.00  0.00     0.049 A 
ATOM     34  H   UNL A   1      41.062  29.416  32.632  1.00  0.00     0.167 HD
ATOM     35  C   UNL A   1      43.127  27.570  32.046  1.00  0.00     0.074 A 
ATOM     36  C   UNL A   1      43.994  26.676  31.307  1.00  0.00     0.031 C 
ATOM     37  C   UNL A   1      43.294  27.889  33.354  1.00  0.00     0.034 A 
BRANCH  24  38
ATOM     38  C   UNL A   1      39.253  32.056  35.464  1.00  0.00     0.023 A 
ATOM     39  C   UNL A   1      38.398  31.523  36.448  1.00  0.00     0.012 A 
ATOM     40  C   UNL A   1      39.737  33.372  35.609  1.00  0.00     0.148 A 
ATOM     41  C   UNL A   1      38.007  32.292  37.544  1.00  0.00     0.002 A 
ATOM     42  C   UNL A   1      39.373  34.120  36.723  1.00  0.00     0.091 A 
ATOM     43  F   UNL A   1      40.531  33.872  34.651  1.00  0.00    -0.205 F 
ATOM     44  C   UNL A   1      38.503  33.586  37.686  1.00  0.00     0.022 A 
BRANCH  42  45
ATOM     45  S   UNL A   1      40.023  35.767  37.031  1.00  0.00     0.127 S 
ATOM     46  O   UNL A   1      39.352  36.120  38.281  1.00  0.00    -0.237 OA
ATOM     47  O   UNL A   1      41.459  35.517  37.161  1.00  0.00    -0.237 OA
ATOM     48  O   UNL A   1      39.653  36.564  35.870  1.00  0.00    -0.744 OA
ENDBRANCH  42  45
ENDBRANCH  24  38
BRANCH  25  49
ATOM     49  C   UNL A   1      42.119  26.727  27.525  1.00  0.00     0.023 A 
ATOM     50  C   UNL A   1      42.874  27.341  26.507  1.00  0.00     0.012 A 
ATOM     51  C   UNL A   1      41.819  25.355  27.426  1.00  0.00     0.148 A 
ATOM     52  C   UNL A   1      43.305  26.608  25.401  1.00  0.00     0.002 A 
ATOM     53  C   UNL A   1      42.300  24.617  26.350  1.00  0.00     0.091 A 
ATOM     54  F   UNL A   1      41.082  24.792  28.395  1.00  0.00    -0.205 F 
ATOM     55  C   UNL A   1      43.029  25.245  25.329  1.00  0.00     0.022 A 
BRANCH  53  56
ATOM     56  S   UNL A   1      42.110  22.834  26.255  1.00  0.00     0.127 S 
ATOM     57  O   UNL A   1      42.788  22.396  27.471  1.00  0.00    -0.237 OA
ATOM     58  O   UNL A   1      40.654  22.681  26.271  1.00  0.00    -0.237 OA
ATOM     59  O   UNL A   1      42.736  22.444  24.999  1.00  0.00    -0.744 OA
ENDBRANCH  53  56
ENDBRANCH  25  49
BRANCH  37  60
ATOM     60  C   UNL A   1      44.440  27.242  34.086  1.00  0.00     0.023 A 
ATOM     61  C   UNL A   1      45.726  27.812  34.013  1.00  0.00     0.012 A 
ATOM     62  C   UNL A   1      44.230  26.107  34.894  1.00  0.00     0.148 A 
ATOM     63  C   UNL A   1      46.794  27.242  34.709  1.00  0.00     0.002 A 
ATOM     64  C   UNL A   1      45.289  25.573  35.619  1.00  0.00     0.091 A 
ATOM     65  F   UNL A   1      43.004  25.565  34.932  1.00  0.00    -0.205 F 
ATOM     66  C   UNL A   1      46.573  26.132  35.519  1.00  0.00     0.022 A 
BRANCH  64  67
ATOM     67  S   UNL A   1      45.063  24.200  36.756  1.00  0.00     0.127 S 
ATOM     68  O   UNL A   1      44.583  23.147  35.864  1.00  0.00    -0.237 OA
ATOM     69  O   UNL A   1      46.417  23.991  37.273  1.00  0.00    -0.237 OA
ATOM     70  O   UNL A   1      44.109  24.669  37.753  1.00  0.00    -0.744 OA
ENDBRANCH  64  67
ENDBRANCH  37  60
ENDBRANCH  11  12
ENDBRANCH   4   6
ENDBRANCH   1   2
BRANCH   1  71
ATOM     71  C   UNL A   1      31.404  29.070  26.187  1.00  0.00     0.042 C 
BRANCH  71  72
ATOM     72  C   UNL A   1      31.748  28.019  27.239  1.00  0.00     0.117 C 
BRANCH  72  73
ATOM     73  N   UNL A   1      31.268  26.696  26.875  1.00  0.00    -0.356 N 
ATOM     74  C   UNL A   1      31.885  25.687  26.202  1.00  0.00     0.224 C 
ATOM     75  H   UNL A   1      30.349  26.499  27.163  1.00  0.00     0.163 HD
ATOM     76  O   UNL A   1      31.227  24.676  25.953  1.00  0.00    -0.275 OA
BRANCH  74  77
ATOM     77  C   UNL A   1      33.342  25.820  25.794  1.00  0.00     0.099 C 
ATOM     78  C   UNL A   1      33.470  26.537  24.446  1.00  0.00     0.037 C 
ATOM     79  C   UNL A   1      33.954  24.437  25.543  1.00  0.00     0.133 C 
ATOM     80  C   UNL A   1      33.430  25.416  23.423  1.00  0.00     0.120 C 
ATOM     81  N   UNL A   1      34.104  24.320  24.099  1.00  0.00    -0.338 N 
BRANCH  81  82
ATOM     82  C   UNL A   1      34.740  23.227  23.538  1.00  0.00     0.259 C 
ATOM     83  O   UNL A   1      35.678  23.322  22.750  1.00  0.00    -0.269 OA
BRANCH  82  84
ATOM     84  C   UNL A   1      34.272  21.879  23.884  1.00  0.00     0.111 A 
ATOM     85  C   UNL A   1      35.055  21.028  24.661  1.00  0.00     0.140 A 
ATOM     86  C   UNL A   1      33.000  21.466  23.496  1.00  0.00     0.140 A 
ATOM     87  F   UNL A   1      36.266  21.411  25.090  1.00  0.00    -0.206 F 
ATOM     88  C   UNL A   1      34.604  19.755  25.001  1.00  0.00     0.056 A 
ATOM     89  C   UNL A   1      32.529  20.199  23.838  1.00  0.00     0.056 A 
ATOM     90  F   UNL A   1      32.206  22.264  22.769  1.00  0.00    -0.206 F 
ATOM     91  C   UNL A   1      33.341  19.344  24.583  1.00  0.00     0.023 A 
ATOM     92  Br  UNL A   1      32.721  17.617  25.033  1.00  0.00    -0.051 Br
ENDBRANCH  82  84
ENDBRANCH  81  82
ENDBRANCH  74  77
ENDBRANCH  72  73
ENDBRANCH  71  72
ENDBRANCH   1  71
TORSDOF 15
ENDMDL
MODEL 2
REMARK VINA RESULT:     -12.2      5.281     10.394
REMARK SMILES O=C(NCCCNC(=O)[C@@H]1CCN(C(=O)c2c(F)cc(Br)cc2F)C1)c1ccc(-c2c3nc(c(-c4cccc(S(=O)(=O)[O-])c4F)c4ccc([nH]4)c(-c4cccc(S(=O)(=O)[O-])c4F)c4nc(c(-c5cccc(S(=O)(=O)[O-])c5F)c5ccc2[nH]5)C=C4)C=C3)cc1
REMARK SMILES IDX 4 1 3 2 1 3 2 4 26 6 27 7 88 8 28 9 87 10 29 11 30 12 31 13
REMARK SMILES IDX 81 14 32 15 86 16 80 17 82 18 33 19 85 20 79 21 78 22 34 24
REMARK SMILES IDX 66 25 46 26 65 27 47 28 50 29 64 30 83 31 48 32 49 33 63 35
REMARK SMILES IDX 84 36 51 37 35 38 36 39 44 40 37 41 39 42 45 43 38 44 40 45
REMARK SMILES IDX 41 46 42 47 43 48 67 49 68 50 76 51 69 52 71 53 77 54 70 55
REMARK SMILES IDX 72 56 73 57 74 58 75 59 52 60 53 61 61 62 54 63 56 64 62 65
REMARK SMILES IDX 55 66 57 67 58 68 59 69 60 70 5 71 6 72 7 73 8 74 9 76 10 77
REMARK SMILES IDX 11 78 25 79 12 80 13 81 14 82 15 83 16 84 17 85 23 86 18 87
REMARK SMILES IDX 19 88 22 89 24 90 20 91 21 92
REMARK H PARENT 3 5 82 23 50 34 7 75
REMARK Flexibility Score: inf
ROOT
ATOM      1  C   UNL A   1      37.263  21.915  25.627  1.00  0.00     0.118 C 
ENDROOT
BRANCH   1   2
ATOM      2  N   UNL A   1      38.365  20.984  25.838  1.00  0.00    -0.352 N 
ATOM      3  O   UNL A   1      40.451  20.258  26.227  1.00  0.00    -0.269 OA
ATOM      4  C   UNL A   1      39.650  21.190  26.279  1.00  0.00     0.251 C 
ATOM      5  H   UNL A   1      38.152  20.045  25.627  1.00  0.00     0.163 HD
BRANCH   4   6
ATOM      6  C   UNL A   1      40.087  22.513  26.782  1.00  0.00     0.039 A 
ATOM      7  C   UNL A   1      39.587  23.699  26.243  1.00  0.00     0.014 A 
ATOM      8  C   UNL A   1      40.999  22.567  27.842  1.00  0.00     0.014 A 
ATOM      9  C   UNL A   1      40.124  24.923  26.637  1.00  0.00     0.010 A 
ATOM     10  C   UNL A   1      41.473  23.803  28.298  1.00  0.00     0.010 A 
ATOM     11  C   UNL A   1      41.081  24.991  27.663  1.00  0.00    -0.014 A 
BRANCH  11  12
ATOM     12  C   UNL A   1      41.639  26.313  28.057  1.00  0.00     0.031 A 
ATOM     13  C   UNL A   1      43.042  26.711  27.677  1.00  0.00     0.074 A 
ATOM     14  C   UNL A   1      40.863  27.177  28.742  1.00  0.00     0.049 A 
ATOM     15  N   UNL A   1      43.650  27.856  27.861  1.00  0.00    -0.248 NA
ATOM     16  C   UNL A   1      43.876  25.696  27.014  1.00  0.00     0.031 C 
ATOM     17  C   UNL A   1      39.507  26.894  29.218  1.00  0.00     0.029 A 
ATOM     18  N   UNL A   1      41.093  28.467  29.147  1.00  0.00    -0.354 N 
ATOM     19  C   UNL A   1      44.943  27.687  27.379  1.00  0.00     0.074 A 
ATOM     20  C   UNL A   1      45.038  26.325  26.903  1.00  0.00     0.031 C 
ATOM     21  C   UNL A   1      39.013  27.989  29.816  1.00  0.00     0.029 A 
ATOM     22  C   UNL A   1      40.025  29.039  29.799  1.00  0.00     0.049 A 
ATOM     23  H   UNL A   1      41.943  28.940  28.987  1.00  0.00     0.167 HD
ATOM     24  C   UNL A   1      45.953  28.589  27.318  1.00  0.00     0.034 A 
ATOM     25  C   UNL A   1      39.872  30.273  30.320  1.00  0.00     0.034 A 
ATOM     26  C   UNL A   1      45.844  29.959  27.742  1.00  0.00     0.049 A 
ATOM     27  C   UNL A   1      40.990  31.269  30.184  1.00  0.00     0.074 A 
ATOM     28  C   UNL A   1      46.787  30.968  27.648  1.00  0.00     0.029 A 
ATOM     29  N   UNL A   1      44.725  30.516  28.343  1.00  0.00    -0.354 N 
ATOM     30  N   UNL A   1      42.149  31.132  29.588  1.00  0.00    -0.248 NA
ATOM     31  C   UNL A   1      40.764  32.601  30.761  1.00  0.00     0.031 C 
ATOM     32  C   UNL A   1      46.244  32.131  28.203  1.00  0.00     0.029 A 
ATOM     33  C   UNL A   1      44.955  31.852  28.629  1.00  0.00     0.049 A 
ATOM     34  H   UNL A   1      43.889  30.033  28.537  1.00  0.00     0.167 HD
ATOM     35  C   UNL A   1      42.777  32.367  29.690  1.00  0.00     0.074 A 
ATOM     36  C   UNL A   1      41.859  33.247  30.383  1.00  0.00     0.031 C 
ATOM     37  C   UNL A   1      44.011  32.734  29.263  1.00  0.00     0.034 A 
BRANCH  24  38
ATOM     38  C   UNL A   1      47.263  28.138  26.724  1.00  0.00     0.023 A 
ATOM     39  C   UNL A   1      48.329  27.789  27.576  1.00  0.00     0.012 A 
ATOM     40  C   UNL A   1      47.417  27.991  25.330  1.00  0.00     0.148 A 
ATOM     41  C   UNL A   1      49.537  27.327  27.054  1.00  0.00     0.002 A 
ATOM     42  C   UNL A   1      48.611  27.494  24.818  1.00  0.00     0.091 A 
ATOM     43  F   UNL A   1      46.401  28.349  24.532  1.00  0.00    -0.205 F 
ATOM     44  C   UNL A   1      49.673  27.170  25.676  1.00  0.00     0.022 A 
BRANCH  42  45
ATOM     45  S   UNL A   1      48.851  27.185  23.065  1.00  0.00     0.127 S 
ATOM     46  O   UNL A   1      48.192  25.891  22.900  1.00  0.00    -0.237 OA
ATOM     47  O   UNL A   1      48.145  28.310  22.450  1.00  0.00    -0.237 OA
ATOM     48  O   UNL A   1      50.292  27.190  22.854  1.00  0.00    -0.744 OA
ENDBRANCH  42  45
ENDBRANCH  24  38
BRANCH  25  49
ATOM     49  C   UNL A   1      38.574  30.655  30.943  1.00  0.00     0.023 A 
ATOM     50  C   UNL A   1      38.383  30.450  32.323  1.00  0.00     0.012 A 
ATOM     51  C   UNL A   1      37.549  31.256  30.188  1.00  0.00     0.148 A 
ATOM     52  C   UNL A   1      37.186  30.818  32.937  1.00  0.00     0.002 A 
ATOM     53  C   UNL A   1      36.380  31.672  30.817  1.00  0.00     0.091 A 
ATOM     54  F   UNL A   1      37.741  31.425  28.872  1.00  0.00    -0.205 F 
ATOM     55  C   UNL A   1      36.190  31.439  32.188  1.00  0.00     0.022 A 
BRANCH  53  56
ATOM     56  S   UNL A   1      35.112  32.606  29.953  1.00  0.00     0.127 S 
ATOM     57  O   UNL A   1      34.176  32.906  31.032  1.00  0.00    -0.237 OA
ATOM     58  O   UNL A   1      35.867  33.756  29.454  1.00  0.00    -0.237 OA
ATOM     59  O   UNL A   1      34.621  31.718  28.909  1.00  0.00    -0.744 OA
ENDBRANCH  53  56
ENDBRANCH  25  49
BRANCH  37  60
ATOM     60  C   UNL A   1      44.433  34.159  29.501  1.00  0.00     0.023 A 
ATOM     61  C   UNL A   1      45.086  34.504  30.701  1.00  0.00     0.012 A 
ATOM     62  C   UNL A   1      44.239  35.143  28.511  1.00  0.00     0.148 A 
ATOM     63  C   UNL A   1      45.511  35.814  30.925  1.00  0.00     0.002 A 
ATOM     64  C   UNL A   1      44.706  36.435  28.724  1.00  0.00     0.091 A 
ATOM     65  F   UNL A   1      43.595  34.803  27.385  1.00  0.00    -0.205 F 
ATOM     66  C   UNL A   1      45.331  36.775  29.934  1.00  0.00     0.022 A 
BRANCH  64  67
ATOM     67  S   UNL A   1      44.593  37.705  27.458  1.00  0.00     0.127 S 
ATOM     68  O   UNL A   1      45.732  37.378  26.603  1.00  0.00    -0.237 OA
ATOM     69  O   UNL A   1      43.284  37.439  26.858  1.00  0.00    -0.237 OA
ATOM     70  O   UNL A   1      44.678  38.975  28.167  1.00  0.00    -0.744 OA
ENDBRANCH  64  67
ENDBRANCH  37  60
ENDBRANCH  11  12
ENDBRANCH   4   6
ENDBRANCH   1   2
BRANCH   1  71
ATOM     71  C   UNL A   1      36.569  21.732  24.278  1.00  0.00     0.042 C 
BRANCH  71  72
ATOM     72  C   UNL A   1      36.571  22.974  23.391  1.00  0.00     0.117 C 
BRANCH  72  73
ATOM     73  N   UNL A   1      35.241  23.311  22.910  1.00  0.00    -0.356 N 
ATOM     74  C   UNL A   1      34.278  24.103  23.456  1.00  0.00     0.224 C 
ATOM     75  H   UNL A   1      34.999  22.901  22.049  1.00  0.00     0.163 HD
ATOM     76  O   UNL A   1      33.192  24.168  22.878  1.00  0.00    -0.275 OA
BRANCH  74  77
ATOM     77  C   UNL A   1      34.561  24.881  24.729  1.00  0.00     0.099 C 
ATOM     78  C   UNL A   1      34.164  24.070  25.967  1.00  0.00     0.037 C 
ATOM     79  C   UNL A   1      33.675  26.131  24.799  1.00  0.00     0.133 C 
ATOM     80  C   UNL A   1      32.717  24.458  26.216  1.00  0.00     0.120 C 
ATOM     81  N   UNL A   1      32.668  25.854  25.815  1.00  0.00    -0.338 N 
BRANCH  81  82
ATOM     82  C   UNL A   1      31.772  26.830  26.209  1.00  0.00     0.259 C 
ATOM     83  O   UNL A   1      31.559  27.115  27.385  1.00  0.00    -0.269 OA
BRANCH  82  84
ATOM     84  C   UNL A   1      31.021  27.561  25.182  1.00  0.00     0.111 A 
ATOM     85  C   UNL A   1      31.296  28.899  24.911  1.00  0.00     0.140 A 
ATOM     86  C   UNL A   1      30.069  26.895  24.414  1.00  0.00     0.140 A 
ATOM     87  F   UNL A   1      32.238  29.559  25.602  1.00  0.00    -0.206 F 
ATOM     88  C   UNL A   1      30.592  29.589  23.927  1.00  0.00     0.056 A 
ATOM     89  C   UNL A   1      29.364  27.567  23.416  1.00  0.00     0.056 A 
ATOM     90  F   UNL A   1      29.791  25.601  24.626  1.00  0.00    -0.206 F 
ATOM     91  C   UNL A   1      29.624  28.918  23.184  1.00  0.00     0.023 A 
ATOM     92  Br  UNL A   1      28.659  29.843  21.850  1.00  0.00    -0.051 Br
ENDBRANCH  82  84
ENDBRANCH  81  82
ENDBRANCH  74  77
ENDBRANCH  72  73
ENDBRANCH  71  72
ENDBRANCH   1  71
TORSDOF 15
ENDMDL
MODEL 3
REMARK VINA RESULT:     -12.2      1.416      1.786
REMARK SMILES O=C(NCCCNC(=O)[C@@H]1CCN(C(=O)c2c(F)cc(Br)cc2F)C1)c1ccc(-c2c3nc(c(-c4cccc(S(=O)(=O)[O-])c4F)c4ccc([nH]4)c(-c4cccc(S(=O)(=O)[O-])c4F)c4nc(c(-c5cccc(S(=O)(=O)[O-])c5F)c5ccc2[nH]5)C=C4)C=C3)cc1
REMARK SMILES IDX 4 1 3 2 1 3 2 4 26 6 27 7 88 8 28 9 87 10 29 11 30 12 31 13
REMARK SMILES IDX 81 14 32 15 86 16 80 17 82 18 33 19 85 20 79 21 78 22 34 24
REMARK SMILES IDX 66 25 46 26 65 27 47 28 50 29 64 30 83 31 48 32 49 33 63 35
REMARK SMILES IDX 84 36 51 37 35 38 36 39 44 40 37 41 39 42 45 43 38 44 40 45
REMARK SMILES IDX 41 46 42 47 43 48 67 49 68 50 76 51 69 52 71 53 77 54 70 55
REMARK SMILES IDX 72 56 73 57 74 58 75 59 52 60 53 61 61 62 54 63 56 64 62 65
REMARK SMILES IDX 55 66 57 67 58 68 59 69 60 70 5 71 6 72 7 73 8 74 9 76 10 77
REMARK SMILES IDX 11 78 25 79 12 80 13 81 14 82 15 83 16 84 17 85 23 86 18 87
REMARK SMILES IDX 19 88 22 89 24 90 20 91 21 92
REMARK H PARENT 3 5 82 23 50 34 7 75
REMARK Flexibility Score: inf
ROOT
ATOM      1  C   UNL A   1      32.487  30.360  27.050  1.00  0.00     0.118 C 
ENDROOT
BRANCH   1   2
ATOM      2  N   UNL A   1      32.605  31.811  27.122  1.00  0.00    -0.352 N 
ATOM      3  O   UNL A   1      33.383  33.823  27.732  1.00  0.00    -0.269 OA
ATOM      4  C   UNL A   1      33.585  32.613  27.655  1.00  0.00     0.251 C 
ATOM      5  H   UNL A   1      31.851  32.301  26.719  1.00  0.00     0.163 HD
BRANCH   4   6
ATOM      6  C   UNL A   1      34.854  32.041  28.162  1.00  0.00     0.039 A 
ATOM      7  C   UNL A   1      34.929  30.724  28.618  1.00  0.00     0.014 A 
ATOM      8  C   UNL A   1      36.007  32.834  28.152  1.00  0.00     0.014 A 
ATOM      9  C   UNL A   1      36.098  30.263  29.221  1.00  0.00     0.010 A 
ATOM     10  C   UNL A   1      37.205  32.339  28.678  1.00  0.00     0.010 A 
ATOM     11  C   UNL A   1      37.248  31.067  29.268  1.00  0.00    -0.014 A 
BRANCH  11  12
ATOM     12  C   UNL A   1      38.479  30.547  29.925  1.00  0.00     0.031 A 
ATOM     13  C   UNL A   1      38.847  30.959  31.327  1.00  0.00     0.074 A 
ATOM     14  C   UNL A   1      39.259  29.671  29.259  1.00  0.00     0.049 A 
ATOM     15  N   UNL A   1      39.832  30.531  32.077  1.00  0.00    -0.248 NA
ATOM     16  C   UNL A   1      38.014  31.988  31.970  1.00  0.00     0.031 C 
ATOM     17  C   UNL A   1      39.044  29.234  27.878  1.00  0.00     0.029 A 
ATOM     18  N   UNL A   1      40.380  28.985  29.653  1.00  0.00    -0.354 N 
ATOM     19  C   UNL A   1      39.763  31.264  33.256  1.00  0.00     0.074 A 
ATOM     20  C   UNL A   1      38.647  32.173  33.120  1.00  0.00     0.031 C 
ATOM     21  C   UNL A   1      39.977  28.326  27.554  1.00  0.00     0.029 A 
ATOM     22  C   UNL A   1      40.878  28.142  28.687  1.00  0.00     0.049 A 
ATOM     23  H   UNL A   1      40.789  29.086  30.544  1.00  0.00     0.167 HD
ATOM     24  C   UNL A   1      40.544  31.175  34.360  1.00  0.00     0.034 A 
ATOM     25  C   UNL A   1      41.937  27.309  28.709  1.00  0.00     0.034 A 
ATOM     26  C   UNL A   1      41.621  30.234  34.518  1.00  0.00     0.049 A 
ATOM     27  C   UNL A   1      42.748  27.189  29.969  1.00  0.00     0.074 A 
ATOM     28  C   UNL A   1      42.418  30.016  35.629  1.00  0.00     0.029 A 
ATOM     29  N   UNL A   1      42.057  29.357  33.537  1.00  0.00    -0.354 N 
ATOM     30  N   UNL A   1      42.571  27.782  31.124  1.00  0.00    -0.248 NA
ATOM     31  C   UNL A   1      43.884  26.257  29.940  1.00  0.00     0.031 C 
ATOM     32  C   UNL A   1      43.343  29.014  35.315  1.00  0.00     0.029 A 
ATOM     33  C   UNL A   1      43.113  28.598  34.014  1.00  0.00     0.049 A 
ATOM     34  H   UNL A   1      41.671  29.283  32.634  1.00  0.00     0.167 HD
ATOM     35  C   UNL A   1      43.551  27.273  31.967  1.00  0.00     0.074 A 
ATOM     36  C   UNL A   1      44.303  26.305  31.197  1.00  0.00     0.031 C 
ATOM     37  C   UNL A   1      43.814  27.593  33.259  1.00  0.00     0.034 A 
BRANCH  24  38
ATOM     38  C   UNL A   1      40.233  32.090  35.518  1.00  0.00     0.023 A 
ATOM     39  C   UNL A   1      40.948  33.295  35.661  1.00  0.00     0.012 A 
ATOM     40  C   UNL A   1      39.189  31.794  36.417  1.00  0.00     0.148 A 
ATOM     41  C   UNL A   1      40.651  34.180  36.698  1.00  0.00     0.002 A 
ATOM     42  C   UNL A   1      38.873  32.699  37.425  1.00  0.00     0.091 A 
ATOM     43  F   UNL A   1      38.534  30.633  36.280  1.00  0.00    -0.205 F 
ATOM     44  C   UNL A   1      39.607  33.886  37.572  1.00  0.00     0.022 A 
BRANCH  42  45
ATOM     45  S   UNL A   1      37.496  32.443  38.551  1.00  0.00     0.127 S 
ATOM     46  O   UNL A   1      37.861  33.316  39.666  1.00  0.00    -0.237 OA
ATOM     47  O   UNL A   1      36.356  32.910  37.761  1.00  0.00    -0.237 OA
ATOM     48  O   UNL A   1      37.482  31.017  38.845  1.00  0.00    -0.744 OA
ENDBRANCH  42  45
ENDBRANCH  24  38
BRANCH  25  49
ATOM     49  C   UNL A   1      42.233  26.461  27.521  1.00  0.00     0.023 A 
ATOM     50  C   UNL A   1      42.950  27.011  26.441  1.00  0.00     0.012 A 
ATOM     51  C   UNL A   1      41.849  25.107  27.472  1.00  0.00     0.148 A 
ATOM     52  C   UNL A   1      43.260  26.235  25.324  1.00  0.00     0.002 A 
ATOM     53  C   UNL A   1      42.211  24.324  26.382  1.00  0.00     0.091 A 
ATOM     54  F   UNL A   1      41.150  24.606  28.501  1.00  0.00    -0.205 F 
ATOM     55  C   UNL A   1      42.902  24.890  25.300  1.00  0.00     0.022 A 
BRANCH  53  56
ATOM     56  S   UNL A   1      41.912  22.553  26.339  1.00  0.00     0.127 S 
ATOM     57  O   UNL A   1      40.454  22.497  26.308  1.00  0.00    -0.237 OA
ATOM     58  O   UNL A   1      42.570  22.163  25.091  1.00  0.00    -0.237 OA
ATOM     59  O   UNL A   1      42.547  22.024  27.537  1.00  0.00    -0.744 OA
ENDBRANCH  53  56
ENDBRANCH  25  49
BRANCH  37  60
ATOM     60  C   UNL A   1      44.944  26.866  33.938  1.00  0.00     0.023 A 
ATOM     61  C   UNL A   1      46.260  27.355  33.820  1.00  0.00     0.012 A 
ATOM     62  C   UNL A   1      44.694  25.736  34.742  1.00  0.00     0.148 A 
ATOM     63  C   UNL A   1      47.316  26.710  34.467  1.00  0.00     0.002 A 
ATOM     64  C   UNL A   1      45.744  25.127  35.419  1.00  0.00     0.091 A 
ATOM     65  F   UNL A   1      43.439  25.271  34.823  1.00  0.00    -0.205 F 
ATOM     66  C   UNL A   1      47.056  25.605  35.274  1.00  0.00     0.022 A 
BRANCH  64  67
ATOM     67  S   UNL A   1      45.476  23.757  36.549  1.00  0.00     0.127 S 
ATOM     68  O   UNL A   1      46.838  23.455  36.984  1.00  0.00    -0.237 OA
ATOM     69  O   UNL A   1      44.627  24.357  37.580  1.00  0.00    -0.237 OA
ATOM     70  O   UNL A   1      44.819  22.721  35.762  1.00  0.00    -0.744 OA
ENDBRANCH  64  67
ENDBRANCH  37  60
ENDBRANCH  11  12
ENDBRANCH   4   6
ENDBRANCH   1   2
BRANCH   1  71
ATOM     71  C   UNL A   1      32.853  29.792  25.678  1.00  0.00     0.042 C 
BRANCH  71  72
ATOM     72  C   UNL A   1      33.560  28.441  25.720  1.00  0.00     0.117 C 
BRANCH  72  73
ATOM     73  N   UNL A   1      32.780  27.430  26.415  1.00  0.00    -0.356 N 
ATOM     74  C   UNL A   1      31.945  26.470  25.930  1.00  0.00     0.224 C 
ATOM     75  H   UNL A   1      32.871  27.441  27.394  1.00  0.00     0.163 HD
ATOM     76  O   UNL A   1      31.335  25.774  26.744  1.00  0.00    -0.275 OA
BRANCH  74  77
ATOM     77  C   UNL A   1      31.797  26.273  24.432  1.00  0.00     0.099 C 
ATOM     78  C   UNL A   1      30.527  25.480  24.106  1.00  0.00     0.037 C 
ATOM     79  C   UNL A   1      32.934  25.397  23.894  1.00  0.00     0.133 C 
ATOM     80  C   UNL A   1      30.982  24.031  24.112  1.00  0.00     0.120 C 
ATOM     81  N   UNL A   1      32.338  24.102  23.594  1.00  0.00    -0.338 N 
BRANCH  81  82
ATOM     82  C   UNL A   1      33.075  23.107  22.979  1.00  0.00     0.259 C 
ATOM     83  O   UNL A   1      33.746  23.291  21.966  1.00  0.00    -0.269 OA
BRANCH  82  84
ATOM     84  C   UNL A   1      33.054  21.754  23.548  1.00  0.00     0.111 A 
ATOM     85  C   UNL A   1      33.743  21.460  24.722  1.00  0.00     0.140 A 
ATOM     86  C   UNL A   1      32.278  20.764  22.951  1.00  0.00     0.140 A 
ATOM     87  F   UNL A   1      34.465  22.402  25.347  1.00  0.00    -0.206 F 
ATOM     88  C   UNL A   1      33.712  20.180  25.268  1.00  0.00     0.056 A 
ATOM     89  C   UNL A   1      32.225  19.479  23.492  1.00  0.00     0.056 A 
ATOM     90  F   UNL A   1      31.581  21.011  21.834  1.00  0.00    -0.206 F 
ATOM     91  C   UNL A   1      32.953  19.192  24.646  1.00  0.00     0.023 A 
ATOM     92  Br  UNL A   1      32.906  17.448  25.374  1.00  0.00    -0.051 Br
ENDBRANCH  82  84
ENDBRANCH  81  82
ENDBRANCH  74  77
ENDBRANCH  72  73
ENDBRANCH  71  72
ENDBRANCH   1  71
TORSDOF 15
ENDMDL
