MODEL 1
REMARK VINA RESULT:     -12.9      0.000      0.000
REMARK SMILES O=C(Cc1cccc(-c2ccn(C(F)F)c(=O)c2)c1)NCCCNC(=O)c1ccc(-c2c3nc(c(-c4cccc(S(=O)(=O)[O-])c4F)c4ccc([nH]4)c(-c4cccc(S(=O)(=O)[O-])c4F)c4nc(c(-c5cccc(S(=O)(=O)[O-])c5F)c5ccc2[nH]5)C=C4)C=C3)cc1
REMARK SMILES IDX 22 1 21 2 20 3 1 4 2 5 3 7 4 8 5 9 19 10 6 11 8 12 7 13 9 14
REMARK SMILES IDX 10 15 18 16 11 17 16 18 12 19 17 20 13 21 14 22 15 23 23 24
REMARK SMILES IDX 24 25 25 26 26 28 27 29 28 30 89 31 29 32 88 33 30 34 31 35
REMARK SMILES IDX 32 36 82 37 33 38 87 39 81 40 83 41 34 42 86 43 80 44 79 45
REMARK SMILES IDX 35 47 67 48 47 49 66 50 48 51 51 52 65 53 84 54 49 55 50 56
REMARK SMILES IDX 64 58 85 59 52 60 36 61 37 62 45 63 38 64 40 65 46 66 39 67
REMARK SMILES IDX 41 68 42 69 43 70 44 71 68 72 69 73 77 74 70 75 72 76 78 77
REMARK SMILES IDX 71 78 73 79 74 80 75 81 76 82 53 83 54 84 62 85 55 86 57 87
REMARK SMILES IDX 63 88 56 89 58 90 59 91 60 92 61 93
REMARK H PARENT 20 6 24 27 83 46 51 57
REMARK Flexibility Score: inf
ROOT
ATOM      1  C   UNL A   1      36.224  21.552  24.462  1.00  0.00     0.042 C 
ENDROOT
BRANCH   1   2
ATOM      2  C   UNL A   1      35.572  22.757  23.795  1.00  0.00     0.117 C 
BRANCH   2   3
ATOM      3  N   UNL A   1      34.129  22.731  23.899  1.00  0.00    -0.356 N 
ATOM      4  O   UNL A   1      33.683  23.461  21.760  1.00  0.00    -0.275 OA
ATOM      5  C   UNL A   1      33.296  23.034  22.842  1.00  0.00     0.224 C 
ATOM      6  H   UNL A   1      33.723  22.489  24.763  1.00  0.00     0.163 HD
BRANCH   5   7
ATOM      7  C   UNL A   1      31.836  22.720  23.127  1.00  0.00     0.135 C 
BRANCH   7   8
ATOM      8  C   UNL A   1      31.199  23.784  23.990  1.00  0.00    -0.038 A 
ATOM      9  C   UNL A   1      31.033  23.597  25.370  1.00  0.00     0.004 A 
ATOM     10  C   UNL A   1      30.734  24.972  23.410  1.00  0.00     0.013 A 
ATOM     11  C   UNL A   1      30.385  24.558  26.146  1.00  0.00     0.001 A 
ATOM     12  C   UNL A   1      30.098  25.952  24.185  1.00  0.00    -0.018 A 
ATOM     13  C   UNL A   1      29.915  25.730  25.556  1.00  0.00     0.009 A 
BRANCH  12  14
ATOM     14  C   UNL A   1      29.633  27.194  23.542  1.00  0.00    -0.011 A 
ATOM     15  C   UNL A   1      30.542  28.142  22.928  1.00  0.00     0.027 A 
ATOM     16  C   UNL A   1      28.320  27.478  23.580  1.00  0.00     0.080 A 
ATOM     17  C   UNL A   1      30.088  29.298  22.435  1.00  0.00     0.095 A 
ATOM     18  C   UNL A   1      27.795  28.750  23.014  1.00  0.00     0.255 A 
ATOM     19  N   UNL A   1      28.741  29.610  22.480  1.00  0.00    -0.258 N 
ATOM     20  O   UNL A   1      26.587  28.961  23.063  1.00  0.00    -0.269 OA
BRANCH  19  21
ATOM     21  C   UNL A   1      28.266  30.871  21.977  1.00  0.00     0.451 C 
ATOM     22  F   UNL A   1      27.649  30.724  20.780  1.00  0.00    -0.185 F 
ATOM     23  F   UNL A   1      27.384  31.438  22.837  1.00  0.00    -0.185 F 
ENDBRANCH  19  21
ENDBRANCH  12  14
ENDBRANCH   7   8
ENDBRANCH   5   7
ENDBRANCH   2   3
ENDBRANCH   1   2
BRANCH   1  24
ATOM     24  C   UNL A   1      37.103  21.873  25.668  1.00  0.00     0.118 C 
BRANCH  24  25
ATOM     25  N   UNL A   1      38.246  20.983  25.817  1.00  0.00    -0.352 N 
ATOM     26  C   UNL A   1      39.517  21.271  26.264  1.00  0.00     0.251 C 
ATOM     27  H   UNL A   1      38.090  20.046  25.562  1.00  0.00     0.163 HD
ATOM     28  O   UNL A   1      40.390  20.408  26.224  1.00  0.00    -0.269 OA
BRANCH  26  29
ATOM     29  C   UNL A   1      39.839  22.629  26.755  1.00  0.00     0.039 A 
ATOM     30  C   UNL A   1      40.766  22.768  27.793  1.00  0.00     0.014 A 
ATOM     31  C   UNL A   1      39.261  23.763  26.177  1.00  0.00     0.014 A 
ATOM     32  C   UNL A   1      41.180  24.042  28.186  1.00  0.00     0.010 A 
ATOM     33  C   UNL A   1      39.726  25.030  26.524  1.00  0.00     0.010 A 
ATOM     34  C   UNL A   1      40.700  25.184  27.522  1.00  0.00    -0.014 A 
BRANCH  34  35
ATOM     35  C   UNL A   1      41.248  26.536  27.813  1.00  0.00     0.031 A 
ATOM     36  C   UNL A   1      42.675  26.875  27.476  1.00  0.00     0.074 A 
ATOM     37  C   UNL A   1      40.487  27.430  28.477  1.00  0.00     0.049 A 
ATOM     38  N   UNL A   1      43.342  27.971  27.729  1.00  0.00    -0.248 NA
ATOM     39  C   UNL A   1      43.461  25.839  26.788  1.00  0.00     0.031 C 
ATOM     40  C   UNL A   1      39.112  27.201  28.928  1.00  0.00     0.029 A 
ATOM     41  N   UNL A   1      40.771  28.699  28.919  1.00  0.00    -0.354 N 
ATOM     42  C   UNL A   1      44.632  27.749  27.263  1.00  0.00     0.074 A 
ATOM     43  C   UNL A   1      44.661  26.400  26.737  1.00  0.00     0.031 C 
ATOM     44  C   UNL A   1      38.676  28.287  29.583  1.00  0.00     0.029 A 
ATOM     45  C   UNL A   1      39.747  29.277  29.632  1.00  0.00     0.049 A 
ATOM     46  H   UNL A   1      41.628  29.152  28.742  1.00  0.00     0.167 HD
ATOM     47  C   UNL A   1      45.690  28.595  27.251  1.00  0.00     0.034 A 
ATOM     48  C   UNL A   1      39.679  30.463  30.270  1.00  0.00     0.034 A 
ATOM     49  C   UNL A   1      45.651  29.947  27.743  1.00  0.00     0.049 A 
ATOM     50  C   UNL A   1      40.862  31.391  30.224  1.00  0.00     0.074 A 
ATOM     51  C   UNL A   1      46.644  30.910  27.688  1.00  0.00     0.029 A 
ATOM     52  N   UNL A   1      44.571  30.525  28.391  1.00  0.00    -0.354 N 
ATOM     53  N   UNL A   1      42.019  31.224  29.633  1.00  0.00    -0.248 NA
ATOM     54  C   UNL A   1      40.719  32.685  30.908  1.00  0.00     0.031 C 
ATOM     55  C   UNL A   1      46.175  32.061  28.330  1.00  0.00     0.029 A 
ATOM     56  C   UNL A   1      44.879  31.825  28.759  1.00  0.00     0.049 A 
ATOM     57  H   UNL A   1      43.711  30.079  28.565  1.00  0.00     0.167 HD
ATOM     58  C   UNL A   1      42.730  32.399  29.847  1.00  0.00     0.074 A 
ATOM     59  C   UNL A   1      41.863  33.280  30.601  1.00  0.00     0.031 C 
ATOM     60  C   UNL A   1      43.994  32.713  29.469  1.00  0.00     0.034 A 
BRANCH  47  61
ATOM     61  C   UNL A   1      46.975  28.100  26.641  1.00  0.00     0.023 A 
ATOM     62  C   UNL A   1      47.985  27.579  27.475  1.00  0.00     0.012 A 
ATOM     63  C   UNL A   1      47.159  28.088  25.244  1.00  0.00     0.148 A 
ATOM     64  C   UNL A   1      49.171  27.085  26.933  1.00  0.00     0.002 A 
ATOM     65  C   UNL A   1      48.325  27.554  24.709  1.00  0.00     0.091 A 
ATOM     66  F   UNL A   1      46.197  28.606  24.468  1.00  0.00    -0.205 F 
ATOM     67  C   UNL A   1      49.336  27.063  25.551  1.00  0.00     0.022 A 
BRANCH  65  68
ATOM     68  S   UNL A   1      48.601  27.408  22.940  1.00  0.00     0.127 S 
ATOM     69  O   UNL A   1      48.471  25.965  22.739  1.00  0.00    -0.237 OA
ATOM     70  O   UNL A   1      47.502  28.202  22.389  1.00  0.00    -0.237 OA
ATOM     71  O   UNL A   1      49.928  27.955  22.694  1.00  0.00    -0.744 OA
ENDBRANCH  65  68
ENDBRANCH  47  61
BRANCH  48  72
ATOM     72  C   UNL A   1      38.423  30.862  30.967  1.00  0.00     0.023 A 
ATOM     73  C   UNL A   1      38.271  30.573  32.337  1.00  0.00     0.012 A 
ATOM     74  C   UNL A   1      37.393  31.543  30.290  1.00  0.00     0.148 A 
ATOM     75  C   UNL A   1      37.104  30.928  33.013  1.00  0.00     0.002 A 
ATOM     76  C   UNL A   1      36.256  31.943  30.983  1.00  0.00     0.091 A 
ATOM     77  F   UNL A   1      37.550  31.796  28.983  1.00  0.00    -0.205 F 
ATOM     78  C   UNL A   1      36.102  31.621  32.340  1.00  0.00     0.022 A 
BRANCH  76  79
ATOM     79  S   UNL A   1      34.977  32.956  30.231  1.00  0.00     0.127 S 
ATOM     80  O   UNL A   1      34.439  32.052  29.217  1.00  0.00    -0.237 OA
ATOM     81  O   UNL A   1      34.089  33.212  31.365  1.00  0.00    -0.237 OA
ATOM     82  O   UNL A   1      35.661  34.140  29.726  1.00  0.00    -0.744 OA
ENDBRANCH  76  79
ENDBRANCH  48  72
BRANCH  60  83
ATOM     83  C   UNL A   1      44.517  34.076  29.841  1.00  0.00     0.023 A 
ATOM     84  C   UNL A   1      45.267  34.239  31.023  1.00  0.00     0.012 A 
ATOM     85  C   UNL A   1      44.327  35.180  28.986  1.00  0.00     0.148 A 
ATOM     86  C   UNL A   1      45.791  35.485  31.365  1.00  0.00     0.002 A 
ATOM     87  C   UNL A   1      44.893  36.408  29.310  1.00  0.00     0.091 A 
ATOM     88  F   UNL A   1      43.595  35.010  27.876  1.00  0.00    -0.205 F 
ATOM     89  C   UNL A   1      45.615  36.565  30.504  1.00  0.00     0.022 A 
BRANCH  87  90
ATOM     90  S   UNL A   1      44.799  37.832  28.217  1.00  0.00     0.127 S 
ATOM     91  O   UNL A   1      45.502  37.346  27.033  1.00  0.00    -0.237 OA
ATOM     92  O   UNL A   1      43.355  37.996  28.046  1.00  0.00    -0.237 OA
ATOM     93  O   UNL A   1      45.451  38.925  28.925  1.00  0.00    -0.744 OA
ENDBRANCH  87  90
ENDBRANCH  60  83
ENDBRANCH  34  35
ENDBRANCH  26  29
ENDBRANCH  24  25
ENDBRANCH   1  24
TORSDOF 16
ENDMDL
MODEL 2
REMARK VINA RESULT:     -12.8      5.132      7.485
REMARK SMILES O=C(Cc1cccc(-c2ccn(C(F)F)c(=O)c2)c1)NCCCNC(=O)c1ccc(-c2c3nc(c(-c4cccc(S(=O)(=O)[O-])c4F)c4ccc([nH]4)c(-c4cccc(S(=O)(=O)[O-])c4F)c4nc(c(-c5cccc(S(=O)(=O)[O-])c5F)c5ccc2[nH]5)C=C4)C=C3)cc1
REMARK SMILES IDX 22 1 21 2 20 3 1 4 2 5 3 7 4 8 5 9 19 10 6 11 8 12 7 13 9 14
REMARK SMILES IDX 10 15 18 16 11 17 16 18 12 19 17 20 13 21 14 22 15 23 23 24
REMARK SMILES IDX 24 25 25 26 26 28 27 29 28 30 89 31 29 32 88 33 30 34 31 35
REMARK SMILES IDX 32 36 82 37 33 38 87 39 81 40 83 41 34 42 86 43 80 44 79 45
REMARK SMILES IDX 35 47 67 48 47 49 66 50 48 51 51 52 65 53 84 54 49 55 50 56
REMARK SMILES IDX 64 58 85 59 52 60 36 61 37 62 45 63 38 64 40 65 46 66 39 67
REMARK SMILES IDX 41 68 42 69 43 70 44 71 68 72 69 73 77 74 70 75 72 76 78 77
REMARK SMILES IDX 71 78 73 79 74 80 75 81 76 82 53 83 54 84 62 85 55 86 57 87
REMARK SMILES IDX 63 88 56 89 58 90 59 91 60 92 61 93
REMARK H PARENT 20 6 24 27 83 46 51 57
REMARK Flexibility Score: inf
ROOT
ATOM      1  C   UNL A   1      31.470  29.146  26.983  1.00  0.00     0.042 C 
ENDROOT
BRANCH   1   2
ATOM      2  C   UNL A   1      32.124  27.939  27.641  1.00  0.00     0.117 C 
BRANCH   2   3
ATOM      3  N   UNL A   1      32.900  27.152  26.706  1.00  0.00    -0.356 N 
ATOM      4  O   UNL A   1      31.655  25.221  26.866  1.00  0.00    -0.275 OA
ATOM      5  C   UNL A   1      32.563  25.864  26.349  1.00  0.00     0.224 C 
ATOM      6  H   UNL A   1      33.705  27.555  26.307  1.00  0.00     0.163 HD
BRANCH   5   7
ATOM      7  C   UNL A   1      33.391  25.331  25.191  1.00  0.00     0.135 C 
BRANCH   7   8
ATOM      8  C   UNL A   1      32.763  25.673  23.860  1.00  0.00    -0.038 A 
ATOM      9  C   UNL A   1      33.139  25.002  22.686  1.00  0.00     0.004 A 
ATOM     10  C   UNL A   1      31.810  26.696  23.775  1.00  0.00     0.013 A 
ATOM     11  C   UNL A   1      32.601  25.369  21.453  1.00  0.00     0.001 A 
ATOM     12  C   UNL A   1      31.250  27.060  22.542  1.00  0.00    -0.018 A 
ATOM     13  C   UNL A   1      31.663  26.398  21.379  1.00  0.00     0.009 A 
BRANCH  12  14
ATOM     14  C   UNL A   1      30.241  28.133  22.494  1.00  0.00    -0.011 A 
ATOM     15  C   UNL A   1      30.543  29.466  22.010  1.00  0.00     0.027 A 
ATOM     16  C   UNL A   1      29.012  27.874  22.973  1.00  0.00     0.080 A 
ATOM     17  C   UNL A   1      29.623  30.435  22.068  1.00  0.00     0.095 A 
ATOM     18  C   UNL A   1      27.970  28.935  23.021  1.00  0.00     0.255 A 
ATOM     19  N   UNL A   1      28.359  30.186  22.570  1.00  0.00    -0.258 N 
ATOM     20  O   UNL A   1      26.859  28.648  23.457  1.00  0.00    -0.269 OA
BRANCH  19  21
ATOM     21  C   UNL A   1      27.387  31.243  22.658  1.00  0.00     0.451 C 
ATOM     22  F   UNL A   1      27.287  31.716  23.924  1.00  0.00    -0.185 F 
ATOM     23  F   UNL A   1      27.718  32.278  21.848  1.00  0.00    -0.185 F 
ENDBRANCH  19  21
ENDBRANCH  12  14
ENDBRANCH   7   8
ENDBRANCH   5   7
ENDBRANCH   2   3
ENDBRANCH   1   2
BRANCH   1  24
ATOM     24  C   UNL A   1      32.426  30.087  26.252  1.00  0.00     0.118 C 
BRANCH  24  25
ATOM     25  N   UNL A   1      32.246  31.491  26.594  1.00  0.00    -0.352 N 
ATOM     26  C   UNL A   1      33.071  32.319  27.323  1.00  0.00     0.251 C 
ATOM     27  H   UNL A   1      31.420  31.907  26.258  1.00  0.00     0.163 HD
ATOM     28  O   UNL A   1      32.704  33.458  27.601  1.00  0.00    -0.269 OA
BRANCH  26  29
ATOM     29  C   UNL A   1      34.380  31.823  27.804  1.00  0.00     0.039 A 
ATOM     30  C   UNL A   1      35.465  32.705  27.829  1.00  0.00     0.014 A 
ATOM     31  C   UNL A   1      34.532  30.511  28.260  1.00  0.00     0.014 A 
ATOM     32  C   UNL A   1      36.675  32.297  28.396  1.00  0.00     0.010 A 
ATOM     33  C   UNL A   1      35.717  30.130  28.886  1.00  0.00     0.010 A 
ATOM     34  C   UNL A   1      36.797  31.022  28.974  1.00  0.00    -0.014 A 
BRANCH  34  35
ATOM     35  C   UNL A   1      38.018  30.627  29.726  1.00  0.00     0.031 A 
ATOM     36  C   UNL A   1      38.994  29.641  29.142  1.00  0.00     0.074 A 
ATOM     37  C   UNL A   1      38.198  31.080  30.984  1.00  0.00     0.049 A 
ATOM     38  N   UNL A   1      40.064  29.123  29.684  1.00  0.00    -0.248 NA
ATOM     39  C   UNL A   1      38.716  29.157  27.780  1.00  0.00     0.031 C 
ATOM     40  C   UNL A   1      37.288  31.981  31.696  1.00  0.00     0.029 A 
ATOM     41  N   UNL A   1      39.186  30.817  31.900  1.00  0.00    -0.354 N 
ATOM     42  C   UNL A   1      40.572  28.228  28.749  1.00  0.00     0.074 A 
ATOM     43  C   UNL A   1      39.673  28.254  27.614  1.00  0.00     0.031 C 
ATOM     44  C   UNL A   1      37.758  32.193  32.935  1.00  0.00     0.029 A 
ATOM     45  C   UNL A   1      38.981  31.418  33.120  1.00  0.00     0.049 A 
ATOM     46  H   UNL A   1      39.969  30.253  31.702  1.00  0.00     0.167 HD
ATOM     47  C   UNL A   1      41.694  27.473  28.816  1.00  0.00     0.034 A 
ATOM     48  C   UNL A   1      39.685  31.343  34.268  1.00  0.00     0.034 A 
ATOM     49  C   UNL A   1      42.605  27.473  29.930  1.00  0.00     0.049 A 
ATOM     50  C   UNL A   1      40.938  30.511  34.308  1.00  0.00     0.074 A 
ATOM     51  C   UNL A   1      43.815  26.812  30.050  1.00  0.00     0.029 A 
ATOM     52  N   UNL A   1      42.403  28.154  31.120  1.00  0.00    -0.354 N 
ATOM     53  N   UNL A   1      41.488  29.802  33.354  1.00  0.00    -0.248 NA
ATOM     54  C   UNL A   1      41.683  30.493  35.576  1.00  0.00     0.031 C 
ATOM     55  C   UNL A   1      44.332  27.070  31.324  1.00  0.00     0.029 A 
ATOM     56  C   UNL A   1      43.457  27.914  31.987  1.00  0.00     0.049 A 
ATOM     57  H   UNL A   1      41.626  28.724  31.321  1.00  0.00     0.167 HD
ATOM     58  C   UNL A   1      42.657  29.278  33.894  1.00  0.00     0.074 A 
ATOM     59  C   UNL A   1      42.749  29.773  35.251  1.00  0.00     0.031 C 
ATOM     60  C   UNL A   1      43.564  28.447  33.322  1.00  0.00     0.034 A 
BRANCH  47  61
ATOM     61  C   UNL A   1      42.030  26.612  27.626  1.00  0.00     0.023 A 
ATOM     62  C   UNL A   1      42.764  27.163  26.556  1.00  0.00     0.012 A 
ATOM     63  C   UNL A   1      41.682  25.247  27.594  1.00  0.00     0.148 A 
ATOM     64  C   UNL A   1      43.116  26.380  25.457  1.00  0.00     0.002 A 
ATOM     65  C   UNL A   1      42.075  24.463  26.517  1.00  0.00     0.091 A 
ATOM     66  F   UNL A   1      40.968  24.746  28.612  1.00  0.00    -0.205 F 
ATOM     67  C   UNL A   1      42.781  25.029  25.443  1.00  0.00     0.022 A 
BRANCH  65  68
ATOM     68  S   UNL A   1      41.760  22.696  26.439  1.00  0.00     0.127 S 
ATOM     69  O   UNL A   1      42.380  22.231  27.679  1.00  0.00    -0.237 OA
ATOM     70  O   UNL A   1      40.297  22.643  26.431  1.00  0.00    -0.237 OA
ATOM     71  O   UNL A   1      42.391  22.229  25.212  1.00  0.00    -0.744 OA
ENDBRANCH  65  68
ENDBRANCH  47  61
BRANCH  48  72
ATOM     72  C   UNL A   1      39.247  32.120  35.462  1.00  0.00     0.023 A 
ATOM     73  C   UNL A   1      38.372  31.523  36.392  1.00  0.00     0.012 A 
ATOM     74  C   UNL A   1      39.706  33.430  35.695  1.00  0.00     0.148 A 
ATOM     75  C   UNL A   1      37.939  32.229  37.515  1.00  0.00     0.002 A 
ATOM     76  C   UNL A   1      39.315  34.107  36.844  1.00  0.00     0.091 A 
ATOM     77  F   UNL A   1      40.526  33.986  34.791  1.00  0.00    -0.205 F 
ATOM     78  C   UNL A   1      38.417  33.515  37.746  1.00  0.00     0.022 A 
BRANCH  76  79
ATOM     79  S   UNL A   1      39.986  35.713  37.291  1.00  0.00     0.127 S 
ATOM     80  O   UNL A   1      39.268  36.001  38.531  1.00  0.00    -0.237 OA
ATOM     81  O   UNL A   1      41.407  35.410  37.456  1.00  0.00    -0.237 OA
ATOM     82  O   UNL A   1      39.685  36.590  36.166  1.00  0.00    -0.744 OA
ENDBRANCH  76  79
ENDBRANCH  48  72
BRANCH  60  83
ATOM     83  C   UNL A   1      44.753  28.033  34.150  1.00  0.00     0.023 A 
ATOM     84  C   UNL A   1      45.918  28.826  34.145  1.00  0.00     0.012 A 
ATOM     85  C   UNL A   1      44.692  26.901  34.986  1.00  0.00     0.148 A 
ATOM     86  C   UNL A   1      47.015  28.479  34.933  1.00  0.00     0.002 A 
ATOM     87  C   UNL A   1      45.771  26.588  35.805  1.00  0.00     0.091 A 
ATOM     88  F   UNL A   1      43.581  26.148  34.963  1.00  0.00    -0.205 F 
ATOM     89  C   UNL A   1      46.937  27.369  35.771  1.00  0.00     0.022 A 
BRANCH  87  90
ATOM     90  S   UNL A   1      45.727  25.234  36.984  1.00  0.00     0.127 S 
ATOM     91  O   UNL A   1      47.066  25.301  37.566  1.00  0.00    -0.237 OA
ATOM     92  O   UNL A   1      44.649  25.641  37.885  1.00  0.00    -0.237 OA
ATOM     93  O   UNL A   1      45.444  24.034  36.208  1.00  0.00    -0.744 OA
ENDBRANCH  87  90
ENDBRANCH  60  83
ENDBRANCH  34  35
ENDBRANCH  26  29
ENDBRANCH  24  25
ENDBRANCH   1  24
TORSDOF 16
ENDMDL
MODEL 3
REMARK VINA RESULT:     -12.8      1.495      7.705
REMARK SMILES O=C(Cc1cccc(-c2ccn(C(F)F)c(=O)c2)c1)NCCCNC(=O)c1ccc(-c2c3nc(c(-c4cccc(S(=O)(=O)[O-])c4F)c4ccc([nH]4)c(-c4cccc(S(=O)(=O)[O-])c4F)c4nc(c(-c5cccc(S(=O)(=O)[O-])c5F)c5ccc2[nH]5)C=C4)C=C3)cc1
REMARK SMILES IDX 22 1 21 2 20 3 1 4 2 5 3 7 4 8 5 9 19 10 6 11 8 12 7 13 9 14
REMARK SMILES IDX 10 15 18 16 11 17 16 18 12 19 17 20 13 21 14 22 15 23 23 24
REMARK SMILES IDX 24 25 25 26 26 28 27 29 28 30 89 31 29 32 88 33 30 34 31 35
REMARK SMILES IDX 32 36 82 37 33 38 87 39 81 40 83 41 34 42 86 43 80 44 79 45
REMARK SMILES IDX 35 47 67 48 47 49 66 50 48 51 51 52 65 53 84 54 49 55 50 56
REMARK SMILES IDX 64 58 85 59 52 60 36 61 37 62 45 63 38 64 40 65 46 66 39 67
REMARK SMILES IDX 41 68 42 69 43 70 44 71 68 72 69 73 77 74 70 75 72 76 78 77
REMARK SMILES IDX 71 78 73 79 74 80 75 81 76 82 53 83 54 84 62 85 55 86 57 87
REMARK SMILES IDX 63 88 56 89 58 90 59 91 60 92 61 93
REMARK H PARENT 20 6 24 27 83 46 51 57
REMARK Flexibility Score: inf
ROOT
ATOM      1  C   UNL A   1      35.470  21.834  25.961  1.00  0.00     0.042 C 
ENDROOT
BRANCH   1   2
ATOM      2  C   UNL A   1      34.366  21.018  25.300  1.00  0.00     0.117 C 
BRANCH   2   3
ATOM      3  N   UNL A   1      33.583  21.800  24.368  1.00  0.00    -0.356 N 
ATOM      4  O   UNL A   1      31.513  21.263  25.224  1.00  0.00    -0.275 OA
ATOM      5  C   UNL A   1      32.210  21.904  24.445  1.00  0.00     0.224 C 
ATOM      6  H   UNL A   1      34.051  22.279  23.646  1.00  0.00     0.163 HD
BRANCH   5   7
ATOM      7  C   UNL A   1      31.639  22.954  23.506  1.00  0.00     0.135 C 
BRANCH   7   8
ATOM      8  C   UNL A   1      31.463  24.282  24.203  1.00  0.00    -0.038 A 
ATOM      9  C   UNL A   1      31.945  24.490  25.504  1.00  0.00     0.004 A 
ATOM     10  C   UNL A   1      30.781  25.325  23.563  1.00  0.00     0.013 A 
ATOM     11  C   UNL A   1      31.721  25.698  26.163  1.00  0.00     0.001 A 
ATOM     12  C   UNL A   1      30.566  26.550  24.211  1.00  0.00    -0.018 A 
ATOM     13  C   UNL A   1      31.029  26.724  25.521  1.00  0.00     0.009 A 
BRANCH  12  14
ATOM     14  C   UNL A   1      29.855  27.629  23.501  1.00  0.00    -0.011 A 
ATOM     15  C   UNL A   1      30.547  28.645  22.732  1.00  0.00     0.027 A 
ATOM     16  C   UNL A   1      28.518  27.699  23.623  1.00  0.00     0.080 A 
ATOM     17  C   UNL A   1      29.871  29.656  22.178  1.00  0.00     0.095 A 
ATOM     18  C   UNL A   1      27.749  28.804  22.992  1.00  0.00     0.255 A 
ATOM     19  N   UNL A   1      28.497  29.748  22.307  1.00  0.00    -0.258 N 
ATOM     20  O   UNL A   1      26.528  28.821  23.122  1.00  0.00    -0.269 OA
BRANCH  19  21
ATOM     21  C   UNL A   1      27.782  30.858  21.736  1.00  0.00     0.451 C 
ATOM     22  F   UNL A   1      28.210  32.037  22.248  1.00  0.00    -0.185 F 
ATOM     23  F   UNL A   1      27.945  30.902  20.390  1.00  0.00    -0.185 F 
ENDBRANCH  19  21
ENDBRANCH  12  14
ENDBRANCH   7   8
ENDBRANCH   5   7
ENDBRANCH   2   3
ENDBRANCH   1   2
BRANCH   1  24
ATOM     24  C   UNL A   1      36.756  21.966  25.149  1.00  0.00     0.118 C 
BRANCH  24  25
ATOM     25  N   UNL A   1      37.710  20.889  25.376  1.00  0.00    -0.352 N 
ATOM     26  C   UNL A   1      38.958  20.943  25.955  1.00  0.00     0.251 C 
ATOM     27  H   UNL A   1      37.423  19.998  25.073  1.00  0.00     0.163 HD
ATOM     28  O   UNL A   1      39.670  19.943  25.969  1.00  0.00    -0.269 OA
BRANCH  26  29
ATOM     29  C   UNL A   1      39.456  22.215  26.524  1.00  0.00     0.039 A 
ATOM     30  C   UNL A   1      40.491  22.173  27.463  1.00  0.00     0.014 A 
ATOM     31  C   UNL A   1      38.933  23.445  26.113  1.00  0.00     0.014 A 
ATOM     32  C   UNL A   1      41.062  23.364  27.919  1.00  0.00     0.010 A 
ATOM     33  C   UNL A   1      39.549  24.628  26.516  1.00  0.00     0.010 A 
ATOM     34  C   UNL A   1      40.629  24.601  27.412  1.00  0.00    -0.014 A 
BRANCH  34  35
ATOM     35  C   UNL A   1      41.329  25.867  27.757  1.00  0.00     0.031 A 
ATOM     36  C   UNL A   1      40.607  26.970  28.483  1.00  0.00     0.074 A 
ATOM     37  C   UNL A   1      42.591  26.066  27.325  1.00  0.00     0.049 A 
ATOM     38  N   UNL A   1      41.032  28.167  28.794  1.00  0.00    -0.248 NA
ATOM     39  C   UNL A   1      39.218  26.702  28.890  1.00  0.00     0.031 C 
ATOM     40  C   UNL A   1      43.379  25.107  26.547  1.00  0.00     0.029 A 
ATOM     41  N   UNL A   1      43.422  27.152  27.449  1.00  0.00    -0.354 N 
ATOM     42  C   UNL A   1      39.959  28.807  29.403  1.00  0.00     0.074 A 
ATOM     43  C   UNL A   1      38.852  27.874  29.391  1.00  0.00     0.031 C 
ATOM     44  C   UNL A   1      44.574  25.647  26.261  1.00  0.00     0.029 A 
ATOM     45  C   UNL A   1      44.627  27.001  26.802  1.00  0.00     0.049 A 
ATOM     46  H   UNL A   1      43.179  27.962  27.953  1.00  0.00     0.167 HD
ATOM     47  C   UNL A   1      39.905  30.049  29.943  1.00  0.00     0.034 A 
ATOM     48  C   UNL A   1      45.655  27.859  26.645  1.00  0.00     0.034 A 
ATOM     49  C   UNL A   1      41.015  30.963  29.985  1.00  0.00     0.049 A 
ATOM     50  C   UNL A   1      45.575  29.225  27.272  1.00  0.00     0.074 A 
ATOM     51  C   UNL A   1      41.082  32.204  30.594  1.00  0.00     0.029 A 
ATOM     52  N   UNL A   1      42.245  30.745  29.385  1.00  0.00    -0.354 N 
ATOM     53  N   UNL A   1      44.610  29.749  27.987  1.00  0.00    -0.248 NA
ATOM     54  C   UNL A   1      46.739  30.106  27.096  1.00  0.00     0.031 C 
ATOM     55  C   UNL A   1      42.344  32.751  30.337  1.00  0.00     0.029 A 
ATOM     56  C   UNL A   1      43.072  31.837  29.593  1.00  0.00     0.049 A 
ATOM     57  H   UNL A   1      42.495  29.936  28.886  1.00  0.00     0.167 HD
ATOM     58  C   UNL A   1      45.060  31.006  28.371  1.00  0.00     0.074 A 
ATOM     59  C   UNL A   1      46.395  31.155  27.831  1.00  0.00     0.031 C 
ATOM     60  C   UNL A   1      44.418  31.960  29.091  1.00  0.00     0.034 A 
BRANCH  47  61
ATOM     61  C   UNL A   1      38.609  30.477  30.581  1.00  0.00     0.023 A 
ATOM     62  C   UNL A   1      38.388  30.214  31.949  1.00  0.00     0.012 A 
ATOM     63  C   UNL A   1      37.642  31.196  29.852  1.00  0.00     0.148 A 
ATOM     64  C   UNL A   1      37.211  30.629  32.572  1.00  0.00     0.002 A 
ATOM     65  C   UNL A   1      36.492  31.645  30.490  1.00  0.00     0.091 A 
ATOM     66  F   UNL A   1      37.861  31.420  28.549  1.00  0.00    -0.205 F 
ATOM     67  C   UNL A   1      36.270  31.352  31.846  1.00  0.00     0.022 A 
BRANCH  65  68
ATOM     68  S   UNL A   1      35.254  32.651  29.664  1.00  0.00     0.127 S 
ATOM     69  O   UNL A   1      34.760  31.729  28.642  1.00  0.00    -0.237 OA
ATOM     70  O   UNL A   1      34.308  32.927  30.746  1.00  0.00    -0.237 OA
ATOM     71  O   UNL A   1      35.959  33.821  29.160  1.00  0.00    -0.744 OA
ENDBRANCH  65  68
ENDBRANCH  47  61
BRANCH  48  72
ATOM     72  C   UNL A   1      46.873  27.433  25.899  1.00  0.00     0.023 A 
ATOM     73  C   UNL A   1      46.981  27.728  24.526  1.00  0.00     0.012 A 
ATOM     74  C   UNL A   1      47.930  26.761  26.542  1.00  0.00     0.148 A 
ATOM     75  C   UNL A   1      48.106  27.334  23.800  1.00  0.00     0.002 A 
ATOM     76  C   UNL A   1      49.072  26.422  25.826  1.00  0.00     0.091 A 
ATOM     77  F   UNL A   1      47.802  26.477  27.847  1.00  0.00    -0.205 F 
ATOM     78  C   UNL A   1      49.155  26.692  24.452  1.00  0.00     0.022 A 
BRANCH  76  79
ATOM     79  S   UNL A   1      50.525  25.714  26.611  1.00  0.00     0.127 S 
ATOM     80  O   UNL A   1      51.426  25.546  25.473  1.00  0.00    -0.237 OA
ATOM     81  O   UNL A   1      50.905  26.769  27.550  1.00  0.00    -0.237 OA
ATOM     82  O   UNL A   1      50.068  24.483  27.244  1.00  0.00    -0.744 OA
ENDBRANCH  76  79
ENDBRANCH  48  72
BRANCH  60  83
ATOM     83  C   UNL A   1      45.155  33.246  29.362  1.00  0.00     0.023 A 
ATOM     84  C   UNL A   1      45.948  33.366  30.520  1.00  0.00     0.012 A 
ATOM     85  C   UNL A   1      45.116  34.309  28.438  1.00  0.00     0.148 A 
ATOM     86  C   UNL A   1      46.667  34.535  30.770  1.00  0.00     0.002 A 
ATOM     87  C   UNL A   1      45.873  35.452  28.670  1.00  0.00     0.091 A 
ATOM     88  F   UNL A   1      44.340  34.183  27.351  1.00  0.00    -0.205 F 
ATOM     89  C   UNL A   1      46.639  35.572  29.840  1.00  0.00     0.022 A 
BRANCH  87  90
ATOM     90  S   UNL A   1      45.973  36.799  27.485  1.00  0.00     0.127 S 
ATOM     91  O   UNL A   1      46.526  36.124  26.313  1.00  0.00    -0.237 OA
ATOM     92  O   UNL A   1      44.573  37.202  27.355  1.00  0.00    -0.237 OA
ATOM     93  O   UNL A   1      46.837  37.804  28.091  1.00  0.00    -0.744 OA
ENDBRANCH  87  90
ENDBRANCH  60  83
ENDBRANCH  34  35
ENDBRANCH  26  29
ENDBRANCH  24  25
ENDBRANCH   1  24
TORSDOF 16
ENDMDL
