MODEL 1
REMARK VINA RESULT:     -11.5      0.000      0.000
REMARK SMILES CCc1cc(OC(F)(F)F)cc2c1O[C@@H](C(F)(F)F)C(C(=O)NCCCNC(=O)c1ccc(-c3c4nc(c(-c5cccc(S(=O)(=O)[O-])c5F)c5ccc([nH]5)c(-c5cccc(S(=O)(=O)[O-])c5F)c5nc(c(-c6cccc(S(=O)(=O)[O-])c6F)c6ccc3[nH]6)C=C5)C=C4)cc1)=C2
REMARK SMILES IDX 25 1 24 2 23 3 21 4 22 5 20 7 3 8 4 9 13 10 5 11 12 12 14 13
REMARK SMILES IDX 11 14 93 15 15 16 2 17 1 18 6 19 7 20 8 21 9 22 10 23 16 24
REMARK SMILES IDX 17 25 18 26 19 27 26 28 27 29 28 30 29 32 30 33 31 34 92 35
REMARK SMILES IDX 32 36 91 37 33 38 34 39 35 40 85 41 36 42 90 43 84 44 86 45
REMARK SMILES IDX 37 46 89 47 83 48 82 49 38 51 70 52 50 53 69 54 51 55 54 56
REMARK SMILES IDX 68 57 87 58 52 59 53 60 67 62 88 63 55 64 39 65 40 66 48 67
REMARK SMILES IDX 41 68 43 69 49 70 42 71 44 72 45 73 46 74 47 75 71 76 72 77
REMARK SMILES IDX 80 78 73 79 75 80 81 81 74 82 76 83 77 84 78 85 79 86 56 87
REMARK SMILES IDX 57 88 65 89 58 90 60 91 66 92 59 93 61 94 62 95 63 96 64 97
REMARK H PARENT 23 6 27 31 86 50 54 61
REMARK Flexibility Score: inf
ROOT
ATOM      1  C   UNL A   1      36.913  23.354  23.883  1.00  0.00     0.042 C 
ENDROOT
BRANCH   1   2
ATOM      2  C   UNL A   1      35.512  22.965  23.408  1.00  0.00     0.118 C 
BRANCH   2   3
ATOM      3  N   UNL A   1      34.768  22.316  24.476  1.00  0.00    -0.352 N 
ATOM      4  C   UNL A   1      33.833  22.763  25.353  1.00  0.00     0.251 C 
ATOM      5  O   UNL A   1      33.474  22.001  26.247  1.00  0.00    -0.270 OA
ATOM      6  H   UNL A   1      34.988  21.363  24.586  1.00  0.00     0.163 HD
BRANCH   4   7
ATOM      7  C   UNL A   1      33.171  24.085  25.219  1.00  0.00     0.067 C 
ATOM      8  C   UNL A   1      31.239  27.737  24.383  1.00  0.00    -0.002 A 
ATOM      9  C   UNL A   1      31.822  28.923  24.886  1.00  0.00     0.054 A 
ATOM     10  C   UNL A   1      31.873  26.516  24.666  1.00  0.00     0.131 A 
ATOM     11  C   UNL A   1      32.985  28.898  25.657  1.00  0.00     0.130 A 
ATOM     12  C   UNL A   1      33.022  26.481  25.463  1.00  0.00     0.021 A 
ATOM     13  O   UNL A   1      31.406  25.383  24.068  1.00  0.00    -0.475 OA
ATOM     14  C   UNL A   1      33.570  27.669  25.955  1.00  0.00     0.058 A 
ATOM     15  C   UNL A   1      33.709  25.217  25.693  1.00  0.00     0.025 C 
ATOM     16  C   UNL A   1      31.758  24.098  24.655  1.00  0.00     0.314 C 
BRANCH   8  17
ATOM     17  C   UNL A   1      29.988  27.911  23.543  1.00  0.00     0.036 C 
ATOM     18  C   UNL A   1      30.073  28.635  22.207  1.00  0.00     0.009 C 
ENDBRANCH   8  17
BRANCH  11  19
ATOM     19  O   UNL A   1      33.657  29.976  26.157  1.00  0.00    -0.406 OA
BRANCH  19  20
ATOM     20  C   UNL A   1      33.141  30.603  27.317  1.00  0.00     0.573 C 
ATOM     21  F   UNL A   1      34.124  30.871  28.206  1.00  0.00    -0.132 F 
ATOM     22  F   UNL A   1      32.496  31.747  27.006  1.00  0.00    -0.132 F 
ATOM     23  F   UNL A   1      32.262  29.768  27.913  1.00  0.00    -0.132 F 
ENDBRANCH  19  20
ENDBRANCH  11  19
BRANCH  16  24
ATOM     24  C   UNL A   1      31.403  23.024  23.600  1.00  0.00     0.429 C 
ATOM     25  F   UNL A   1      32.334  22.905  22.628  1.00  0.00    -0.167 F 
ATOM     26  F   UNL A   1      31.331  21.791  24.176  1.00  0.00    -0.167 F 
ATOM     27  F   UNL A   1      30.201  23.246  23.018  1.00  0.00    -0.167 F 
ENDBRANCH  16  24
ENDBRANCH   4   7
ENDBRANCH   2   3
ENDBRANCH   1   2
BRANCH   1  28
ATOM     28  C   UNL A   1      37.027  23.466  25.402  1.00  0.00     0.118 C 
BRANCH  28  29
ATOM     29  N   UNL A   1      37.976  22.505  25.944  1.00  0.00    -0.352 N 
ATOM     30  C   UNL A   1      39.188  22.716  26.550  1.00  0.00     0.251 C 
ATOM     31  H   UNL A   1      37.707  21.562  25.863  1.00  0.00     0.163 HD
ATOM     32  O   UNL A   1      39.950  21.767  26.715  1.00  0.00    -0.269 OA
BRANCH  30  33
ATOM     33  C   UNL A   1      39.581  24.069  27.003  1.00  0.00     0.039 A 
ATOM     34  C   UNL A   1      39.333  24.434  28.330  1.00  0.00     0.014 A 
ATOM     35  C   UNL A   1      40.141  24.993  26.117  1.00  0.00     0.014 A 
ATOM     36  C   UNL A   1      39.683  25.710  28.777  1.00  0.00     0.010 A 
ATOM     37  C   UNL A   1      40.554  26.239  26.582  1.00  0.00     0.010 A 
ATOM     38  C   UNL A   1      40.316  26.616  27.912  1.00  0.00    -0.014 A 
BRANCH  38  39
ATOM     39  C   UNL A   1      40.745  27.958  28.381  1.00  0.00     0.031 A 
ATOM     40  C   UNL A   1      42.204  28.273  28.562  1.00  0.00     0.074 A 
ATOM     41  C   UNL A   1      39.813  28.861  28.741  1.00  0.00     0.049 A 
ATOM     42  N   UNL A   1      42.762  29.366  29.015  1.00  0.00    -0.248 NA
ATOM     43  C   UNL A   1      43.161  27.209  28.220  1.00  0.00     0.031 C 
ATOM     44  C   UNL A   1      38.366  28.638  28.704  1.00  0.00     0.029 A 
ATOM     45  N   UNL A   1      39.942  30.130  29.245  1.00  0.00    -0.354 N 
ATOM     46  C   UNL A   1      44.127  29.109  29.054  1.00  0.00     0.074 A 
ATOM     47  C   UNL A   1      44.310  27.744  28.609  1.00  0.00     0.031 C 
ATOM     48  C   UNL A   1      37.742  29.728  29.175  1.00  0.00     0.029 A 
ATOM     49  C   UNL A   1      38.741  30.717  29.569  1.00  0.00     0.049 A 
ATOM     50  H   UNL A   1      40.811  30.578  29.364  1.00  0.00     0.167 HD
ATOM     51  C   UNL A   1      45.139  29.939  29.401  1.00  0.00     0.034 A 
ATOM     52  C   UNL A   1      38.473  31.912  30.131  1.00  0.00     0.034 A 
ATOM     53  C   UNL A   1      44.953  31.309  29.801  1.00  0.00     0.049 A 
ATOM     54  C   UNL A   1      39.607  32.845  30.444  1.00  0.00     0.074 A 
ATOM     55  C   UNL A   1      45.915  32.269  30.061  1.00  0.00     0.029 A 
ATOM     56  N   UNL A   1      43.721  31.910  30.013  1.00  0.00    -0.354 N 
ATOM     57  N   UNL A   1      40.897  32.651  30.298  1.00  0.00    -0.248 NA
ATOM     58  C   UNL A   1      39.255  34.175  30.959  1.00  0.00     0.031 C 
ATOM     59  C   UNL A   1      45.264  33.444  30.454  1.00  0.00     0.029 A 
ATOM     60  C   UNL A   1      43.896  33.223  30.415  1.00  0.00     0.049 A 
ATOM     61  H   UNL A   1      42.850  31.468  29.895  1.00  0.00     0.167 HD
ATOM     62  C   UNL A   1      41.508  33.840  30.678  1.00  0.00     0.074 A 
ATOM     63  C   UNL A   1      40.445  34.757  31.040  1.00  0.00     0.031 C 
ATOM     64  C   UNL A   1      42.829  34.140  30.735  1.00  0.00     0.034 A 
BRANCH  51  65
ATOM     65  C   UNL A   1      46.544  29.396  29.316  1.00  0.00     0.023 A 
ATOM     66  C   UNL A   1      47.114  28.761  30.439  1.00  0.00     0.012 A 
ATOM     67  C   UNL A   1      47.290  29.490  28.126  1.00  0.00     0.148 A 
ATOM     68  C   UNL A   1      48.421  28.275  30.395  1.00  0.00     0.002 A 
ATOM     69  C   UNL A   1      48.575  28.962  28.075  1.00  0.00     0.091 A 
ATOM     70  F   UNL A   1      46.745  30.117  27.074  1.00  0.00    -0.205 F 
ATOM     71  C   UNL A   1      49.148  28.367  29.211  1.00  0.00     0.022 A 
BRANCH  69  72
ATOM     72  S   UNL A   1      49.555  28.963  26.569  1.00  0.00     0.127 S 
ATOM     73  O   UNL A   1      50.617  28.016  26.907  1.00  0.00    -0.237 OA
ATOM     74  O   UNL A   1      48.599  28.474  25.575  1.00  0.00    -0.237 OA
ATOM     75  O   UNL A   1      49.977  30.342  26.372  1.00  0.00    -0.744 OA
ENDBRANCH  69  72
ENDBRANCH  51  65
BRANCH  52  76
ATOM     76  C   UNL A   1      37.054  32.303  30.359  1.00  0.00     0.023 A 
ATOM     77  C   UNL A   1      36.447  32.017  31.597  1.00  0.00     0.012 A 
ATOM     78  C   UNL A   1      36.335  33.032  29.391  1.00  0.00     0.148 A 
ATOM     79  C   UNL A   1      35.144  32.438  31.862  1.00  0.00     0.002 A 
ATOM     80  C   UNL A   1      35.059  33.497  29.683  1.00  0.00     0.091 A 
ATOM     81  F   UNL A   1      36.933  33.288  28.219  1.00  0.00    -0.205 F 
ATOM     82  C   UNL A   1      34.455  33.189  30.912  1.00  0.00     0.022 A 
BRANCH  80  83
ATOM     83  S   UNL A   1      34.154  34.593  28.583  1.00  0.00     0.127 S 
ATOM     84  O   UNL A   1      34.337  33.938  27.291  1.00  0.00    -0.237 OA
ATOM     85  O   UNL A   1      32.800  34.515  29.131  1.00  0.00    -0.237 OA
ATOM     86  O   UNL A   1      34.783  35.900  28.722  1.00  0.00    -0.744 OA
ENDBRANCH  80  83
ENDBRANCH  52  76
BRANCH  64  87
ATOM     87  C   UNL A   1      43.212  35.524  31.190  1.00  0.00     0.023 A 
ATOM     88  C   UNL A   1      43.378  35.787  32.564  1.00  0.00     0.012 A 
ATOM     89  C   UNL A   1      43.484  36.541  30.253  1.00  0.00     0.148 A 
ATOM     90  C   UNL A   1      43.780  37.050  33.000  1.00  0.00     0.002 A 
ATOM     91  C   UNL A   1      43.930  37.782  30.692  1.00  0.00     0.091 A 
ATOM     92  F   UNL A   1      43.300  36.277  28.951  1.00  0.00    -0.205 F 
ATOM     93  C   UNL A   1      44.067  38.042  32.065  1.00  0.00     0.022 A 
BRANCH  91  94
ATOM     94  S   UNL A   1      44.413  39.087  29.557  1.00  0.00     0.127 S 
ATOM     95  O   UNL A   1      44.982  40.079  30.467  1.00  0.00    -0.237 OA
ATOM     96  O   UNL A   1      45.391  38.411  28.703  1.00  0.00    -0.237 OA
ATOM     97  O   UNL A   1      43.194  39.493  28.871  1.00  0.00    -0.744 OA
ENDBRANCH  91  94
ENDBRANCH  64  87
ENDBRANCH  38  39
ENDBRANCH  30  33
ENDBRANCH  28  29
ENDBRANCH   1  28
TORSDOF 17
ENDMDL
MODEL 2
REMARK VINA RESULT:     -11.3      4.826      9.952
REMARK SMILES CCc1cc(OC(F)(F)F)cc2c1O[C@@H](C(F)(F)F)C(C(=O)NCCCNC(=O)c1ccc(-c3c4nc(c(-c5cccc(S(=O)(=O)[O-])c5F)c5ccc([nH]5)c(-c5cccc(S(=O)(=O)[O-])c5F)c5nc(c(-c6cccc(S(=O)(=O)[O-])c6F)c6ccc3[nH]6)C=C5)C=C4)cc1)=C2
REMARK SMILES IDX 25 1 24 2 23 3 21 4 22 5 20 7 3 8 4 9 13 10 5 11 12 12 14 13
REMARK SMILES IDX 11 14 93 15 15 16 2 17 1 18 6 19 7 20 8 21 9 22 10 23 16 24
REMARK SMILES IDX 17 25 18 26 19 27 26 28 27 29 28 30 29 32 30 33 31 34 92 35
REMARK SMILES IDX 32 36 91 37 33 38 34 39 35 40 85 41 36 42 90 43 84 44 86 45
REMARK SMILES IDX 37 46 89 47 83 48 82 49 38 51 70 52 50 53 69 54 51 55 54 56
REMARK SMILES IDX 68 57 87 58 52 59 53 60 67 62 88 63 55 64 39 65 40 66 48 67
REMARK SMILES IDX 41 68 43 69 49 70 42 71 44 72 45 73 46 74 47 75 71 76 72 77
REMARK SMILES IDX 80 78 73 79 75 80 81 81 74 82 76 83 77 84 78 85 79 86 56 87
REMARK SMILES IDX 57 88 65 89 58 90 60 91 66 92 59 93 61 94 62 95 63 96 64 97
REMARK H PARENT 23 6 27 31 86 50 54 61
REMARK Flexibility Score: inf
ROOT
ATOM      1  C   UNL A   1      32.125  28.629  26.379  1.00  0.00     0.042 C 
ENDROOT
BRANCH   1   2
ATOM      2  C   UNL A   1      31.644  27.214  26.704  1.00  0.00     0.118 C 
BRANCH   2   3
ATOM      3  N   UNL A   1      30.705  26.746  25.696  1.00  0.00    -0.352 N 
ATOM      4  C   UNL A   1      30.749  25.732  24.794  1.00  0.00     0.251 C 
ATOM      5  O   UNL A   1      29.845  25.661  23.966  1.00  0.00    -0.270 OA
ATOM      6  H   UNL A   1      29.872  27.269  25.661  1.00  0.00     0.163 HD
BRANCH   4   7
ATOM      7  C   UNL A   1      31.785  24.670  24.828  1.00  0.00     0.067 C 
ATOM      8  C   UNL A   1      34.831  21.777  24.485  1.00  0.00    -0.002 A 
ATOM      9  C   UNL A   1      34.542  20.459  24.910  1.00  0.00     0.054 A 
ATOM     10  C   UNL A   1      33.824  22.747  24.606  1.00  0.00     0.131 A 
ATOM     11  C   UNL A   1      33.301  20.119  25.450  1.00  0.00     0.130 A 
ATOM     12  C   UNL A   1      32.588  22.420  25.174  1.00  0.00     0.021 A 
ATOM     13  O   UNL A   1      34.038  23.981  24.069  1.00  0.00    -0.475 OA
ATOM     14  C   UNL A   1      32.334  21.112  25.594  1.00  0.00     0.058 A 
ATOM     15  C   UNL A   1      31.527  23.418  25.231  1.00  0.00     0.025 C 
ATOM     16  C   UNL A   1      33.218  25.090  24.538  1.00  0.00     0.314 C 
BRANCH   8  17
ATOM     17  C   UNL A   1      36.212  22.001  23.899  1.00  0.00     0.036 C 
ATOM     18  C   UNL A   1      37.433  21.439  24.614  1.00  0.00     0.009 C 
ENDBRANCH   8  17
BRANCH  11  19
ATOM     19  O   UNL A   1      32.897  18.878  25.852  1.00  0.00    -0.406 OA
BRANCH  19  20
ATOM     20  C   UNL A   1      32.738  17.877  24.864  1.00  0.00     0.573 C 
ATOM     21  F   UNL A   1      32.156  18.376  23.750  1.00  0.00    -0.132 F 
ATOM     22  F   UNL A   1      33.926  17.325  24.536  1.00  0.00    -0.132 F 
ATOM     23  F   UNL A   1      31.937  16.904  25.348  1.00  0.00    -0.132 F 
ENDBRANCH  19  20
ENDBRANCH  11  19
BRANCH  16  24
ATOM     24  C   UNL A   1      33.430  26.246  23.533  1.00  0.00     0.429 C 
ATOM     25  F   UNL A   1      32.274  26.812  23.121  1.00  0.00    -0.167 F 
ATOM     26  F   UNL A   1      34.136  27.260  24.109  1.00  0.00    -0.167 F 
ATOM     27  F   UNL A   1      34.133  25.862  22.441  1.00  0.00    -0.167 F 
ENDBRANCH  16  24
ENDBRANCH   4   7
ENDBRANCH   2   3
ENDBRANCH   1   2
BRANCH   1  28
ATOM     28  C   UNL A   1      33.364  29.043  27.171  1.00  0.00     0.118 C 
BRANCH  28  29
ATOM     29  N   UNL A   1      33.461  30.489  27.302  1.00  0.00    -0.352 N 
ATOM     30  C   UNL A   1      34.387  31.249  27.970  1.00  0.00     0.251 C 
ATOM     31  H   UNL A   1      32.756  30.998  26.841  1.00  0.00     0.163 HD
ATOM     32  O   UNL A   1      34.157  32.439  28.167  1.00  0.00    -0.269 OA
BRANCH  30  33
ATOM     33  C   UNL A   1      35.651  30.649  28.450  1.00  0.00     0.039 A 
ATOM     34  C   UNL A   1      36.803  30.787  27.669  1.00  0.00     0.014 A 
ATOM     35  C   UNL A   1      35.696  29.910  29.635  1.00  0.00     0.014 A 
ATOM     36  C   UNL A   1      38.005  30.218  28.095  1.00  0.00     0.010 A 
ATOM     37  C   UNL A   1      36.910  29.405  30.094  1.00  0.00     0.010 A 
ATOM     38  C   UNL A   1      38.073  29.541  29.322  1.00  0.00    -0.014 A 
BRANCH  38  39
ATOM     39  C   UNL A   1      39.352  28.974  29.820  1.00  0.00     0.031 A 
ATOM     40  C   UNL A   1      40.101  29.646  30.938  1.00  0.00     0.074 A 
ATOM     41  C   UNL A   1      39.892  27.910  29.195  1.00  0.00     0.049 A 
ATOM     42  N   UNL A   1      41.256  29.330  31.464  1.00  0.00    -0.248 NA
ATOM     43  C   UNL A   1      39.485  30.848  31.521  1.00  0.00     0.031 C 
ATOM     44  C   UNL A   1      39.310  27.231  28.035  1.00  0.00     0.029 A 
ATOM     45  N   UNL A   1      41.066  27.239  29.420  1.00  0.00    -0.354 N 
ATOM     46  C   UNL A   1      41.527  30.316  32.406  1.00  0.00     0.074 A 
ATOM     47  C   UNL A   1      40.430  31.257  32.356  1.00  0.00     0.031 C 
ATOM     48  C   UNL A   1      40.134  26.247  27.645  1.00  0.00     0.029 A 
ATOM     49  C   UNL A   1      41.311  26.239  28.508  1.00  0.00     0.049 A 
ATOM     50  H   UNL A   1      41.676  27.452  30.164  1.00  0.00     0.167 HD
ATOM     51  C   UNL A   1      42.579  30.414  33.254  1.00  0.00     0.034 A 
ATOM     52  C   UNL A   1      42.368  25.415  28.373  1.00  0.00     0.034 A 
ATOM     53  C   UNL A   1      43.644  29.450  33.329  1.00  0.00     0.049 A 
ATOM     54  C   UNL A   1      43.491  25.496  29.367  1.00  0.00     0.074 A 
ATOM     55  C   UNL A   1      44.693  29.393  34.229  1.00  0.00     0.029 A 
ATOM     56  N   UNL A   1      43.805  28.381  32.459  1.00  0.00    -0.354 N 
ATOM     57  N   UNL A   1      43.641  26.323  30.374  1.00  0.00    -0.248 NA
ATOM     58  C   UNL A   1      44.571  24.508  29.237  1.00  0.00     0.031 C 
ATOM     59  C   UNL A   1      45.502  28.303  33.888  1.00  0.00     0.029 A 
ATOM     60  C   UNL A   1      44.943  27.666  32.791  1.00  0.00     0.049 A 
ATOM     61  H   UNL A   1      43.198  28.163  31.716  1.00  0.00     0.167 HD
ATOM     62  C   UNL A   1      44.815  25.942  31.012  1.00  0.00     0.074 A 
ATOM     63  C   UNL A   1      45.326  24.793  30.290  1.00  0.00     0.031 C 
ATOM     64  C   UNL A   1      45.421  26.500  32.089  1.00  0.00     0.034 A 
BRANCH  51  65
ATOM     65  C   UNL A   1      42.597  31.586  34.204  1.00  0.00     0.023 A 
ATOM     66  C   UNL A   1      43.149  32.815  33.783  1.00  0.00     0.012 A 
ATOM     67  C   UNL A   1      42.052  31.484  35.498  1.00  0.00     0.148 A 
ATOM     68  C   UNL A   1      43.203  33.905  34.652  1.00  0.00     0.002 A 
ATOM     69  C   UNL A   1      42.067  32.589  36.342  1.00  0.00     0.091 A 
ATOM     70  F   UNL A   1      41.552  30.304  35.893  1.00  0.00    -0.205 F 
ATOM     71  C   UNL A   1      42.655  33.795  35.926  1.00  0.00     0.022 A 
BRANCH  69  72
ATOM     72  S   UNL A   1      41.311  32.564  37.971  1.00  0.00     0.127 S 
ATOM     73  O   UNL A   1      42.134  31.573  38.663  1.00  0.00    -0.237 OA
ATOM     74  O   UNL A   1      41.507  33.941  38.427  1.00  0.00    -0.237 OA
ATOM     75  O   UNL A   1      39.920  32.193  37.756  1.00  0.00    -0.744 OA
ENDBRANCH  69  72
ENDBRANCH  51  65
BRANCH  52  76
ATOM     76  C   UNL A   1      42.361  24.399  27.284  1.00  0.00     0.023 A 
ATOM     77  C   UNL A   1      43.001  24.687  26.063  1.00  0.00     0.012 A 
ATOM     78  C   UNL A   1      41.802  23.122  27.484  1.00  0.00     0.148 A 
ATOM     79  C   UNL A   1      43.071  23.725  25.056  1.00  0.00     0.002 A 
ATOM     80  C   UNL A   1      41.925  22.150  26.499  1.00  0.00     0.091 A 
ATOM     81  F   UNL A   1      41.194  22.873  28.653  1.00  0.00    -0.205 F 
ATOM     82  C   UNL A   1      42.546  22.454  25.277  1.00  0.00     0.022 A 
BRANCH  80  83
ATOM     83  S   UNL A   1      41.413  20.447  26.750  1.00  0.00     0.127 S 
ATOM     84  O   UNL A   1      39.968  20.588  26.905  1.00  0.00    -0.237 OA
ATOM     85  O   UNL A   1      41.842  19.817  25.501  1.00  0.00    -0.237 OA
ATOM     86  O   UNL A   1      42.131  19.987  27.932  1.00  0.00    -0.744 OA
ENDBRANCH  80  83
ENDBRANCH  52  76
BRANCH  64  87
ATOM     87  C   UNL A   1      46.702  25.872  32.573  1.00  0.00     0.023 A 
ATOM     88  C   UNL A   1      47.939  26.358  32.105  1.00  0.00     0.012 A 
ATOM     89  C   UNL A   1      46.682  24.856  33.549  1.00  0.00     0.148 A 
ATOM     90  C   UNL A   1      49.136  25.821  32.579  1.00  0.00     0.002 A 
ATOM     91  C   UNL A   1      47.879  24.359  34.052  1.00  0.00     0.091 A 
ATOM     92  F   UNL A   1      45.495  24.392  33.966  1.00  0.00    -0.205 F 
ATOM     93  C   UNL A   1      49.106  24.831  33.560  1.00  0.00     0.022 A 
BRANCH  91  94
ATOM     94  S   UNL A   1      47.937  23.153  35.382  1.00  0.00     0.127 S 
ATOM     95  O   UNL A   1      49.283  23.357  35.911  1.00  0.00    -0.237 OA
ATOM     96  O   UNL A   1      46.860  23.608  36.262  1.00  0.00    -0.237 OA
ATOM     97  O   UNL A   1      47.698  21.858  34.758  1.00  0.00    -0.744 OA
ENDBRANCH  91  94
ENDBRANCH  64  87
ENDBRANCH  38  39
ENDBRANCH  30  33
ENDBRANCH  28  29
ENDBRANCH   1  28
TORSDOF 17
ENDMDL
MODEL 3
REMARK VINA RESULT:     -11.1      4.911      9.612
REMARK SMILES CCc1cc(OC(F)(F)F)cc2c1O[C@@H](C(F)(F)F)C(C(=O)NCCCNC(=O)c1ccc(-c3c4nc(c(-c5cccc(S(=O)(=O)[O-])c5F)c5ccc([nH]5)c(-c5cccc(S(=O)(=O)[O-])c5F)c5nc(c(-c6cccc(S(=O)(=O)[O-])c6F)c6ccc3[nH]6)C=C5)C=C4)cc1)=C2
REMARK SMILES IDX 25 1 24 2 23 3 21 4 22 5 20 7 3 8 4 9 13 10 5 11 12 12 14 13
REMARK SMILES IDX 11 14 93 15 15 16 2 17 1 18 6 19 7 20 8 21 9 22 10 23 16 24
REMARK SMILES IDX 17 25 18 26 19 27 26 28 27 29 28 30 29 32 30 33 31 34 92 35
REMARK SMILES IDX 32 36 91 37 33 38 34 39 35 40 85 41 36 42 90 43 84 44 86 45
REMARK SMILES IDX 37 46 89 47 83 48 82 49 38 51 70 52 50 53 69 54 51 55 54 56
REMARK SMILES IDX 68 57 87 58 52 59 53 60 67 62 88 63 55 64 39 65 40 66 48 67
REMARK SMILES IDX 41 68 43 69 49 70 42 71 44 72 45 73 46 74 47 75 71 76 72 77
REMARK SMILES IDX 80 78 73 79 75 80 81 81 74 82 76 83 77 84 78 85 79 86 56 87
REMARK SMILES IDX 57 88 65 89 58 90 60 91 66 92 59 93 61 94 62 95 63 96 64 97
REMARK H PARENT 23 6 27 31 86 50 54 61
REMARK Flexibility Score: inf
ROOT
ATOM      1  C   UNL A   1      32.196  29.327  24.483  1.00  0.00     0.042 C 
ENDROOT
BRANCH   1   2
ATOM      2  C   UNL A   1      33.019  28.949  23.250  1.00  0.00     0.118 C 
BRANCH   2   3
ATOM      3  N   UNL A   1      32.215  28.180  22.311  1.00  0.00    -0.352 N 
ATOM      4  C   UNL A   1      31.964  26.853  22.183  1.00  0.00     0.251 C 
ATOM      5  O   UNL A   1      31.341  26.479  21.193  1.00  0.00    -0.270 OA
ATOM      6  H   UNL A   1      31.764  28.734  21.634  1.00  0.00     0.163 HD
BRANCH   4   7
ATOM      7  C   UNL A   1      32.330  25.860  23.224  1.00  0.00     0.067 C 
ATOM      8  C   UNL A   1      33.157  23.326  26.489  1.00  0.00    -0.002 A 
ATOM      9  C   UNL A   1      34.474  22.825  26.621  1.00  0.00     0.054 A 
ATOM     10  C   UNL A   1      32.873  24.163  25.399  1.00  0.00     0.131 A 
ATOM     11  C   UNL A   1      35.470  23.132  25.693  1.00  0.00     0.130 A 
ATOM     12  C   UNL A   1      33.859  24.450  24.449  1.00  0.00     0.021 A 
ATOM     13  O   UNL A   1      31.653  24.767  25.340  1.00  0.00    -0.475 OA
ATOM     14  C   UNL A   1      35.148  23.933  24.599  1.00  0.00     0.058 A 
ATOM     15  C   UNL A   1      33.572  25.374  23.359  1.00  0.00     0.025 C 
ATOM     16  C   UNL A   1      31.196  25.276  24.054  1.00  0.00     0.314 C 
BRANCH   8  17
ATOM     17  C   UNL A   1      32.180  22.930  27.580  1.00  0.00     0.036 C 
ATOM     18  C   UNL A   1      30.721  22.675  27.227  1.00  0.00     0.009 C 
ENDBRANCH   8  17
BRANCH  11  19
ATOM     19  O   UNL A   1      36.778  22.744  25.740  1.00  0.00    -0.406 OA
BRANCH  19  20
ATOM     20  C   UNL A   1      37.152  21.576  25.031  1.00  0.00     0.573 C 
ATOM     21  F   UNL A   1      38.288  21.042  25.533  1.00  0.00    -0.132 F 
ATOM     22  F   UNL A   1      36.170  20.650  25.068  1.00  0.00    -0.132 F 
ATOM     23  F   UNL A   1      37.382  21.900  23.741  1.00  0.00    -0.132 F 
ENDBRANCH  19  20
ENDBRANCH  11  19
BRANCH  16  24
ATOM     24  C   UNL A   1      29.987  26.193  24.351  1.00  0.00     0.429 C 
ATOM     25  F   UNL A   1      30.338  27.478  24.582  1.00  0.00    -0.167 F 
ATOM     26  F   UNL A   1      29.147  26.242  23.279  1.00  0.00    -0.167 F 
ATOM     27  F   UNL A   1      29.249  25.755  25.398  1.00  0.00    -0.167 F 
ENDBRANCH  16  24
ENDBRANCH   4   7
ENDBRANCH   2   3
ENDBRANCH   1   2
BRANCH   1  28
ATOM     28  C   UNL A   1      33.053  29.720  25.684  1.00  0.00     0.118 C 
BRANCH  28  29
ATOM     29  N   UNL A   1      32.784  31.083  26.115  1.00  0.00    -0.352 N 
ATOM     30  C   UNL A   1      33.305  31.789  27.170  1.00  0.00     0.251 C 
ATOM     31  H   UNL A   1      32.130  31.573  25.567  1.00  0.00     0.163 HD
ATOM     32  O   UNL A   1      32.769  32.839  27.512  1.00  0.00    -0.269 OA
BRANCH  30  33
ATOM     33  C   UNL A   1      34.499  31.296  27.892  1.00  0.00     0.039 A 
ATOM     34  C   UNL A   1      35.596  32.149  28.043  1.00  0.00     0.014 A 
ATOM     35  C   UNL A   1      34.562  29.985  28.374  1.00  0.00     0.014 A 
ATOM     36  C   UNL A   1      36.739  31.702  28.710  1.00  0.00     0.010 A 
ATOM     37  C   UNL A   1      35.673  29.565  29.100  1.00  0.00     0.010 A 
ATOM     38  C   UNL A   1      36.778  30.413  29.263  1.00  0.00    -0.014 A 
BRANCH  38  39
ATOM     39  C   UNL A   1      37.962  29.936  30.021  1.00  0.00     0.031 A 
ATOM     40  C   UNL A   1      38.237  30.448  31.409  1.00  0.00     0.074 A 
ATOM     41  C   UNL A   1      38.847  29.116  29.420  1.00  0.00     0.049 A 
ATOM     42  N   UNL A   1      39.247  30.190  32.198  1.00  0.00    -0.248 NA
ATOM     43  C   UNL A   1      37.265  31.399  31.970  1.00  0.00     0.031 C 
ATOM     44  C   UNL A   1      38.741  28.629  28.044  1.00  0.00     0.029 A 
ATOM     45  N   UNL A   1      40.025  28.582  29.875  1.00  0.00    -0.354 N 
ATOM     46  C   UNL A   1      39.059  30.977  33.327  1.00  0.00     0.074 A 
ATOM     47  C   UNL A   1      37.853  31.746  33.107  1.00  0.00     0.031 C 
ATOM     48  C   UNL A   1      39.815  27.876  27.762  1.00  0.00     0.029 A 
ATOM     49  C   UNL A   1      40.696  27.846  28.926  1.00  0.00     0.049 A 
ATOM     50  H   UNL A   1      40.359  28.712  30.791  1.00  0.00     0.167 HD
ATOM     51  C   UNL A   1      39.804  31.035  34.457  1.00  0.00     0.034 A 
ATOM     52  C   UNL A   1      41.890  27.226  28.980  1.00  0.00     0.034 A 
ATOM     53  C   UNL A   1      40.977  30.235  34.688  1.00  0.00     0.049 A 
ATOM     54  C   UNL A   1      42.667  27.246  30.266  1.00  0.00     0.074 A 
ATOM     55  C   UNL A   1      41.737  30.132  35.840  1.00  0.00     0.029 A 
ATOM     56  N   UNL A   1      41.571  29.412  33.743  1.00  0.00    -0.354 N 
ATOM     57  N   UNL A   1      42.377  27.849  31.394  1.00  0.00    -0.248 NA
ATOM     58  C   UNL A   1      43.914  26.468  30.304  1.00  0.00     0.031 C 
ATOM     59  C   UNL A   1      42.804  29.264  35.582  1.00  0.00     0.029 A 
ATOM     60  C   UNL A   1      42.695  28.807  34.278  1.00  0.00     0.049 A 
ATOM     61  H   UNL A   1      41.241  29.276  32.825  1.00  0.00     0.167 HD
ATOM     62  C   UNL A   1      43.388  27.506  32.283  1.00  0.00     0.074 A 
ATOM     63  C   UNL A   1      44.287  26.622  31.568  1.00  0.00     0.031 C 
ATOM     64  C   UNL A   1      43.562  27.898  33.570  1.00  0.00     0.034 A 
BRANCH  51  65
ATOM     65  C   UNL A   1      39.338  31.966  35.549  1.00  0.00     0.023 A 
ATOM     66  C   UNL A   1      38.408  31.508  36.506  1.00  0.00     0.012 A 
ATOM     67  C   UNL A   1      39.834  33.281  35.645  1.00  0.00     0.148 A 
ATOM     68  C   UNL A   1      37.941  32.358  37.508  1.00  0.00     0.002 A 
ATOM     69  C   UNL A   1      39.399  34.107  36.676  1.00  0.00     0.091 A 
ATOM     70  F   UNL A   1      40.700  33.711  34.716  1.00  0.00    -0.205 F 
ATOM     71  C   UNL A   1      38.443  33.653  37.599  1.00  0.00     0.022 A 
BRANCH  69  72
ATOM     72  S   UNL A   1      40.051  35.764  36.919  1.00  0.00     0.127 S 
ATOM     73  O   UNL A   1      41.485  35.502  37.040  1.00  0.00    -0.237 OA
ATOM     74  O   UNL A   1      39.659  36.438  35.681  1.00  0.00    -0.237 OA
ATOM     75  O   UNL A   1      39.398  36.274  38.116  1.00  0.00    -0.744 OA
ENDBRANCH  69  72
ENDBRANCH  51  65
BRANCH  52  76
ATOM     76  C   UNL A   1      42.373  26.477  27.787  1.00  0.00     0.023 A 
ATOM     77  C   UNL A   1      43.299  27.083  26.917  1.00  0.00     0.012 A 
ATOM     78  C   UNL A   1      41.989  25.141  27.561  1.00  0.00     0.148 A 
ATOM     79  C   UNL A   1      43.822  26.377  25.834  1.00  0.00     0.002 A 
ATOM     80  C   UNL A   1      42.557  24.425  26.514  1.00  0.00     0.091 A 
ATOM     81  F   UNL A   1      41.103  24.587  28.402  1.00  0.00    -0.205 F 
ATOM     82  C   UNL A   1      43.463  25.045  25.640  1.00  0.00     0.022 A 
BRANCH  80  83
ATOM     83  S   UNL A   1      42.268  22.667  26.276  1.00  0.00     0.127 S 
ATOM     84  O   UNL A   1      42.790  22.107  27.519  1.00  0.00    -0.237 OA
ATOM     85  O   UNL A   1      40.812  22.620  26.140  1.00  0.00    -0.237 OA
ATOM     86  O   UNL A   1      42.996  22.307  25.067  1.00  0.00    -0.744 OA
ENDBRANCH  80  83
ENDBRANCH  52  76
BRANCH  64  87
ATOM     87  C   UNL A   1      44.763  27.363  34.305  1.00  0.00     0.023 A 
ATOM     88  C   UNL A   1      45.989  28.054  34.236  1.00  0.00     0.012 A 
ATOM     89  C   UNL A   1      44.656  26.224  35.128  1.00  0.00     0.148 A 
ATOM     90  C   UNL A   1      47.099  27.601  34.950  1.00  0.00     0.002 A 
ATOM     91  C   UNL A   1      45.753  25.807  35.874  1.00  0.00     0.091 A 
ATOM     92  F   UNL A   1      43.487  25.569  35.165  1.00  0.00    -0.205 F 
ATOM     93  C   UNL A   1      46.978  26.487  35.776  1.00  0.00     0.022 A 
BRANCH  91  94
ATOM     94  S   UNL A   1      45.662  24.441  37.036  1.00  0.00     0.127 S 
ATOM     95  O   UNL A   1      45.454  23.303  36.144  1.00  0.00    -0.237 OA
ATOM     96  O   UNL A   1      46.979  24.484  37.672  1.00  0.00    -0.237 OA
ATOM     97  O   UNL A   1      44.552  24.748  37.928  1.00  0.00    -0.744 OA
ENDBRANCH  91  94
ENDBRANCH  64  87
ENDBRANCH  38  39
ENDBRANCH  30  33
ENDBRANCH  28  29
ENDBRANCH   1  28
TORSDOF 17
ENDMDL
