MODEL 1
REMARK VINA RESULT:     -13.8      0.000      0.000
REMARK SMILES Cc1cccc(C[N@H+]2CC[C@@](C)(C(=O)NCCCNC(=O)c3ccc(-c4c5nc(c(-c6cccc(S(=O)(=O)[O-])c6F)c6ccc([nH]6)c(-c6cccc(S(=O)(=O)[O-])c6F)c6nc(c(-c7cccc(S(=O)(=O)[O-])c7F)c7ccc4[nH]7)C=C6)C=C5)cc3)C2)n1
REMARK SMILES IDX 17 1 16 2 15 3 13 4 14 5 11 7 8 8 9 9 85 10 10 12 12 13 7 14
REMARK SMILES IDX 6 15 1 16 2 17 3 18 86 19 4 20 5 21 18 22 19 23 20 24 21 26
REMARK SMILES IDX 22 27 23 28 84 29 24 30 83 31 25 32 26 33 27 34 77 35 28 36
REMARK SMILES IDX 82 37 76 38 78 39 29 40 81 41 75 42 74 43 30 45 62 46 42 47
REMARK SMILES IDX 61 48 43 49 46 50 60 51 79 52 44 53 45 54 59 56 80 57 47 58
REMARK SMILES IDX 31 59 32 60 40 61 33 62 35 63 41 64 34 65 36 66 37 67 38 68
REMARK SMILES IDX 39 69 63 70 64 71 72 72 65 73 67 74 73 75 66 76 68 77 69 78
REMARK SMILES IDX 70 79 71 80 48 81 49 82 57 83 50 84 52 85 58 86 51 87 53 88
REMARK SMILES IDX 54 89 55 90 56 91
REMARK H PARENT 15 6 8 11 19 25 78 44 46 55
REMARK Flexibility Score: inf
ROOT
ATOM      1  C   UNL A   1      31.379  31.508  26.553  1.00  0.00     0.042 C 
ENDROOT
BRANCH   1   2
ATOM      2  C   UNL A   1      30.231  31.511  24.692  1.00  0.00     0.117 C 
BRANCH   2   3
ATOM      3  N   UNL A   1      29.437  32.608  23.934  1.00  0.00    -0.355 N 
ATOM      4  C   UNL A   1      28.790  32.596  22.749  1.00  0.00     0.231 C 
ATOM      5  O   UNL A   1      28.291  33.693  22.453  1.00  0.00    -0.274 OA
ATOM      6  H   UNL A   1      29.400  33.472  24.403  1.00  0.00     0.163 HD
BRANCH   4   7
ATOM      7  C   UNL A   1      28.533  31.330  21.885  1.00  0.00     0.100 C 
ATOM      8  N   UNL A   1      29.658  29.183  22.280  1.00  0.00    -0.329 N 
ATOM      9  C   UNL A   1      28.395  29.139  23.012  1.00  0.00     0.263 C 
ATOM     10  C   UNL A   1      29.717  30.430  21.494  1.00  0.00     0.279 C 
ATOM     11  H   UNL A   1      29.648  28.389  21.640  1.00  0.00     0.348 HD
ATOM     12  C   UNL A   1      27.574  30.365  22.596  1.00  0.00     0.084 C 
ATOM     13  C   UNL A   1      27.880  31.879  20.592  1.00  0.00     0.028 C 
BRANCH   8  14
ATOM     14  C   UNL A   1      30.897  28.843  23.032  1.00  0.00     0.319 C 
BRANCH  14  15
ATOM     15  C   UNL A   1      30.768  27.686  24.041  1.00  0.00     0.095 A 
ATOM     16  C   UNL A   1      30.953  23.336  23.518  1.00  0.00     0.067 C 
ATOM     17  C   UNL A   1      31.147  24.653  24.194  1.00  0.00     0.038 A 
ATOM     18  C   UNL A   1      31.934  24.809  25.802  1.00  0.00     0.023 A 
ATOM     19  N   UNL A   1      30.649  26.081  23.318  1.00  0.00    -0.252 NA
ATOM     20  C   UNL A   1      32.006  26.438  26.593  1.00  0.00     0.004 A 
ATOM     21  C   UNL A   1      31.480  27.898  25.671  1.00  0.00     0.030 A 
ENDBRANCH  14  15
ENDBRANCH   8  14
ENDBRANCH   4   7
ENDBRANCH   2   3
ENDBRANCH   1   2
BRANCH   1  22
ATOM     22  C   UNL A   1      32.759  32.391  27.134  1.00  0.00     0.118 C 
BRANCH  22  23
ATOM     23  N   UNL A   1      32.572  33.744  27.710  1.00  0.00    -0.352 N 
ATOM     24  C   UNL A   1      33.258  34.382  28.697  1.00  0.00     0.251 C 
ATOM     25  H   UNL A   1      31.834  34.264  27.316  1.00  0.00     0.163 HD
ATOM     26  O   UNL A   1      32.894  35.459  29.147  1.00  0.00    -0.269 OA
BRANCH  24  27
ATOM     27  C   UNL A   1      34.477  33.731  29.138  1.00  0.00     0.039 A 
ATOM     28  C   UNL A   1      35.706  34.329  28.878  1.00  0.00     0.014 A 
ATOM     29  C   UNL A   1      34.324  32.636  29.991  1.00  0.00     0.014 A 
ATOM     30  C   UNL A   1      36.822  33.820  29.522  1.00  0.00     0.010 A 
ATOM     31  C   UNL A   1      35.412  32.219  30.718  1.00  0.00     0.010 A 
ATOM     32  C   UNL A   1      36.669  32.785  30.459  1.00  0.00    -0.014 A 
BRANCH  32  33
ATOM     33  C   UNL A   1      37.827  32.220  31.166  1.00  0.00     0.031 A 
ATOM     34  C   UNL A   1      38.574  31.095  30.517  1.00  0.00     0.074 A 
ATOM     35  C   UNL A   1      38.106  32.645  32.409  1.00  0.00     0.049 A 
ATOM     36  N   UNL A   1      39.548  30.374  30.998  1.00  0.00    -0.248 NA
ATOM     37  C   UNL A   1      38.129  30.683  29.171  1.00  0.00     0.031 C 
ATOM     38  C   UNL A   1      37.351  33.660  33.149  1.00  0.00     0.029 A 
ATOM     39  N   UNL A   1      39.082  32.251  33.283  1.00  0.00    -0.354 N 
ATOM     40  C   UNL A   1      39.784  29.392  30.046  1.00  0.00     0.074 A 
ATOM     41  C   UNL A   1      38.821  29.571  28.988  1.00  0.00     0.031 C 
ATOM     42  C   UNL A   1      37.899  33.815  34.365  1.00  0.00     0.029 A 
ATOM     43  C   UNL A   1      39.013  32.884  34.500  1.00  0.00     0.049 A 
ATOM     44  H   UNL A   1      39.765  31.580  33.060  1.00  0.00     0.167 HD
ATOM     45  C   UNL A   1      40.749  28.447  30.043  1.00  0.00     0.034 A 
ATOM     46  C   UNL A   1      39.763  32.708  35.604  1.00  0.00     0.034 A 
ATOM     47  C   UNL A   1      41.731  28.340  31.082  1.00  0.00     0.049 A 
ATOM     48  C   UNL A   1      40.878  31.703  35.549  1.00  0.00     0.074 A 
ATOM     49  C   UNL A   1      42.841  27.522  31.134  1.00  0.00     0.029 A 
ATOM     50  N   UNL A   1      41.706  29.070  32.261  1.00  0.00    -0.354 N 
ATOM     51  N   UNL A   1      41.219  30.909  34.562  1.00  0.00    -0.248 NA
ATOM     52  C   UNL A   1      41.729  31.589  36.739  1.00  0.00     0.031 C 
ATOM     53  C   UNL A   1      43.466  27.728  32.367  1.00  0.00     0.029 A 
ATOM     54  C   UNL A   1      42.766  28.702  33.066  1.00  0.00     0.049 A 
ATOM     55  H   UNL A   1      41.033  29.752  32.491  1.00  0.00     0.167 HD
ATOM     56  C   UNL A   1      42.334  30.208  35.004  1.00  0.00     0.074 A 
ATOM     57  C   UNL A   1      42.626  30.697  36.337  1.00  0.00     0.031 C 
ATOM     58  C   UNL A   1      43.042  29.237  34.376  1.00  0.00     0.034 A 
BRANCH  45  59
ATOM     59  C   UNL A   1      40.796  27.499  28.877  1.00  0.00     0.023 A 
ATOM     60  C   UNL A   1      39.894  26.415  28.807  1.00  0.00     0.012 A 
ATOM     61  C   UNL A   1      41.729  27.687  27.841  1.00  0.00     0.148 A 
ATOM     62  C   UNL A   1      39.954  25.507  27.752  1.00  0.00     0.002 A 
ATOM     63  C   UNL A   1      41.745  26.810  26.764  1.00  0.00     0.091 A 
ATOM     64  F   UNL A   1      42.598  28.704  27.939  1.00  0.00    -0.205 F 
ATOM     65  C   UNL A   1      40.872  25.711  26.725  1.00  0.00     0.022 A 
BRANCH  63  66
ATOM     66  S   UNL A   1      42.830  27.036  25.352  1.00  0.00     0.127 S 
ATOM     67  O   UNL A   1      44.133  27.181  26.001  1.00  0.00    -0.237 OA
ATOM     68  O   UNL A   1      42.649  25.778  24.625  1.00  0.00    -0.237 OA
ATOM     69  O   UNL A   1      42.345  28.217  24.654  1.00  0.00    -0.744 OA
ENDBRANCH  63  66
ENDBRANCH  45  59
BRANCH  46  70
ATOM     70  C   UNL A   1      39.496  33.532  36.814  1.00  0.00     0.023 A 
ATOM     71  C   UNL A   1      39.876  34.888  36.834  1.00  0.00     0.012 A 
ATOM     72  C   UNL A   1      38.805  32.996  37.919  1.00  0.00     0.148 A 
ATOM     73  C   UNL A   1      39.595  35.688  37.943  1.00  0.00     0.002 A 
ATOM     74  C   UNL A   1      38.477  33.812  38.994  1.00  0.00     0.091 A 
ATOM     75  F   UNL A   1      38.453  31.703  37.879  1.00  0.00    -0.205 F 
ATOM     76  C   UNL A   1      38.887  35.155  39.017  1.00  0.00     0.022 A 
BRANCH  74  77
ATOM     77  S   UNL A   1      37.446  33.251  40.353  1.00  0.00     0.127 S 
ATOM     78  O   UNL A   1      38.256  32.175  40.918  1.00  0.00    -0.237 OA
ATOM     79  O   UNL A   1      37.358  34.456  41.179  1.00  0.00    -0.237 OA
ATOM     80  O   UNL A   1      36.185  32.843  39.751  1.00  0.00    -0.744 OA
ENDBRANCH  74  77
ENDBRANCH  46  70
BRANCH  58  81
ATOM     81  C   UNL A   1      44.207  28.641  35.116  1.00  0.00     0.023 A 
ATOM     82  C   UNL A   1      45.485  29.214  34.982  1.00  0.00     0.012 A 
ATOM     83  C   UNL A   1      44.006  27.589  36.030  1.00  0.00     0.148 A 
ATOM     84  C   UNL A   1      46.555  28.734  35.733  1.00  0.00     0.002 A 
ATOM     85  C   UNL A   1      45.064  27.152  36.814  1.00  0.00     0.091 A 
ATOM     86  F   UNL A   1      42.780  27.055  36.131  1.00  0.00    -0.205 F 
ATOM     87  C   UNL A   1      46.342  27.714  36.658  1.00  0.00     0.022 A 
BRANCH  85  88
ATOM     88  S   UNL A   1      44.863  25.920  38.104  1.00  0.00     0.127 S 
ATOM     89  O   UNL A   1      43.895  26.570  38.987  1.00  0.00    -0.237 OA
ATOM     90  O   UNL A   1      44.338  24.776  37.359  1.00  0.00    -0.237 OA
ATOM     91  O   UNL A   1      46.186  25.716  38.680  1.00  0.00    -0.744 OA
ENDBRANCH  85  88
ENDBRANCH  58  81
ENDBRANCH  32  33
ENDBRANCH  24  27
ENDBRANCH  22  23
ENDBRANCH   1  22
TORSDOF 15
ENDMDL
MODEL 2
REMARK VINA RESULT:     -13.5      1.344      3.028
REMARK SMILES Cc1cccc(C[N@H+]2CC[C@@](C)(C(=O)NCCCNC(=O)c3ccc(-c4c5nc(c(-c6cccc(S(=O)(=O)[O-])c6F)c6ccc([nH]6)c(-c6cccc(S(=O)(=O)[O-])c6F)c6nc(c(-c7cccc(S(=O)(=O)[O-])c7F)c7ccc4[nH]7)C=C6)C=C5)cc3)C2)n1
REMARK SMILES IDX 17 1 16 2 15 3 13 4 14 5 11 7 8 8 9 9 85 10 10 12 12 13 7 14
REMARK SMILES IDX 6 15 1 16 2 17 3 18 86 19 4 20 5 21 18 22 19 23 20 24 21 26
REMARK SMILES IDX 22 27 23 28 84 29 24 30 83 31 25 32 26 33 27 34 77 35 28 36
REMARK SMILES IDX 82 37 76 38 78 39 29 40 81 41 75 42 74 43 30 45 62 46 42 47
REMARK SMILES IDX 61 48 43 49 46 50 60 51 79 52 44 53 45 54 59 56 80 57 47 58
REMARK SMILES IDX 31 59 32 60 40 61 33 62 35 63 41 64 34 65 36 66 37 67 38 68
REMARK SMILES IDX 39 69 63 70 64 71 72 72 65 73 67 74 73 75 66 76 68 77 69 78
REMARK SMILES IDX 70 79 71 80 48 81 49 82 57 83 50 84 52 85 58 86 51 87 53 88
REMARK SMILES IDX 54 89 55 90 56 91
REMARK H PARENT 15 6 8 11 19 25 78 44 46 55
REMARK Flexibility Score: inf
ROOT
ATOM      1  C   UNL A   1      32.335  30.604  27.244  1.00  0.00     0.042 C 
ENDROOT
BRANCH   1   2
ATOM      2  C   UNL A   1      32.426  28.445  27.576  1.00  0.00     0.117 C 
BRANCH   2   3
ATOM      3  N   UNL A   1      31.439  27.282  27.293  1.00  0.00    -0.355 N 
ATOM      4  C   UNL A   1      31.442  26.302  26.365  1.00  0.00     0.231 C 
ATOM      5  O   UNL A   1      30.448  25.562  26.431  1.00  0.00    -0.274 OA
ATOM      6  H   UNL A   1      30.666  27.254  27.903  1.00  0.00     0.163 HD
BRANCH   4   7
ATOM      7  C   UNL A   1      32.617  25.995  25.395  1.00  0.00     0.100 C 
ATOM      8  N   UNL A   1      32.564  26.544  23.002  1.00  0.00    -0.329 N 
ATOM      9  C   UNL A   1      33.201  27.669  23.680  1.00  0.00     0.263 C 
ATOM     10  C   UNL A   1      32.312  25.470  23.982  1.00  0.00     0.279 C 
ATOM     11  H   UNL A   1      33.232  26.209  22.308  1.00  0.00     0.348 HD
ATOM     12  C   UNL A   1      33.456  27.253  25.133  1.00  0.00     0.084 C 
ATOM     13  C   UNL A   1      33.461  24.934  26.146  1.00  0.00     0.028 C 
BRANCH   8  14
ATOM     14  C   UNL A   1      31.431  26.850  22.086  1.00  0.00     0.319 C 
BRANCH  14  15
ATOM     15  C   UNL A   1      30.311  27.726  22.680  1.00  0.00     0.095 A 
ATOM     16  C   UNL A   1      28.248  31.265  21.114  1.00  0.00     0.067 C 
ATOM     17  C   UNL A   1      28.412  29.981  21.858  1.00  0.00     0.038 A 
ATOM     18  C   UNL A   1      27.055  29.188  22.730  1.00  0.00     0.023 A 
ATOM     19  N   UNL A   1      29.980  29.211  21.787  1.00  0.00    -0.252 NA
ATOM     20  C   UNL A   1      27.389  27.699  23.709  1.00  0.00     0.004 A 
ATOM     21  C   UNL A   1      29.017  26.926  23.624  1.00  0.00     0.030 A 
ENDBRANCH  14  15
ENDBRANCH   8  14
ENDBRANCH   4   7
ENDBRANCH   2   3
ENDBRANCH   1   2
BRANCH   1  22
ATOM     22  C   UNL A   1      33.492  31.897  27.319  1.00  0.00     0.118 C 
BRANCH  22  23
ATOM     23  N   UNL A   1      33.023  33.289  27.526  1.00  0.00    -0.352 N 
ATOM     24  C   UNL A   1      33.318  34.178  28.513  1.00  0.00     0.251 C 
ATOM     25  H   UNL A   1      32.399  33.621  26.841  1.00  0.00     0.163 HD
ATOM     26  O   UNL A   1      32.743  35.253  28.610  1.00  0.00    -0.269 OA
BRANCH  24  27
ATOM     27  C   UNL A   1      34.396  33.793  29.405  1.00  0.00     0.039 A 
ATOM     28  C   UNL A   1      34.148  32.880  30.424  1.00  0.00     0.014 A 
ATOM     29  C   UNL A   1      35.679  34.211  29.046  1.00  0.00     0.014 A 
ATOM     30  C   UNL A   1      35.237  32.346  31.093  1.00  0.00     0.010 A 
ATOM     31  C   UNL A   1      36.754  33.585  29.628  1.00  0.00     0.010 A 
ATOM     32  C   UNL A   1      36.537  32.680  30.677  1.00  0.00    -0.014 A 
BRANCH  32  33
ATOM     33  C   UNL A   1      37.719  32.132  31.357  1.00  0.00     0.031 A 
ATOM     34  C   UNL A   1      38.479  31.031  30.683  1.00  0.00     0.074 A 
ATOM     35  C   UNL A   1      38.011  32.549  32.600  1.00  0.00     0.049 A 
ATOM     36  N   UNL A   1      39.475  30.326  31.138  1.00  0.00    -0.248 NA
ATOM     37  C   UNL A   1      38.019  30.624  29.340  1.00  0.00     0.031 C 
ATOM     38  C   UNL A   1      37.247  33.539  33.365  1.00  0.00     0.029 A 
ATOM     39  N   UNL A   1      39.009  32.166  33.453  1.00  0.00    -0.354 N 
ATOM     40  C   UNL A   1      39.716  29.360  30.171  1.00  0.00     0.074 A 
ATOM     41  C   UNL A   1      38.732  29.530  29.132  1.00  0.00     0.031 C 
ATOM     42  C   UNL A   1      37.812  33.692  34.573  1.00  0.00     0.029 A 
ATOM     43  C   UNL A   1      38.948  32.784  34.678  1.00  0.00     0.049 A 
ATOM     44  H   UNL A   1      39.703  31.512  33.211  1.00  0.00     0.167 HD
ATOM     45  C   UNL A   1      40.701  28.436  30.141  1.00  0.00     0.034 A 
ATOM     46  C   UNL A   1      39.720  32.612  35.767  1.00  0.00     0.034 A 
ATOM     47  C   UNL A   1      41.703  28.339  31.161  1.00  0.00     0.049 A 
ATOM     48  C   UNL A   1      40.856  31.632  35.681  1.00  0.00     0.074 A 
ATOM     49  C   UNL A   1      42.832  27.544  31.185  1.00  0.00     0.029 A 
ATOM     50  N   UNL A   1      41.683  29.055  32.349  1.00  0.00    -0.354 N 
ATOM     51  N   UNL A   1      41.197  30.856  34.679  1.00  0.00    -0.248 NA
ATOM     52  C   UNL A   1      41.730  31.523  36.855  1.00  0.00     0.031 C 
ATOM     53  C   UNL A   1      43.473  27.749  32.410  1.00  0.00     0.029 A 
ATOM     54  C   UNL A   1      42.764  28.700  33.132  1.00  0.00     0.049 A 
ATOM     55  H   UNL A   1      41.000  29.719  32.599  1.00  0.00     0.167 HD
ATOM     56  C   UNL A   1      42.334  30.174  35.094  1.00  0.00     0.074 A 
ATOM     57  C   UNL A   1      42.639  30.655  36.428  1.00  0.00     0.031 C 
ATOM     58  C   UNL A   1      43.052  29.226  34.443  1.00  0.00     0.034 A 
BRANCH  45  59
ATOM     59  C   UNL A   1      40.748  27.502  28.964  1.00  0.00     0.023 A 
ATOM     60  C   UNL A   1      39.860  26.408  28.890  1.00  0.00     0.012 A 
ATOM     61  C   UNL A   1      41.668  27.714  27.920  1.00  0.00     0.148 A 
ATOM     62  C   UNL A   1      39.920  25.513  27.823  1.00  0.00     0.002 A 
ATOM     63  C   UNL A   1      41.685  26.850  26.833  1.00  0.00     0.091 A 
ATOM     64  F   UNL A   1      42.526  28.741  28.022  1.00  0.00    -0.205 F 
ATOM     65  C   UNL A   1      40.825  25.741  26.790  1.00  0.00     0.022 A 
BRANCH  63  66
ATOM     66  S   UNL A   1      42.752  27.106  25.413  1.00  0.00     0.127 S 
ATOM     67  O   UNL A   1      44.060  27.258  26.050  1.00  0.00    -0.237 OA
ATOM     68  O   UNL A   1      42.577  25.857  24.672  1.00  0.00    -0.237 OA
ATOM     69  O   UNL A   1      42.247  28.291  24.735  1.00  0.00    -0.744 OA
ENDBRANCH  63  66
ENDBRANCH  45  59
BRANCH  46  70
ATOM     70  C   UNL A   1      39.457  33.416  36.991  1.00  0.00     0.023 A 
ATOM     71  C   UNL A   1      39.900  34.751  37.059  1.00  0.00     0.012 A 
ATOM     72  C   UNL A   1      38.709  32.886  38.061  1.00  0.00     0.148 A 
ATOM     73  C   UNL A   1      39.625  35.535  38.180  1.00  0.00     0.002 A 
ATOM     74  C   UNL A   1      38.389  33.689  39.148  1.00  0.00     0.091 A 
ATOM     75  F   UNL A   1      38.298  31.613  37.976  1.00  0.00    -0.205 F 
ATOM     76  C   UNL A   1      38.861  35.009  39.219  1.00  0.00     0.022 A 
BRANCH  74  77
ATOM     77  S   UNL A   1      37.292  33.143  40.462  1.00  0.00     0.127 S 
ATOM     78  O   UNL A   1      38.045  32.031  41.036  1.00  0.00    -0.237 OA
ATOM     79  O   UNL A   1      37.217  34.337  41.304  1.00  0.00    -0.237 OA
ATOM     80  O   UNL A   1      36.040  32.787  39.810  1.00  0.00    -0.744 OA
ENDBRANCH  74  77
ENDBRANCH  46  70
BRANCH  58  81
ATOM     81  C   UNL A   1      44.241  28.648  35.156  1.00  0.00     0.023 A 
ATOM     82  C   UNL A   1      45.513  29.221  34.970  1.00  0.00     0.012 A 
ATOM     83  C   UNL A   1      44.073  27.613  36.096  1.00  0.00     0.148 A 
ATOM     84  C   UNL A   1      46.608  28.758  35.695  1.00  0.00     0.002 A 
ATOM     85  C   UNL A   1      45.157  27.192  36.853  1.00  0.00     0.091 A 
ATOM     86  F   UNL A   1      42.853  27.077  36.245  1.00  0.00    -0.205 F 
ATOM     87  C   UNL A   1      46.428  27.755  36.645  1.00  0.00     0.022 A 
BRANCH  85  88
ATOM     88  S   UNL A   1      45.002  25.985  38.172  1.00  0.00     0.127 S 
ATOM     89  O   UNL A   1      44.351  24.873  37.481  1.00  0.00    -0.237 OA
ATOM     90  O   UNL A   1      46.399  25.745  38.535  1.00  0.00    -0.237 OA
ATOM     91  O   UNL A   1      44.204  26.620  39.212  1.00  0.00    -0.744 OA
ENDBRANCH  85  88
ENDBRANCH  58  81
ENDBRANCH  32  33
ENDBRANCH  24  27
ENDBRANCH  22  23
ENDBRANCH   1  22
TORSDOF 15
ENDMDL
MODEL 3
REMARK VINA RESULT:     -13.5      6.442     11.843
REMARK SMILES Cc1cccc(C[N@H+]2CC[C@@](C)(C(=O)NCCCNC(=O)c3ccc(-c4c5nc(c(-c6cccc(S(=O)(=O)[O-])c6F)c6ccc([nH]6)c(-c6cccc(S(=O)(=O)[O-])c6F)c6nc(c(-c7cccc(S(=O)(=O)[O-])c7F)c7ccc4[nH]7)C=C6)C=C5)cc3)C2)n1
REMARK SMILES IDX 17 1 16 2 15 3 13 4 14 5 11 7 8 8 9 9 85 10 10 12 12 13 7 14
REMARK SMILES IDX 6 15 1 16 2 17 3 18 86 19 4 20 5 21 18 22 19 23 20 24 21 26
REMARK SMILES IDX 22 27 23 28 84 29 24 30 83 31 25 32 26 33 27 34 77 35 28 36
REMARK SMILES IDX 82 37 76 38 78 39 29 40 81 41 75 42 74 43 30 45 62 46 42 47
REMARK SMILES IDX 61 48 43 49 46 50 60 51 79 52 44 53 45 54 59 56 80 57 47 58
REMARK SMILES IDX 31 59 32 60 40 61 33 62 35 63 41 64 34 65 36 66 37 67 38 68
REMARK SMILES IDX 39 69 63 70 64 71 72 72 65 73 67 74 73 75 66 76 68 77 69 78
REMARK SMILES IDX 70 79 71 80 48 81 49 82 57 83 50 84 52 85 58 86 51 87 53 88
REMARK SMILES IDX 54 89 55 90 56 91
REMARK H PARENT 15 6 8 11 19 25 78 44 46 55
REMARK Flexibility Score: inf
ROOT
ATOM      1  C   UNL A   1      37.557  19.679  25.014  1.00  0.00     0.042 C 
ENDROOT
BRANCH   1   2
ATOM      2  C   UNL A   1      35.439  20.222  25.048  1.00  0.00     0.117 C 
BRANCH   2   3
ATOM      3  N   UNL A   1      34.554  21.107  24.132  1.00  0.00    -0.355 N 
ATOM      4  C   UNL A   1      33.894  22.263  24.360  1.00  0.00     0.231 C 
ATOM      5  O   UNL A   1      33.252  22.662  23.375  1.00  0.00    -0.274 OA
ATOM      6  H   UNL A   1      34.453  20.762  23.216  1.00  0.00     0.163 HD
BRANCH   4   7
ATOM      7  C   UNL A   1      34.017  23.123  25.649  1.00  0.00     0.100 C 
ATOM      8  N   UNL A   1      32.081  24.081  26.816  1.00  0.00    -0.329 N 
ATOM      9  C   UNL A   1      32.363  22.795  27.449  1.00  0.00     0.263 C 
ATOM     10  C   UNL A   1      33.127  24.366  25.816  1.00  0.00     0.279 C 
ATOM     11  H   UNL A   1      32.129  24.783  27.554  1.00  0.00     0.348 HD
ATOM     12  C   UNL A   1      33.700  22.289  26.898  1.00  0.00     0.084 C 
ATOM     13  C   UNL A   1      35.500  23.570  25.665  1.00  0.00     0.028 C 
BRANCH   8  14
ATOM     14  C   UNL A   1      30.683  24.330  26.367  1.00  0.00     0.319 C 
BRANCH  14  15
ATOM     15  C   UNL A   1      30.371  25.774  25.932  1.00  0.00     0.095 A 
ATOM     16  C   UNL A   1      32.106  29.616  27.141  1.00  0.00     0.067 C 
ATOM     17  C   UNL A   1      31.490  28.608  26.229  1.00  0.00     0.038 A 
ATOM     18  C   UNL A   1      31.165  28.943  24.493  1.00  0.00     0.023 A 
ATOM     19  N   UNL A   1      31.159  27.026  26.894  1.00  0.00    -0.252 NA
ATOM     20  C   UNL A   1      30.296  27.698  23.504  1.00  0.00     0.004 A 
ATOM     21  C   UNL A   1      29.960  26.073  24.215  1.00  0.00     0.030 A 
ENDBRANCH  14  15
ENDBRANCH   8  14
ENDBRANCH   4   7
ENDBRANCH   2   3
ENDBRANCH   1   2
BRANCH   1  22
ATOM     22  C   UNL A   1      38.987  20.306  25.776  1.00  0.00     0.118 C 
BRANCH  22  23
ATOM     23  N   UNL A   1      40.166  19.425  25.958  1.00  0.00    -0.352 N 
ATOM     24  C   UNL A   1      41.449  19.732  26.292  1.00  0.00     0.251 C 
ATOM     25  H   UNL A   1      39.994  18.467  25.812  1.00  0.00     0.163 HD
ATOM     26  O   UNL A   1      42.341  18.895  26.276  1.00  0.00    -0.269 OA
BRANCH  24  27
ATOM     27  C   UNL A   1      41.678  21.099  26.724  1.00  0.00     0.039 A 
ATOM     28  C   UNL A   1      42.126  21.342  28.017  1.00  0.00     0.014 A 
ATOM     29  C   UNL A   1      41.634  22.080  25.731  1.00  0.00     0.014 A 
ATOM     30  C   UNL A   1      42.571  22.619  28.317  1.00  0.00     0.010 A 
ATOM     31  C   UNL A   1      42.191  23.305  26.001  1.00  0.00     0.010 A 
ATOM     32  C   UNL A   1      42.627  23.589  27.304  1.00  0.00    -0.014 A 
BRANCH  32  33
ATOM     33  C   UNL A   1      43.096  24.954  27.580  1.00  0.00     0.031 A 
ATOM     34  C   UNL A   1      42.131  25.927  28.185  1.00  0.00     0.074 A 
ATOM     35  C   UNL A   1      44.326  25.318  27.180  1.00  0.00     0.049 A 
ATOM     36  N   UNL A   1      42.285  27.201  28.411  1.00  0.00    -0.248 NA
ATOM     37  C   UNL A   1      40.788  25.416  28.526  1.00  0.00     0.031 C 
ATOM     38  C   UNL A   1      45.282  24.453  26.483  1.00  0.00     0.029 A 
ATOM     39  N   UNL A   1      44.969  26.521  27.273  1.00  0.00    -0.354 N 
ATOM     40  C   UNL A   1      41.050  27.650  28.856  1.00  0.00     0.074 A 
ATOM     41  C   UNL A   1      40.141  26.531  28.817  1.00  0.00     0.031 C 
ATOM     42  C   UNL A   1      46.396  25.154  26.218  1.00  0.00     0.029 A 
ATOM     43  C   UNL A   1      46.214  26.521  26.691  1.00  0.00     0.049 A 
ATOM     44  H   UNL A   1      44.578  27.309  27.714  1.00  0.00     0.167 HD
ATOM     45  C   UNL A   1      40.718  28.883  29.295  1.00  0.00     0.034 A 
ATOM     46  C   UNL A   1      47.094  27.529  26.544  1.00  0.00     0.034 A 
ATOM     47  C   UNL A   1      41.665  29.956  29.381  1.00  0.00     0.049 A 
ATOM     48  C   UNL A   1      46.730  28.873  27.109  1.00  0.00     0.074 A 
ATOM     49  C   UNL A   1      41.497  31.209  29.934  1.00  0.00     0.029 A 
ATOM     50  N   UNL A   1      42.959  29.899  28.883  1.00  0.00    -0.354 N 
ATOM     51  N   UNL A   1      45.623  29.240  27.709  1.00  0.00    -0.248 NA
ATOM     52  C   UNL A   1      47.740  29.933  27.005  1.00  0.00     0.031 C 
ATOM     53  C   UNL A   1      42.679  31.927  29.731  1.00  0.00     0.029 A 
ATOM     54  C   UNL A   1      43.595  31.107  29.088  1.00  0.00     0.049 A 
ATOM     55  H   UNL A   1      43.365  29.114  28.449  1.00  0.00     0.167 HD
ATOM     56  C   UNL A   1      45.805  30.568  28.069  1.00  0.00     0.074 A 
ATOM     57  C   UNL A   1      47.143  30.930  27.645  1.00  0.00     0.031 C 
ATOM     58  C   UNL A   1      44.943  31.419  28.679  1.00  0.00     0.034 A 
BRANCH  45  59
ATOM     59  C   UNL A   1      39.298  29.110  29.735  1.00  0.00     0.023 A 
ATOM     60  C   UNL A   1      38.895  28.760  31.041  1.00  0.00     0.012 A 
ATOM     61  C   UNL A   1      38.361  29.683  28.855  1.00  0.00     0.148 A 
ATOM     62  C   UNL A   1      37.573  28.929  31.448  1.00  0.00     0.002 A 
ATOM     63  C   UNL A   1      37.059  29.901  29.286  1.00  0.00     0.091 A 
ATOM     64  F   UNL A   1      38.753  29.982  27.608  1.00  0.00    -0.205 F 
ATOM     65  C   UNL A   1      36.658  29.509  30.574  1.00  0.00     0.022 A 
BRANCH  63  66
ATOM     66  S   UNL A   1      35.829  30.719  28.267  1.00  0.00     0.127 S 
ATOM     67  O   UNL A   1      35.558  29.700  27.254  1.00  0.00    -0.237 OA
ATOM     68  O   UNL A   1      34.739  30.935  29.219  1.00  0.00    -0.237 OA
ATOM     69  O   UNL A   1      36.457  31.937  27.775  1.00  0.00    -0.744 OA
ENDBRANCH  63  66
ENDBRANCH  45  59
BRANCH  46  70
ATOM     70  C   UNL A   1      48.399  27.275  25.876  1.00  0.00     0.023 A 
ATOM     71  C   UNL A   1      49.473  26.746  26.617  1.00  0.00     0.012 A 
ATOM     72  C   UNL A   1      48.560  27.492  24.493  1.00  0.00     0.148 A 
ATOM     73  C   UNL A   1      50.690  26.460  25.998  1.00  0.00     0.002 A 
ATOM     74  C   UNL A   1      49.755  27.152  23.872  1.00  0.00     0.091 A 
ATOM     75  F   UNL A   1      47.525  27.998  23.807  1.00  0.00    -0.205 F 
ATOM     76  C   UNL A   1      50.828  26.652  24.626  1.00  0.00     0.022 A 
BRANCH  74  77
ATOM     77  S   UNL A   1      49.975  27.229  22.091  1.00  0.00     0.127 S 
ATOM     78  O   UNL A   1      51.341  26.735  21.938  1.00  0.00    -0.237 OA
ATOM     79  O   UNL A   1      48.932  26.317  21.621  1.00  0.00    -0.237 OA
ATOM     80  O   UNL A   1      49.764  28.623  21.727  1.00  0.00    -0.744 OA
ENDBRANCH  74  77
ENDBRANCH  46  70
BRANCH  58  81
ATOM     81  C   UNL A   1      45.417  32.822  28.931  1.00  0.00     0.023 A 
ATOM     82  C   UNL A   1      46.182  33.104  30.079  1.00  0.00     0.012 A 
ATOM     83  C   UNL A   1      45.201  33.830  27.972  1.00  0.00     0.148 A 
ATOM     84  C   UNL A   1      46.708  34.378  30.279  1.00  0.00     0.002 A 
ATOM     85  C   UNL A   1      45.773  35.081  28.152  1.00  0.00     0.091 A 
ATOM     86  F   UNL A   1      44.460  33.537  26.893  1.00  0.00    -0.205 F 
ATOM     87  C   UNL A   1      46.517  35.360  29.310  1.00  0.00     0.022 A 
BRANCH  85  88
ATOM     88  S   UNL A   1      45.672  36.375  26.912  1.00  0.00     0.127 S 
ATOM     89  O   UNL A   1      44.226  36.548  26.780  1.00  0.00    -0.237 OA
ATOM     90  O   UNL A   1      46.364  37.484  27.569  1.00  0.00    -0.237 OA
ATOM     91  O   UNL A   1      46.344  35.856  25.727  1.00  0.00    -0.744 OA
ENDBRANCH  85  88
ENDBRANCH  58  81
ENDBRANCH  32  33
ENDBRANCH  24  27
ENDBRANCH  22  23
ENDBRANCH   1  22
TORSDOF 15
ENDMDL
