MODEL 1
REMARK VINA RESULT:     -11.4      0.000      0.000
REMARK SMILES C[C@@H]1CC[C@@]1(SC1CCCCC1)C(=O)NCCCNC(=O)c1ccc(-c2c3nc(c(-c4cccc(S(=O)(=O)[O-])c4F)c4ccc([nH]4)c(-c4cccc(S(=O)(=O)[O-])c4F)c4nc(c(-c5cccc(S(=O)(=O)[O-])c5F)c5ccc2[nH]5)C=C4)C=C3)cc1
REMARK SMILES IDX 17 1 16 2 15 3 13 4 14 5 5 7 1 8 2 9 3 10 4 11 6 12 7 13
REMARK SMILES IDX 8 14 12 15 9 16 11 17 10 18 18 19 19 20 20 21 21 23 22 24
REMARK SMILES IDX 23 25 84 26 24 27 83 28 25 29 26 30 27 31 77 32 28 33 82 34
REMARK SMILES IDX 76 35 78 36 29 37 81 38 75 39 74 40 30 42 62 43 42 44 61 45
REMARK SMILES IDX 43 46 46 47 60 48 79 49 44 50 45 51 59 53 80 54 47 55 31 56
REMARK SMILES IDX 32 57 40 58 33 59 35 60 41 61 34 62 36 63 37 64 38 65 39 66
REMARK SMILES IDX 63 67 64 68 72 69 65 70 67 71 73 72 66 73 68 74 69 75 70 76
REMARK SMILES IDX 71 77 48 78 49 79 57 80 50 81 52 82 58 83 51 84 53 85 54 86
REMARK SMILES IDX 55 87 56 88
REMARK H PARENT 15 6 19 22 78 41 46 52
REMARK Flexibility Score: inf
ROOT
ATOM      1  C   UNL A   1      31.572  32.192  26.989  1.00  0.00     0.042 C 
ENDROOT
BRANCH   1   2
ATOM      2  C   UNL A   1      31.741  30.801  26.408  1.00  0.00     0.117 C 
BRANCH   2   3
ATOM      3  N   UNL A   1      33.026  30.226  26.743  1.00  0.00    -0.355 N 
ATOM      4  C   UNL A   1      33.543  28.982  26.467  1.00  0.00     0.236 C 
ATOM      5  O   UNL A   1      34.748  28.848  26.733  1.00  0.00    -0.273 OA
ATOM      6  H   UNL A   1      33.626  30.820  27.250  1.00  0.00     0.163 HD
BRANCH   4   7
ATOM      7  C   UNL A   1      32.649  27.821  25.880  1.00  0.00     0.097 C 
ATOM      8  C   UNL A   1      34.241  25.713  25.064  1.00  0.00     0.009 C 
ATOM      9  C   UNL A   1      33.379  26.407  26.105  1.00  0.00     0.012 C 
ATOM     10  C   UNL A   1      32.001  25.772  26.350  1.00  0.00     0.007 C 
ATOM     11  C   UNL A   1      31.463  27.172  26.660  1.00  0.00     0.028 C 
BRANCH   7  12
ATOM     12  S   UNL A   1      32.281  28.057  24.053  1.00  0.00    -0.141 SA
BRANCH  12  13
ATOM     13  C   UNL A   1      30.500  28.456  23.907  1.00  0.00     0.047 C 
ATOM     14  C   UNL A   1      30.242  29.741  23.117  1.00  0.00     0.014 C 
ATOM     15  C   UNL A   1      29.572  27.299  23.520  1.00  0.00     0.014 C 
ATOM     16  C   UNL A   1      28.761  30.117  23.117  1.00  0.00     0.001 C 
ATOM     17  C   UNL A   1      28.101  27.713  23.428  1.00  0.00     0.001 C 
ATOM     18  C   UNL A   1      27.908  28.972  22.587  1.00  0.00     0.000 C 
ENDBRANCH  12  13
ENDBRANCH   7  12
ENDBRANCH   4   7
ENDBRANCH   2   3
ENDBRANCH   1   2
BRANCH   1  19
ATOM     19  C   UNL A   1      32.900  32.845  27.345  1.00  0.00     0.118 C 
BRANCH  19  20
ATOM     20  N   UNL A   1      32.755  34.259  27.670  1.00  0.00    -0.352 N 
ATOM     21  C   UNL A   1      33.348  34.988  28.667  1.00  0.00     0.251 C 
ATOM     22  H   UNL A   1      32.142  34.764  27.088  1.00  0.00     0.163 HD
ATOM     23  O   UNL A   1      32.945  36.124  28.914  1.00  0.00    -0.269 OA
BRANCH  21  24
ATOM     24  C   UNL A   1      34.458  34.404  29.445  1.00  0.00     0.039 A 
ATOM     25  C   UNL A   1      34.169  33.676  30.600  1.00  0.00     0.014 A 
ATOM     26  C   UNL A   1      35.783  34.578  29.034  1.00  0.00     0.014 A 
ATOM     27  C   UNL A   1      35.208  33.082  31.318  1.00  0.00     0.010 A 
ATOM     28  C   UNL A   1      36.804  33.904  29.692  1.00  0.00     0.010 A 
ATOM     29  C   UNL A   1      36.531  33.168  30.853  1.00  0.00    -0.014 A 
BRANCH  29  30
ATOM     30  C   UNL A   1      37.644  32.509  31.579  1.00  0.00     0.031 A 
ATOM     31  C   UNL A   1      38.355  31.332  30.966  1.00  0.00     0.074 A 
ATOM     32  C   UNL A   1      37.965  32.923  32.820  1.00  0.00     0.049 A 
ATOM     33  N   UNL A   1      39.328  30.610  31.458  1.00  0.00    -0.248 NA
ATOM     34  C   UNL A   1      37.892  30.885  29.641  1.00  0.00     0.031 C 
ATOM     35  C   UNL A   1      37.290  33.994  33.556  1.00  0.00     0.029 A 
ATOM     36  N   UNL A   1      38.924  32.475  33.692  1.00  0.00    -0.354 N 
ATOM     37  C   UNL A   1      39.565  29.607  30.526  1.00  0.00     0.074 A 
ATOM     38  C   UNL A   1      38.607  29.786  29.459  1.00  0.00     0.031 C 
ATOM     39  C   UNL A   1      37.865  34.130  34.761  1.00  0.00     0.029 A 
ATOM     40  C   UNL A   1      38.924  33.135  34.899  1.00  0.00     0.049 A 
ATOM     41  H   UNL A   1      39.553  31.749  33.475  1.00  0.00     0.167 HD
ATOM     42  C   UNL A   1      40.515  28.641  30.542  1.00  0.00     0.034 A 
ATOM     43  C   UNL A   1      39.686  32.955  35.994  1.00  0.00     0.034 A 
ATOM     44  C   UNL A   1      41.488  28.492  31.588  1.00  0.00     0.049 A 
ATOM     45  C   UNL A   1      40.765  31.908  35.967  1.00  0.00     0.074 A 
ATOM     46  C   UNL A   1      42.551  27.610  31.653  1.00  0.00     0.029 A 
ATOM     47  N   UNL A   1      41.511  29.234  32.758  1.00  0.00    -0.354 N 
ATOM     48  N   UNL A   1      41.082  31.075  35.006  1.00  0.00    -0.248 NA
ATOM     49  C   UNL A   1      41.617  31.802  37.159  1.00  0.00     0.031 C 
ATOM     50  C   UNL A   1      43.195  27.793  32.882  1.00  0.00     0.029 A 
ATOM     51  C   UNL A   1      42.559  28.821  33.561  1.00  0.00     0.049 A 
ATOM     52  H   UNL A   1      40.874  29.951  32.985  1.00  0.00     0.167 HD
ATOM     53  C   UNL A   1      42.192  30.372  35.460  1.00  0.00     0.074 A 
ATOM     54  C   UNL A   1      42.503  30.893  36.776  1.00  0.00     0.031 C 
ATOM     55  C   UNL A   1      42.885  29.379  34.849  1.00  0.00     0.034 A 
BRANCH  42  56
ATOM     56  C   UNL A   1      40.567  27.693  29.370  1.00  0.00     0.023 A 
ATOM     57  C   UNL A   1      39.674  26.602  29.309  1.00  0.00     0.012 A 
ATOM     58  C   UNL A   1      41.469  27.904  28.309  1.00  0.00     0.148 A 
ATOM     59  C   UNL A   1      39.708  25.713  28.236  1.00  0.00     0.002 A 
ATOM     60  C   UNL A   1      41.462  27.045  27.218  1.00  0.00     0.091 A 
ATOM     61  F   UNL A   1      42.326  28.932  28.393  1.00  0.00    -0.205 F 
ATOM     62  C   UNL A   1      40.593  25.941  27.186  1.00  0.00     0.022 A 
BRANCH  60  63
ATOM     63  S   UNL A   1      42.503  27.299  25.777  1.00  0.00     0.127 S 
ATOM     64  O   UNL A   1      43.821  26.940  26.298  1.00  0.00    -0.237 OA
ATOM     65  O   UNL A   1      41.943  26.343  24.822  1.00  0.00    -0.237 OA
ATOM     66  O   UNL A   1      42.339  28.697  25.405  1.00  0.00    -0.744 OA
ENDBRANCH  60  63
ENDBRANCH  42  56
BRANCH  43  67
ATOM     67  C   UNL A   1      39.495  33.834  37.183  1.00  0.00     0.023 A 
ATOM     68  C   UNL A   1      39.929  35.173  37.134  1.00  0.00     0.012 A 
ATOM     69  C   UNL A   1      38.856  33.359  38.343  1.00  0.00     0.148 A 
ATOM     70  C   UNL A   1      39.759  36.015  38.234  1.00  0.00     0.002 A 
ATOM     71  C   UNL A   1      38.638  34.219  39.413  1.00  0.00     0.091 A 
ATOM     72  F   UNL A   1      38.456  32.080  38.369  1.00  0.00    -0.205 F 
ATOM     73  C   UNL A   1      39.105  35.542  39.369  1.00  0.00     0.022 A 
BRANCH  71  74
ATOM     74  S   UNL A   1      37.687  33.737  40.859  1.00  0.00     0.127 S 
ATOM     75  O   UNL A   1      38.597  32.802  41.517  1.00  0.00    -0.237 OA
ATOM     76  O   UNL A   1      37.516  35.018  41.545  1.00  0.00    -0.237 OA
ATOM     77  O   UNL A   1      36.452  33.160  40.347  1.00  0.00    -0.744 OA
ENDBRANCH  71  74
ENDBRANCH  43  67
BRANCH  55  78
ATOM     78  C   UNL A   1      44.081  28.814  35.572  1.00  0.00     0.023 A 
ATOM     79  C   UNL A   1      45.355  29.385  35.387  1.00  0.00     0.012 A 
ATOM     80  C   UNL A   1      43.925  27.754  36.486  1.00  0.00     0.148 A 
ATOM     81  C   UNL A   1      46.462  28.885  36.071  1.00  0.00     0.002 A 
ATOM     82  C   UNL A   1      45.022  27.297  37.206  1.00  0.00     0.091 A 
ATOM     83  F   UNL A   1      42.707  27.211  36.636  1.00  0.00    -0.205 F 
ATOM     84  C   UNL A   1      46.293  27.851  36.989  1.00  0.00     0.022 A 
BRANCH  82  85
ATOM     85  S   UNL A   1      44.879  26.040  38.480  1.00  0.00     0.127 S 
ATOM     86  O   UNL A   1      43.986  26.687  39.440  1.00  0.00    -0.237 OA
ATOM     87  O   UNL A   1      44.281  24.924  37.748  1.00  0.00    -0.237 OA
ATOM     88  O   UNL A   1      46.233  25.793  38.956  1.00  0.00    -0.744 OA
ENDBRANCH  82  85
ENDBRANCH  55  78
ENDBRANCH  29  30
ENDBRANCH  21  24
ENDBRANCH  19  20
ENDBRANCH   1  19
TORSDOF 15
ENDMDL
MODEL 2
REMARK VINA RESULT:     -11.3      7.014     12.225
REMARK SMILES C[C@@H]1CC[C@@]1(SC1CCCCC1)C(=O)NCCCNC(=O)c1ccc(-c2c3nc(c(-c4cccc(S(=O)(=O)[O-])c4F)c4ccc([nH]4)c(-c4cccc(S(=O)(=O)[O-])c4F)c4nc(c(-c5cccc(S(=O)(=O)[O-])c5F)c5ccc2[nH]5)C=C4)C=C3)cc1
REMARK SMILES IDX 17 1 16 2 15 3 13 4 14 5 5 7 1 8 2 9 3 10 4 11 6 12 7 13
REMARK SMILES IDX 8 14 12 15 9 16 11 17 10 18 18 19 19 20 20 21 21 23 22 24
REMARK SMILES IDX 23 25 84 26 24 27 83 28 25 29 26 30 27 31 77 32 28 33 82 34
REMARK SMILES IDX 76 35 78 36 29 37 81 38 75 39 74 40 30 42 62 43 42 44 61 45
REMARK SMILES IDX 43 46 46 47 60 48 79 49 44 50 45 51 59 53 80 54 47 55 31 56
REMARK SMILES IDX 32 57 40 58 33 59 35 60 41 61 34 62 36 63 37 64 38 65 39 66
REMARK SMILES IDX 63 67 64 68 72 69 65 70 67 71 73 72 66 73 68 74 69 75 70 76
REMARK SMILES IDX 71 77 48 78 49 79 57 80 50 81 52 82 58 83 51 84 53 85 54 86
REMARK SMILES IDX 55 87 56 88
REMARK H PARENT 15 6 19 22 78 41 46 52
REMARK Flexibility Score: inf
ROOT
ATOM      1  C   UNL A   1      37.628  19.476  24.942  1.00  0.00     0.042 C 
ENDROOT
BRANCH   1   2
ATOM      2  C   UNL A   1      36.450  20.402  24.708  1.00  0.00     0.117 C 
BRANCH   2   3
ATOM      3  N   UNL A   1      35.867  20.863  25.949  1.00  0.00    -0.355 N 
ATOM      4  C   UNL A   1      34.635  21.420  26.201  1.00  0.00     0.236 C 
ATOM      5  O   UNL A   1      34.357  21.547  27.404  1.00  0.00    -0.273 OA
ATOM      6  H   UNL A   1      36.444  20.760  26.741  1.00  0.00     0.163 HD
BRANCH   4   7
ATOM      7  C   UNL A   1      33.677  21.880  25.035  1.00  0.00     0.097 C 
ATOM      8  C   UNL A   1      31.641  23.458  26.041  1.00  0.00     0.009 C 
ATOM      9  C   UNL A   1      33.011  23.296  25.405  1.00  0.00     0.012 C 
ATOM     10  C   UNL A   1      33.100  23.687  23.921  1.00  0.00     0.007 C 
ATOM     11  C   UNL A   1      34.176  22.612  23.749  1.00  0.00     0.028 C 
BRANCH   7  12
ATOM     12  S   UNL A   1      32.327  20.622  24.683  1.00  0.00    -0.141 SA
BRANCH  12  13
ATOM     13  C   UNL A   1      33.126  18.976  24.612  1.00  0.00     0.047 C 
ATOM     14  C   UNL A   1      32.680  18.049  25.745  1.00  0.00     0.014 C 
ATOM     15  C   UNL A   1      33.163  18.295  23.238  1.00  0.00     0.014 C 
ATOM     16  C   UNL A   1      33.452  16.732  25.735  1.00  0.00     0.001 C 
ATOM     17  C   UNL A   1      33.855  16.930  23.263  1.00  0.00     0.001 C 
ATOM     18  C   UNL A   1      33.330  16.037  24.384  1.00  0.00     0.000 C 
ENDBRANCH  12  13
ENDBRANCH   7  12
ENDBRANCH   4   7
ENDBRANCH   2   3
ENDBRANCH   1   2
BRANCH   1  19
ATOM     19  C   UNL A   1      38.697  20.099  25.828  1.00  0.00     0.118 C 
BRANCH  19  20
ATOM     20  N   UNL A   1      39.853  19.227  26.003  1.00  0.00    -0.352 N 
ATOM     21  C   UNL A   1      41.168  19.554  26.208  1.00  0.00     0.251 C 
ATOM     22  H   UNL A   1      39.660  18.261  25.970  1.00  0.00     0.163 HD
ATOM     23  O   UNL A   1      42.033  18.683  26.126  1.00  0.00    -0.269 OA
BRANCH  21  24
ATOM     24  C   UNL A   1      41.539  20.949  26.513  1.00  0.00     0.039 A 
ATOM     25  C   UNL A   1      41.989  21.267  27.796  1.00  0.00     0.014 A 
ATOM     26  C   UNL A   1      41.440  21.943  25.534  1.00  0.00     0.014 A 
ATOM     27  C   UNL A   1      42.385  22.574  28.082  1.00  0.00     0.010 A 
ATOM     28  C   UNL A   1      41.928  23.217  25.792  1.00  0.00     0.010 A 
ATOM     29  C   UNL A   1      42.384  23.553  27.073  1.00  0.00    -0.014 A 
BRANCH  29  30
ATOM     30  C   UNL A   1      42.840  24.938  27.347  1.00  0.00     0.031 A 
ATOM     31  C   UNL A   1      41.905  25.930  27.986  1.00  0.00     0.074 A 
ATOM     32  C   UNL A   1      44.070  25.323  26.954  1.00  0.00     0.049 A 
ATOM     33  N   UNL A   1      42.112  27.188  28.277  1.00  0.00    -0.248 NA
ATOM     34  C   UNL A   1      40.548  25.458  28.312  1.00  0.00     0.031 C 
ATOM     35  C   UNL A   1      45.034  24.478  26.245  1.00  0.00     0.029 A 
ATOM     36  N   UNL A   1      44.710  26.530  27.072  1.00  0.00    -0.354 N 
ATOM     37  C   UNL A   1      40.908  27.665  28.780  1.00  0.00     0.074 A 
ATOM     38  C   UNL A   1      39.962  26.574  28.717  1.00  0.00     0.031 C 
ATOM     39  C   UNL A   1      46.148  25.188  26.004  1.00  0.00     0.029 A 
ATOM     40  C   UNL A   1      45.965  26.545  26.509  1.00  0.00     0.049 A 
ATOM     41  H   UNL A   1      44.309  27.311  27.518  1.00  0.00     0.167 HD
ATOM     42  C   UNL A   1      40.623  28.891  29.279  1.00  0.00     0.034 A 
ATOM     43  C   UNL A   1      46.864  27.542  26.405  1.00  0.00     0.034 A 
ATOM     44  C   UNL A   1      41.579  29.959  29.374  1.00  0.00     0.049 A 
ATOM     45  C   UNL A   1      46.541  28.881  27.009  1.00  0.00     0.074 A 
ATOM     46  C   UNL A   1      41.420  31.207  29.950  1.00  0.00     0.029 A 
ATOM     47  N   UNL A   1      42.869  29.913  28.869  1.00  0.00    -0.354 N 
ATOM     48  N   UNL A   1      45.452  29.264  27.631  1.00  0.00    -0.248 NA
ATOM     49  C   UNL A   1      47.584  29.913  26.934  1.00  0.00     0.031 C 
ATOM     50  C   UNL A   1      42.604  31.929  29.759  1.00  0.00     0.029 A 
ATOM     51  C   UNL A   1      43.514  31.114  29.105  1.00  0.00     0.049 A 
ATOM     52  H   UNL A   1      43.268  29.138  28.410  1.00  0.00     0.167 HD
ATOM     53  C   UNL A   1      45.692  30.567  28.054  1.00  0.00     0.074 A 
ATOM     54  C   UNL A   1      47.038  30.898  27.634  1.00  0.00     0.031 C 
ATOM     55  C   UNL A   1      44.870  31.415  28.721  1.00  0.00     0.034 A 
BRANCH  42  56
ATOM     56  C   UNL A   1      39.226  29.128  29.795  1.00  0.00     0.023 A 
ATOM     57  C   UNL A   1      38.890  28.749  31.112  1.00  0.00     0.012 A 
ATOM     58  C   UNL A   1      38.257  29.762  28.993  1.00  0.00     0.148 A 
ATOM     59  C   UNL A   1      37.604  28.957  31.607  1.00  0.00     0.002 A 
ATOM     60  C   UNL A   1      36.993  30.014  29.511  1.00  0.00     0.091 A 
ATOM     61  F   UNL A   1      38.585  30.095  27.737  1.00  0.00    -0.205 F 
ATOM     62  C   UNL A   1      36.659  29.599  30.811  1.00  0.00     0.022 A 
BRANCH  60  63
ATOM     63  S   UNL A   1      35.732  30.910  28.597  1.00  0.00     0.127 S 
ATOM     64  O   UNL A   1      35.122  29.839  27.810  1.00  0.00    -0.237 OA
ATOM     65  O   UNL A   1      34.890  31.434  29.672  1.00  0.00    -0.237 OA
ATOM     66  O   UNL A   1      36.439  31.924  27.828  1.00  0.00    -0.744 OA
ENDBRANCH  60  63
ENDBRANCH  42  56
BRANCH  43  67
ATOM     67  C   UNL A   1      48.181  27.289  25.756  1.00  0.00     0.023 A 
ATOM     68  C   UNL A   1      49.256  26.809  26.529  1.00  0.00     0.012 A 
ATOM     69  C   UNL A   1      48.361  27.485  24.374  1.00  0.00     0.148 A 
ATOM     70  C   UNL A   1      50.498  26.562  25.943  1.00  0.00     0.002 A 
ATOM     71  C   UNL A   1      49.584  27.182  23.786  1.00  0.00     0.091 A 
ATOM     72  F   UNL A   1      47.326  27.946  23.658  1.00  0.00    -0.205 F 
ATOM     73  C   UNL A   1      50.660  26.738  24.571  1.00  0.00     0.022 A 
BRANCH  71  74
ATOM     74  S   UNL A   1      49.843  27.249  22.010  1.00  0.00     0.127 S 
ATOM     75  O   UNL A   1      48.800  26.350  21.521  1.00  0.00    -0.237 OA
ATOM     76  O   UNL A   1      49.617  28.667  21.729  1.00  0.00    -0.237 OA
ATOM     77  O   UNL A   1      51.212  26.805  21.793  1.00  0.00    -0.744 OA
ENDBRANCH  71  74
ENDBRANCH  43  67
BRANCH  55  78
ATOM     78  C   UNL A   1      45.413  32.773  29.083  1.00  0.00     0.023 A 
ATOM     79  C   UNL A   1      46.086  32.964  30.304  1.00  0.00     0.012 A 
ATOM     80  C   UNL A   1      45.307  33.846  28.176  1.00  0.00     0.148 A 
ATOM     81  C   UNL A   1      46.614  34.212  30.636  1.00  0.00     0.002 A 
ATOM     82  C   UNL A   1      45.884  35.072  28.488  1.00  0.00     0.091 A 
ATOM     83  F   UNL A   1      44.646  33.650  27.025  1.00  0.00    -0.205 F 
ATOM     84  C   UNL A   1      46.524  35.261  29.723  1.00  0.00     0.022 A 
BRANCH  82  85
ATOM     85  S   UNL A   1      45.904  36.446  27.333  1.00  0.00     0.127 S 
ATOM     86  O   UNL A   1      46.572  35.854  26.175  1.00  0.00    -0.237 OA
ATOM     87  O   UNL A   1      44.478  36.712  27.144  1.00  0.00    -0.237 OA
ATOM     88  O   UNL A   1      46.635  37.518  27.995  1.00  0.00    -0.744 OA
ENDBRANCH  82  85
ENDBRANCH  55  78
ENDBRANCH  29  30
ENDBRANCH  21  24
ENDBRANCH  19  20
ENDBRANCH   1  19
TORSDOF 15
ENDMDL
MODEL 3
REMARK VINA RESULT:     -11.3      2.552      8.782
REMARK SMILES C[C@@H]1CC[C@@]1(SC1CCCCC1)C(=O)NCCCNC(=O)c1ccc(-c2c3nc(c(-c4cccc(S(=O)(=O)[O-])c4F)c4ccc([nH]4)c(-c4cccc(S(=O)(=O)[O-])c4F)c4nc(c(-c5cccc(S(=O)(=O)[O-])c5F)c5ccc2[nH]5)C=C4)C=C3)cc1
REMARK SMILES IDX 17 1 16 2 15 3 13 4 14 5 5 7 1 8 2 9 3 10 4 11 6 12 7 13
REMARK SMILES IDX 8 14 12 15 9 16 11 17 10 18 18 19 19 20 20 21 21 23 22 24
REMARK SMILES IDX 23 25 84 26 24 27 83 28 25 29 26 30 27 31 77 32 28 33 82 34
REMARK SMILES IDX 76 35 78 36 29 37 81 38 75 39 74 40 30 42 62 43 42 44 61 45
REMARK SMILES IDX 43 46 46 47 60 48 79 49 44 50 45 51 59 53 80 54 47 55 31 56
REMARK SMILES IDX 32 57 40 58 33 59 35 60 41 61 34 62 36 63 37 64 38 65 39 66
REMARK SMILES IDX 63 67 64 68 72 69 65 70 67 71 73 72 66 73 68 74 69 75 70 76
REMARK SMILES IDX 71 77 48 78 49 79 57 80 50 81 52 82 58 83 51 84 53 85 54 86
REMARK SMILES IDX 55 87 56 88
REMARK H PARENT 15 6 19 22 78 41 46 52
REMARK Flexibility Score: inf
ROOT
ATOM      1  C   UNL A   1      31.779  28.983  26.754  1.00  0.00     0.042 C 
ENDROOT
BRANCH   1   2
ATOM      2  C   UNL A   1      32.296  27.657  27.280  1.00  0.00     0.117 C 
BRANCH   2   3
ATOM      3  N   UNL A   1      31.335  26.590  27.099  1.00  0.00    -0.355 N 
ATOM      4  C   UNL A   1      31.377  25.484  26.284  1.00  0.00     0.236 C 
ATOM      5  O   UNL A   1      30.476  24.653  26.486  1.00  0.00    -0.273 OA
ATOM      6  H   UNL A   1      30.520  26.669  27.649  1.00  0.00     0.163 HD
BRANCH   4   7
ATOM      7  C   UNL A   1      32.479  25.315  25.168  1.00  0.00     0.097 C 
ATOM      8  C   UNL A   1      31.373  25.724  22.667  1.00  0.00     0.009 C 
ATOM      9  C   UNL A   1      32.110  26.227  23.897  1.00  0.00     0.012 C 
ATOM     10  C   UNL A   1      33.609  26.502  23.701  1.00  0.00     0.007 C 
ATOM     11  C   UNL A   1      33.826  26.103  25.163  1.00  0.00     0.028 C 
BRANCH   7  12
ATOM     12  S   UNL A   1      32.677  23.528  24.624  1.00  0.00    -0.141 SA
BRANCH  12  13
ATOM     13  C   UNL A   1      34.464  23.133  24.701  1.00  0.00     0.047 C 
ATOM     14  C   UNL A   1      34.762  21.887  25.537  1.00  0.00     0.014 C 
ATOM     15  C   UNL A   1      35.229  23.181  23.373  1.00  0.00     0.014 C 
ATOM     16  C   UNL A   1      36.264  21.653  25.687  1.00  0.00     0.001 C 
ATOM     17  C   UNL A   1      36.715  22.848  23.525  1.00  0.00     0.001 C 
ATOM     18  C   UNL A   1      36.942  21.570  24.326  1.00  0.00     0.000 C 
ENDBRANCH  12  13
ENDBRANCH   7  12
ENDBRANCH   4   7
ENDBRANCH   2   3
ENDBRANCH   1   2
BRANCH   1  19
ATOM     19  C   UNL A   1      32.880  29.846  26.155  1.00  0.00     0.118 C 
BRANCH  19  20
ATOM     20  N   UNL A   1      32.724  31.257  26.488  1.00  0.00    -0.352 N 
ATOM     21  C   UNL A   1      33.435  32.026  27.372  1.00  0.00     0.251 C 
ATOM     22  H   UNL A   1      32.003  31.726  26.008  1.00  0.00     0.163 HD
ATOM     23  O   UNL A   1      33.024  33.147  27.671  1.00  0.00    -0.269 OA
BRANCH  21  24
ATOM     24  C   UNL A   1      34.680  31.504  27.965  1.00  0.00     0.039 A 
ATOM     25  C   UNL A   1      35.785  32.349  28.081  1.00  0.00     0.014 A 
ATOM     26  C   UNL A   1      34.758  30.178  28.404  1.00  0.00     0.014 A 
ATOM     27  C   UNL A   1      36.953  31.877  28.681  1.00  0.00     0.010 A 
ATOM     28  C   UNL A   1      35.884  29.743  29.090  1.00  0.00     0.010 A 
ATOM     29  C   UNL A   1      37.002  30.578  29.216  1.00  0.00    -0.014 A 
BRANCH  29  30
ATOM     30  C   UNL A   1      38.220  30.073  29.895  1.00  0.00     0.031 A 
ATOM     31  C   UNL A   1      38.560  30.540  31.285  1.00  0.00     0.074 A 
ATOM     32  C   UNL A   1      39.058  29.252  29.232  1.00  0.00     0.049 A 
ATOM     33  N   UNL A   1      39.593  30.234  32.027  1.00  0.00    -0.248 NA
ATOM     34  C   UNL A   1      37.639  31.503  31.913  1.00  0.00     0.031 C 
ATOM     35  C   UNL A   1      38.882  28.800  27.850  1.00  0.00     0.029 A 
ATOM     36  N   UNL A   1      40.237  28.672  29.624  1.00  0.00    -0.354 N 
ATOM     37  C   UNL A   1      39.465  30.991  33.185  1.00  0.00     0.074 A 
ATOM     38  C   UNL A   1      38.280  31.803  33.032  1.00  0.00     0.031 C 
ATOM     39  C   UNL A   1      39.908  28.002  27.514  1.00  0.00     0.029 A 
ATOM     40  C   UNL A   1      40.831  27.913  28.642  1.00  0.00     0.049 A 
ATOM     41  H   UNL A   1      40.622  28.787  30.523  1.00  0.00     0.167 HD
ATOM     42  C   UNL A   1      40.247  30.989  34.291  1.00  0.00     0.034 A 
ATOM     43  C   UNL A   1      41.990  27.229  28.648  1.00  0.00     0.034 A 
ATOM     44  C   UNL A   1      41.403  30.151  34.452  1.00  0.00     0.049 A 
ATOM     45  C   UNL A   1      42.816  27.204  29.904  1.00  0.00     0.074 A 
ATOM     46  C   UNL A   1      42.207  30.001  35.568  1.00  0.00     0.029 A 
ATOM     47  N   UNL A   1      41.929  29.330  33.467  1.00  0.00    -0.354 N 
ATOM     48  N   UNL A   1      42.592  27.799  31.050  1.00  0.00    -0.248 NA
ATOM     49  C   UNL A   1      44.034  26.383  29.882  1.00  0.00     0.031 C 
ATOM     50  C   UNL A   1      43.243  29.118  35.243  1.00  0.00     0.029 A 
ATOM     51  C   UNL A   1      43.056  28.683  33.941  1.00  0.00     0.049 A 
ATOM     52  H   UNL A   1      41.555  29.224  32.562  1.00  0.00     0.167 HD
ATOM     53  C   UNL A   1      43.617  27.394  31.898  1.00  0.00     0.074 A 
ATOM     54  C   UNL A   1      44.452  26.488  31.136  1.00  0.00     0.031 C 
ATOM     55  C   UNL A   1      43.852  27.749  33.186  1.00  0.00     0.034 A 
BRANCH  42  56
ATOM     56  C   UNL A   1      39.853  31.898  35.428  1.00  0.00     0.023 A 
ATOM     57  C   UNL A   1      40.370  33.209  35.490  1.00  0.00     0.012 A 
ATOM     58  C   UNL A   1      38.940  31.470  36.412  1.00  0.00     0.148 A 
ATOM     59  C   UNL A   1      40.020  34.064  36.534  1.00  0.00     0.002 A 
ATOM     60  C   UNL A   1      38.555  32.345  37.420  1.00  0.00     0.091 A 
ATOM     61  F   UNL A   1      38.476  30.214  36.351  1.00  0.00    -0.205 F 
ATOM     62  C   UNL A   1      39.104  33.636  37.492  1.00  0.00     0.022 A 
BRANCH  60  63
ATOM     63  S   UNL A   1      37.319  31.920  38.652  1.00  0.00     0.127 S 
ATOM     64  O   UNL A   1      36.999  30.541  38.284  1.00  0.00    -0.237 OA
ATOM     65  O   UNL A   1      38.070  32.059  39.900  1.00  0.00    -0.237 OA
ATOM     66  O   UNL A   1      36.237  32.879  38.483  1.00  0.00    -0.744 OA
ENDBRANCH  60  63
ENDBRANCH  42  56
BRANCH  43  67
ATOM     67  C   UNL A   1      42.402  26.458  27.440  1.00  0.00     0.023 A 
ATOM     68  C   UNL A   1      43.131  27.101  26.421  1.00  0.00     0.012 A 
ATOM     69  C   UNL A   1      42.107  25.088  27.315  1.00  0.00     0.148 A 
ATOM     70  C   UNL A   1      43.530  26.400  25.282  1.00  0.00     0.002 A 
ATOM     71  C   UNL A   1      42.557  24.382  26.206  1.00  0.00     0.091 A 
ATOM     72  F   UNL A   1      41.408  24.498  28.295  1.00  0.00    -0.205 F 
ATOM     73  C   UNL A   1      43.252  25.039  25.179  1.00  0.00     0.022 A 
BRANCH  71  74
ATOM     74  S   UNL A   1      42.364  22.602  26.052  1.00  0.00     0.127 S 
ATOM     75  O   UNL A   1      42.910  22.357  24.719  1.00  0.00    -0.237 OA
ATOM     76  O   UNL A   1      43.191  22.115  27.157  1.00  0.00    -0.237 OA
ATOM     77  O   UNL A   1      40.940  22.344  26.209  1.00  0.00    -0.744 OA
ENDBRANCH  71  74
ENDBRANCH  43  67
BRANCH  55  78
ATOM     78  C   UNL A   1      45.036  27.123  33.877  1.00  0.00     0.023 A 
ATOM     79  C   UNL A   1      46.297  27.748  33.827  1.00  0.00     0.012 A 
ATOM     80  C   UNL A   1      44.879  25.944  34.631  1.00  0.00     0.148 A 
ATOM     81  C   UNL A   1      47.392  27.190  34.486  1.00  0.00     0.002 A 
ATOM     82  C   UNL A   1      45.961  25.423  35.330  1.00  0.00     0.091 A 
ATOM     83  F   UNL A   1      43.675  25.353  34.652  1.00  0.00    -0.205 F 
ATOM     84  C   UNL A   1      47.221  26.035  35.246  1.00  0.00     0.022 A 
BRANCH  82  85
ATOM     85  S   UNL A   1      45.809  23.999  36.414  1.00  0.00     0.127 S 
ATOM     86  O   UNL A   1      45.469  22.938  35.468  1.00  0.00    -0.237 OA
ATOM     87  O   UNL A   1      47.153  23.900  36.984  1.00  0.00    -0.237 OA
ATOM     88  O   UNL A   1      44.769  24.335  37.376  1.00  0.00    -0.744 OA
ENDBRANCH  82  85
ENDBRANCH  55  78
ENDBRANCH  29  30
ENDBRANCH  21  24
ENDBRANCH  19  20
ENDBRANCH   1  19
TORSDOF 15
ENDMDL
