MODEL 1
REMARK VINA RESULT:     -12.6      0.000      0.000
REMARK SMILES O=C(NCCCNC(=O)c1cccc(OS(=O)(=O)c2cccc([N+](=O)[O-])c2)c1)c1ccc(-c2c3nc(c(-c4cccc(S(=O)(=O)[O-])c4F)c4ccc([nH]4)c(-c4cccc(S(=O)(=O)[O-])c4F)c4nc(c(-c5cccc(S(=O)(=O)[O-])c5F)c5ccc2[nH]5)C=C4)C=C3)cc1
REMARK SMILES IDX 5 1 4 2 3 3 1 4 2 5 29 7 30 8 91 9 31 10 90 11 32 12 33 13
REMARK SMILES IDX 34 14 84 15 35 16 89 17 83 18 85 19 36 20 88 21 82 22 81 23
REMARK SMILES IDX 37 25 69 26 49 27 68 28 50 29 53 30 67 31 86 32 51 33 52 34
REMARK SMILES IDX 66 36 87 37 54 38 38 39 39 40 47 41 40 42 42 43 48 44 41 45
REMARK SMILES IDX 43 46 44 47 45 48 46 49 70 50 71 51 79 52 72 53 74 54 80 55
REMARK SMILES IDX 73 56 75 57 76 58 77 59 78 60 55 61 56 62 64 63 57 64 59 65
REMARK SMILES IDX 65 66 58 67 60 68 61 69 62 70 63 71 6 72 7 73 8 74 9 76
REMARK SMILES IDX 10 77 11 78 28 79 12 80 14 81 13 82 15 83 16 84 17 85 18 86
REMARK SMILES IDX 19 87 20 88 27 89 21 90 23 91 22 92 24 93 25 94 26 95
REMARK H PARENT 3 6 85 24 53 35 7 75
REMARK Flexibility Score: inf
ROOT
ATOM      1  C   UNL A   1      36.292  21.427  24.723  1.00  0.00     0.042 C 
ENDROOT
BRANCH   1   2
ATOM      2  C   UNL A   1      37.533  21.947  25.424  1.00  0.00     0.118 C 
BRANCH   2   3
ATOM      3  N   UNL A   1      38.482  20.892  25.765  1.00  0.00    -0.352 N 
ATOM      4  O   UNL A   1      40.444  19.976  26.387  1.00  0.00    -0.269 OA
ATOM      5  C   UNL A   1      39.738  20.978  26.325  1.00  0.00     0.251 C 
ATOM      6  H   UNL A   1      38.178  19.978  25.563  1.00  0.00     0.163 HD
BRANCH   5   7
ATOM      7  C   UNL A   1      40.238  22.280  26.820  1.00  0.00     0.039 A 
ATOM      8  C   UNL A   1      39.880  23.461  26.175  1.00  0.00     0.014 A 
ATOM      9  C   UNL A   1      41.086  22.325  27.931  1.00  0.00     0.014 A 
ATOM     10  C   UNL A   1      40.532  24.643  26.491  1.00  0.00     0.010 A 
ATOM     11  C   UNL A   1      41.634  23.548  28.340  1.00  0.00     0.010 A 
ATOM     12  C   UNL A   1      41.396  24.712  27.597  1.00  0.00    -0.014 A 
BRANCH  12  13
ATOM     13  C   UNL A   1      41.936  26.045  27.979  1.00  0.00     0.031 A 
ATOM     14  C   UNL A   1      43.325  26.483  27.601  1.00  0.00     0.074 A 
ATOM     15  C   UNL A   1      41.115  26.890  28.635  1.00  0.00     0.049 A 
ATOM     16  N   UNL A   1      43.889  27.651  27.783  1.00  0.00    -0.248 NA
ATOM     17  C   UNL A   1      44.199  25.495  26.949  1.00  0.00     0.031 C 
ATOM     18  C   UNL A   1      39.769  26.553  29.109  1.00  0.00     0.029 A 
ATOM     19  N   UNL A   1      41.270  28.204  28.995  1.00  0.00    -0.354 N 
ATOM     20  C   UNL A   1      45.187  27.532  27.299  1.00  0.00     0.074 A 
ATOM     21  C   UNL A   1      45.334  26.171  26.828  1.00  0.00     0.031 C 
ATOM     22  C   UNL A   1      39.201  27.642  29.641  1.00  0.00     0.029 A 
ATOM     23  C   UNL A   1      40.163  28.736  29.613  1.00  0.00     0.049 A 
ATOM     24  H   UNL A   1      42.094  28.716  28.827  1.00  0.00     0.167 HD
ATOM     25  C   UNL A   1      46.159  28.475  27.238  1.00  0.00     0.034 A 
ATOM     26  C   UNL A   1      39.942  29.964  30.118  1.00  0.00     0.034 A 
ATOM     27  C   UNL A   1      45.995  29.837  27.683  1.00  0.00     0.049 A 
ATOM     28  C   UNL A   1      41.021  30.997  29.990  1.00  0.00     0.074 A 
ATOM     29  C   UNL A   1      46.908  30.876  27.628  1.00  0.00     0.029 A 
ATOM     30  N   UNL A   1      44.845  30.350  28.263  1.00  0.00    -0.354 N 
ATOM     31  N   UNL A   1      42.198  30.892  29.424  1.00  0.00    -0.248 NA
ATOM     32  C   UNL A   1      40.732  32.325  30.545  1.00  0.00     0.031 C 
ATOM     33  C   UNL A   1      46.314  32.013  28.188  1.00  0.00     0.029 A 
ATOM     34  C   UNL A   1      45.024  31.689  28.573  1.00  0.00     0.049 A 
ATOM     35  H   UNL A   1      44.020  29.838  28.432  1.00  0.00     0.167 HD
ATOM     36  C   UNL A   1      42.789  32.142  29.548  1.00  0.00     0.074 A 
ATOM     37  C   UNL A   1      41.819  33.000  30.197  1.00  0.00     0.031 C 
ATOM     38  C   UNL A   1      44.035  32.537  29.185  1.00  0.00     0.034 A 
BRANCH  25  39
ATOM     39  C   UNL A   1      47.481  28.093  26.620  1.00  0.00     0.023 A 
ATOM     40  C   UNL A   1      48.567  27.769  27.457  1.00  0.00     0.012 A 
ATOM     41  C   UNL A   1      47.624  27.964  25.223  1.00  0.00     0.148 A 
ATOM     42  C   UNL A   1      49.780  27.343  26.917  1.00  0.00     0.002 A 
ATOM     43  C   UNL A   1      48.824  27.501  24.693  1.00  0.00     0.091 A 
ATOM     44  F   UNL A   1      46.586  28.291  24.442  1.00  0.00    -0.205 F 
ATOM     45  C   UNL A   1      49.905  27.199  25.539  1.00  0.00     0.022 A 
BRANCH  43  46
ATOM     46  S   UNL A   1      49.065  27.205  22.938  1.00  0.00     0.127 S 
ATOM     47  O   UNL A   1      50.518  27.061  22.859  1.00  0.00    -0.237 OA
ATOM     48  O   UNL A   1      48.319  25.964  22.729  1.00  0.00    -0.237 OA
ATOM     49  O   UNL A   1      48.516  28.368  22.254  1.00  0.00    -0.744 OA
ENDBRANCH  43  46
ENDBRANCH  25  39
BRANCH  26  50
ATOM     50  C   UNL A   1      38.636  30.275  30.762  1.00  0.00     0.023 A 
ATOM     51  C   UNL A   1      38.405  29.901  32.099  1.00  0.00     0.012 A 
ATOM     52  C   UNL A   1      37.638  30.985  30.066  1.00  0.00     0.148 A 
ATOM     53  C   UNL A   1      37.193  30.202  32.720  1.00  0.00     0.002 A 
ATOM     54  C   UNL A   1      36.462  31.341  30.712  1.00  0.00     0.091 A 
ATOM     55  F   UNL A   1      37.867  31.316  28.787  1.00  0.00    -0.205 F 
ATOM     56  C   UNL A   1      36.227  30.934  32.033  1.00  0.00     0.022 A 
BRANCH  54  57
ATOM     57  S   UNL A   1      35.253  32.422  29.940  1.00  0.00     0.127 S 
ATOM     58  O   UNL A   1      36.082  33.551  29.527  1.00  0.00    -0.237 OA
ATOM     59  O   UNL A   1      34.751  31.592  28.843  1.00  0.00    -0.237 OA
ATOM     60  O   UNL A   1      34.266  32.695  30.977  1.00  0.00    -0.744 OA
ENDBRANCH  54  57
ENDBRANCH  26  50
BRANCH  38  61
ATOM     61  C   UNL A   1      44.408  33.965  29.481  1.00  0.00     0.023 A 
ATOM     62  C   UNL A   1      45.030  34.281  30.707  1.00  0.00     0.012 A 
ATOM     63  C   UNL A   1      44.170  34.987  28.543  1.00  0.00     0.148 A 
ATOM     64  C   UNL A   1      45.367  35.599  31.012  1.00  0.00     0.002 A 
ATOM     65  C   UNL A   1      44.552  36.290  28.835  1.00  0.00     0.091 A 
ATOM     66  F   UNL A   1      43.558  34.671  27.392  1.00  0.00    -0.205 F 
ATOM     67  C   UNL A   1      45.138  36.601  30.073  1.00  0.00     0.022 A 
BRANCH  65  68
ATOM     68  S   UNL A   1      44.374  37.628  27.648  1.00  0.00     0.127 S 
ATOM     69  O   UNL A   1      43.128  37.265  26.975  1.00  0.00    -0.237 OA
ATOM     70  O   UNL A   1      44.279  38.804  28.514  1.00  0.00    -0.237 OA
ATOM     71  O   UNL A   1      45.572  37.586  26.819  1.00  0.00    -0.744 OA
ENDBRANCH  65  68
ENDBRANCH  38  61
ENDBRANCH  12  13
ENDBRANCH   5   7
ENDBRANCH   2   3
ENDBRANCH   1   2
BRANCH   1  72
ATOM     72  C   UNL A   1      35.065  21.396  25.614  1.00  0.00     0.118 C 
BRANCH  72  73
ATOM     73  N   UNL A   1      34.152  20.307  25.268  1.00  0.00    -0.352 N 
ATOM     74  C   UNL A   1      32.793  20.337  25.060  1.00  0.00     0.251 C 
ATOM     75  H   UNL A   1      34.572  19.422  25.169  1.00  0.00     0.163 HD
ATOM     76  O   UNL A   1      32.148  19.299  24.965  1.00  0.00    -0.269 OA
BRANCH  74  77
ATOM     77  C   UNL A   1      32.110  21.640  24.942  1.00  0.00     0.043 A 
ATOM     78  C   UNL A   1      31.451  22.188  26.040  1.00  0.00     0.014 A 
ATOM     79  C   UNL A   1      32.154  22.327  23.726  1.00  0.00     0.062 A 
ATOM     80  C   UNL A   1      30.906  23.469  25.935  1.00  0.00     0.005 A 
ATOM     81  C   UNL A   1      31.696  23.638  23.645  1.00  0.00     0.143 A 
ATOM     82  C   UNL A   1      31.049  24.200  24.747  1.00  0.00     0.048 A 
BRANCH  81  83
ATOM     83  O   UNL A   1      31.874  24.437  22.538  1.00  0.00    -0.379 OA
BRANCH  83  84
ATOM     84  S   UNL A   1      33.109  25.514  22.491  1.00  0.00     0.339 S 
ATOM     85  O   UNL A   1      34.149  25.091  23.417  1.00  0.00    -0.181 OA
ATOM     86  O   UNL A   1      33.432  25.791  21.106  1.00  0.00    -0.181 OA
BRANCH  84  87
ATOM     87  C   UNL A   1      32.429  27.015  23.164  1.00  0.00     0.112 A 
ATOM     88  C   UNL A   1      32.883  27.467  24.410  1.00  0.00     0.024 A 
ATOM     89  C   UNL A   1      31.355  27.638  22.518  1.00  0.00     0.109 A 
ATOM     90  C   UNL A   1      32.267  28.562  25.016  1.00  0.00     0.009 A 
ATOM     91  C   UNL A   1      30.746  28.736  23.139  1.00  0.00     0.270 A 
ATOM     92  C   UNL A   1      31.198  29.199  24.384  1.00  0.00     0.086 A 
BRANCH  91  93
ATOM     93  N   UNL A   1      29.612  29.406  22.489  1.00  0.00     0.062 N 
ATOM     94  O   UNL A   1      28.574  29.550  23.151  1.00  0.00    -0.258 OA
ATOM     95  O   UNL A   1      29.768  29.800  21.325  1.00  0.00    -0.258 OA
ENDBRANCH  91  93
ENDBRANCH  84  87
ENDBRANCH  83  84
ENDBRANCH  81  83
ENDBRANCH  74  77
ENDBRANCH  72  73
ENDBRANCH   1  72
TORSDOF 17
ENDMDL
MODEL 2
REMARK VINA RESULT:     -12.4      0.942      1.342
REMARK SMILES O=C(NCCCNC(=O)c1cccc(OS(=O)(=O)c2cccc([N+](=O)[O-])c2)c1)c1ccc(-c2c3nc(c(-c4cccc(S(=O)(=O)[O-])c4F)c4ccc([nH]4)c(-c4cccc(S(=O)(=O)[O-])c4F)c4nc(c(-c5cccc(S(=O)(=O)[O-])c5F)c5ccc2[nH]5)C=C4)C=C3)cc1
REMARK SMILES IDX 5 1 4 2 3 3 1 4 2 5 29 7 30 8 91 9 31 10 90 11 32 12 33 13
REMARK SMILES IDX 34 14 84 15 35 16 89 17 83 18 85 19 36 20 88 21 82 22 81 23
REMARK SMILES IDX 37 25 69 26 49 27 68 28 50 29 53 30 67 31 86 32 51 33 52 34
REMARK SMILES IDX 66 36 87 37 54 38 38 39 39 40 47 41 40 42 42 43 48 44 41 45
REMARK SMILES IDX 43 46 44 47 45 48 46 49 70 50 71 51 79 52 72 53 74 54 80 55
REMARK SMILES IDX 73 56 75 57 76 58 77 59 78 60 55 61 56 62 64 63 57 64 59 65
REMARK SMILES IDX 65 66 58 67 60 68 61 69 62 70 63 71 6 72 7 73 8 74 9 76
REMARK SMILES IDX 10 77 11 78 28 79 12 80 14 81 13 82 15 83 16 84 17 85 18 86
REMARK SMILES IDX 19 87 20 88 27 89 21 90 23 91 22 92 24 93 25 94 26 95
REMARK H PARENT 3 6 85 24 53 35 7 75
REMARK Flexibility Score: inf
ROOT
ATOM      1  C   UNL A   1      36.498  21.370  24.565  1.00  0.00     0.042 C 
ENDROOT
BRANCH   1   2
ATOM      2  C   UNL A   1      37.620  21.854  25.464  1.00  0.00     0.118 C 
BRANCH   2   3
ATOM      3  N   UNL A   1      38.579  20.805  25.798  1.00  0.00    -0.352 N 
ATOM      4  O   UNL A   1      40.550  19.902  26.408  1.00  0.00    -0.269 OA
ATOM      5  C   UNL A   1      39.836  20.899  26.352  1.00  0.00     0.251 C 
ATOM      6  H   UNL A   1      38.280  19.889  25.595  1.00  0.00     0.163 HD
BRANCH   5   7
ATOM      7  C   UNL A   1      40.330  22.204  26.848  1.00  0.00     0.039 A 
ATOM      8  C   UNL A   1      39.943  23.385  26.220  1.00  0.00     0.014 A 
ATOM      9  C   UNL A   1      41.200  22.251  27.941  1.00  0.00     0.014 A 
ATOM     10  C   UNL A   1      40.586  24.573  26.532  1.00  0.00     0.010 A 
ATOM     11  C   UNL A   1      41.740  23.478  28.349  1.00  0.00     0.010 A 
ATOM     12  C   UNL A   1      41.471  24.645  27.621  1.00  0.00    -0.014 A 
BRANCH  12  13
ATOM     13  C   UNL A   1      42.002  25.981  28.003  1.00  0.00     0.031 A 
ATOM     14  C   UNL A   1      43.389  26.428  27.630  1.00  0.00     0.074 A 
ATOM     15  C   UNL A   1      41.173  26.823  28.655  1.00  0.00     0.049 A 
ATOM     16  N   UNL A   1      43.945  27.599  27.812  1.00  0.00    -0.248 NA
ATOM     17  C   UNL A   1      44.271  25.444  26.983  1.00  0.00     0.031 C 
ATOM     18  C   UNL A   1      39.827  26.478  29.124  1.00  0.00     0.029 A 
ATOM     19  N   UNL A   1      41.318  28.138  29.012  1.00  0.00    -0.354 N 
ATOM     20  C   UNL A   1      45.246  27.487  27.334  1.00  0.00     0.074 A 
ATOM     21  C   UNL A   1      45.404  26.127  26.865  1.00  0.00     0.031 C 
ATOM     22  C   UNL A   1      39.250  27.564  29.651  1.00  0.00     0.029 A 
ATOM     23  C   UNL A   1      40.205  28.664  29.625  1.00  0.00     0.049 A 
ATOM     24  H   UNL A   1      42.139  28.655  28.847  1.00  0.00     0.167 HD
ATOM     25  C   UNL A   1      46.212  28.437  27.275  1.00  0.00     0.034 A 
ATOM     26  C   UNL A   1      39.975  29.891  30.127  1.00  0.00     0.034 A 
ATOM     27  C   UNL A   1      46.037  29.798  27.717  1.00  0.00     0.049 A 
ATOM     28  C   UNL A   1      41.047  30.931  30.002  1.00  0.00     0.074 A 
ATOM     29  C   UNL A   1      46.944  30.842  27.664  1.00  0.00     0.029 A 
ATOM     30  N   UNL A   1      44.882  30.305  28.292  1.00  0.00    -0.354 N 
ATOM     31  N   UNL A   1      42.228  30.833  29.441  1.00  0.00    -0.248 NA
ATOM     32  C   UNL A   1      40.748  32.258  30.554  1.00  0.00     0.031 C 
ATOM     33  C   UNL A   1      46.342  31.977  28.220  1.00  0.00     0.029 A 
ATOM     34  C   UNL A   1      45.052  31.646  28.600  1.00  0.00     0.049 A 
ATOM     35  H   UNL A   1      44.060  29.788  28.458  1.00  0.00     0.167 HD
ATOM     36  C   UNL A   1      42.811  32.086  29.565  1.00  0.00     0.074 A 
ATOM     37  C   UNL A   1      41.832  32.940  30.209  1.00  0.00     0.031 C 
ATOM     38  C   UNL A   1      44.055  32.489  29.206  1.00  0.00     0.034 A 
BRANCH  25  39
ATOM     39  C   UNL A   1      47.539  28.061  26.662  1.00  0.00     0.023 A 
ATOM     40  C   UNL A   1      48.618  27.728  27.505  1.00  0.00     0.012 A 
ATOM     41  C   UNL A   1      47.693  27.949  25.266  1.00  0.00     0.148 A 
ATOM     42  C   UNL A   1      49.836  27.308  26.968  1.00  0.00     0.002 A 
ATOM     43  C   UNL A   1      48.897  27.493  24.740  1.00  0.00     0.091 A 
ATOM     44  F   UNL A   1      46.661  28.286  24.480  1.00  0.00    -0.205 F 
ATOM     45  C   UNL A   1      49.972  27.180  25.590  1.00  0.00     0.022 A 
BRANCH  43  46
ATOM     46  S   UNL A   1      49.152  27.218  22.983  1.00  0.00     0.127 S 
ATOM     47  O   UNL A   1      50.594  26.982  22.927  1.00  0.00    -0.237 OA
ATOM     48  O   UNL A   1      48.331  26.032  22.734  1.00  0.00    -0.237 OA
ATOM     49  O   UNL A   1      48.692  28.427  22.314  1.00  0.00    -0.744 OA
ENDBRANCH  43  46
ENDBRANCH  25  39
BRANCH  26  50
ATOM     50  C   UNL A   1      38.664  30.196  30.766  1.00  0.00     0.023 A 
ATOM     51  C   UNL A   1      38.410  29.774  32.084  1.00  0.00     0.012 A 
ATOM     52  C   UNL A   1      37.685  30.945  30.084  1.00  0.00     0.148 A 
ATOM     53  C   UNL A   1      37.193  30.068  32.701  1.00  0.00     0.002 A 
ATOM     54  C   UNL A   1      36.505  31.292  30.728  1.00  0.00     0.091 A 
ATOM     55  F   UNL A   1      37.935  31.322  28.822  1.00  0.00    -0.205 F 
ATOM     56  C   UNL A   1      36.247  30.838  32.029  1.00  0.00     0.022 A 
BRANCH  54  57
ATOM     57  S   UNL A   1      35.321  32.418  29.982  1.00  0.00     0.127 S 
ATOM     58  O   UNL A   1      34.884  31.661  28.812  1.00  0.00    -0.237 OA
ATOM     59  O   UNL A   1      34.316  32.555  31.038  1.00  0.00    -0.237 OA
ATOM     60  O   UNL A   1      36.070  33.639  29.714  1.00  0.00    -0.744 OA
ENDBRANCH  54  57
ENDBRANCH  26  50
BRANCH  38  61
ATOM     61  C   UNL A   1      44.418  33.919  29.502  1.00  0.00     0.023 A 
ATOM     62  C   UNL A   1      44.924  34.260  30.773  1.00  0.00     0.012 A 
ATOM     63  C   UNL A   1      44.286  34.919  28.520  1.00  0.00     0.148 A 
ATOM     64  C   UNL A   1      45.249  35.581  31.077  1.00  0.00     0.002 A 
ATOM     65  C   UNL A   1      44.657  36.225  28.815  1.00  0.00     0.091 A 
ATOM     66  F   UNL A   1      43.782  34.580  27.324  1.00  0.00    -0.205 F 
ATOM     67  C   UNL A   1      45.125  36.561  30.096  1.00  0.00     0.022 A 
BRANCH  65  68
ATOM     68  S   UNL A   1      44.612  37.533  27.584  1.00  0.00     0.127 S 
ATOM     69  O   UNL A   1      44.972  38.705  28.381  1.00  0.00    -0.237 OA
ATOM     70  O   UNL A   1      45.637  37.104  26.633  1.00  0.00    -0.237 OA
ATOM     71  O   UNL A   1      43.256  37.529  27.049  1.00  0.00    -0.744 OA
ENDBRANCH  65  68
ENDBRANCH  38  61
ENDBRANCH  12  13
ENDBRANCH   5   7
ENDBRANCH   2   3
ENDBRANCH   1   2
BRANCH   1  72
ATOM     72  C   UNL A   1      35.124  21.502  25.193  1.00  0.00     0.118 C 
BRANCH  72  73
ATOM     73  N   UNL A   1      34.248  20.380  24.859  1.00  0.00    -0.352 N 
ATOM     74  C   UNL A   1      32.883  20.351  24.699  1.00  0.00     0.251 C 
ATOM     75  H   UNL A   1      34.703  19.516  24.730  1.00  0.00     0.163 HD
ATOM     76  O   UNL A   1      32.281  19.287  24.608  1.00  0.00    -0.269 OA
BRANCH  74  77
ATOM     77  C   UNL A   1      32.139  21.625  24.629  1.00  0.00     0.043 A 
ATOM     78  C   UNL A   1      31.384  22.056  25.716  1.00  0.00     0.014 A 
ATOM     79  C   UNL A   1      32.222  22.401  23.470  1.00  0.00     0.062 A 
ATOM     80  C   UNL A   1      30.778  23.313  25.667  1.00  0.00     0.005 A 
ATOM     81  C   UNL A   1      31.700  23.690  23.452  1.00  0.00     0.143 A 
ATOM     82  C   UNL A   1      30.956  24.137  24.546  1.00  0.00     0.048 A 
BRANCH  81  83
ATOM     83  O   UNL A   1      31.903  24.577  22.418  1.00  0.00    -0.379 OA
BRANCH  83  84
ATOM     84  S   UNL A   1      33.072  25.721  22.534  1.00  0.00     0.339 S 
ATOM     85  O   UNL A   1      34.093  25.269  23.467  1.00  0.00    -0.181 OA
ATOM     86  O   UNL A   1      33.437  26.149  21.200  1.00  0.00    -0.181 OA
BRANCH  84  87
ATOM     87  C   UNL A   1      32.273  27.109  23.311  1.00  0.00     0.112 A 
ATOM     88  C   UNL A   1      31.119  27.643  22.725  1.00  0.00     0.024 A 
ATOM     89  C   UNL A   1      32.884  27.737  24.402  1.00  0.00     0.109 A 
ATOM     90  C   UNL A   1      30.558  28.812  23.240  1.00  0.00     0.009 A 
ATOM     91  C   UNL A   1      32.310  28.910  24.908  1.00  0.00     0.270 A 
ATOM     92  C   UNL A   1      31.150  29.449  24.331  1.00  0.00     0.086 A 
BRANCH  91  93
ATOM     93  N   UNL A   1      32.933  29.595  26.049  1.00  0.00     0.062 N 
ATOM     94  O   UNL A   1      34.117  29.329  26.301  1.00  0.00    -0.258 OA
ATOM     95  O   UNL A   1      32.242  30.407  26.679  1.00  0.00    -0.258 OA
ENDBRANCH  91  93
ENDBRANCH  84  87
ENDBRANCH  83  84
ENDBRANCH  81  83
ENDBRANCH  74  77
ENDBRANCH  72  73
ENDBRANCH   1  72
TORSDOF 17
ENDMDL
MODEL 3
REMARK VINA RESULT:     -12.2      1.445      7.647
REMARK SMILES O=C(NCCCNC(=O)c1cccc(OS(=O)(=O)c2cccc([N+](=O)[O-])c2)c1)c1ccc(-c2c3nc(c(-c4cccc(S(=O)(=O)[O-])c4F)c4ccc([nH]4)c(-c4cccc(S(=O)(=O)[O-])c4F)c4nc(c(-c5cccc(S(=O)(=O)[O-])c5F)c5ccc2[nH]5)C=C4)C=C3)cc1
REMARK SMILES IDX 5 1 4 2 3 3 1 4 2 5 29 7 30 8 91 9 31 10 90 11 32 12 33 13
REMARK SMILES IDX 34 14 84 15 35 16 89 17 83 18 85 19 36 20 88 21 82 22 81 23
REMARK SMILES IDX 37 25 69 26 49 27 68 28 50 29 53 30 67 31 86 32 51 33 52 34
REMARK SMILES IDX 66 36 87 37 54 38 38 39 39 40 47 41 40 42 42 43 48 44 41 45
REMARK SMILES IDX 43 46 44 47 45 48 46 49 70 50 71 51 79 52 72 53 74 54 80 55
REMARK SMILES IDX 73 56 75 57 76 58 77 59 78 60 55 61 56 62 64 63 57 64 59 65
REMARK SMILES IDX 65 66 58 67 60 68 61 69 62 70 63 71 6 72 7 73 8 74 9 76
REMARK SMILES IDX 10 77 11 78 28 79 12 80 14 81 13 82 15 83 16 84 17 85 18 86
REMARK SMILES IDX 19 87 20 88 27 89 21 90 23 91 22 92 24 93 25 94 26 95
REMARK H PARENT 3 6 85 24 53 35 7 75
REMARK Flexibility Score: inf
ROOT
ATOM      1  C   UNL A   1      37.917  19.487  25.136  1.00  0.00     0.042 C 
ENDROOT
BRANCH   1   2
ATOM      2  C   UNL A   1      39.123  20.200  25.718  1.00  0.00     0.118 C 
BRANCH   2   3
ATOM      3  N   UNL A   1      40.209  19.292  26.072  1.00  0.00    -0.352 N 
ATOM      4  O   UNL A   1      42.322  18.637  26.497  1.00  0.00    -0.269 OA
ATOM      5  C   UNL A   1      41.524  19.562  26.381  1.00  0.00     0.251 C 
ATOM      6  H   UNL A   1      39.964  18.339  26.094  1.00  0.00     0.163 HD
BRANCH   5   7
ATOM      7  C   UNL A   1      41.973  20.964  26.538  1.00  0.00     0.039 A 
ATOM      8  C   UNL A   1      42.264  21.470  27.803  1.00  0.00     0.014 A 
ATOM      9  C   UNL A   1      42.093  21.789  25.416  1.00  0.00     0.014 A 
ATOM     10  C   UNL A   1      42.453  22.833  27.973  1.00  0.00     0.010 A 
ATOM     11  C   UNL A   1      42.426  23.140  25.577  1.00  0.00     0.010 A 
ATOM     12  C   UNL A   1      42.568  23.685  26.861  1.00  0.00    -0.014 A 
BRANCH  12  13
ATOM     13  C   UNL A   1      42.931  25.107  27.105  1.00  0.00     0.031 A 
ATOM     14  C   UNL A   1      42.015  26.053  27.832  1.00  0.00     0.074 A 
ATOM     15  C   UNL A   1      44.150  25.521  26.702  1.00  0.00     0.049 A 
ATOM     16  N   UNL A   1      42.243  27.289  28.199  1.00  0.00    -0.248 NA
ATOM     17  C   UNL A   1      40.671  25.566  28.185  1.00  0.00     0.031 C 
ATOM     18  C   UNL A   1      45.099  24.710  25.933  1.00  0.00     0.029 A 
ATOM     19  N   UNL A   1      44.813  26.704  26.900  1.00  0.00    -0.354 N 
ATOM     20  C   UNL A   1      41.070  27.738  28.796  1.00  0.00     0.074 A 
ATOM     21  C   UNL A   1      40.123  26.646  28.729  1.00  0.00     0.031 C 
ATOM     22  C   UNL A   1      46.240  25.393  25.776  1.00  0.00     0.029 A 
ATOM     23  C   UNL A   1      46.082  26.715  26.369  1.00  0.00     0.049 A 
ATOM     24  H   UNL A   1      44.420  27.471  27.376  1.00  0.00     0.167 HD
ATOM     25  C   UNL A   1      40.815  28.943  29.362  1.00  0.00     0.034 A 
ATOM     26  C   UNL A   1      47.016  27.683  26.343  1.00  0.00     0.034 A 
ATOM     27  C   UNL A   1      41.774  30.016  29.451  1.00  0.00     0.049 A 
ATOM     28  C   UNL A   1      46.718  28.986  27.020  1.00  0.00     0.074 A 
ATOM     29  C   UNL A   1      41.622  31.260  30.038  1.00  0.00     0.029 A 
ATOM     30  N   UNL A   1      43.063  29.974  28.939  1.00  0.00    -0.354 N 
ATOM     31  N   UNL A   1      45.643  29.346  27.679  1.00  0.00    -0.248 NA
ATOM     32  C   UNL A   1      47.770  30.009  26.976  1.00  0.00     0.031 C 
ATOM     33  C   UNL A   1      42.813  31.975  29.870  1.00  0.00     0.029 A 
ATOM     34  C   UNL A   1      43.716  31.170  29.196  1.00  0.00     0.049 A 
ATOM     35  H   UNL A   1      43.456  29.207  28.462  1.00  0.00     0.167 HD
ATOM     36  C   UNL A   1      45.891  30.633  28.134  1.00  0.00     0.074 A 
ATOM     37  C   UNL A   1      47.239  30.970  27.720  1.00  0.00     0.031 C 
ATOM     38  C   UNL A   1      45.069  31.474  28.809  1.00  0.00     0.034 A 
BRANCH  25  39
ATOM     39  C   UNL A   1      39.458  29.161  29.984  1.00  0.00     0.023 A 
ATOM     40  C   UNL A   1      39.206  28.670  31.281  1.00  0.00     0.012 A 
ATOM     41  C   UNL A   1      38.469  29.923  29.330  1.00  0.00     0.148 A 
ATOM     42  C   UNL A   1      37.986  28.917  31.911  1.00  0.00     0.002 A 
ATOM     43  C   UNL A   1      37.270  30.198  29.980  1.00  0.00     0.091 A 
ATOM     44  F   UNL A   1      38.720  30.368  28.092  1.00  0.00    -0.205 F 
ATOM     45  C   UNL A   1      37.024  29.688  31.266  1.00  0.00     0.022 A 
BRANCH  43  46
ATOM     46  S   UNL A   1      35.995  31.247  29.270  1.00  0.00     0.127 S 
ATOM     47  O   UNL A   1      35.352  30.333  28.326  1.00  0.00    -0.237 OA
ATOM     48  O   UNL A   1      35.184  31.581  30.441  1.00  0.00    -0.237 OA
ATOM     49  O   UNL A   1      36.690  32.376  28.669  1.00  0.00    -0.744 OA
ENDBRANCH  43  46
ENDBRANCH  25  39
BRANCH  26  50
ATOM     50  C   UNL A   1      48.322  27.433  25.672  1.00  0.00     0.023 A 
ATOM     51  C   UNL A   1      49.420  26.970  26.420  1.00  0.00     0.012 A 
ATOM     52  C   UNL A   1      48.465  27.610  24.281  1.00  0.00     0.148 A 
ATOM     53  C   UNL A   1      50.644  26.715  25.801  1.00  0.00     0.002 A 
ATOM     54  C   UNL A   1      49.666  27.290  23.661  1.00  0.00     0.091 A 
ATOM     55  F   UNL A   1      47.415  28.072  23.586  1.00  0.00    -0.205 F 
ATOM     56  C   UNL A   1      50.763  26.861  24.421  1.00  0.00     0.022 A 
BRANCH  54  57
ATOM     57  S   UNL A   1      49.833  27.296  21.873  1.00  0.00     0.127 S 
ATOM     58  O   UNL A   1      48.781  26.367  21.471  1.00  0.00    -0.237 OA
ATOM     59  O   UNL A   1      49.576  28.699  21.543  1.00  0.00    -0.237 OA
ATOM     60  O   UNL A   1      51.202  26.867  21.616  1.00  0.00    -0.744 OA
ENDBRANCH  54  57
ENDBRANCH  26  50
BRANCH  38  61
ATOM     61  C   UNL A   1      45.613  32.837  29.141  1.00  0.00     0.023 A 
ATOM     62  C   UNL A   1      46.179  33.070  30.412  1.00  0.00     0.012 A 
ATOM     63  C   UNL A   1      45.590  33.878  28.193  1.00  0.00     0.148 A 
ATOM     64  C   UNL A   1      46.671  34.330  30.748  1.00  0.00     0.002 A 
ATOM     65  C   UNL A   1      46.126  35.117  28.520  1.00  0.00     0.091 A 
ATOM     66  F   UNL A   1      45.027  33.644  26.998  1.00  0.00    -0.205 F 
ATOM     67  C   UNL A   1      46.654  35.349  29.801  1.00  0.00     0.022 A 
BRANCH  65  68
ATOM     68  S   UNL A   1      46.223  36.461  27.331  1.00  0.00     0.127 S 
ATOM     69  O   UNL A   1      46.880  37.505  28.116  1.00  0.00    -0.237 OA
ATOM     70  O   UNL A   1      47.051  35.882  26.273  1.00  0.00    -0.237 OA
ATOM     71  O   UNL A   1      44.849  36.741  26.935  1.00  0.00    -0.744 OA
ENDBRANCH  65  68
ENDBRANCH  38  61
ENDBRANCH  12  13
ENDBRANCH   5   7
ENDBRANCH   2   3
ENDBRANCH   1   2
BRANCH   1  72
ATOM     72  C   UNL A   1      36.715  20.392  24.947  1.00  0.00     0.118 C 
BRANCH  72  73
ATOM     73  N   UNL A   1      35.460  19.644  24.878  1.00  0.00    -0.352 N 
ATOM     74  C   UNL A   1      34.172  20.074  25.092  1.00  0.00     0.251 C 
ATOM     75  H   UNL A   1      35.551  18.692  24.645  1.00  0.00     0.163 HD
ATOM     76  O   UNL A   1      33.247  19.274  25.183  1.00  0.00    -0.269 OA
BRANCH  74  77
ATOM     77  C   UNL A   1      33.904  21.521  25.204  1.00  0.00     0.043 A 
ATOM     78  C   UNL A   1      33.625  22.088  26.445  1.00  0.00     0.014 A 
ATOM     79  C   UNL A   1      33.959  22.317  24.057  1.00  0.00     0.062 A 
ATOM     80  C   UNL A   1      33.482  23.473  26.542  1.00  0.00     0.005 A 
ATOM     81  C   UNL A   1      33.912  23.704  24.163  1.00  0.00     0.143 A 
ATOM     82  C   UNL A   1      33.648  24.280  25.407  1.00  0.00     0.048 A 
BRANCH  81  83
ATOM     83  O   UNL A   1      34.144  24.555  23.106  1.00  0.00    -0.379 OA
BRANCH  83  84
ATOM     84  S   UNL A   1      32.888  25.154  22.241  1.00  0.00     0.339 S 
ATOM     85  O   UNL A   1      33.282  25.279  20.846  1.00  0.00    -0.181 OA
ATOM     86  O   UNL A   1      31.688  24.429  22.601  1.00  0.00    -0.181 OA
BRANCH  84  87
ATOM     87  C   UNL A   1      32.675  26.816  22.844  1.00  0.00     0.112 A 
ATOM     88  C   UNL A   1      33.562  27.306  23.812  1.00  0.00     0.024 A 
ATOM     89  C   UNL A   1      31.550  27.553  22.459  1.00  0.00     0.109 A 
ATOM     90  C   UNL A   1      33.331  28.552  24.395  1.00  0.00     0.009 A 
ATOM     91  C   UNL A   1      31.331  28.802  23.053  1.00  0.00     0.270 A 
ATOM     92  C   UNL A   1      32.217  29.303  24.020  1.00  0.00     0.086 A 
BRANCH  91  93
ATOM     93  N   UNL A   1      30.154  29.595  22.674  1.00  0.00     0.062 N 
ATOM     94  O   UNL A   1      29.531  30.168  23.580  1.00  0.00    -0.258 OA
ATOM     95  O   UNL A   1      29.866  29.657  21.471  1.00  0.00    -0.258 OA
ENDBRANCH  91  93
ENDBRANCH  84  87
ENDBRANCH  83  84
ENDBRANCH  81  83
ENDBRANCH  74  77
ENDBRANCH  72  73
ENDBRANCH   1  72
TORSDOF 17
ENDMDL
