MODEL 1
REMARK VINA RESULT:     -12.5      0.000      0.000
REMARK SMILES O=C(NCCCNC(=O)[C@H]1C=C[C@H](Nc2ccc([N+](=O)[O-])cc2C(F)F)C1)c1ccc(-c2c3nc(c(-c4cccc(S(=O)(=O)[O-])c4F)c4ccc([nH]4)c(-c4cccc(S(=O)(=O)[O-])c4F)c4nc(c(-c5cccc(S(=O)(=O)[O-])c5F)c5ccc2[nH]5)C=C4)C=C3)cc1
REMARK SMILES IDX 5 1 4 2 3 3 1 4 2 5 28 7 29 8 90 9 30 10 89 11 31 12 32 13
REMARK SMILES IDX 33 14 83 15 34 16 88 17 82 18 84 19 35 20 87 21 81 22 80 23
REMARK SMILES IDX 36 25 68 26 48 27 67 28 49 29 52 30 66 31 85 32 50 33 51 34
REMARK SMILES IDX 65 36 86 37 53 38 37 39 38 40 46 41 39 42 41 43 47 44 40 45
REMARK SMILES IDX 42 46 43 47 44 48 45 49 69 50 70 51 78 52 71 53 73 54 79 55
REMARK SMILES IDX 72 56 74 57 75 58 76 59 77 60 54 61 55 62 63 63 56 64 58 65
REMARK SMILES IDX 64 66 57 67 59 68 60 69 61 70 62 71 6 72 7 73 8 74 9 76
REMARK SMILES IDX 10 77 11 78 27 79 12 80 13 81 14 82 15 84 16 85 23 86 17 87
REMARK SMILES IDX 22 88 18 89 24 90 25 91 26 92 19 93 20 94 21 95
REMARK H PARENT 3 6 84 24 52 35 7 75 14 83
REMARK Flexibility Score: inf
ROOT
ATOM      1  C   UNL A   1      33.597  28.742  23.755  1.00  0.00     0.042 C 
ENDROOT
BRANCH   1   2
ATOM      2  C   UNL A   1      33.405  28.855  25.256  1.00  0.00     0.118 C 
BRANCH   2   3
ATOM      3  N   UNL A   1      32.821  30.131  25.635  1.00  0.00    -0.352 N 
ATOM      4  O   UNL A   1      32.365  31.864  26.990  1.00  0.00    -0.269 OA
ATOM      5  C   UNL A   1      33.134  30.953  26.691  1.00  0.00     0.251 C 
ATOM      6  H   UNL A   1      32.096  30.452  25.052  1.00  0.00     0.163 HD
BRANCH   5   7
ATOM      7  C   UNL A   1      34.376  30.728  27.465  1.00  0.00     0.039 A 
ATOM      8  C   UNL A   1      34.627  29.488  28.053  1.00  0.00     0.014 A 
ATOM      9  C   UNL A   1      35.317  31.756  27.585  1.00  0.00     0.014 A 
ATOM     10  C   UNL A   1      35.716  29.328  28.896  1.00  0.00     0.010 A 
ATOM     11  C   UNL A   1      36.484  31.549  28.329  1.00  0.00     0.010 A 
ATOM     12  C   UNL A   1      36.682  30.340  29.012  1.00  0.00    -0.014 A 
BRANCH  12  13
ATOM     13  C   UNL A   1      37.928  30.034  29.761  1.00  0.00     0.031 A 
ATOM     14  C   UNL A   1      38.178  30.568  31.142  1.00  0.00     0.074 A 
ATOM     15  C   UNL A   1      38.825  29.213  29.176  1.00  0.00     0.049 A 
ATOM     16  N   UNL A   1      39.180  30.315  31.945  1.00  0.00    -0.248 NA
ATOM     17  C   UNL A   1      37.192  31.510  31.694  1.00  0.00     0.031 C 
ATOM     18  C   UNL A   1      38.714  28.684  27.812  1.00  0.00     0.029 A 
ATOM     19  N   UNL A   1      39.988  28.661  29.647  1.00  0.00    -0.354 N 
ATOM     20  C   UNL A   1      38.963  31.081  33.084  1.00  0.00     0.074 A 
ATOM     21  C   UNL A   1      37.741  31.825  32.861  1.00  0.00     0.031 C 
ATOM     22  C   UNL A   1      39.734  27.851  27.574  1.00  0.00     0.029 A 
ATOM     23  C   UNL A   1      40.610  27.838  28.737  1.00  0.00     0.049 A 
ATOM     24  H   UNL A   1      40.343  28.838  30.547  1.00  0.00     0.167 HD
ATOM     25  C   UNL A   1      39.704  31.141  34.217  1.00  0.00     0.034 A 
ATOM     26  C   UNL A   1      41.769  27.159  28.819  1.00  0.00     0.034 A 
ATOM     27  C   UNL A   1      40.910  30.383  34.434  1.00  0.00     0.049 A 
ATOM     28  C   UNL A   1      42.550  27.226  30.097  1.00  0.00     0.074 A 
ATOM     29  C   UNL A   1      41.716  30.351  35.559  1.00  0.00     0.029 A 
ATOM     30  N   UNL A   1      41.489  29.528  33.508  1.00  0.00    -0.354 N 
ATOM     31  N   UNL A   1      42.265  27.868  31.203  1.00  0.00    -0.248 NA
ATOM     32  C   UNL A   1      43.796  26.451  30.150  1.00  0.00     0.031 C 
ATOM     33  C   UNL A   1      42.792  29.493  35.305  1.00  0.00     0.029 A 
ATOM     34  C   UNL A   1      42.640  28.965  34.033  1.00  0.00     0.049 A 
ATOM     35  H   UNL A   1      41.133  29.348  32.608  1.00  0.00     0.167 HD
ATOM     36  C   UNL A   1      43.287  27.564  32.091  1.00  0.00     0.074 A 
ATOM     37  C   UNL A   1      44.173  26.644  31.406  1.00  0.00     0.031 C 
ATOM     38  C   UNL A   1      43.490  28.023  33.351  1.00  0.00     0.034 A 
BRANCH  25  39
ATOM     39  C   UNL A   1      39.213  32.028  35.335  1.00  0.00     0.023 A 
ATOM     40  C   UNL A   1      38.262  31.529  36.248  1.00  0.00     0.012 A 
ATOM     41  C   UNL A   1      39.745  33.317  35.530  1.00  0.00     0.148 A 
ATOM     42  C   UNL A   1      37.828  32.307  37.322  1.00  0.00     0.002 A 
ATOM     43  C   UNL A   1      39.341  34.072  36.627  1.00  0.00     0.091 A 
ATOM     44  F   UNL A   1      40.637  33.782  34.643  1.00  0.00    -0.205 F 
ATOM     45  C   UNL A   1      38.376  33.573  37.517  1.00  0.00     0.022 A 
BRANCH  43  46
ATOM     46  S   UNL A   1      40.039  35.682  37.014  1.00  0.00     0.127 S 
ATOM     47  O   UNL A   1      39.659  36.459  35.835  1.00  0.00    -0.237 OA
ATOM     48  O   UNL A   1      39.322  36.041  38.238  1.00  0.00    -0.237 OA
ATOM     49  O   UNL A   1      41.469  35.471  37.185  1.00  0.00    -0.744 OA
ENDBRANCH  43  46
ENDBRANCH  25  39
BRANCH  26  50
ATOM     50  C   UNL A   1      42.241  26.355  27.657  1.00  0.00     0.023 A 
ATOM     51  C   UNL A   1      43.110  26.929  26.709  1.00  0.00     0.012 A 
ATOM     52  C   UNL A   1      41.859  25.007  27.510  1.00  0.00     0.148 A 
ATOM     53  C   UNL A   1      43.558  26.186  25.617  1.00  0.00     0.002 A 
ATOM     54  C   UNL A   1      42.364  24.253  26.460  1.00  0.00     0.091 A 
ATOM     55  F   UNL A   1      41.020  24.482  28.414  1.00  0.00    -0.205 F 
ATOM     56  C   UNL A   1      43.198  24.845  25.499  1.00  0.00     0.022 A 
BRANCH  54  57
ATOM     57  S   UNL A   1      42.073  22.485  26.332  1.00  0.00     0.127 S 
ATOM     58  O   UNL A   1      42.782  22.154  25.099  1.00  0.00    -0.237 OA
ATOM     59  O   UNL A   1      42.697  21.984  27.557  1.00  0.00    -0.237 OA
ATOM     60  O   UNL A   1      40.625  22.334  26.296  1.00  0.00    -0.744 OA
ENDBRANCH  54  57
ENDBRANCH  26  50
BRANCH  38  61
ATOM     61  C   UNL A   1      44.710  27.515  34.072  1.00  0.00     0.023 A 
ATOM     62  C   UNL A   1      45.917  28.241  34.006  1.00  0.00     0.012 A 
ATOM     63  C   UNL A   1      44.654  26.334  34.837  1.00  0.00     0.148 A 
ATOM     64  C   UNL A   1      47.060  27.774  34.651  1.00  0.00     0.002 A 
ATOM     65  C   UNL A   1      45.784  25.903  35.520  1.00  0.00     0.091 A 
ATOM     66  F   UNL A   1      43.503  25.647  34.871  1.00  0.00    -0.205 F 
ATOM     67  C   UNL A   1      46.992  26.612  35.416  1.00  0.00     0.022 A 
BRANCH  65  68
ATOM     68  S   UNL A   1      45.764  24.470  36.601  1.00  0.00     0.127 S 
ATOM     69  O   UNL A   1      44.646  24.781  37.488  1.00  0.00    -0.237 OA
ATOM     70  O   UNL A   1      45.511  23.376  35.662  1.00  0.00    -0.237 OA
ATOM     71  O   UNL A   1      47.075  24.428  37.235  1.00  0.00    -0.744 OA
ENDBRANCH  65  68
ENDBRANCH  38  61
ENDBRANCH  12  13
ENDBRANCH   5   7
ENDBRANCH   2   3
ENDBRANCH   1   2
BRANCH   1  72
ATOM     72  C   UNL A   1      32.335  28.303  23.017  1.00  0.00     0.117 C 
BRANCH  72  73
ATOM     73  N   UNL A   1      32.665  27.514  21.846  1.00  0.00    -0.356 N 
ATOM     74  C   UNL A   1      32.973  26.201  21.690  1.00  0.00     0.227 C 
ATOM     75  H   UNL A   1      32.665  28.028  21.006  1.00  0.00     0.163 HD
ATOM     76  O   UNL A   1      33.277  25.856  20.541  1.00  0.00    -0.274 OA
BRANCH  74  77
ATOM     77  C   UNL A   1      32.830  25.152  22.811  1.00  0.00     0.103 C 
ATOM     78  C   UNL A   1      31.373  24.847  23.046  1.00  0.00    -0.016 C 
ATOM     79  C   UNL A   1      33.422  23.751  22.630  1.00  0.00     0.046 C 
ATOM     80  C   UNL A   1      31.131  23.539  23.165  1.00  0.00    -0.006 C 
ATOM     81  C   UNL A   1      32.360  22.720  23.013  1.00  0.00     0.103 C 
BRANCH  81  82
ATOM     82  N   UNL A   1      32.715  22.106  24.281  1.00  0.00    -0.378 N 
ATOM     83  H   UNL A   1      32.695  22.637  25.108  1.00  0.00     0.161 HD
BRANCH  82  84
ATOM     84  C   UNL A   1      33.085  20.765  24.320  1.00  0.00     0.044 A 
ATOM     85  C   UNL A   1      32.148  19.829  23.850  1.00  0.00     0.033 A 
ATOM     86  C   UNL A   1      34.357  20.311  24.720  1.00  0.00     0.048 A 
ATOM     87  C   UNL A   1      32.463  18.476  23.732  1.00  0.00     0.088 A 
ATOM     88  C   UNL A   1      34.685  18.946  24.575  1.00  0.00     0.097 A 
ATOM     89  C   UNL A   1      33.742  18.041  24.078  1.00  0.00     0.270 A 
BRANCH  86  90
ATOM     90  C   UNL A   1      35.397  21.218  25.330  1.00  0.00     0.375 C 
ATOM     91  F   UNL A   1      36.630  20.636  25.380  1.00  0.00    -0.205 F 
ATOM     92  F   UNL A   1      35.562  22.366  24.615  1.00  0.00    -0.205 F 
ENDBRANCH  86  90
BRANCH  89  93
ATOM     93  N   UNL A   1      34.093  16.624  23.920  1.00  0.00     0.062 N 
ATOM     94  O   UNL A   1      34.274  16.205  22.767  1.00  0.00    -0.258 OA
ATOM     95  O   UNL A   1      34.186  15.933  24.942  1.00  0.00    -0.258 OA
ENDBRANCH  89  93
ENDBRANCH  82  84
ENDBRANCH  81  82
ENDBRANCH  74  77
ENDBRANCH  72  73
ENDBRANCH   1  72
TORSDOF 17
ENDMDL
MODEL 2
REMARK VINA RESULT:     -12.3      5.458     10.613
REMARK SMILES O=C(NCCCNC(=O)[C@H]1C=C[C@H](Nc2ccc([N+](=O)[O-])cc2C(F)F)C1)c1ccc(-c2c3nc(c(-c4cccc(S(=O)(=O)[O-])c4F)c4ccc([nH]4)c(-c4cccc(S(=O)(=O)[O-])c4F)c4nc(c(-c5cccc(S(=O)(=O)[O-])c5F)c5ccc2[nH]5)C=C4)C=C3)cc1
REMARK SMILES IDX 5 1 4 2 3 3 1 4 2 5 28 7 29 8 90 9 30 10 89 11 31 12 32 13
REMARK SMILES IDX 33 14 83 15 34 16 88 17 82 18 84 19 35 20 87 21 81 22 80 23
REMARK SMILES IDX 36 25 68 26 48 27 67 28 49 29 52 30 66 31 85 32 50 33 51 34
REMARK SMILES IDX 65 36 86 37 53 38 37 39 38 40 46 41 39 42 41 43 47 44 40 45
REMARK SMILES IDX 42 46 43 47 44 48 45 49 69 50 70 51 78 52 71 53 73 54 79 55
REMARK SMILES IDX 72 56 74 57 75 58 76 59 77 60 54 61 55 62 63 63 56 64 58 65
REMARK SMILES IDX 64 66 57 67 59 68 60 69 61 70 62 71 6 72 7 73 8 74 9 76
REMARK SMILES IDX 10 77 11 78 27 79 12 80 13 81 14 82 15 84 16 85 23 86 17 87
REMARK SMILES IDX 22 88 18 89 24 90 25 91 26 92 19 93 20 94 21 95
REMARK H PARENT 3 6 84 24 52 35 7 75 14 83
REMARK Flexibility Score: inf
ROOT
ATOM      1  C   UNL A   1      34.743  22.324  26.914  1.00  0.00     0.042 C 
ENDROOT
BRANCH   1   2
ATOM      2  C   UNL A   1      35.908  22.638  25.994  1.00  0.00     0.118 C 
BRANCH   2   3
ATOM      3  N   UNL A   1      36.788  21.494  25.819  1.00  0.00    -0.352 N 
ATOM      4  O   UNL A   1      38.723  20.430  25.404  1.00  0.00    -0.269 OA
ATOM      5  C   UNL A   1      38.161  21.444  25.814  1.00  0.00     0.251 C 
ATOM      6  H   UNL A   1      36.335  20.631  25.685  1.00  0.00     0.163 HD
BRANCH   5   7
ATOM      7  C   UNL A   1      38.950  22.607  26.282  1.00  0.00     0.039 A 
ATOM      8  C   UNL A   1      38.641  23.894  25.840  1.00  0.00     0.014 A 
ATOM      9  C   UNL A   1      39.993  22.419  27.194  1.00  0.00     0.014 A 
ATOM     10  C   UNL A   1      39.470  24.957  26.164  1.00  0.00     0.010 A 
ATOM     11  C   UNL A   1      40.749  23.515  27.625  1.00  0.00     0.010 A 
ATOM     12  C   UNL A   1      40.509  24.791  27.094  1.00  0.00    -0.014 A 
BRANCH  12  13
ATOM     13  C   UNL A   1      41.228  26.005  27.560  1.00  0.00     0.031 A 
ATOM     14  C   UNL A   1      42.650  26.287  27.167  1.00  0.00     0.074 A 
ATOM     15  C   UNL A   1      40.545  26.885  28.321  1.00  0.00     0.049 A 
ATOM     16  N   UNL A   1      43.374  27.345  27.430  1.00  0.00    -0.248 NA
ATOM     17  C   UNL A   1      43.357  25.256  26.392  1.00  0.00     0.031 C 
ATOM     18  C   UNL A   1      39.178  26.683  28.814  1.00  0.00     0.029 A 
ATOM     19  N   UNL A   1      40.885  28.124  28.798  1.00  0.00    -0.354 N 
ATOM     20  C   UNL A   1      44.626  27.101  26.878  1.00  0.00     0.074 A 
ATOM     21  C   UNL A   1      44.570  25.783  26.281  1.00  0.00     0.031 C 
ATOM     22  C   UNL A   1      38.780  27.775  29.478  1.00  0.00     0.029 A 
ATOM     23  C   UNL A   1      39.882  28.726  29.521  1.00  0.00     0.049 A 
ATOM     24  H   UNL A   1      41.762  28.541  28.638  1.00  0.00     0.167 HD
ATOM     25  C   UNL A   1      45.713  27.910  26.856  1.00  0.00     0.034 A 
ATOM     26  C   UNL A   1      39.855  29.906  30.168  1.00  0.00     0.034 A 
ATOM     27  C   UNL A   1      45.751  29.227  27.440  1.00  0.00     0.049 A 
ATOM     28  C   UNL A   1      41.065  30.789  30.099  1.00  0.00     0.074 A 
ATOM     29  C   UNL A   1      46.794  30.137  27.443  1.00  0.00     0.029 A 
ATOM     30  N   UNL A   1      44.704  29.821  28.130  1.00  0.00    -0.354 N 
ATOM     31  N   UNL A   1      42.198  30.584  29.474  1.00  0.00    -0.248 NA
ATOM     32  C   UNL A   1      40.982  32.077  30.799  1.00  0.00     0.031 C 
ATOM     33  C   UNL A   1      46.384  31.272  28.153  1.00  0.00     0.029 A 
ATOM     34  C   UNL A   1      45.075  31.083  28.565  1.00  0.00     0.049 A 
ATOM     35  H   UNL A   1      43.826  29.406  28.288  1.00  0.00     0.167 HD
ATOM     36  C   UNL A   1      42.960  31.724  29.691  1.00  0.00     0.074 A 
ATOM     37  C   UNL A   1      42.140  32.632  30.467  1.00  0.00     0.031 C 
ATOM     38  C   UNL A   1      44.233  31.988  29.304  1.00  0.00     0.034 A 
BRANCH  25  39
ATOM     39  C   UNL A   1      46.946  27.416  26.140  1.00  0.00     0.023 A 
ATOM     40  C   UNL A   1      47.829  26.541  26.803  1.00  0.00     0.012 A 
ATOM     41  C   UNL A   1      47.189  27.750  24.793  1.00  0.00     0.148 A 
ATOM     42  C   UNL A   1      48.948  26.026  26.149  1.00  0.00     0.002 A 
ATOM     43  C   UNL A   1      48.283  27.200  24.133  1.00  0.00     0.091 A 
ATOM     44  F   UNL A   1      46.348  28.596  24.182  1.00  0.00    -0.205 F 
ATOM     45  C   UNL A   1      49.169  26.348  24.812  1.00  0.00     0.022 A 
BRANCH  43  46
ATOM     46  S   UNL A   1      48.616  27.487  22.390  1.00  0.00     0.127 S 
ATOM     47  O   UNL A   1      47.459  28.290  21.998  1.00  0.00    -0.237 OA
ATOM     48  O   UNL A   1      49.881  28.220  22.436  1.00  0.00    -0.237 OA
ATOM     49  O   UNL A   1      48.696  26.170  21.773  1.00  0.00    -0.744 OA
ENDBRANCH  43  46
ENDBRANCH  25  39
BRANCH  26  50
ATOM     50  C   UNL A   1      38.634  30.312  30.919  1.00  0.00     0.023 A 
ATOM     51  C   UNL A   1      38.514  30.005  32.288  1.00  0.00     0.012 A 
ATOM     52  C   UNL A   1      37.605  31.037  30.285  1.00  0.00     0.148 A 
ATOM     53  C   UNL A   1      37.375  30.381  33.001  1.00  0.00     0.002 A 
ATOM     54  C   UNL A   1      36.508  31.468  31.016  1.00  0.00     0.091 A 
ATOM     55  F   UNL A   1      37.730  31.307  28.977  1.00  0.00    -0.205 F 
ATOM     56  C   UNL A   1      36.379  31.123  32.371  1.00  0.00     0.022 A 
BRANCH  54  57
ATOM     57  S   UNL A   1      35.266  32.559  30.314  1.00  0.00     0.127 S 
ATOM     58  O   UNL A   1      34.352  32.734  31.440  1.00  0.00    -0.237 OA
ATOM     59  O   UNL A   1      36.057  33.741  29.972  1.00  0.00    -0.237 OA
ATOM     60  O   UNL A   1      34.731  31.847  29.162  1.00  0.00    -0.744 OA
ENDBRANCH  54  57
ENDBRANCH  26  50
BRANCH  38  61
ATOM     61  C   UNL A   1      44.802  33.323  29.702  1.00  0.00     0.023 A 
ATOM     62  C   UNL A   1      45.462  33.464  30.940  1.00  0.00     0.012 A 
ATOM     63  C   UNL A   1      44.709  34.432  28.839  1.00  0.00     0.148 A 
ATOM     64  C   UNL A   1      45.977  34.698  31.332  1.00  0.00     0.002 A 
ATOM     65  C   UNL A   1      45.270  35.646  29.214  1.00  0.00     0.091 A 
ATOM     66  F   UNL A   1      44.059  34.284  27.675  1.00  0.00    -0.205 F 
ATOM     67  C   UNL A   1      45.890  35.785  30.467  1.00  0.00     0.022 A 
BRANCH  65  68
ATOM     68  S   UNL A   1      45.286  37.073  28.126  1.00  0.00     0.127 S 
ATOM     69  O   UNL A   1      46.197  37.974  28.829  1.00  0.00    -0.237 OA
ATOM     70  O   UNL A   1      45.821  36.512  26.885  1.00  0.00    -0.237 OA
ATOM     71  O   UNL A   1      43.903  37.524  28.036  1.00  0.00    -0.744 OA
ENDBRANCH  65  68
ENDBRANCH  38  61
ENDBRANCH  12  13
ENDBRANCH   5   7
ENDBRANCH   2   3
ENDBRANCH   1   2
BRANCH   1  72
ATOM     72  C   UNL A   1      33.583  21.633  26.202  1.00  0.00     0.117 C 
BRANCH  72  73
ATOM     73  N   UNL A   1      32.318  21.965  26.827  1.00  0.00    -0.356 N 
ATOM     74  C   UNL A   1      31.509  23.052  26.725  1.00  0.00     0.227 C 
ATOM     75  H   UNL A   1      31.982  21.273  27.440  1.00  0.00     0.163 HD
ATOM     76  O   UNL A   1      30.515  23.049  27.462  1.00  0.00    -0.274 OA
BRANCH  74  77
ATOM     77  C   UNL A   1      31.705  24.165  25.677  1.00  0.00     0.103 C 
ATOM     78  C   UNL A   1      31.002  23.795  24.397  1.00  0.00    -0.016 C 
ATOM     79  C   UNL A   1      31.159  25.572  25.943  1.00  0.00     0.046 C 
ATOM     80  C   UNL A   1      30.307  24.810  23.875  1.00  0.00    -0.006 C 
ATOM     81  C   UNL A   1      30.389  26.037  24.707  1.00  0.00     0.103 C 
BRANCH  81  82
ATOM     82  N   UNL A   1      31.153  27.062  24.016  1.00  0.00    -0.378 N 
ATOM     83  H   UNL A   1      32.068  26.872  23.710  1.00  0.00     0.161 HD
BRANCH  82  84
ATOM     84  C   UNL A   1      30.586  28.312  23.790  1.00  0.00     0.044 A 
ATOM     85  C   UNL A   1      29.600  28.396  22.792  1.00  0.00     0.033 A 
ATOM     86  C   UNL A   1      30.883  29.460  24.550  1.00  0.00     0.048 A 
ATOM     87  C   UNL A   1      28.884  29.572  22.569  1.00  0.00     0.088 A 
ATOM     88  C   UNL A   1      30.139  30.642  24.344  1.00  0.00     0.097 A 
ATOM     89  C   UNL A   1      29.144  30.689  23.362  1.00  0.00     0.270 A 
BRANCH  86  90
ATOM     90  C   UNL A   1      31.990  29.501  25.574  1.00  0.00     0.375 C 
ATOM     91  F   UNL A   1      32.249  30.769  26.009  1.00  0.00    -0.205 F 
ATOM     92  F   UNL A   1      31.684  28.786  26.692  1.00  0.00    -0.205 F 
ENDBRANCH  86  90
BRANCH  89  93
ATOM     93  N   UNL A   1      28.367  31.918  23.160  1.00  0.00     0.062 N 
ATOM     94  O   UNL A   1      27.134  31.838  23.255  1.00  0.00    -0.258 OA
ATOM     95  O   UNL A   1      28.986  32.959  22.905  1.00  0.00    -0.258 OA
ENDBRANCH  89  93
ENDBRANCH  82  84
ENDBRANCH  81  82
ENDBRANCH  74  77
ENDBRANCH  72  73
ENDBRANCH   1  72
TORSDOF 17
ENDMDL
MODEL 3
REMARK VINA RESULT:     -12.1      1.835      2.504
REMARK SMILES O=C(NCCCNC(=O)[C@H]1C=C[C@H](Nc2ccc([N+](=O)[O-])cc2C(F)F)C1)c1ccc(-c2c3nc(c(-c4cccc(S(=O)(=O)[O-])c4F)c4ccc([nH]4)c(-c4cccc(S(=O)(=O)[O-])c4F)c4nc(c(-c5cccc(S(=O)(=O)[O-])c5F)c5ccc2[nH]5)C=C4)C=C3)cc1
REMARK SMILES IDX 5 1 4 2 3 3 1 4 2 5 28 7 29 8 90 9 30 10 89 11 31 12 32 13
REMARK SMILES IDX 33 14 83 15 34 16 88 17 82 18 84 19 35 20 87 21 81 22 80 23
REMARK SMILES IDX 36 25 68 26 48 27 67 28 49 29 52 30 66 31 85 32 50 33 51 34
REMARK SMILES IDX 65 36 86 37 53 38 37 39 38 40 46 41 39 42 41 43 47 44 40 45
REMARK SMILES IDX 42 46 43 47 44 48 45 49 69 50 70 51 78 52 71 53 73 54 79 55
REMARK SMILES IDX 72 56 74 57 75 58 76 59 77 60 54 61 55 62 63 63 56 64 58 65
REMARK SMILES IDX 64 66 57 67 59 68 60 69 61 70 62 71 6 72 7 73 8 74 9 76
REMARK SMILES IDX 10 77 11 78 27 79 12 80 13 81 14 82 15 84 16 85 23 86 17 87
REMARK SMILES IDX 22 88 18 89 24 90 25 91 26 92 19 93 20 94 21 95
REMARK H PARENT 3 6 84 24 52 35 7 75 14 83
REMARK Flexibility Score: inf
ROOT
ATOM      1  C   UNL A   1      34.190  28.448  24.880  1.00  0.00     0.042 C 
ENDROOT
BRANCH   1   2
ATOM      2  C   UNL A   1      33.972  28.662  26.366  1.00  0.00     0.118 C 
BRANCH   2   3
ATOM      3  N   UNL A   1      33.826  30.070  26.697  1.00  0.00    -0.352 N 
ATOM      4  O   UNL A   1      34.119  31.942  27.905  1.00  0.00    -0.269 OA
ATOM      5  C   UNL A   1      34.550  30.838  27.576  1.00  0.00     0.251 C 
ATOM      6  H   UNL A   1      33.103  30.541  26.223  1.00  0.00     0.163 HD
BRANCH   5   7
ATOM      7  C   UNL A   1      35.825  30.330  28.132  1.00  0.00     0.039 A 
ATOM      8  C   UNL A   1      37.022  30.525  27.442  1.00  0.00     0.014 A 
ATOM      9  C   UNL A   1      35.835  29.676  29.368  1.00  0.00     0.014 A 
ATOM     10  C   UNL A   1      38.188  29.923  27.892  1.00  0.00     0.010 A 
ATOM     11  C   UNL A   1      37.038  29.183  29.886  1.00  0.00     0.010 A 
ATOM     12  C   UNL A   1      38.222  29.280  29.140  1.00  0.00    -0.014 A 
BRANCH  12  13
ATOM     13  C   UNL A   1      39.540  28.839  29.663  1.00  0.00     0.031 A 
ATOM     14  C   UNL A   1      40.153  29.449  30.890  1.00  0.00     0.074 A 
ATOM     15  C   UNL A   1      40.162  27.828  29.022  1.00  0.00     0.049 A 
ATOM     16  N   UNL A   1      41.255  29.106  31.508  1.00  0.00    -0.248 NA
ATOM     17  C   UNL A   1      39.455  30.590  31.502  1.00  0.00     0.031 C 
ATOM     18  C   UNL A   1      39.687  27.201  27.783  1.00  0.00     0.029 A 
ATOM     19  N   UNL A   1      41.306  27.135  29.322  1.00  0.00    -0.354 N 
ATOM     20  C   UNL A   1      41.399  30.000  32.562  1.00  0.00     0.074 A 
ATOM     21  C   UNL A   1      40.279  30.916  32.490  1.00  0.00     0.031 C 
ATOM     22  C   UNL A   1      40.501  26.190  27.457  1.00  0.00     0.029 A 
ATOM     23  C   UNL A   1      41.593  26.137  28.419  1.00  0.00     0.049 A 
ATOM     24  H   UNL A   1      41.866  27.332  30.105  1.00  0.00     0.167 HD
ATOM     25  C   UNL A   1      42.366  30.040  33.512  1.00  0.00     0.034 A 
ATOM     26  C   UNL A   1      42.632  25.284  28.356  1.00  0.00     0.034 A 
ATOM     27  C   UNL A   1      43.467  29.113  33.582  1.00  0.00     0.049 A 
ATOM     28  C   UNL A   1      43.668  25.336  29.438  1.00  0.00     0.074 A 
ATOM     29  C   UNL A   1      44.480  29.050  34.523  1.00  0.00     0.029 A 
ATOM     30  N   UNL A   1      43.704  28.090  32.675  1.00  0.00    -0.354 N 
ATOM     31  N   UNL A   1      43.721  26.117  30.490  1.00  0.00    -0.248 NA
ATOM     32  C   UNL A   1      44.771  24.371  29.344  1.00  0.00     0.031 C 
ATOM     33  C   UNL A   1      45.341  28.003  34.173  1.00  0.00     0.029 A 
ATOM     34  C   UNL A   1      44.847  27.393  33.031  1.00  0.00     0.049 A 
ATOM     35  H   UNL A   1      43.143  27.890  31.891  1.00  0.00     0.167 HD
ATOM     36  C   UNL A   1      44.854  25.729  31.192  1.00  0.00     0.074 A 
ATOM     37  C   UNL A   1      45.431  24.613  30.468  1.00  0.00     0.031 C 
ATOM     38  C   UNL A   1      45.385  26.262  32.320  1.00  0.00     0.034 A 
BRANCH  25  39
ATOM     39  C   UNL A   1      42.258  31.096  34.584  1.00  0.00     0.023 A 
ATOM     40  C   UNL A   1      41.601  30.792  35.793  1.00  0.00     0.012 A 
ATOM     41  C   UNL A   1      42.870  32.356  34.430  1.00  0.00     0.148 A 
ATOM     42  C   UNL A   1      41.532  31.731  36.822  1.00  0.00     0.002 A 
ATOM     43  C   UNL A   1      42.835  33.272  35.476  1.00  0.00     0.091 A 
ATOM     44  F   UNL A   1      43.477  32.634  33.267  1.00  0.00    -0.205 F 
ATOM     45  C   UNL A   1      42.157  32.965  36.668  1.00  0.00     0.022 A 
BRANCH  43  46
ATOM     46  S   UNL A   1      43.674  34.860  35.411  1.00  0.00     0.127 S 
ATOM     47  O   UNL A   1      45.060  34.452  35.188  1.00  0.00    -0.237 OA
ATOM     48  O   UNL A   1      43.033  35.498  34.260  1.00  0.00    -0.237 OA
ATOM     49  O   UNL A   1      43.414  35.507  36.689  1.00  0.00    -0.744 OA
ENDBRANCH  43  46
ENDBRANCH  25  39
BRANCH  26  50
ATOM     50  C   UNL A   1      42.723  24.308  27.235  1.00  0.00     0.023 A 
ATOM     51  C   UNL A   1      43.475  24.622  26.086  1.00  0.00     0.012 A 
ATOM     52  C   UNL A   1      42.096  23.049  27.321  1.00  0.00     0.148 A 
ATOM     53  C   UNL A   1      43.568  23.715  25.030  1.00  0.00     0.002 A 
ATOM     54  C   UNL A   1      42.250  22.125  26.297  1.00  0.00     0.091 A 
ATOM     55  F   UNL A   1      41.372  22.773  28.415  1.00  0.00    -0.205 F 
ATOM     56  C   UNL A   1      42.968  22.463  25.140  1.00  0.00     0.022 A 
BRANCH  54  57
ATOM     57  S   UNL A   1      41.642  20.441  26.436  1.00  0.00     0.127 S 
ATOM     58  O   UNL A   1      42.359  19.774  25.354  1.00  0.00    -0.237 OA
ATOM     59  O   UNL A   1      42.075  20.071  27.784  1.00  0.00    -0.237 OA
ATOM     60  O   UNL A   1      40.197  20.537  26.281  1.00  0.00    -0.744 OA
ENDBRANCH  54  57
ENDBRANCH  26  50
BRANCH  38  61
ATOM     61  C   UNL A   1      46.643  25.625  32.847  1.00  0.00     0.023 A 
ATOM     62  C   UNL A   1      47.901  26.098  32.420  1.00  0.00     0.012 A 
ATOM     63  C   UNL A   1      46.581  24.577  33.785  1.00  0.00     0.148 A 
ATOM     64  C   UNL A   1      49.075  25.507  32.882  1.00  0.00     0.002 A 
ATOM     65  C   UNL A   1      47.756  24.027  34.281  1.00  0.00     0.091 A 
ATOM     66  F   UNL A   1      45.376  24.127  34.163  1.00  0.00    -0.205 F 
ATOM     67  C   UNL A   1      49.003  24.479  33.819  1.00  0.00     0.022 A 
BRANCH  65  68
ATOM     68  S   UNL A   1      47.761  22.764  35.557  1.00  0.00     0.127 S 
ATOM     69  O   UNL A   1      47.091  21.655  34.881  1.00  0.00    -0.237 OA
ATOM     70  O   UNL A   1      49.192  22.561  35.789  1.00  0.00    -0.237 OA
ATOM     71  O   UNL A   1      47.043  23.335  36.688  1.00  0.00    -0.744 OA
ENDBRANCH  65  68
ENDBRANCH  38  61
ENDBRANCH  12  13
ENDBRANCH   5   7
ENDBRANCH   2   3
ENDBRANCH   1   2
BRANCH   1  72
ATOM     72  C   UNL A   1      32.888  28.342  24.089  1.00  0.00     0.117 C 
BRANCH  72  73
ATOM     73  N   UNL A   1      33.116  27.740  22.791  1.00  0.00    -0.356 N 
ATOM     74  C   UNL A   1      33.318  26.452  22.407  1.00  0.00     0.227 C 
ATOM     75  H   UNL A   1      33.126  28.385  22.048  1.00  0.00     0.163 HD
ATOM     76  O   UNL A   1      33.554  26.285  21.204  1.00  0.00    -0.274 OA
BRANCH  74  77
ATOM     77  C   UNL A   1      33.135  25.244  23.346  1.00  0.00     0.103 C 
ATOM     78  C   UNL A   1      31.911  24.461  22.944  1.00  0.00    -0.016 C 
ATOM     79  C   UNL A   1      34.205  24.149  23.404  1.00  0.00     0.046 C 
ATOM     80  C   UNL A   1      32.122  23.142  22.927  1.00  0.00    -0.006 C 
ATOM     81  C   UNL A   1      33.518  22.789  23.289  1.00  0.00     0.103 C 
BRANCH  81  82
ATOM     82  N   UNL A   1      33.549  22.119  24.577  1.00  0.00    -0.378 N 
ATOM     83  H   UNL A   1      33.469  22.642  25.407  1.00  0.00     0.161 HD
BRANCH  82  84
ATOM     84  C   UNL A   1      33.694  20.736  24.635  1.00  0.00     0.044 A 
ATOM     85  C   UNL A   1      32.531  19.964  24.466  1.00  0.00     0.033 A 
ATOM     86  C   UNL A   1      34.932  20.079  24.767  1.00  0.00     0.048 A 
ATOM     87  C   UNL A   1      32.582  18.573  24.385  1.00  0.00     0.088 A 
ATOM     88  C   UNL A   1      34.987  18.673  24.656  1.00  0.00     0.097 A 
ATOM     89  C   UNL A   1      33.818  17.932  24.461  1.00  0.00     0.270 A 
BRANCH  86  90
ATOM     90  C   UNL A   1      36.221  20.809  25.050  1.00  0.00     0.375 C 
ATOM     91  F   UNL A   1      37.290  19.964  25.128  1.00  0.00    -0.205 F 
ATOM     92  F   UNL A   1      36.532  21.703  24.070  1.00  0.00    -0.205 F 
ENDBRANCH  86  90
BRANCH  89  93
ATOM     93  N   UNL A   1      33.885  16.470  24.337  1.00  0.00     0.062 N 
ATOM     94  O   UNL A   1      33.833  15.804  25.381  1.00  0.00    -0.258 OA
ATOM     95  O   UNL A   1      33.992  15.990  23.202  1.00  0.00    -0.258 OA
ENDBRANCH  89  93
ENDBRANCH  82  84
ENDBRANCH  81  82
ENDBRANCH  74  77
ENDBRANCH  72  73
ENDBRANCH   1  72
TORSDOF 17
ENDMDL
