MODEL 1
REMARK VINA RESULT:     -12.2      0.000      0.000
REMARK SMILES C[C@@H](C(=O)NCCCNC(=O)c1ccc(-c2c3nc(c(-c4cccc(S(=O)(=O)[O-])c4F)c4ccc([nH]4)c(-c4cccc(S(=O)(=O)[O-])c4F)c4nc(c(-c5cccc(S(=O)(=O)[O-])c5F)c5ccc2[nH]5)C=C4)C=C3)cc1)c1ccc(N[C@H]2CCC[C@@H]2O)cc1F
REMARK SMILES IDX 6 1 5 2 3 3 4 4 2 6 1 7 75 8 76 9 87 10 77 11 86 12 88 13
REMARK SMILES IDX 78 14 79 15 80 17 81 18 84 19 82 20 83 21 85 22 7 24 8 25
REMARK SMILES IDX 9 26 10 27 11 29 12 30 13 31 74 32 14 33 73 34 15 35 16 36
REMARK SMILES IDX 17 37 67 38 18 39 72 40 66 41 68 42 19 43 71 44 65 45 64 46
REMARK SMILES IDX 20 48 52 49 32 50 51 51 33 52 36 53 50 54 69 55 34 56 35 57
REMARK SMILES IDX 49 59 70 60 37 61 21 62 22 63 30 64 23 65 25 66 31 67 24 68
REMARK SMILES IDX 26 69 27 70 28 71 29 72 53 73 54 74 62 75 55 76 57 77 63 78
REMARK SMILES IDX 56 79 58 80 59 81 60 82 61 83 38 84 39 85 47 86 40 87 42 88
REMARK SMILES IDX 48 89 41 90 43 91 44 92 45 93 46 94
REMARK H PARENT 5 5 79 16 85 23 9 28 68 47 36 58
REMARK Flexibility Score: inf
ROOT
ATOM      1  C   UNL A   1      32.066  30.179  26.319  1.00  0.00     0.117 C 
ENDROOT
BRANCH   1   2
ATOM      2  N   UNL A   1      31.395  29.684  25.136  1.00  0.00    -0.356 N 
ATOM      3  C   UNL A   1      31.867  28.978  24.073  1.00  0.00     0.227 C 
ATOM      4  O   UNL A   1      31.038  28.721  23.196  1.00  0.00    -0.274 OA
ATOM      5  H   UNL A   1      30.435  29.894  25.093  1.00  0.00     0.163 HD
BRANCH   3   6
ATOM      6  C   UNL A   1      33.333  28.502  24.027  1.00  0.00     0.108 C 
ATOM      7  C   UNL A   1      34.065  28.916  22.748  1.00  0.00     0.023 C 
BRANCH   6   8
ATOM      8  C   UNL A   1      33.451  26.991  24.171  1.00  0.00     0.000 A 
ATOM      9  C   UNL A   1      33.402  26.154  23.053  1.00  0.00     0.009 A 
ATOM     10  C   UNL A   1      33.652  26.396  25.414  1.00  0.00     0.129 A 
ATOM     11  C   UNL A   1      33.509  24.769  23.189  1.00  0.00     0.026 A 
ATOM     12  C   UNL A   1      33.790  25.012  25.542  1.00  0.00     0.065 A 
ATOM     13  F   UNL A   1      33.729  27.154  26.517  1.00  0.00    -0.207 F 
ATOM     14  C   UNL A   1      33.715  24.164  24.430  1.00  0.00     0.037 A 
BRANCH  14  15
ATOM     15  N   UNL A   1      33.872  22.805  24.608  1.00  0.00    -0.380 N 
ATOM     16  H   UNL A   1      33.110  22.338  25.023  1.00  0.00     0.160 HD
BRANCH  15  17
ATOM     17  C   UNL A   1      35.016  21.966  24.262  1.00  0.00     0.107 C 
ATOM     18  C   UNL A   1      36.277  22.745  23.869  1.00  0.00     0.027 C 
ATOM     19  C   UNL A   1      35.441  20.973  25.358  1.00  0.00     0.136 C 
ATOM     20  C   UNL A   1      37.433  22.060  24.602  1.00  0.00     0.005 C 
ATOM     21  C   UNL A   1      36.898  20.696  25.018  1.00  0.00     0.034 C 
BRANCH  19  22
ATOM     22  O   UNL A   1      34.667  19.781  25.314  1.00  0.00    -0.391 OA
ATOM     23  H   UNL A   1      33.809  19.967  24.900  1.00  0.00     0.211 HD
ENDBRANCH  19  22
ENDBRANCH  15  17
ENDBRANCH  14  15
ENDBRANCH   6   8
ENDBRANCH   3   6
ENDBRANCH   1   2
BRANCH   1  24
ATOM     24  C   UNL A   1      31.805  31.666  26.537  1.00  0.00     0.042 C 
BRANCH  24  25
ATOM     25  C   UNL A   1      32.892  32.383  27.333  1.00  0.00     0.118 C 
BRANCH  25  26
ATOM     26  N   UNL A   1      32.554  33.769  27.627  1.00  0.00    -0.352 N 
ATOM     27  C   UNL A   1      33.097  34.614  28.566  1.00  0.00     0.251 C 
ATOM     28  H   UNL A   1      31.835  34.156  27.077  1.00  0.00     0.163 HD
ATOM     29  O   UNL A   1      32.570  35.699  28.796  1.00  0.00    -0.269 OA
BRANCH  27  30
ATOM     30  C   UNL A   1      34.305  34.202  29.309  1.00  0.00     0.039 A 
ATOM     31  C   UNL A   1      34.165  33.624  30.574  1.00  0.00     0.014 A 
ATOM     32  C   UNL A   1      35.571  34.372  28.744  1.00  0.00     0.014 A 
ATOM     33  C   UNL A   1      35.295  33.147  31.244  1.00  0.00     0.010 A 
ATOM     34  C   UNL A   1      36.683  33.833  29.380  1.00  0.00     0.010 A 
ATOM     35  C   UNL A   1      36.558  33.216  30.636  1.00  0.00    -0.014 A 
BRANCH  35  36
ATOM     36  C   UNL A   1      37.777  32.658  31.271  1.00  0.00     0.031 A 
ATOM     37  C   UNL A   1      38.484  31.499  30.628  1.00  0.00     0.074 A 
ATOM     38  C   UNL A   1      38.154  33.088  32.491  1.00  0.00     0.049 A 
ATOM     39  N   UNL A   1      39.432  30.739  31.107  1.00  0.00    -0.248 NA
ATOM     40  C   UNL A   1      38.028  31.117  29.280  1.00  0.00     0.031 C 
ATOM     41  C   UNL A   1      37.503  34.157  33.250  1.00  0.00     0.029 A 
ATOM     42  N   UNL A   1      39.143  32.638  33.332  1.00  0.00    -0.354 N 
ATOM     43  C   UNL A   1      39.648  29.756  30.148  1.00  0.00     0.074 A 
ATOM     44  C   UNL A   1      38.715  30.004  29.070  1.00  0.00     0.031 C 
ATOM     45  C   UNL A   1      38.089  34.263  34.452  1.00  0.00     0.029 A 
ATOM     46  C   UNL A   1      39.132  33.246  34.565  1.00  0.00     0.049 A 
ATOM     47  H   UNL A   1      39.797  31.947  33.075  1.00  0.00     0.167 HD
ATOM     48  C   UNL A   1      40.556  28.752  30.154  1.00  0.00     0.034 A 
ATOM     49  C   UNL A   1      39.859  32.997  35.673  1.00  0.00     0.034 A 
ATOM     50  C   UNL A   1      41.517  28.545  31.202  1.00  0.00     0.049 A 
ATOM     51  C   UNL A   1      40.905  31.917  35.635  1.00  0.00     0.074 A 
ATOM     52  C   UNL A   1      42.546  27.623  31.258  1.00  0.00     0.029 A 
ATOM     53  N   UNL A   1      41.564  29.272  32.383  1.00  0.00    -0.354 N 
ATOM     54  N   UNL A   1      41.200  31.092  34.661  1.00  0.00    -0.248 NA
ATOM     55  C   UNL A   1      41.741  31.753  36.834  1.00  0.00     0.031 C 
ATOM     56  C   UNL A   1      43.207  27.783  32.480  1.00  0.00     0.029 A 
ATOM     57  C   UNL A   1      42.602  28.818  33.176  1.00  0.00     0.049 A 
ATOM     58  H   UNL A   1      40.949  30.002  32.621  1.00  0.00     0.167 HD
ATOM     59  C   UNL A   1      42.278  30.337  35.109  1.00  0.00     0.074 A 
ATOM     60  C   UNL A   1      42.590  30.809  36.443  1.00  0.00     0.031 C 
ATOM     61  C   UNL A   1      42.941  29.339  34.477  1.00  0.00     0.034 A 
BRANCH  48  62
ATOM     62  C   UNL A   1      40.579  27.831  28.962  1.00  0.00     0.023 A 
ATOM     63  C   UNL A   1      39.636  26.786  28.871  1.00  0.00     0.012 A 
ATOM     64  C   UNL A   1      41.511  28.011  27.921  1.00  0.00     0.148 A 
ATOM     65  C   UNL A   1      39.653  25.904  27.791  1.00  0.00     0.002 A 
ATOM     66  C   UNL A   1      41.491  27.156  26.825  1.00  0.00     0.091 A 
ATOM     67  F   UNL A   1      42.417  28.993  28.032  1.00  0.00    -0.205 F 
ATOM     68  C   UNL A   1      40.573  26.095  26.764  1.00  0.00     0.022 A 
BRANCH  66  69
ATOM     69  S   UNL A   1      42.587  27.379  25.419  1.00  0.00     0.127 S 
ATOM     70  O   UNL A   1      42.363  26.145  24.669  1.00  0.00    -0.237 OA
ATOM     71  O   UNL A   1      42.044  28.583  24.786  1.00  0.00    -0.237 OA
ATOM     72  O   UNL A   1      43.920  27.547  25.982  1.00  0.00    -0.744 OA
ENDBRANCH  66  69
ENDBRANCH  48  62
BRANCH  49  73
ATOM     73  C   UNL A   1      39.648  33.835  36.886  1.00  0.00     0.023 A 
ATOM     74  C   UNL A   1      40.020  35.192  36.861  1.00  0.00     0.012 A 
ATOM     75  C   UNL A   1      39.009  33.318  38.031  1.00  0.00     0.148 A 
ATOM     76  C   UNL A   1      39.774  36.017  37.959  1.00  0.00     0.002 A 
ATOM     77  C   UNL A   1      38.719  34.158  39.100  1.00  0.00     0.091 A 
ATOM     78  F   UNL A   1      38.668  32.021  38.035  1.00  0.00    -0.205 F 
ATOM     79  C   UNL A   1      39.114  35.504  39.072  1.00  0.00     0.022 A 
BRANCH  77  80
ATOM     80  S   UNL A   1      37.749  33.623  40.515  1.00  0.00     0.127 S 
ATOM     81  O   UNL A   1      38.638  32.644  41.136  1.00  0.00    -0.237 OA
ATOM     82  O   UNL A   1      37.590  34.873  41.259  1.00  0.00    -0.237 OA
ATOM     83  O   UNL A   1      36.509  33.090  39.967  1.00  0.00    -0.744 OA
ENDBRANCH  77  80
ENDBRANCH  49  73
BRANCH  61  84
ATOM     84  C   UNL A   1      44.108  28.704  35.184  1.00  0.00     0.023 A 
ATOM     85  C   UNL A   1      45.402  29.234  35.014  1.00  0.00     0.012 A 
ATOM     86  C   UNL A   1      43.900  27.664  36.111  1.00  0.00     0.148 A 
ATOM     87  C   UNL A   1      46.474  28.728  35.749  1.00  0.00     0.002 A 
ATOM     88  C   UNL A   1      44.965  27.196  36.871  1.00  0.00     0.091 A 
ATOM     89  F   UNL A   1      42.662  27.165  36.242  1.00  0.00    -0.205 F 
ATOM     90  C   UNL A   1      46.253  27.721  36.686  1.00  0.00     0.022 A 
BRANCH  88  91
ATOM     91  S   UNL A   1      44.758  25.971  38.170  1.00  0.00     0.127 S 
ATOM     92  O   UNL A   1      44.280  24.815  37.414  1.00  0.00    -0.237 OA
ATOM     93  O   UNL A   1      46.118  25.841  38.691  1.00  0.00    -0.237 OA
ATOM     94  O   UNL A   1      43.801  26.539  39.111  1.00  0.00    -0.744 OA
ENDBRANCH  88  91
ENDBRANCH  61  84
ENDBRANCH  35  36
ENDBRANCH  27  30
ENDBRANCH  25  26
ENDBRANCH  24  25
ENDBRANCH   1  24
TORSDOF 17
ENDMDL
MODEL 2
REMARK VINA RESULT:     -12.1      3.816      8.926
REMARK SMILES C[C@@H](C(=O)NCCCNC(=O)c1ccc(-c2c3nc(c(-c4cccc(S(=O)(=O)[O-])c4F)c4ccc([nH]4)c(-c4cccc(S(=O)(=O)[O-])c4F)c4nc(c(-c5cccc(S(=O)(=O)[O-])c5F)c5ccc2[nH]5)C=C4)C=C3)cc1)c1ccc(N[C@H]2CCC[C@@H]2O)cc1F
REMARK SMILES IDX 6 1 5 2 3 3 4 4 2 6 1 7 75 8 76 9 87 10 77 11 86 12 88 13
REMARK SMILES IDX 78 14 79 15 80 17 81 18 84 19 82 20 83 21 85 22 7 24 8 25
REMARK SMILES IDX 9 26 10 27 11 29 12 30 13 31 74 32 14 33 73 34 15 35 16 36
REMARK SMILES IDX 17 37 67 38 18 39 72 40 66 41 68 42 19 43 71 44 65 45 64 46
REMARK SMILES IDX 20 48 52 49 32 50 51 51 33 52 36 53 50 54 69 55 34 56 35 57
REMARK SMILES IDX 49 59 70 60 37 61 21 62 22 63 30 64 23 65 25 66 31 67 24 68
REMARK SMILES IDX 26 69 27 70 28 71 29 72 53 73 54 74 62 75 55 76 57 77 63 78
REMARK SMILES IDX 56 79 58 80 59 81 60 82 61 83 38 84 39 85 47 86 40 87 42 88
REMARK SMILES IDX 48 89 41 90 43 91 44 92 45 93 46 94
REMARK H PARENT 5 5 79 16 85 23 9 28 68 47 36 58
REMARK Flexibility Score: inf
ROOT
ATOM      1  C   UNL A   1      31.817  27.591  27.571  1.00  0.00     0.117 C 
ENDROOT
BRANCH   1   2
ATOM      2  N   UNL A   1      31.202  26.599  26.715  1.00  0.00    -0.356 N 
ATOM      3  C   UNL A   1      31.753  25.633  25.932  1.00  0.00     0.227 C 
ATOM      4  O   UNL A   1      30.951  24.946  25.293  1.00  0.00    -0.274 OA
ATOM      5  H   UNL A   1      30.218  26.628  26.697  1.00  0.00     0.163 HD
BRANCH   3   6
ATOM      6  C   UNL A   1      33.277  25.404  25.912  1.00  0.00     0.108 C 
ATOM      7  C   UNL A   1      34.006  26.266  24.878  1.00  0.00     0.023 C 
BRANCH   6   8
ATOM      8  C   UNL A   1      33.638  23.948  25.651  1.00  0.00     0.000 A 
ATOM      9  C   UNL A   1      34.287  23.567  24.473  1.00  0.00     0.009 A 
ATOM     10  C   UNL A   1      33.368  22.956  26.589  1.00  0.00     0.129 A 
ATOM     11  C   UNL A   1      34.614  22.231  24.236  1.00  0.00     0.026 A 
ATOM     12  C   UNL A   1      33.725  21.624  26.362  1.00  0.00     0.065 A 
ATOM     13  F   UNL A   1      32.766  23.270  27.745  1.00  0.00    -0.207 F 
ATOM     14  C   UNL A   1      34.353  21.230  25.173  1.00  0.00     0.037 A 
BRANCH  14  15
ATOM     15  N   UNL A   1      34.697  19.905  25.003  1.00  0.00    -0.380 N 
ATOM     16  H   UNL A   1      35.658  19.701  25.076  1.00  0.00     0.160 HD
BRANCH  15  17
ATOM     17  C   UNL A   1      33.826  18.764  24.730  1.00  0.00     0.107 C 
ATOM     18  C   UNL A   1      32.713  19.046  23.715  1.00  0.00     0.027 C 
ATOM     19  C   UNL A   1      34.555  17.501  24.239  1.00  0.00     0.136 C 
ATOM     20  C   UNL A   1      32.698  17.842  22.770  1.00  0.00     0.005 C 
ATOM     21  C   UNL A   1      33.461  16.744  23.500  1.00  0.00     0.034 C 
BRANCH  19  22
ATOM     22  O   UNL A   1      35.068  16.737  25.323  1.00  0.00    -0.391 OA
ATOM     23  H   UNL A   1      35.252  15.833  25.023  1.00  0.00     0.211 HD
ENDBRANCH  19  22
ENDBRANCH  15  17
ENDBRANCH  14  15
ENDBRANCH   6   8
ENDBRANCH   3   6
ENDBRANCH   1   2
BRANCH   1  24
ATOM     24  C   UNL A   1      32.065  28.902  26.830  1.00  0.00     0.042 C 
BRANCH  24  25
ATOM     25  C   UNL A   1      33.518  29.370  26.854  1.00  0.00     0.118 C 
BRANCH  25  26
ATOM     26  N   UNL A   1      33.649  30.783  27.183  1.00  0.00    -0.352 N 
ATOM     27  C   UNL A   1      34.618  31.415  27.926  1.00  0.00     0.251 C 
ATOM     28  H   UNL A   1      32.944  31.369  26.824  1.00  0.00     0.163 HD
ATOM     29  O   UNL A   1      34.477  32.590  28.250  1.00  0.00    -0.269 OA
BRANCH  27  30
ATOM     30  C   UNL A   1      35.820  30.666  28.347  1.00  0.00     0.039 A 
ATOM     31  C   UNL A   1      36.991  30.773  27.593  1.00  0.00     0.014 A 
ATOM     32  C   UNL A   1      35.788  29.873  29.496  1.00  0.00     0.014 A 
ATOM     33  C   UNL A   1      38.157  30.142  28.034  1.00  0.00     0.010 A 
ATOM     34  C   UNL A   1      36.965  29.308  29.971  1.00  0.00     0.010 A 
ATOM     35  C   UNL A   1      38.161  29.434  29.246  1.00  0.00    -0.014 A 
BRANCH  35  36
ATOM     36  C   UNL A   1      39.389  28.809  29.797  1.00  0.00     0.031 A 
ATOM     37  C   UNL A   1      40.131  29.490  30.911  1.00  0.00     0.074 A 
ATOM     38  C   UNL A   1      39.915  27.723  29.199  1.00  0.00     0.049 A 
ATOM     39  N   UNL A   1      41.315  29.229  31.398  1.00  0.00    -0.248 NA
ATOM     40  C   UNL A   1      39.467  30.650  31.531  1.00  0.00     0.031 C 
ATOM     41  C   UNL A   1      39.325  27.015  28.061  1.00  0.00     0.029 A 
ATOM     42  N   UNL A   1      41.094  27.058  29.428  1.00  0.00    -0.354 N 
ATOM     43  C   UNL A   1      41.565  30.222  32.337  1.00  0.00     0.074 A 
ATOM     44  C   UNL A   1      40.417  31.104  32.335  1.00  0.00     0.031 C 
ATOM     45  C   UNL A   1      40.156  26.035  27.674  1.00  0.00     0.029 A 
ATOM     46  C   UNL A   1      41.353  26.067  28.511  1.00  0.00     0.049 A 
ATOM     47  H   UNL A   1      41.697  27.271  30.178  1.00  0.00     0.167 HD
ATOM     48  C   UNL A   1      42.640  30.374  33.145  1.00  0.00     0.034 A 
ATOM     49  C   UNL A   1      42.441  25.289  28.342  1.00  0.00     0.034 A 
ATOM     50  C   UNL A   1      43.751  29.464  33.180  1.00  0.00     0.049 A 
ATOM     51  C   UNL A   1      43.600  25.434  29.290  1.00  0.00     0.074 A 
ATOM     52  C   UNL A   1      44.841  29.468  34.031  1.00  0.00     0.029 A 
ATOM     53  N   UNL A   1      43.915  28.385  32.323  1.00  0.00    -0.354 N 
ATOM     54  N   UNL A   1      43.754  26.284  30.275  1.00  0.00    -0.248 NA
ATOM     55  C   UNL A   1      44.719  24.494  29.128  1.00  0.00     0.031 C 
ATOM     56  C   UNL A   1      45.672  28.400  33.678  1.00  0.00     0.029 A 
ATOM     57  C   UNL A   1      45.089  27.718  32.621  1.00  0.00     0.049 A 
ATOM     58  H   UNL A   1      43.288  28.133  31.608  1.00  0.00     0.167 HD
ATOM     59  C   UNL A   1      44.965  25.961  30.875  1.00  0.00     0.074 A 
ATOM     60  C   UNL A   1      45.501  24.829  30.147  1.00  0.00     0.031 C 
ATOM     61  C   UNL A   1      45.580  26.554  31.927  1.00  0.00     0.034 A 
BRANCH  48  62
ATOM     62  C   UNL A   1      42.638  31.548  34.089  1.00  0.00     0.023 A 
ATOM     63  C   UNL A   1      43.235  32.762  33.692  1.00  0.00     0.012 A 
ATOM     64  C   UNL A   1      42.027  31.462  35.355  1.00  0.00     0.148 A 
ATOM     65  C   UNL A   1      43.270  33.855  34.557  1.00  0.00     0.002 A 
ATOM     66  C   UNL A   1      42.025  32.571  36.194  1.00  0.00     0.091 A 
ATOM     67  F   UNL A   1      41.486  30.295  35.730  1.00  0.00    -0.205 F 
ATOM     68  C   UNL A   1      42.657  33.762  35.803  1.00  0.00     0.022 A 
BRANCH  66  69
ATOM     69  S   UNL A   1      41.187  32.565  37.783  1.00  0.00     0.127 S 
ATOM     70  O   UNL A   1      41.989  31.603  38.537  1.00  0.00    -0.237 OA
ATOM     71  O   UNL A   1      41.333  33.954  38.221  1.00  0.00    -0.237 OA
ATOM     72  O   UNL A   1      39.815  32.165  37.503  1.00  0.00    -0.744 OA
ENDBRANCH  66  69
ENDBRANCH  48  62
BRANCH  49  73
ATOM     73  C   UNL A   1      42.445  24.268  27.257  1.00  0.00     0.023 A 
ATOM     74  C   UNL A   1      43.098  24.554  26.043  1.00  0.00     0.012 A 
ATOM     75  C   UNL A   1      41.879  22.992  27.451  1.00  0.00     0.148 A 
ATOM     76  C   UNL A   1      43.174  23.594  25.034  1.00  0.00     0.002 A 
ATOM     77  C   UNL A   1      42.006  22.022  26.463  1.00  0.00     0.091 A 
ATOM     78  F   UNL A   1      41.259  22.744  28.612  1.00  0.00    -0.205 F 
ATOM     79  C   UNL A   1      42.640  22.326  25.248  1.00  0.00     0.022 A 
BRANCH  77  80
ATOM     80  S   UNL A   1      41.476  20.322  26.702  1.00  0.00     0.127 S 
ATOM     81  O   UNL A   1      41.988  19.676  25.495  1.00  0.00    -0.237 OA
ATOM     82  O   UNL A   1      42.172  19.962  27.937  1.00  0.00    -0.237 OA
ATOM     83  O   UNL A   1      40.026  20.373  26.822  1.00  0.00    -0.744 OA
ENDBRANCH  77  80
ENDBRANCH  49  73
BRANCH  61  84
ATOM     84  C   UNL A   1      46.886  25.975  32.404  1.00  0.00     0.023 A 
ATOM     85  C   UNL A   1      46.901  25.095  33.503  1.00  0.00     0.012 A 
ATOM     86  C   UNL A   1      48.074  26.208  31.682  1.00  0.00     0.148 A 
ATOM     87  C   UNL A   1      48.085  24.465  33.886  1.00  0.00     0.002 A 
ATOM     88  C   UNL A   1      49.239  25.541  32.042  1.00  0.00     0.091 A 
ATOM     89  F   UNL A   1      48.036  27.063  30.650  1.00  0.00    -0.205 F 
ATOM     90  C   UNL A   1      49.248  24.676  33.148  1.00  0.00     0.022 A 
BRANCH  88  91
ATOM     91  S   UNL A   1      50.758  25.674  31.093  1.00  0.00     0.127 S 
ATOM     92  O   UNL A   1      50.319  25.244  29.767  1.00  0.00    -0.237 OA
ATOM     93  O   UNL A   1      51.067  27.100  31.201  1.00  0.00    -0.237 OA
ATOM     94  O   UNL A   1      51.720  24.796  31.746  1.00  0.00    -0.744 OA
ENDBRANCH  88  91
ENDBRANCH  61  84
ENDBRANCH  35  36
ENDBRANCH  27  30
ENDBRANCH  25  26
ENDBRANCH  24  25
ENDBRANCH   1  24
TORSDOF 17
ENDMDL
MODEL 3
REMARK VINA RESULT:     -12.1      2.734      3.758
REMARK SMILES C[C@@H](C(=O)NCCCNC(=O)c1ccc(-c2c3nc(c(-c4cccc(S(=O)(=O)[O-])c4F)c4ccc([nH]4)c(-c4cccc(S(=O)(=O)[O-])c4F)c4nc(c(-c5cccc(S(=O)(=O)[O-])c5F)c5ccc2[nH]5)C=C4)C=C3)cc1)c1ccc(N[C@H]2CCC[C@@H]2O)cc1F
REMARK SMILES IDX 6 1 5 2 3 3 4 4 2 6 1 7 75 8 76 9 87 10 77 11 86 12 88 13
REMARK SMILES IDX 78 14 79 15 80 17 81 18 84 19 82 20 83 21 85 22 7 24 8 25
REMARK SMILES IDX 9 26 10 27 11 29 12 30 13 31 74 32 14 33 73 34 15 35 16 36
REMARK SMILES IDX 17 37 67 38 18 39 72 40 66 41 68 42 19 43 71 44 65 45 64 46
REMARK SMILES IDX 20 48 52 49 32 50 51 51 33 52 36 53 50 54 69 55 34 56 35 57
REMARK SMILES IDX 49 59 70 60 37 61 21 62 22 63 30 64 23 65 25 66 31 67 24 68
REMARK SMILES IDX 26 69 27 70 28 71 29 72 53 73 54 74 62 75 55 76 57 77 63 78
REMARK SMILES IDX 56 79 58 80 59 81 60 82 61 83 38 84 39 85 47 86 40 87 42 88
REMARK SMILES IDX 48 89 41 90 43 91 44 92 45 93 46 94
REMARK H PARENT 5 5 79 16 85 23 9 28 68 47 36 58
REMARK Flexibility Score: inf
ROOT
ATOM      1  C   UNL A   1      32.409  27.361  23.415  1.00  0.00     0.117 C 
ENDROOT
BRANCH   1   2
ATOM      2  N   UNL A   1      32.968  26.218  22.725  1.00  0.00    -0.356 N 
ATOM      3  C   UNL A   1      33.507  25.064  23.203  1.00  0.00     0.227 C 
ATOM      4  O   UNL A   1      33.926  24.280  22.347  1.00  0.00    -0.274 OA
ATOM      5  H   UNL A   1      32.957  26.288  21.743  1.00  0.00     0.163 HD
BRANCH   3   6
ATOM      6  C   UNL A   1      33.526  24.767  24.715  1.00  0.00     0.108 C 
ATOM      7  C   UNL A   1      34.794  25.263  25.415  1.00  0.00     0.023 C 
BRANCH   6   8
ATOM      8  C   UNL A   1      33.374  23.281  25.012  1.00  0.00     0.000 A 
ATOM      9  C   UNL A   1      34.490  22.479  25.268  1.00  0.00     0.009 A 
ATOM     10  C   UNL A   1      32.120  22.680  25.076  1.00  0.00     0.129 A 
ATOM     11  C   UNL A   1      34.347  21.117  25.537  1.00  0.00     0.026 A 
ATOM     12  C   UNL A   1      31.979  21.323  25.377  1.00  0.00     0.065 A 
ATOM     13  F   UNL A   1      31.015  23.408  24.860  1.00  0.00    -0.207 F 
ATOM     14  C   UNL A   1      33.094  20.507  25.609  1.00  0.00     0.037 A 
BRANCH  14  15
ATOM     15  N   UNL A   1      32.901  19.176  25.916  1.00  0.00    -0.380 N 
ATOM     16  H   UNL A   1      32.764  18.973  26.869  1.00  0.00     0.160 HD
BRANCH  15  17
ATOM     17  C   UNL A   1      32.870  18.028  25.013  1.00  0.00     0.107 C 
ATOM     18  C   UNL A   1      32.235  18.313  23.648  1.00  0.00     0.027 C 
ATOM     19  C   UNL A   1      34.244  17.394  24.732  1.00  0.00     0.136 C 
ATOM     20  C   UNL A   1      33.162  17.667  22.616  1.00  0.00     0.005 C 
ATOM     21  C   UNL A   1      34.025  16.688  23.402  1.00  0.00     0.034 C 
BRANCH  19  22
ATOM     22  O   UNL A   1      34.614  16.472  25.749  1.00  0.00    -0.391 OA
ATOM     23  H   UNL A   1      35.266  16.884  26.337  1.00  0.00     0.211 HD
ENDBRANCH  19  22
ENDBRANCH  15  17
ENDBRANCH  14  15
ENDBRANCH   6   8
ENDBRANCH   3   6
ENDBRANCH   1   2
BRANCH   1  24
ATOM     24  C   UNL A   1      33.428  28.485  23.567  1.00  0.00     0.042 C 
BRANCH  24  25
ATOM     25  C   UNL A   1      33.711  28.884  25.013  1.00  0.00     0.118 C 
BRANCH  25  26
ATOM     26  N   UNL A   1      32.926  30.032  25.445  1.00  0.00    -0.352 N 
ATOM     27  C   UNL A   1      33.079  30.816  26.563  1.00  0.00     0.251 C 
ATOM     28  H   UNL A   1      32.179  30.281  24.854  1.00  0.00     0.163 HD
ATOM     29  O   UNL A   1      32.217  31.637  26.863  1.00  0.00    -0.269 OA
BRANCH  27  30
ATOM     30  C   UNL A   1      34.277  30.652  27.413  1.00  0.00     0.039 A 
ATOM     31  C   UNL A   1      34.544  29.406  27.985  1.00  0.00     0.014 A 
ATOM     32  C   UNL A   1      35.141  31.729  27.625  1.00  0.00     0.014 A 
ATOM     33  C   UNL A   1      35.722  29.218  28.713  1.00  0.00     0.010 A 
ATOM     34  C   UNL A   1      36.345  31.520  28.287  1.00  0.00     0.010 A 
ATOM     35  C   UNL A   1      36.648  30.265  28.840  1.00  0.00    -0.014 A 
BRANCH  35  36
ATOM     36  C   UNL A   1      37.946  30.097  29.538  1.00  0.00     0.031 A 
ATOM     37  C   UNL A   1      38.974  29.156  28.977  1.00  0.00     0.074 A 
ATOM     38  C   UNL A   1      38.137  30.666  30.744  1.00  0.00     0.049 A 
ATOM     39  N   UNL A   1      40.075  28.712  29.521  1.00  0.00    -0.248 NA
ATOM     40  C   UNL A   1      38.700  28.607  27.637  1.00  0.00     0.031 C 
ATOM     41  C   UNL A   1      37.182  31.541  31.427  1.00  0.00     0.029 A 
ATOM     42  N   UNL A   1      39.175  30.546  31.635  1.00  0.00    -0.354 N 
ATOM     43  C   UNL A   1      40.596  27.790  28.622  1.00  0.00     0.074 A 
ATOM     44  C   UNL A   1      39.677  27.722  27.506  1.00  0.00     0.031 C 
ATOM     45  C   UNL A   1      37.665  31.856  32.640  1.00  0.00     0.029 A 
ATOM     46  C   UNL A   1      38.944  31.177  32.834  1.00  0.00     0.049 A 
ATOM     47  H   UNL A   1      40.005  30.055  31.434  1.00  0.00     0.167 HD
ATOM     48  C   UNL A   1      41.747  27.082  28.705  1.00  0.00     0.034 A 
ATOM     49  C   UNL A   1      39.663  31.188  33.975  1.00  0.00     0.034 A 
ATOM     50  C   UNL A   1      42.681  27.196  29.791  1.00  0.00     0.049 A 
ATOM     51  C   UNL A   1      40.969  30.443  34.024  1.00  0.00     0.074 A 
ATOM     52  C   UNL A   1      43.923  26.602  29.923  1.00  0.00     0.029 A 
ATOM     53  N   UNL A   1      42.475  27.955  30.933  1.00  0.00    -0.354 N 
ATOM     54  N   UNL A   1      41.523  29.694  33.102  1.00  0.00    -0.248 NA
ATOM     55  C   UNL A   1      41.766  30.569  35.253  1.00  0.00     0.031 C 
ATOM     56  C   UNL A   1      44.461  26.990  31.154  1.00  0.00     0.029 A 
ATOM     57  C   UNL A   1      43.563  27.843  31.778  1.00  0.00     0.049 A 
ATOM     58  H   UNL A   1      41.672  28.494  31.115  1.00  0.00     0.167 HD
ATOM     59  C   UNL A   1      42.748  29.290  33.620  1.00  0.00     0.074 A 
ATOM     60  C   UNL A   1      42.860  29.886  34.936  1.00  0.00     0.031 C 
ATOM     61  C   UNL A   1      43.689  28.492  33.060  1.00  0.00     0.034 A 
BRANCH  48  62
ATOM     62  C   UNL A   1      42.075  26.155  27.564  1.00  0.00     0.023 A 
ATOM     63  C   UNL A   1      42.754  26.656  26.434  1.00  0.00     0.012 A 
ATOM     64  C   UNL A   1      41.735  24.789  27.616  1.00  0.00     0.148 A 
ATOM     65  C   UNL A   1      43.046  25.824  25.353  1.00  0.00     0.002 A 
ATOM     66  C   UNL A   1      42.072  23.957  26.553  1.00  0.00     0.091 A 
ATOM     67  F   UNL A   1      41.068  24.332  28.684  1.00  0.00    -0.205 F 
ATOM     68  C   UNL A   1      42.713  24.474  25.417  1.00  0.00     0.022 A 
BRANCH  66  69
ATOM     69  S   UNL A   1      41.753  22.189  26.587  1.00  0.00     0.127 S 
ATOM     70  O   UNL A   1      42.387  21.798  27.845  1.00  0.00    -0.237 OA
ATOM     71  O   UNL A   1      40.290  22.134  26.600  1.00  0.00    -0.237 OA
ATOM     72  O   UNL A   1      42.363  21.656  25.377  1.00  0.00    -0.744 OA
ENDBRANCH  66  69
ENDBRANCH  48  62
BRANCH  49  73
ATOM     73  C   UNL A   1      39.176  31.983  35.136  1.00  0.00     0.023 A 
ATOM     74  C   UNL A   1      38.294  31.388  36.058  1.00  0.00     0.012 A 
ATOM     75  C   UNL A   1      39.643  33.290  35.376  1.00  0.00     0.148 A 
ATOM     76  C   UNL A   1      37.872  32.085  37.190  1.00  0.00     0.002 A 
ATOM     77  C   UNL A   1      39.261  33.960  36.533  1.00  0.00     0.091 A 
ATOM     78  F   UNL A   1      40.478  33.839  34.483  1.00  0.00    -0.205 F 
ATOM     79  C   UNL A   1      38.365  33.365  37.434  1.00  0.00     0.022 A 
BRANCH  77  80
ATOM     80  S   UNL A   1      39.952  35.551  37.004  1.00  0.00     0.127 S 
ATOM     81  O   UNL A   1      39.246  35.826  38.254  1.00  0.00    -0.237 OA
ATOM     82  O   UNL A   1      41.371  35.229  37.154  1.00  0.00    -0.237 OA
ATOM     83  O   UNL A   1      39.654  36.454  35.900  1.00  0.00    -0.744 OA
ENDBRANCH  77  80
ENDBRANCH  49  73
BRANCH  61  84
ATOM     84  C   UNL A   1      44.956  28.239  33.833  1.00  0.00     0.023 A 
ATOM     85  C   UNL A   1      46.027  29.148  33.737  1.00  0.00     0.012 A 
ATOM     86  C   UNL A   1      45.032  27.169  34.746  1.00  0.00     0.148 A 
ATOM     87  C   UNL A   1      47.162  28.988  34.531  1.00  0.00     0.002 A 
ATOM     88  C   UNL A   1      46.147  27.042  35.565  1.00  0.00     0.091 A 
ATOM     89  F   UNL A   1      44.006  26.308  34.806  1.00  0.00    -0.205 F 
ATOM     90  C   UNL A   1      47.215  27.946  35.454  1.00  0.00     0.022 A 
BRANCH  88  91
ATOM     91  S   UNL A   1      46.262  25.791  36.850  1.00  0.00     0.127 S 
ATOM     92  O   UNL A   1      47.351  26.311  37.674  1.00  0.00    -0.237 OA
ATOM     93  O   UNL A   1      44.939  25.861  37.470  1.00  0.00    -0.237 OA
ATOM     94  O   UNL A   1      46.543  24.535  36.166  1.00  0.00    -0.744 OA
ENDBRANCH  88  91
ENDBRANCH  61  84
ENDBRANCH  35  36
ENDBRANCH  27  30
ENDBRANCH  25  26
ENDBRANCH  24  25
ENDBRANCH   1  24
TORSDOF 17
ENDMDL
