MODEL 1
REMARK VINA RESULT:     -12.8      0.000      0.000
REMARK SMILES COC(=O)c1ccc(C)c(NC(=O)[C@H]2CC=CC[C@H]2C(=O)NCCCNC(=O)c2ccc(-c3c4nc(c(-c5cccc(S(=O)(=O)[O-])c5F)c5ccc([nH]5)c(-c5cccc(S(=O)(=O)[O-])c5F)c5nc(c(-c6cccc(S(=O)(=O)[O-])c6F)c6ccc3[nH]6)C=C5)C=C4)cc2)c1
REMARK SMILES IDX 23 1 22 2 20 3 21 4 19 6 14 7 15 8 16 9 18 10 17 11 12 12
REMARK SMILES IDX 11 13 13 15 10 16 5 17 6 18 92 19 7 20 8 21 9 22 3 23 4 24
REMARK SMILES IDX 2 25 1 26 24 27 25 28 26 29 27 30 28 32 29 33 30 34 91 35
REMARK SMILES IDX 31 36 90 37 32 38 33 39 34 40 84 41 35 42 89 43 83 44 85 45
REMARK SMILES IDX 36 46 88 47 82 48 81 49 37 51 69 52 49 53 68 54 50 55 53 56
REMARK SMILES IDX 67 57 86 58 51 59 52 60 66 62 87 63 54 64 38 65 39 66 47 67
REMARK SMILES IDX 40 68 42 69 48 70 41 71 43 72 44 73 45 74 46 75 70 76 71 77
REMARK SMILES IDX 79 78 72 79 74 80 80 81 73 82 75 83 76 84 77 85 78 86 55 87
REMARK SMILES IDX 56 88 64 89 57 90 59 91 65 92 58 93 60 94 61 95 62 96 63 97
REMARK H PARENT 22 5 11 14 26 31 85 50 53 61
REMARK Flexibility Score: inf
ROOT
ATOM      1  C   UNL A   1      34.381  29.495  26.972  1.00  0.00     0.117 C 
ENDROOT
BRANCH   1   2
ATOM      2  N   UNL A   1      33.265  28.897  27.674  1.00  0.00    -0.356 N 
ATOM      3  C   UNL A   1      32.287  28.056  27.277  1.00  0.00     0.224 C 
ATOM      4  O   UNL A   1      31.356  27.891  28.077  1.00  0.00    -0.275 OA
ATOM      5  H   UNL A   1      33.209  29.153  28.623  1.00  0.00     0.163 HD
BRANCH   3   6
ATOM      6  C   UNL A   1      32.271  27.280  25.965  1.00  0.00     0.095 C 
ATOM      7  C   UNL A   1      33.120  25.996  25.838  1.00  0.00     0.095 C 
ATOM      8  C   UNL A   1      33.401  25.796  24.320  1.00  0.00     0.041 C 
ATOM      9  C   UNL A   1      32.182  26.022  23.448  1.00  0.00    -0.030 C 
ATOM     10  C   UNL A   1      30.910  27.206  25.269  1.00  0.00     0.041 C 
ATOM     11  C   UNL A   1      31.058  26.622  23.881  1.00  0.00    -0.030 C 
BRANCH   7  12
ATOM     12  C   UNL A   1      32.466  24.705  26.283  1.00  0.00     0.228 C 
ATOM     13  N   UNL A   1      32.780  23.444  25.938  1.00  0.00    -0.326 N 
ATOM     14  H   UNL A   1      31.967  22.896  26.034  1.00  0.00     0.169 HD
ATOM     15  O   UNL A   1      31.442  24.734  26.988  1.00  0.00    -0.274 OA
BRANCH  13  16
ATOM     16  C   UNL A   1      33.817  22.599  25.493  1.00  0.00     0.044 A 
ATOM     17  C   UNL A   1      34.056  20.196  24.923  1.00  0.00     0.062 A 
ATOM     18  C   UNL A   1      35.436  20.331  24.965  1.00  0.00     0.016 A 
ATOM     19  C   UNL A   1      33.282  21.342  25.109  1.00  0.00     0.042 A 
ATOM     20  C   UNL A   1      35.999  21.585  25.228  1.00  0.00     0.006 A 
ATOM     21  C   UNL A   1      35.209  22.730  25.514  1.00  0.00    -0.027 A 
ATOM     22  C   UNL A   1      35.980  23.971  25.837  1.00  0.00     0.046 C 
BRANCH  17  23
ATOM     23  C   UNL A   1      33.446  18.845  24.708  1.00  0.00     0.337 C 
ATOM     24  O   UNL A   1      32.375  18.538  25.211  1.00  0.00    -0.246 OA
BRANCH  23  25
ATOM     25  O   UNL A   1      34.286  17.938  24.139  1.00  0.00    -0.465 OA
ATOM     26  C   UNL A   1      33.731  17.078  23.131  1.00  0.00     0.282 C 
ENDBRANCH  23  25
ENDBRANCH  17  23
ENDBRANCH  13  16
ENDBRANCH   7  12
ENDBRANCH   3   6
ENDBRANCH   1   2
BRANCH   1  27
ATOM     27  C   UNL A   1      34.507  30.971  27.339  1.00  0.00     0.042 C 
BRANCH  27  28
ATOM     28  C   UNL A   1      34.649  31.256  28.834  1.00  0.00     0.118 C 
BRANCH  28  29
ATOM     29  N   UNL A   1      35.933  31.921  29.070  1.00  0.00    -0.352 N 
ATOM     30  C   UNL A   1      37.226  31.454  29.111  1.00  0.00     0.251 C 
ATOM     31  H   UNL A   1      35.856  32.890  29.228  1.00  0.00     0.163 HD
ATOM     32  O   UNL A   1      38.145  32.237  29.340  1.00  0.00    -0.269 OA
BRANCH  30  33
ATOM     33  C   UNL A   1      37.534  30.069  28.747  1.00  0.00     0.039 A 
ATOM     34  C   UNL A   1      37.565  29.180  29.825  1.00  0.00     0.014 A 
ATOM     35  C   UNL A   1      38.131  29.763  27.530  1.00  0.00     0.014 A 
ATOM     36  C   UNL A   1      38.526  28.187  29.830  1.00  0.00     0.010 A 
ATOM     37  C   UNL A   1      39.047  28.735  27.508  1.00  0.00     0.010 A 
ATOM     38  C   UNL A   1      39.355  28.096  28.720  1.00  0.00    -0.014 A 
BRANCH  38  39
ATOM     39  C   UNL A   1      40.746  27.700  28.849  1.00  0.00     0.031 A 
ATOM     40  C   UNL A   1      41.204  26.330  28.611  1.00  0.00     0.074 A 
ATOM     41  C   UNL A   1      41.645  28.702  28.999  1.00  0.00     0.049 A 
ATOM     42  N   UNL A   1      42.384  25.918  28.938  1.00  0.00    -0.248 NA
ATOM     43  C   UNL A   1      40.353  25.290  28.042  1.00  0.00     0.031 C 
ATOM     44  C   UNL A   1      43.030  28.691  28.553  1.00  0.00     0.029 A 
ATOM     45  N   UNL A   1      41.512  29.908  29.706  1.00  0.00    -0.354 N 
ATOM     46  C   UNL A   1      42.566  24.751  28.242  1.00  0.00     0.074 A 
ATOM     47  C   UNL A   1      41.238  24.297  27.912  1.00  0.00     0.031 C 
ATOM     48  C   UNL A   1      43.683  29.697  29.150  1.00  0.00     0.029 A 
ATOM     49  C   UNL A   1      42.795  30.277  30.142  1.00  0.00     0.049 A 
ATOM     50  H   UNL A   1      40.676  30.403  29.867  1.00  0.00     0.167 HD
ATOM     51  C   UNL A   1      43.816  24.441  27.801  1.00  0.00     0.034 A 
ATOM     52  C   UNL A   1      43.140  30.560  31.430  1.00  0.00     0.034 A 
ATOM     53  C   UNL A   1      44.856  25.256  28.443  1.00  0.00     0.049 A 
ATOM     54  C   UNL A   1      44.213  29.630  31.974  1.00  0.00     0.074 A 
ATOM     55  C   UNL A   1      45.749  26.208  27.985  1.00  0.00     0.029 A 
ATOM     56  N   UNL A   1      44.946  25.282  29.833  1.00  0.00    -0.354 N 
ATOM     57  N   UNL A   1      44.858  28.748  31.263  1.00  0.00    -0.248 NA
ATOM     58  C   UNL A   1      44.581  29.565  33.390  1.00  0.00     0.031 C 
ATOM     59  C   UNL A   1      46.273  26.898  29.115  1.00  0.00     0.029 A 
ATOM     60  C   UNL A   1      45.742  26.332  30.263  1.00  0.00     0.049 A 
ATOM     61  H   UNL A   1      44.503  24.638  30.432  1.00  0.00     0.167 HD
ATOM     62  C   UNL A   1      45.465  27.853  32.106  1.00  0.00     0.074 A 
ATOM     63  C   UNL A   1      45.386  28.488  33.409  1.00  0.00     0.031 C 
ATOM     64  C   UNL A   1      45.863  26.611  31.693  1.00  0.00     0.034 A 
BRANCH  51  65
ATOM     65  C   UNL A   1      44.087  23.537  26.613  1.00  0.00     0.023 A 
ATOM     66  C   UNL A   1      44.721  24.108  25.490  1.00  0.00     0.012 A 
ATOM     67  C   UNL A   1      43.662  22.191  26.471  1.00  0.00     0.148 A 
ATOM     68  C   UNL A   1      44.933  23.386  24.307  1.00  0.00     0.002 A 
ATOM     69  C   UNL A   1      43.964  21.443  25.332  1.00  0.00     0.091 A 
ATOM     70  F   UNL A   1      42.850  21.637  27.377  1.00  0.00    -0.205 F 
ATOM     71  C   UNL A   1      44.583  22.044  24.236  1.00  0.00     0.022 A 
BRANCH  69  72
ATOM     72  S   UNL A   1      43.616  19.677  25.244  1.00  0.00     0.127 S 
ATOM     73  O   UNL A   1      44.306  19.164  26.426  1.00  0.00    -0.237 OA
ATOM     74  O   UNL A   1      42.156  19.636  25.324  1.00  0.00    -0.237 OA
ATOM     75  O   UNL A   1      44.151  19.234  23.960  1.00  0.00    -0.744 OA
ENDBRANCH  69  72
ENDBRANCH  51  65
BRANCH  52  76
ATOM     76  C   UNL A   1      42.075  31.193  32.246  1.00  0.00     0.023 A 
ATOM     77  C   UNL A   1      41.946  32.597  32.184  1.00  0.00     0.012 A 
ATOM     78  C   UNL A   1      41.033  30.440  32.806  1.00  0.00     0.148 A 
ATOM     79  C   UNL A   1      40.774  33.230  32.607  1.00  0.00     0.002 A 
ATOM     80  C   UNL A   1      39.858  31.075  33.199  1.00  0.00     0.091 A 
ATOM     81  F   UNL A   1      41.145  29.105  32.834  1.00  0.00    -0.205 F 
ATOM     82  C   UNL A   1      39.717  32.466  33.091  1.00  0.00     0.022 A 
BRANCH  80  83
ATOM     83  S   UNL A   1      38.461  30.086  33.735  1.00  0.00     0.127 S 
ATOM     84  O   UNL A   1      38.513  30.203  35.191  1.00  0.00    -0.237 OA
ATOM     85  O   UNL A   1      37.346  30.778  33.103  1.00  0.00    -0.237 OA
ATOM     86  O   UNL A   1      38.779  28.757  33.225  1.00  0.00    -0.744 OA
ENDBRANCH  80  83
ENDBRANCH  52  76
BRANCH  64  87
ATOM     87  C   UNL A   1      46.329  25.513  32.626  1.00  0.00     0.023 A 
ATOM     88  C   UNL A   1      47.686  25.331  32.963  1.00  0.00     0.012 A 
ATOM     89  C   UNL A   1      45.386  24.714  33.318  1.00  0.00     0.148 A 
ATOM     90  C   UNL A   1      48.095  24.361  33.885  1.00  0.00     0.002 A 
ATOM     91  C   UNL A   1      45.790  23.817  34.306  1.00  0.00     0.091 A 
ATOM     92  F   UNL A   1      44.082  24.813  33.012  1.00  0.00    -0.205 F 
ATOM     93  C   UNL A   1      47.145  23.615  34.572  1.00  0.00     0.022 A 
BRANCH  91  94
ATOM     94  S   UNL A   1      44.568  23.015  35.353  1.00  0.00     0.127 S 
ATOM     95  O   UNL A   1      45.398  22.407  36.389  1.00  0.00    -0.237 OA
ATOM     96  O   UNL A   1      43.747  24.137  35.814  1.00  0.00    -0.237 OA
ATOM     97  O   UNL A   1      43.871  22.100  34.458  1.00  0.00    -0.744 OA
ENDBRANCH  91  94
ENDBRANCH  64  87
ENDBRANCH  38  39
ENDBRANCH  30  33
ENDBRANCH  28  29
ENDBRANCH  27  28
ENDBRANCH   1  27
TORSDOF 17
ENDMDL
MODEL 2
REMARK VINA RESULT:     -12.6      2.942      4.209
REMARK SMILES COC(=O)c1ccc(C)c(NC(=O)[C@H]2CC=CC[C@H]2C(=O)NCCCNC(=O)c2ccc(-c3c4nc(c(-c5cccc(S(=O)(=O)[O-])c5F)c5ccc([nH]5)c(-c5cccc(S(=O)(=O)[O-])c5F)c5nc(c(-c6cccc(S(=O)(=O)[O-])c6F)c6ccc3[nH]6)C=C5)C=C4)cc2)c1
REMARK SMILES IDX 23 1 22 2 20 3 21 4 19 6 14 7 15 8 16 9 18 10 17 11 12 12
REMARK SMILES IDX 11 13 13 15 10 16 5 17 6 18 92 19 7 20 8 21 9 22 3 23 4 24
REMARK SMILES IDX 2 25 1 26 24 27 25 28 26 29 27 30 28 32 29 33 30 34 91 35
REMARK SMILES IDX 31 36 90 37 32 38 33 39 34 40 84 41 35 42 89 43 83 44 85 45
REMARK SMILES IDX 36 46 88 47 82 48 81 49 37 51 69 52 49 53 68 54 50 55 53 56
REMARK SMILES IDX 67 57 86 58 51 59 52 60 66 62 87 63 54 64 38 65 39 66 47 67
REMARK SMILES IDX 40 68 42 69 48 70 41 71 43 72 44 73 45 74 46 75 70 76 71 77
REMARK SMILES IDX 79 78 72 79 74 80 80 81 73 82 75 83 76 84 77 85 78 86 55 87
REMARK SMILES IDX 56 88 64 89 57 90 59 91 65 92 58 93 60 94 61 95 62 96 63 97
REMARK H PARENT 22 5 11 14 26 31 85 50 53 61
REMARK Flexibility Score: inf
ROOT
ATOM      1  C   UNL A   1      33.994  29.258  26.597  1.00  0.00     0.117 C 
ENDROOT
BRANCH   1   2
ATOM      2  N   UNL A   1      32.930  28.704  27.407  1.00  0.00    -0.356 N 
ATOM      3  C   UNL A   1      31.955  27.810  27.140  1.00  0.00     0.224 C 
ATOM      4  O   UNL A   1      31.070  27.700  27.999  1.00  0.00    -0.275 OA
ATOM      5  H   UNL A   1      32.915  29.046  28.331  1.00  0.00     0.163 HD
BRANCH   3   6
ATOM      6  C   UNL A   1      31.894  26.916  25.907  1.00  0.00     0.095 C 
ATOM      7  C   UNL A   1      32.841  25.700  25.808  1.00  0.00     0.095 C 
ATOM      8  C   UNL A   1      33.004  25.383  24.293  1.00  0.00     0.041 C 
ATOM      9  C   UNL A   1      31.696  25.425  23.527  1.00  0.00    -0.030 C 
ATOM     10  C   UNL A   1      30.489  26.665  25.355  1.00  0.00     0.041 C 
ATOM     11  C   UNL A   1      30.565  25.968  24.014  1.00  0.00    -0.030 C 
BRANCH   7  12
ATOM     12  C   UNL A   1      32.350  24.407  26.424  1.00  0.00     0.228 C 
ATOM     13  N   UNL A   1      32.700  23.146  26.115  1.00  0.00    -0.326 N 
ATOM     14  H   UNL A   1      31.950  22.558  26.363  1.00  0.00     0.169 HD
ATOM     15  O   UNL A   1      31.438  24.424  27.268  1.00  0.00    -0.274 OA
BRANCH  13  16
ATOM     16  C   UNL A   1      33.720  22.336  25.576  1.00  0.00     0.044 A 
ATOM     17  C   UNL A   1      33.940  19.978  24.836  1.00  0.00     0.062 A 
ATOM     18  C   UNL A   1      35.320  20.114  24.837  1.00  0.00     0.016 A 
ATOM     19  C   UNL A   1      33.173  21.107  25.127  1.00  0.00     0.042 A 
ATOM     20  C   UNL A   1      35.892  21.349  25.164  1.00  0.00     0.006 A 
ATOM     21  C   UNL A   1      35.113  22.470  25.555  1.00  0.00    -0.027 A 
ATOM     22  C   UNL A   1      35.894  23.688  25.933  1.00  0.00     0.046 C 
BRANCH  17  23
ATOM     23  C   UNL A   1      33.323  18.644  24.551  1.00  0.00     0.337 C 
ATOM     24  O   UNL A   1      32.159  18.402  24.836  1.00  0.00    -0.246 OA
BRANCH  23  25
ATOM     25  O   UNL A   1      34.217  17.679  24.202  1.00  0.00    -0.465 OA
ATOM     26  C   UNL A   1      34.218  16.477  24.990  1.00  0.00     0.282 C 
ENDBRANCH  23  25
ENDBRANCH  17  23
ENDBRANCH  13  16
ENDBRANCH   7  12
ENDBRANCH   3   6
ENDBRANCH   1   2
BRANCH   1  27
ATOM     27  C   UNL A   1      35.328  29.155  27.332  1.00  0.00     0.042 C 
BRANCH  27  28
ATOM     28  C   UNL A   1      36.023  30.489  27.600  1.00  0.00     0.118 C 
BRANCH  28  29
ATOM     29  N   UNL A   1      35.041  31.569  27.472  1.00  0.00    -0.352 N 
ATOM     30  C   UNL A   1      34.730  32.640  28.277  1.00  0.00     0.251 C 
ATOM     31  H   UNL A   1      34.500  31.519  26.651  1.00  0.00     0.163 HD
ATOM     32  O   UNL A   1      33.839  33.414  27.935  1.00  0.00    -0.269 OA
BRANCH  30  33
ATOM     33  C   UNL A   1      35.540  32.950  29.457  1.00  0.00     0.039 A 
ATOM     34  C   UNL A   1      36.635  33.781  29.207  1.00  0.00     0.014 A 
ATOM     35  C   UNL A   1      35.461  32.171  30.606  1.00  0.00     0.014 A 
ATOM     36  C   UNL A   1      37.817  33.528  29.876  1.00  0.00     0.010 A 
ATOM     37  C   UNL A   1      36.620  31.961  31.316  1.00  0.00     0.010 A 
ATOM     38  C   UNL A   1      37.814  32.503  30.812  1.00  0.00    -0.014 A 
BRANCH  38  39
ATOM     39  C   UNL A   1      38.983  31.665  31.017  1.00  0.00     0.031 A 
ATOM     40  C   UNL A   1      39.147  30.365  30.367  1.00  0.00     0.074 A 
ATOM     41  C   UNL A   1      40.020  32.231  31.681  1.00  0.00     0.049 A 
ATOM     42  N   UNL A   1      40.059  29.518  30.711  1.00  0.00    -0.248 NA
ATOM     43  C   UNL A   1      38.258  29.879  29.315  1.00  0.00     0.031 C 
ATOM     44  C   UNL A   1      41.429  31.916  31.505  1.00  0.00     0.029 A 
ATOM     45  N   UNL A   1      39.992  33.136  32.754  1.00  0.00    -0.354 N 
ATOM     46  C   UNL A   1      40.140  28.628  29.671  1.00  0.00     0.074 A 
ATOM     47  C   UNL A   1      38.882  28.746  28.976  1.00  0.00     0.031 C 
ATOM     48  C   UNL A   1      42.116  32.426  32.535  1.00  0.00     0.029 A 
ATOM     49  C   UNL A   1      41.158  32.923  33.507  1.00  0.00     0.049 A 
ATOM     50  H   UNL A   1      39.287  33.797  32.943  1.00  0.00     0.167 HD
ATOM     51  C   UNL A   1      41.350  28.086  29.364  1.00  0.00     0.034 A 
ATOM     52  C   UNL A   1      41.198  32.670  34.845  1.00  0.00     0.034 A 
ATOM     53  C   UNL A   1      42.341  28.287  30.431  1.00  0.00     0.049 A 
ATOM     54  C   UNL A   1      41.829  31.327  35.176  1.00  0.00     0.074 A 
ATOM     55  C   UNL A   1      43.525  28.997  30.520  1.00  0.00     0.029 A 
ATOM     56  N   UNL A   1      42.054  27.854  31.724  1.00  0.00    -0.354 N 
ATOM     57  N   UNL A   1      42.413  30.550  34.308  1.00  0.00    -0.248 NA
ATOM     58  C   UNL A   1      41.773  30.715  36.506  1.00  0.00     0.031 C 
ATOM     59  C   UNL A   1      43.872  29.101  31.897  1.00  0.00     0.029 A 
ATOM     60  C   UNL A   1      42.930  28.410  32.643  1.00  0.00     0.049 A 
ATOM     61  H   UNL A   1      41.325  27.234  31.955  1.00  0.00     0.167 HD
ATOM     62  C   UNL A   1      42.537  29.294  34.845  1.00  0.00     0.074 A 
ATOM     63  C   UNL A   1      42.261  29.488  36.258  1.00  0.00     0.031 C 
ATOM     64  C   UNL A   1      42.722  28.181  34.072  1.00  0.00     0.034 A 
BRANCH  51  65
ATOM     65  C   UNL A   1      41.709  27.556  27.990  1.00  0.00     0.023 A 
ATOM     66  C   UNL A   1      41.645  28.455  26.905  1.00  0.00     0.012 A 
ATOM     67  C   UNL A   1      41.996  26.205  27.663  1.00  0.00     0.148 A 
ATOM     68  C   UNL A   1      41.867  28.044  25.583  1.00  0.00     0.002 A 
ATOM     69  C   UNL A   1      42.316  25.817  26.361  1.00  0.00     0.091 A 
ATOM     70  F   UNL A   1      41.847  25.239  28.576  1.00  0.00    -0.205 F 
ATOM     71  C   UNL A   1      42.232  26.732  25.312  1.00  0.00     0.022 A 
BRANCH  69  72
ATOM     72  S   UNL A   1      42.891  24.151  25.988  1.00  0.00     0.127 S 
ATOM     73  O   UNL A   1      43.310  24.271  24.593  1.00  0.00    -0.237 OA
ATOM     74  O   UNL A   1      43.986  23.971  26.941  1.00  0.00    -0.237 OA
ATOM     75  O   UNL A   1      41.747  23.277  26.230  1.00  0.00    -0.744 OA
ENDBRANCH  69  72
ENDBRANCH  51  65
BRANCH  52  76
ATOM     76  C   UNL A   1      40.135  33.327  35.645  1.00  0.00     0.023 A 
ATOM     77  C   UNL A   1      38.879  32.686  35.723  1.00  0.00     0.012 A 
ATOM     78  C   UNL A   1      40.427  34.359  36.548  1.00  0.00     0.148 A 
ATOM     79  C   UNL A   1      37.964  33.019  36.724  1.00  0.00     0.002 A 
ATOM     80  C   UNL A   1      39.521  34.667  37.560  1.00  0.00     0.091 A 
ATOM     81  F   UNL A   1      41.631  34.944  36.492  1.00  0.00    -0.205 F 
ATOM     82  C   UNL A   1      38.295  33.994  37.661  1.00  0.00     0.022 A 
BRANCH  80  83
ATOM     83  S   UNL A   1      39.983  35.853  38.822  1.00  0.00     0.127 S 
ATOM     84  O   UNL A   1      38.884  35.760  39.782  1.00  0.00    -0.237 OA
ATOM     85  O   UNL A   1      41.252  35.312  39.289  1.00  0.00    -0.237 OA
ATOM     86  O   UNL A   1      40.039  37.114  38.091  1.00  0.00    -0.744 OA
ENDBRANCH  80  83
ENDBRANCH  52  76
BRANCH  64  87
ATOM     87  C   UNL A   1      42.642  26.761  34.592  1.00  0.00     0.023 A 
ATOM     88  C   UNL A   1      41.505  26.264  35.263  1.00  0.00     0.012 A 
ATOM     89  C   UNL A   1      43.662  25.828  34.284  1.00  0.00     0.148 A 
ATOM     90  C   UNL A   1      41.414  24.929  35.671  1.00  0.00     0.002 A 
ATOM     91  C   UNL A   1      43.523  24.478  34.606  1.00  0.00     0.091 A 
ATOM     92  F   UNL A   1      44.785  26.249  33.681  1.00  0.00    -0.205 F 
ATOM     93  C   UNL A   1      42.415  24.029  35.327  1.00  0.00     0.022 A 
BRANCH  91  94
ATOM     94  S   UNL A   1      44.697  23.272  33.973  1.00  0.00     0.127 S 
ATOM     95  O   UNL A   1      44.557  23.431  32.528  1.00  0.00    -0.237 OA
ATOM     96  O   UNL A   1      45.973  23.745  34.514  1.00  0.00    -0.237 OA
ATOM     97  O   UNL A   1      44.250  22.004  34.535  1.00  0.00    -0.744 OA
ENDBRANCH  91  94
ENDBRANCH  64  87
ENDBRANCH  38  39
ENDBRANCH  30  33
ENDBRANCH  28  29
ENDBRANCH  27  28
ENDBRANCH   1  27
TORSDOF 17
ENDMDL
MODEL 3
REMARK VINA RESULT:     -12.2      4.184      9.872
REMARK SMILES COC(=O)c1ccc(C)c(NC(=O)[C@H]2CC=CC[C@H]2C(=O)NCCCNC(=O)c2ccc(-c3c4nc(c(-c5cccc(S(=O)(=O)[O-])c5F)c5ccc([nH]5)c(-c5cccc(S(=O)(=O)[O-])c5F)c5nc(c(-c6cccc(S(=O)(=O)[O-])c6F)c6ccc3[nH]6)C=C5)C=C4)cc2)c1
REMARK SMILES IDX 23 1 22 2 20 3 21 4 19 6 14 7 15 8 16 9 18 10 17 11 12 12
REMARK SMILES IDX 11 13 13 15 10 16 5 17 6 18 92 19 7 20 8 21 9 22 3 23 4 24
REMARK SMILES IDX 2 25 1 26 24 27 25 28 26 29 27 30 28 32 29 33 30 34 91 35
REMARK SMILES IDX 31 36 90 37 32 38 33 39 34 40 84 41 35 42 89 43 83 44 85 45
REMARK SMILES IDX 36 46 88 47 82 48 81 49 37 51 69 52 49 53 68 54 50 55 53 56
REMARK SMILES IDX 67 57 86 58 51 59 52 60 66 62 87 63 54 64 38 65 39 66 47 67
REMARK SMILES IDX 40 68 42 69 48 70 41 71 43 72 44 73 45 74 46 75 70 76 71 77
REMARK SMILES IDX 79 78 72 79 74 80 80 81 73 82 75 83 76 84 77 85 78 86 55 87
REMARK SMILES IDX 56 88 64 89 57 90 59 91 65 92 58 93 60 94 61 95 62 96 63 97
REMARK H PARENT 22 5 11 14 26 31 85 50 53 61
REMARK Flexibility Score: inf
ROOT
ATOM      1  C   UNL A   1      37.204  23.131  25.945  1.00  0.00     0.117 C 
ENDROOT
BRANCH   1   2
ATOM      2  N   UNL A   1      37.183  23.165  24.498  1.00  0.00    -0.356 N 
ATOM      3  C   UNL A   1      36.176  23.110  23.602  1.00  0.00     0.224 C 
ATOM      4  O   UNL A   1      36.509  22.956  22.419  1.00  0.00    -0.275 OA
ATOM      5  H   UNL A   1      38.076  23.244  24.090  1.00  0.00     0.163 HD
BRANCH   3   6
ATOM      6  C   UNL A   1      34.695  23.266  23.930  1.00  0.00     0.095 C 
ATOM      7  C   UNL A   1      34.147  24.662  24.299  1.00  0.00     0.095 C 
ATOM      8  C   UNL A   1      32.864  24.427  25.148  1.00  0.00     0.041 C 
ATOM      9  C   UNL A   1      31.958  23.351  24.583  1.00  0.00    -0.030 C 
ATOM     10  C   UNL A   1      33.747  22.423  23.074  1.00  0.00     0.041 C 
ATOM     11  C   UNL A   1      32.343  22.478  23.634  1.00  0.00    -0.030 C 
BRANCH   7  12
ATOM     12  C   UNL A   1      33.696  25.537  23.149  1.00  0.00     0.228 C 
ATOM     13  N   UNL A   1      32.843  26.577  23.172  1.00  0.00    -0.326 N 
ATOM     14  H   UNL A   1      32.444  26.657  22.275  1.00  0.00     0.169 HD
ATOM     15  O   UNL A   1      34.043  25.269  21.986  1.00  0.00    -0.274 OA
BRANCH  13  16
ATOM     16  C   UNL A   1      32.296  27.597  23.977  1.00  0.00     0.044 A 
ATOM     17  C   UNL A   1      30.527  29.320  23.737  1.00  0.00     0.062 A 
ATOM     18  C   UNL A   1      31.019  29.970  24.860  1.00  0.00     0.016 A 
ATOM     19  C   UNL A   1      31.123  28.114  23.368  1.00  0.00     0.042 A 
ATOM     20  C   UNL A   1      32.105  29.424  25.553  1.00  0.00     0.006 A 
ATOM     21  C   UNL A   1      32.773  28.248  25.119  1.00  0.00    -0.027 A 
ATOM     22  C   UNL A   1      33.955  27.846  25.943  1.00  0.00     0.046 C 
BRANCH  17  23
ATOM     23  C   UNL A   1      29.407  29.932  22.953  1.00  0.00     0.337 C 
ATOM     24  O   UNL A   1      29.041  29.461  21.887  1.00  0.00    -0.246 OA
BRANCH  23  25
ATOM     25  O   UNL A   1      29.028  31.163  23.391  1.00  0.00    -0.465 OA
ATOM     26  C   UNL A   1      27.632  31.489  23.287  1.00  0.00     0.282 C 
ENDBRANCH  23  25
ENDBRANCH  17  23
ENDBRANCH  13  16
ENDBRANCH   7  12
ENDBRANCH   3   6
ENDBRANCH   1   2
BRANCH   1  27
ATOM     27  C   UNL A   1      38.125  24.222  26.487  1.00  0.00     0.042 C 
BRANCH  27  28
ATOM     28  C   UNL A   1      39.333  23.716  27.273  1.00  0.00     0.118 C 
BRANCH  28  29
ATOM     29  N   UNL A   1      39.587  22.321  26.905  1.00  0.00    -0.352 N 
ATOM     30  C   UNL A   1      40.732  21.652  26.537  1.00  0.00     0.251 C 
ATOM     31  H   UNL A   1      38.784  21.752  26.926  1.00  0.00     0.163 HD
ATOM     32  O   UNL A   1      40.672  20.455  26.267  1.00  0.00    -0.269 OA
BRANCH  30  33
ATOM     33  C   UNL A   1      42.038  22.311  26.603  1.00  0.00     0.039 A 
ATOM     34  C   UNL A   1      42.661  22.241  27.851  1.00  0.00     0.014 A 
ATOM     35  C   UNL A   1      42.418  23.248  25.649  1.00  0.00     0.014 A 
ATOM     36  C   UNL A   1      43.358  23.346  28.301  1.00  0.00     0.010 A 
ATOM     37  C   UNL A   1      43.164  24.324  26.072  1.00  0.00     0.010 A 
ATOM     38  C   UNL A   1      43.454  24.432  27.442  1.00  0.00    -0.014 A 
BRANCH  38  39
ATOM     39  C   UNL A   1      43.453  25.794  27.946  1.00  0.00     0.031 A 
ATOM     40  C   UNL A   1      42.249  26.626  27.971  1.00  0.00     0.074 A 
ATOM     41  C   UNL A   1      44.574  26.199  28.589  1.00  0.00     0.049 A 
ATOM     42  N   UNL A   1      42.279  27.897  28.200  1.00  0.00    -0.248 NA
ATOM     43  C   UNL A   1      40.915  26.112  27.677  1.00  0.00     0.031 C 
ATOM     44  C   UNL A   1      44.646  27.179  29.662  1.00  0.00     0.029 A 
ATOM     45  N   UNL A   1      45.914  25.886  28.308  1.00  0.00    -0.354 N 
ATOM     46  C   UNL A   1      40.988  28.241  28.509  1.00  0.00     0.074 A 
ATOM     47  C   UNL A   1      40.174  27.192  27.949  1.00  0.00     0.031 C 
ATOM     48  C   UNL A   1      45.922  27.553  29.820  1.00  0.00     0.029 A 
ATOM     49  C   UNL A   1      46.693  26.974  28.734  1.00  0.00     0.049 A 
ATOM     50  H   UNL A   1      46.245  25.058  27.890  1.00  0.00     0.167 HD
ATOM     51  C   UNL A   1      40.774  29.229  29.420  1.00  0.00     0.034 A 
ATOM     52  C   UNL A   1      47.590  27.651  27.964  1.00  0.00     0.034 A 
ATOM     53  C   UNL A   1      41.985  30.019  29.687  1.00  0.00     0.049 A 
ATOM     54  C   UNL A   1      47.248  29.124  27.811  1.00  0.00     0.074 A 
ATOM     55  C   UNL A   1      42.787  30.201  30.799  1.00  0.00     0.029 A 
ATOM     56  N   UNL A   1      42.654  30.627  28.626  1.00  0.00    -0.354 N 
ATOM     57  N   UNL A   1      46.292  29.733  28.456  1.00  0.00    -0.248 NA
ATOM     58  C   UNL A   1      47.906  30.010  26.848  1.00  0.00     0.031 C 
ATOM     59  C   UNL A   1      44.004  30.803  30.368  1.00  0.00     0.029 A 
ATOM     60  C   UNL A   1      43.922  31.036  29.005  1.00  0.00     0.049 A 
ATOM     61  H   UNL A   1      42.275  30.750  27.726  1.00  0.00     0.167 HD
ATOM     62  C   UNL A   1      46.019  30.922  27.832  1.00  0.00     0.074 A 
ATOM     63  C   UNL A   1      47.144  31.114  26.933  1.00  0.00     0.031 C 
ATOM     64  C   UNL A   1      44.835  31.586  28.003  1.00  0.00     0.034 A 
BRANCH  51  65
ATOM     65  C   UNL A   1      39.509  29.349  30.248  1.00  0.00     0.023 A 
ATOM     66  C   UNL A   1      39.214  28.304  31.147  1.00  0.00     0.012 A 
ATOM     67  C   UNL A   1      38.522  30.362  30.125  1.00  0.00     0.148 A 
ATOM     68  C   UNL A   1      38.025  28.272  31.889  1.00  0.00     0.002 A 
ATOM     69  C   UNL A   1      37.387  30.382  30.937  1.00  0.00     0.091 A 
ATOM     70  F   UNL A   1      38.592  31.261  29.138  1.00  0.00    -0.205 F 
ATOM     71  C   UNL A   1      37.124  29.325  31.808  1.00  0.00     0.022 A 
BRANCH  69  72
ATOM     72  S   UNL A   1      36.249  31.780  30.933  1.00  0.00     0.127 S 
ATOM     73  O   UNL A   1      37.154  32.917  30.784  1.00  0.00    -0.237 OA
ATOM     74  O   UNL A   1      35.414  31.506  29.764  1.00  0.00    -0.237 OA
ATOM     75  O   UNL A   1      35.533  31.706  32.202  1.00  0.00    -0.744 OA
ENDBRANCH  69  72
ENDBRANCH  51  65
BRANCH  52  76
ATOM     76  C   UNL A   1      48.292  26.835  26.943  1.00  0.00     0.023 A 
ATOM     77  C   UNL A   1      47.600  26.538  25.749  1.00  0.00     0.012 A 
ATOM     78  C   UNL A   1      49.678  26.627  26.993  1.00  0.00     0.148 A 
ATOM     79  C   UNL A   1      48.285  26.111  24.608  1.00  0.00     0.002 A 
ATOM     80  C   UNL A   1      50.357  26.228  25.845  1.00  0.00     0.091 A 
ATOM     81  F   UNL A   1      50.336  26.939  28.118  1.00  0.00    -0.205 F 
ATOM     82  C   UNL A   1      49.670  25.980  24.648  1.00  0.00     0.022 A 
BRANCH  80  83
ATOM     83  S   UNL A   1      52.148  26.150  25.866  1.00  0.00     0.127 S 
ATOM     84  O   UNL A   1      52.529  27.454  26.406  1.00  0.00    -0.237 OA
ATOM     85  O   UNL A   1      52.387  25.023  26.759  1.00  0.00    -0.237 OA
ATOM     86  O   UNL A   1      52.491  25.955  24.462  1.00  0.00    -0.744 OA
ENDBRANCH  80  83
ENDBRANCH  52  76
BRANCH  64  87
ATOM     87  C   UNL A   1      44.397  32.775  27.174  1.00  0.00     0.023 A 
ATOM     88  C   UNL A   1      44.131  32.677  25.792  1.00  0.00     0.012 A 
ATOM     89  C   UNL A   1      44.094  34.009  27.798  1.00  0.00     0.148 A 
ATOM     90  C   UNL A   1      43.655  33.765  25.053  1.00  0.00     0.002 A 
ATOM     91  C   UNL A   1      43.529  35.060  27.076  1.00  0.00     0.091 A 
ATOM     92  F   UNL A   1      44.364  34.176  29.102  1.00  0.00    -0.205 F 
ATOM     93  C   UNL A   1      43.335  34.953  25.698  1.00  0.00     0.022 A 
BRANCH  91  94
ATOM     94  S   UNL A   1      42.906  36.513  27.933  1.00  0.00     0.127 S 
ATOM     95  O   UNL A   1      42.139  37.186  26.888  1.00  0.00    -0.237 OA
ATOM     96  O   UNL A   1      42.092  35.935  29.005  1.00  0.00    -0.237 OA
ATOM     97  O   UNL A   1      44.104  37.197  28.403  1.00  0.00    -0.744 OA
ENDBRANCH  91  94
ENDBRANCH  64  87
ENDBRANCH  38  39
ENDBRANCH  30  33
ENDBRANCH  28  29
ENDBRANCH  27  28
ENDBRANCH   1  27
TORSDOF 17
ENDMDL
