MODEL 1
REMARK VINA RESULT:     -12.3      0.000      0.000
REMARK SMILES O=C(NCCCNC(=O)c1ccc(NC(=O)[C@@H]2COCCO2)cc1O)c1ccc(-c2c3nc(c(-c4cccc(S(=O)(=O)[O-])c4F)c4ccc([nH]4)c(-c4cccc(S(=O)(=O)[O-])c4F)c4nc(c(-c5cccc(S(=O)(=O)[O-])c5F)c5ccc2[nH]5)C=C4)C=C3)cc1
REMARK SMILES IDX 4 1 3 2 1 3 2 4 26 6 27 7 88 8 28 9 87 10 29 11 30 12 31 13
REMARK SMILES IDX 81 14 32 15 86 16 80 17 82 18 33 19 85 20 79 21 78 22 34 24
REMARK SMILES IDX 66 25 46 26 65 27 47 28 50 29 64 30 83 31 48 32 49 33 63 35
REMARK SMILES IDX 84 36 51 37 35 38 36 39 44 40 37 41 39 42 45 43 38 44 40 45
REMARK SMILES IDX 41 46 42 47 43 48 67 49 68 50 76 51 69 52 71 53 77 54 70 55
REMARK SMILES IDX 72 56 73 57 74 58 75 59 52 60 53 61 61 62 54 63 56 64 62 65
REMARK SMILES IDX 55 66 57 67 58 68 59 69 60 70 5 71 6 72 7 73 8 74 9 76 10 77
REMARK SMILES IDX 11 78 24 79 12 80 23 81 13 82 25 83 14 85 15 86 16 88 17 89
REMARK SMILES IDX 18 90 22 91 19 92 21 93 20 94
REMARK H PARENT 3 5 82 23 50 34 7 75 25 84 14 87
REMARK Flexibility Score: inf
ROOT
ATOM      1  C   UNL A   1      33.567  28.440  27.160  1.00  0.00     0.118 C 
ENDROOT
BRANCH   1   2
ATOM      2  N   UNL A   1      33.577  29.897  27.139  1.00  0.00    -0.352 N 
ATOM      3  O   UNL A   1      34.187  31.974  27.744  1.00  0.00    -0.269 OA
ATOM      4  C   UNL A   1      34.476  30.780  27.680  1.00  0.00     0.251 C 
ATOM      5  H   UNL A   1      32.821  30.311  26.663  1.00  0.00     0.163 HD
BRANCH   4   6
ATOM      6  C   UNL A   1      35.766  30.292  28.205  1.00  0.00     0.039 A 
ATOM      7  C   UNL A   1      36.926  30.365  27.428  1.00  0.00     0.014 A 
ATOM      8  C   UNL A   1      35.820  29.769  29.498  1.00  0.00     0.014 A 
ATOM      9  C   UNL A   1      38.098  29.772  27.878  1.00  0.00     0.010 A 
ATOM     10  C   UNL A   1      37.025  29.264  29.988  1.00  0.00     0.010 A 
ATOM     11  C   UNL A   1      38.165  29.232  29.169  1.00  0.00    -0.014 A 
BRANCH  11  12
ATOM     12  C   UNL A   1      39.451  28.710  29.689  1.00  0.00     0.031 A 
ATOM     13  C   UNL A   1      40.179  29.419  30.794  1.00  0.00     0.074 A 
ATOM     14  C   UNL A   1      39.987  27.619  29.109  1.00  0.00     0.049 A 
ATOM     15  N   UNL A   1      41.356  29.160  31.299  1.00  0.00    -0.248 NA
ATOM     16  C   UNL A   1      39.505  30.577  31.401  1.00  0.00     0.031 C 
ATOM     17  C   UNL A   1      39.381  26.873  28.004  1.00  0.00     0.029 A 
ATOM     18  N   UNL A   1      41.172  26.970  29.339  1.00  0.00    -0.354 N 
ATOM     19  C   UNL A   1      41.591  30.151  32.245  1.00  0.00     0.074 A 
ATOM     20  C   UNL A   1      40.432  31.017  32.243  1.00  0.00     0.031 C 
ATOM     21  C   UNL A   1      40.202  25.880  27.641  1.00  0.00     0.029 A 
ATOM     22  C   UNL A   1      41.417  25.958  28.443  1.00  0.00     0.049 A 
ATOM     23  H   UNL A   1      41.785  27.205  30.073  1.00  0.00     0.167 HD
ATOM     24  C   UNL A   1      42.674  30.318  33.043  1.00  0.00     0.034 A 
ATOM     25  C   UNL A   1      42.516  25.204  28.248  1.00  0.00     0.034 A 
ATOM     26  C   UNL A   1      43.809  29.435  33.047  1.00  0.00     0.049 A 
ATOM     27  C   UNL A   1      43.699  25.402  29.146  1.00  0.00     0.074 A 
ATOM     28  C   UNL A   1      44.920  29.467  33.871  1.00  0.00     0.029 A 
ATOM     29  N   UNL A   1      43.992  28.373  32.173  1.00  0.00    -0.354 N 
ATOM     30  N   UNL A   1      43.854  26.262  30.123  1.00  0.00    -0.248 NA
ATOM     31  C   UNL A   1      44.849  24.510  28.941  1.00  0.00     0.031 C 
ATOM     32  C   UNL A   1      45.790  28.448  33.470  1.00  0.00     0.029 A 
ATOM     33  C   UNL A   1      45.204  27.754  32.423  1.00  0.00     0.049 A 
ATOM     34  H   UNL A   1      43.352  28.099  31.476  1.00  0.00     0.167 HD
ATOM     35  C   UNL A   1      45.101  25.998  30.672  1.00  0.00     0.074 A 
ATOM     36  C   UNL A   1      45.658  24.889  29.922  1.00  0.00     0.031 C 
ATOM     37  C   UNL A   1      45.725  26.621  31.701  1.00  0.00     0.034 A 
BRANCH  24  38
ATOM     38  C   UNL A   1      42.675  31.496  33.981  1.00  0.00     0.023 A 
ATOM     39  C   UNL A   1      43.238  32.723  33.571  1.00  0.00     0.012 A 
ATOM     40  C   UNL A   1      42.086  31.402  35.258  1.00  0.00     0.148 A 
ATOM     41  C   UNL A   1      43.257  33.820  34.433  1.00  0.00     0.002 A 
ATOM     42  C   UNL A   1      42.068  32.514  36.094  1.00  0.00     0.091 A 
ATOM     43  F   UNL A   1      41.574  30.224  35.642  1.00  0.00    -0.205 F 
ATOM     44  C   UNL A   1      42.665  33.718  35.690  1.00  0.00     0.022 A 
BRANCH  42  45
ATOM     45  S   UNL A   1      41.257  32.497  37.696  1.00  0.00     0.127 S 
ATOM     46  O   UNL A   1      42.130  31.606  38.459  1.00  0.00    -0.237 OA
ATOM     47  O   UNL A   1      41.325  33.904  38.095  1.00  0.00    -0.237 OA
ATOM     48  O   UNL A   1      39.908  32.005  37.454  1.00  0.00    -0.744 OA
ENDBRANCH  42  45
ENDBRANCH  24  38
BRANCH  25  49
ATOM     49  C   UNL A   1      42.510  24.190  27.158  1.00  0.00     0.023 A 
ATOM     50  C   UNL A   1      43.162  24.471  25.945  1.00  0.00     0.012 A 
ATOM     51  C   UNL A   1      41.953  22.912  27.366  1.00  0.00     0.148 A 
ATOM     52  C   UNL A   1      43.249  23.498  24.948  1.00  0.00     0.002 A 
ATOM     53  C   UNL A   1      42.094  21.932  26.394  1.00  0.00     0.091 A 
ATOM     54  F   UNL A   1      41.338  22.671  28.532  1.00  0.00    -0.205 F 
ATOM     55  C   UNL A   1      42.729  22.227  25.178  1.00  0.00     0.022 A 
BRANCH  53  56
ATOM     56  S   UNL A   1      41.589  20.228  26.659  1.00  0.00     0.127 S 
ATOM     57  O   UNL A   1      42.365  19.868  27.842  1.00  0.00    -0.237 OA
ATOM     58  O   UNL A   1      40.151  20.376  26.886  1.00  0.00    -0.237 OA
ATOM     59  O   UNL A   1      41.938  19.516  25.438  1.00  0.00    -0.744 OA
ENDBRANCH  53  56
ENDBRANCH  25  49
BRANCH  37  60
ATOM     60  C   UNL A   1      47.071  26.096  32.126  1.00  0.00     0.023 A 
ATOM     61  C   UNL A   1      48.245  26.624  31.556  1.00  0.00     0.012 A 
ATOM     62  C   UNL A   1      47.166  25.162  33.177  1.00  0.00     0.148 A 
ATOM     63  C   UNL A   1      49.496  26.217  32.018  1.00  0.00     0.002 A 
ATOM     64  C   UNL A   1      48.414  24.801  33.665  1.00  0.00     0.091 A 
ATOM     65  F   UNL A   1      46.032  24.661  33.689  1.00  0.00    -0.205 F 
ATOM     66  C   UNL A   1      49.581  25.319  33.081  1.00  0.00     0.022 A 
BRANCH  64  67
ATOM     67  S   UNL A   1      48.619  23.733  35.095  1.00  0.00     0.127 S 
ATOM     68  O   UNL A   1      50.075  23.667  35.211  1.00  0.00    -0.237 OA
ATOM     69  O   UNL A   1      47.956  24.500  36.149  1.00  0.00    -0.237 OA
ATOM     70  O   UNL A   1      47.967  22.475  34.758  1.00  0.00    -0.744 OA
ENDBRANCH  64  67
ENDBRANCH  37  60
ENDBRANCH  11  12
ENDBRANCH   4   6
ENDBRANCH   1   2
BRANCH   1  71
ATOM     71  C   UNL A   1      33.870  27.834  25.800  1.00  0.00     0.042 C 
BRANCH  71  72
ATOM     72  C   UNL A   1      33.759  26.318  25.750  1.00  0.00     0.118 C 
BRANCH  72  73
ATOM     73  N   UNL A   1      34.167  25.760  24.473  1.00  0.00    -0.352 N 
ATOM     74  C   UNL A   1      33.471  25.700  23.297  1.00  0.00     0.255 C 
ATOM     75  H   UNL A   1      35.071  25.368  24.451  1.00  0.00     0.163 HD
ATOM     76  O   UNL A   1      33.963  25.148  22.315  1.00  0.00    -0.269 OA
BRANCH  74  77
ATOM     77  C   UNL A   1      32.079  26.177  23.238  1.00  0.00     0.081 A 
ATOM     78  C   UNL A   1      31.137  25.357  23.844  1.00  0.00     0.020 A 
ATOM     79  C   UNL A   1      31.667  27.366  22.635  1.00  0.00     0.130 A 
ATOM     80  C   UNL A   1      29.803  25.753  23.894  1.00  0.00     0.027 A 
ATOM     81  C   UNL A   1      30.324  27.763  22.710  1.00  0.00     0.073 A 
ATOM     82  C   UNL A   1      29.372  26.961  23.363  1.00  0.00     0.044 A 
BRANCH  79  83
ATOM     83  O   UNL A   1      32.573  28.153  21.982  1.00  0.00    -0.507 OA
ATOM     84  H   UNL A   1      32.279  28.797  21.368  1.00  0.00     0.293 HD
ENDBRANCH  79  83
BRANCH  82  85
ATOM     85  N   UNL A   1      28.055  27.453  23.428  1.00  0.00    -0.324 N 
ATOM     86  C   UNL A   1      27.435  28.644  23.174  1.00  0.00     0.255 C 
ATOM     87  H   UNL A   1      27.420  26.767  23.734  1.00  0.00     0.170 HD
ATOM     88  O   UNL A   1      26.207  28.654  23.349  1.00  0.00    -0.272 OA
BRANCH  86  89
ATOM     89  C   UNL A   1      28.118  29.917  22.649  1.00  0.00     0.233 C 
ATOM     90  C   UNL A   1      27.628  31.144  23.436  1.00  0.00     0.202 C 
ATOM     91  O   UNL A   1      28.018  30.058  21.229  1.00  0.00    -0.364 OA
ATOM     92  O   UNL A   1      28.192  32.362  22.925  1.00  0.00    -0.376 OA
ATOM     93  C   UNL A   1      28.551  31.309  20.774  1.00  0.00     0.189 C 
ATOM     94  C   UNL A   1      27.932  32.489  21.523  1.00  0.00     0.188 C 
ENDBRANCH  86  89
ENDBRANCH  82  85
ENDBRANCH  74  77
ENDBRANCH  72  73
ENDBRANCH  71  72
ENDBRANCH   1  71
TORSDOF 16
ENDMDL
MODEL 2
REMARK VINA RESULT:     -12.2      1.452      3.415
REMARK SMILES O=C(NCCCNC(=O)c1ccc(NC(=O)[C@@H]2COCCO2)cc1O)c1ccc(-c2c3nc(c(-c4cccc(S(=O)(=O)[O-])c4F)c4ccc([nH]4)c(-c4cccc(S(=O)(=O)[O-])c4F)c4nc(c(-c5cccc(S(=O)(=O)[O-])c5F)c5ccc2[nH]5)C=C4)C=C3)cc1
REMARK SMILES IDX 4 1 3 2 1 3 2 4 26 6 27 7 88 8 28 9 87 10 29 11 30 12 31 13
REMARK SMILES IDX 81 14 32 15 86 16 80 17 82 18 33 19 85 20 79 21 78 22 34 24
REMARK SMILES IDX 66 25 46 26 65 27 47 28 50 29 64 30 83 31 48 32 49 33 63 35
REMARK SMILES IDX 84 36 51 37 35 38 36 39 44 40 37 41 39 42 45 43 38 44 40 45
REMARK SMILES IDX 41 46 42 47 43 48 67 49 68 50 76 51 69 52 71 53 77 54 70 55
REMARK SMILES IDX 72 56 73 57 74 58 75 59 52 60 53 61 61 62 54 63 56 64 62 65
REMARK SMILES IDX 55 66 57 67 58 68 59 69 60 70 5 71 6 72 7 73 8 74 9 76 10 77
REMARK SMILES IDX 11 78 24 79 12 80 23 81 13 82 25 83 14 85 15 86 16 88 17 89
REMARK SMILES IDX 18 90 22 91 19 92 21 93 20 94
REMARK H PARENT 3 5 82 23 50 34 7 75 25 84 14 87
REMARK Flexibility Score: inf
ROOT
ATOM      1  C   UNL A   1      34.206  28.923  26.134  1.00  0.00     0.118 C 
ENDROOT
BRANCH   1   2
ATOM      2  N   UNL A   1      33.957  30.253  26.673  1.00  0.00    -0.352 N 
ATOM      3  O   UNL A   1      34.097  31.958  28.130  1.00  0.00    -0.269 OA
ATOM      4  C   UNL A   1      34.602  30.934  27.673  1.00  0.00     0.251 C 
ATOM      5  H   UNL A   1      33.210  30.738  26.253  1.00  0.00     0.163 HD
BRANCH   4   6
ATOM      6  C   UNL A   1      35.877  30.422  28.213  1.00  0.00     0.039 A 
ATOM      7  C   UNL A   1      37.080  30.653  27.541  1.00  0.00     0.014 A 
ATOM      8  C   UNL A   1      35.870  29.713  29.416  1.00  0.00     0.014 A 
ATOM      9  C   UNL A   1      38.247  30.044  27.982  1.00  0.00     0.010 A 
ATOM     10  C   UNL A   1      37.063  29.186  29.912  1.00  0.00     0.010 A 
ATOM     11  C   UNL A   1      38.254  29.320  29.182  1.00  0.00    -0.014 A 
BRANCH  11  12
ATOM     12  C   UNL A   1      39.527  28.775  29.711  1.00  0.00     0.031 A 
ATOM     13  C   UNL A   1      40.259  29.469  30.822  1.00  0.00     0.074 A 
ATOM     14  C   UNL A   1      40.048  27.675  29.133  1.00  0.00     0.049 A 
ATOM     15  N   UNL A   1      41.427  29.189  31.336  1.00  0.00    -0.248 NA
ATOM     16  C   UNL A   1      39.601  30.638  31.426  1.00  0.00     0.031 C 
ATOM     17  C   UNL A   1      39.437  26.941  28.022  1.00  0.00     0.029 A 
ATOM     18  N   UNL A   1      41.219  27.005  29.372  1.00  0.00    -0.354 N 
ATOM     19  C   UNL A   1      41.673  30.174  32.285  1.00  0.00     0.074 A 
ATOM     20  C   UNL A   1      40.529  31.060  32.276  1.00  0.00     0.031 C 
ATOM     21  C   UNL A   1      40.243  25.933  27.664  1.00  0.00     0.029 A 
ATOM     22  C   UNL A   1      41.453  25.989  28.476  1.00  0.00     0.049 A 
ATOM     23  H   UNL A   1      41.831  27.227  30.111  1.00  0.00     0.167 HD
ATOM     24  C   UNL A   1      42.752  30.320  33.091  1.00  0.00     0.034 A 
ATOM     25  C   UNL A   1      42.540  25.216  28.289  1.00  0.00     0.034 A 
ATOM     26  C   UNL A   1      43.871  29.417  33.103  1.00  0.00     0.049 A 
ATOM     27  C   UNL A   1      43.720  25.392  29.196  1.00  0.00     0.074 A 
ATOM     28  C   UNL A   1      44.976  29.428  33.936  1.00  0.00     0.029 A 
ATOM     29  N   UNL A   1      44.041  28.353  32.229  1.00  0.00    -0.354 N 
ATOM     30  N   UNL A   1      43.882  26.248  30.175  1.00  0.00    -0.248 NA
ATOM     31  C   UNL A   1      44.855  24.480  28.999  1.00  0.00     0.031 C 
ATOM     32  C   UNL A   1      45.831  28.395  33.540  1.00  0.00     0.029 A 
ATOM     33  C   UNL A   1      45.241  27.713  32.488  1.00  0.00     0.049 A 
ATOM     34  H   UNL A   1      43.402  28.091  31.527  1.00  0.00     0.167 HD
ATOM     35  C   UNL A   1      45.120  25.961  30.734  1.00  0.00     0.074 A 
ATOM     36  C   UNL A   1      45.663  24.842  29.987  1.00  0.00     0.031 C 
ATOM     37  C   UNL A   1      45.747  26.571  31.768  1.00  0.00     0.034 A 
BRANCH  24  38
ATOM     38  C   UNL A   1      42.767  31.497  34.032  1.00  0.00     0.023 A 
ATOM     39  C   UNL A   1      43.378  32.706  33.638  1.00  0.00     0.012 A 
ATOM     40  C   UNL A   1      42.144  31.420  35.293  1.00  0.00     0.148 A 
ATOM     41  C   UNL A   1      43.410  33.801  34.501  1.00  0.00     0.002 A 
ATOM     42  C   UNL A   1      42.139  32.532  36.130  1.00  0.00     0.091 A 
ATOM     43  F   UNL A   1      41.585  30.259  35.663  1.00  0.00    -0.205 F 
ATOM     44  C   UNL A   1      42.784  33.717  35.743  1.00  0.00     0.022 A 
BRANCH  42  45
ATOM     45  S   UNL A   1      41.289  32.539  37.712  1.00  0.00     0.127 S 
ATOM     46  O   UNL A   1      42.136  31.650  38.506  1.00  0.00    -0.237 OA
ATOM     47  O   UNL A   1      41.359  33.950  38.096  1.00  0.00    -0.237 OA
ATOM     48  O   UNL A   1      39.942  32.055  37.442  1.00  0.00    -0.744 OA
ENDBRANCH  42  45
ENDBRANCH  24  38
BRANCH  25  49
ATOM     49  C   UNL A   1      42.525  24.204  27.198  1.00  0.00     0.023 A 
ATOM     50  C   UNL A   1      43.190  24.475  25.989  1.00  0.00     0.012 A 
ATOM     51  C   UNL A   1      41.944  22.935  27.399  1.00  0.00     0.148 A 
ATOM     52  C   UNL A   1      43.268  23.502  24.992  1.00  0.00     0.002 A 
ATOM     53  C   UNL A   1      42.075  21.954  26.427  1.00  0.00     0.091 A 
ATOM     54  F   UNL A   1      41.316  22.704  28.560  1.00  0.00    -0.205 F 
ATOM     55  C   UNL A   1      42.723  22.239  25.216  1.00  0.00     0.022 A 
BRANCH  53  56
ATOM     56  S   UNL A   1      41.538  20.258  26.686  1.00  0.00     0.127 S 
ATOM     57  O   UNL A   1      40.095  20.424  26.840  1.00  0.00    -0.237 OA
ATOM     58  O   UNL A   1      41.955  19.621  25.437  1.00  0.00    -0.237 OA
ATOM     59  O   UNL A   1      42.248  19.793  27.869  1.00  0.00    -0.744 OA
ENDBRANCH  53  56
ENDBRANCH  25  49
BRANCH  37  60
ATOM     60  C   UNL A   1      47.080  26.022  32.203  1.00  0.00     0.023 A 
ATOM     61  C   UNL A   1      48.268  26.541  31.656  1.00  0.00     0.012 A 
ATOM     62  C   UNL A   1      47.149  25.073  33.242  1.00  0.00     0.148 A 
ATOM     63  C   UNL A   1      49.508  26.111  32.128  1.00  0.00     0.002 A 
ATOM     64  C   UNL A   1      48.386  24.687  33.741  1.00  0.00     0.091 A 
ATOM     65  F   UNL A   1      46.002  24.580  33.732  1.00  0.00    -0.205 F 
ATOM     66  C   UNL A   1      49.567  25.197  33.179  1.00  0.00     0.022 A 
BRANCH  64  67
ATOM     67  S   UNL A   1      48.558  23.597  35.158  1.00  0.00     0.127 S 
ATOM     68  O   UNL A   1      50.010  23.520  35.300  1.00  0.00    -0.237 OA
ATOM     69  O   UNL A   1      47.880  24.353  36.211  1.00  0.00    -0.237 OA
ATOM     70  O   UNL A   1      47.904  22.349  34.791  1.00  0.00    -0.744 OA
ENDBRANCH  64  67
ENDBRANCH  37  60
ENDBRANCH  11  12
ENDBRANCH   4   6
ENDBRANCH   1   2
BRANCH   1  71
ATOM     71  C   UNL A   1      33.386  28.634  24.887  1.00  0.00     0.042 C 
BRANCH  71  72
ATOM     72  C   UNL A   1      31.898  28.904  25.040  1.00  0.00     0.118 C 
BRANCH  72  73
ATOM     73  N   UNL A   1      31.259  29.289  23.793  1.00  0.00    -0.352 N 
ATOM     74  C   UNL A   1      30.862  28.498  22.750  1.00  0.00     0.255 C 
ATOM     75  H   UNL A   1      31.088  30.252  23.683  1.00  0.00     0.163 HD
ATOM     76  O   UNL A   1      30.368  29.005  21.744  1.00  0.00    -0.269 OA
BRANCH  74  77
ATOM     77  C   UNL A   1      31.145  27.054  22.768  1.00  0.00     0.081 A 
ATOM     78  C   UNL A   1      30.278  26.282  23.529  1.00  0.00     0.020 A 
ATOM     79  C   UNL A   1      32.192  26.436  22.083  1.00  0.00     0.130 A 
ATOM     80  C   UNL A   1      30.427  24.897  23.558  1.00  0.00     0.027 A 
ATOM     81  C   UNL A   1      32.318  25.040  22.105  1.00  0.00     0.073 A 
ATOM     82  C   UNL A   1      31.417  24.247  22.836  1.00  0.00     0.044 A 
BRANCH  79  83
ATOM     83  O   UNL A   1      33.089  27.189  21.380  1.00  0.00    -0.507 OA
ATOM     84  H   UNL A   1      32.901  28.088  21.193  1.00  0.00     0.293 HD
ENDBRANCH  79  83
BRANCH  82  85
ATOM     85  N   UNL A   1      31.591  22.852  22.770  1.00  0.00    -0.324 N 
ATOM     86  C   UNL A   1      32.536  21.957  23.186  1.00  0.00     0.255 C 
ATOM     87  H   UNL A   1      30.845  22.408  22.307  1.00  0.00     0.170 HD
ATOM     88  O   UNL A   1      32.292  20.766  22.934  1.00  0.00    -0.272 OA
BRANCH  86  89
ATOM     89  C   UNL A   1      33.813  22.299  23.970  1.00  0.00     0.233 C 
ATOM     90  C   UNL A   1      33.451  23.003  25.289  1.00  0.00     0.202 C 
ATOM     91  O   UNL A   1      34.779  23.001  23.183  1.00  0.00    -0.364 OA
ATOM     92  O   UNL A   1      34.624  23.401  26.017  1.00  0.00    -0.376 OA
ATOM     93  C   UNL A   1      35.908  23.419  23.964  1.00  0.00     0.189 C 
ATOM     94  C   UNL A   1      35.475  24.210  25.197  1.00  0.00     0.188 C 
ENDBRANCH  86  89
ENDBRANCH  82  85
ENDBRANCH  74  77
ENDBRANCH  72  73
ENDBRANCH  71  72
ENDBRANCH   1  71
TORSDOF 16
ENDMDL
MODEL 3
REMARK VINA RESULT:     -12.1      5.493      8.515
REMARK SMILES O=C(NCCCNC(=O)c1ccc(NC(=O)[C@@H]2COCCO2)cc1O)c1ccc(-c2c3nc(c(-c4cccc(S(=O)(=O)[O-])c4F)c4ccc([nH]4)c(-c4cccc(S(=O)(=O)[O-])c4F)c4nc(c(-c5cccc(S(=O)(=O)[O-])c5F)c5ccc2[nH]5)C=C4)C=C3)cc1
REMARK SMILES IDX 4 1 3 2 1 3 2 4 26 6 27 7 88 8 28 9 87 10 29 11 30 12 31 13
REMARK SMILES IDX 81 14 32 15 86 16 80 17 82 18 33 19 85 20 79 21 78 22 34 24
REMARK SMILES IDX 66 25 46 26 65 27 47 28 50 29 64 30 83 31 48 32 49 33 63 35
REMARK SMILES IDX 84 36 51 37 35 38 36 39 44 40 37 41 39 42 45 43 38 44 40 45
REMARK SMILES IDX 41 46 42 47 43 48 67 49 68 50 76 51 69 52 71 53 77 54 70 55
REMARK SMILES IDX 72 56 73 57 74 58 75 59 52 60 53 61 61 62 54 63 56 64 62 65
REMARK SMILES IDX 55 66 57 67 58 68 59 69 60 70 5 71 6 72 7 73 8 74 9 76 10 77
REMARK SMILES IDX 11 78 24 79 12 80 23 81 13 82 25 83 14 85 15 86 16 88 17 89
REMARK SMILES IDX 18 90 22 91 19 92 21 93 20 94
REMARK H PARENT 3 5 82 23 50 34 7 75 25 84 14 87
REMARK Flexibility Score: inf
ROOT
ATOM      1  C   UNL A   1      38.562  20.536  25.518  1.00  0.00     0.118 C 
ENDROOT
BRANCH   1   2
ATOM      2  N   UNL A   1      39.603  19.548  25.765  1.00  0.00    -0.352 N 
ATOM      3  O   UNL A   1      41.690  18.758  26.035  1.00  0.00    -0.269 OA
ATOM      4  C   UNL A   1      40.925  19.720  26.087  1.00  0.00     0.251 C 
ATOM      5  H   UNL A   1      39.311  18.610  25.690  1.00  0.00     0.163 HD
BRANCH   4   6
ATOM      6  C   UNL A   1      41.426  21.056  26.462  1.00  0.00     0.039 A 
ATOM      7  C   UNL A   1      41.529  21.427  27.806  1.00  0.00     0.014 A 
ATOM      8  C   UNL A   1      41.811  21.945  25.457  1.00  0.00     0.014 A 
ATOM      9  C   UNL A   1      41.863  22.733  28.139  1.00  0.00     0.010 A 
ATOM     10  C   UNL A   1      42.244  23.227  25.799  1.00  0.00     0.010 A 
ATOM     11  C   UNL A   1      42.242  23.641  27.141  1.00  0.00    -0.014 A 
BRANCH  11  12
ATOM     12  C   UNL A   1      42.713  24.996  27.511  1.00  0.00     0.031 A 
ATOM     13  C   UNL A   1      41.775  25.999  28.117  1.00  0.00     0.074 A 
ATOM     14  C   UNL A   1      43.988  25.334  27.237  1.00  0.00     0.049 A 
ATOM     15  N   UNL A   1      41.991  27.254  28.408  1.00  0.00    -0.248 NA
ATOM     16  C   UNL A   1      40.412  25.537  28.423  1.00  0.00     0.031 C 
ATOM     17  C   UNL A   1      44.976  24.448  26.617  1.00  0.00     0.029 A 
ATOM     18  N   UNL A   1      44.661  26.515  27.409  1.00  0.00    -0.354 N 
ATOM     19  C   UNL A   1      40.782  27.750  28.880  1.00  0.00     0.074 A 
ATOM     20  C   UNL A   1      39.834  26.657  28.837  1.00  0.00     0.031 C 
ATOM     21  C   UNL A   1      46.122  25.119  26.445  1.00  0.00     0.029 A 
ATOM     22  C   UNL A   1      45.931  26.496  26.884  1.00  0.00     0.049 A 
ATOM     23  H   UNL A   1      44.274  27.298  27.864  1.00  0.00     0.167 HD
ATOM     24  C   UNL A   1      40.493  29.001  29.313  1.00  0.00     0.034 A 
ATOM     25  C   UNL A   1      46.829  27.486  26.722  1.00  0.00     0.034 A 
ATOM     26  C   UNL A   1      41.452  30.071  29.370  1.00  0.00     0.049 A 
ATOM     27  C   UNL A   1      46.490  28.860  27.214  1.00  0.00     0.074 A 
ATOM     28  C   UNL A   1      41.285  31.351  29.867  1.00  0.00     0.029 A 
ATOM     29  N   UNL A   1      42.754  29.994  28.895  1.00  0.00    -0.354 N 
ATOM     30  N   UNL A   1      45.384  29.281  27.777  1.00  0.00    -0.248 NA
ATOM     31  C   UNL A   1      47.528  29.892  27.079  1.00  0.00     0.031 C 
ATOM     32  C   UNL A   1      42.473  32.059  29.659  1.00  0.00     0.029 A 
ATOM     33  C   UNL A   1      43.395  31.209  29.069  1.00  0.00     0.049 A 
ATOM     34  H   UNL A   1      43.163  29.193  28.494  1.00  0.00     0.167 HD
ATOM     35  C   UNL A   1      45.600  30.615  28.095  1.00  0.00     0.074 A 
ATOM     36  C   UNL A   1      46.949  30.931  27.668  1.00  0.00     0.031 C 
ATOM     37  C   UNL A   1      44.754  31.495  28.684  1.00  0.00     0.034 A 
BRANCH  24  38
ATOM     38  C   UNL A   1      39.082  29.276  29.767  1.00  0.00     0.023 A 
ATOM     39  C   UNL A   1      38.702  28.995  31.096  1.00  0.00     0.012 A 
ATOM     40  C   UNL A   1      38.141  29.846  28.887  1.00  0.00     0.148 A 
ATOM     41  C   UNL A   1      37.397  29.234  31.527  1.00  0.00     0.002 A 
ATOM     42  C   UNL A   1      36.854  30.124  29.338  1.00  0.00     0.091 A 
ATOM     43  F   UNL A   1      38.510  30.088  27.621  1.00  0.00    -0.205 F 
ATOM     44  C   UNL A   1      36.476  29.805  30.651  1.00  0.00     0.022 A 
BRANCH  42  45
ATOM     45  S   UNL A   1      35.628  30.932  28.304  1.00  0.00     0.127 S 
ATOM     46  O   UNL A   1      36.364  32.107  27.838  1.00  0.00    -0.237 OA
ATOM     47  O   UNL A   1      35.375  29.924  27.274  1.00  0.00    -0.237 OA
ATOM     48  O   UNL A   1      34.491  31.203  29.173  1.00  0.00    -0.744 OA
ENDBRANCH  42  45
ENDBRANCH  24  38
BRANCH  25  49
ATOM     49  C   UNL A   1      48.134  27.176  26.076  1.00  0.00     0.023 A 
ATOM     50  C   UNL A   1      49.125  26.495  26.804  1.00  0.00     0.012 A 
ATOM     51  C   UNL A   1      48.348  27.459  24.711  1.00  0.00     0.148 A 
ATOM     52  C   UNL A   1      50.317  26.111  26.187  1.00  0.00     0.002 A 
ATOM     53  C   UNL A   1      49.510  27.023  24.090  1.00  0.00     0.091 A 
ATOM     54  F   UNL A   1      47.386  28.109  24.041  1.00  0.00    -0.205 F 
ATOM     55  C   UNL A   1      50.503  26.362  24.830  1.00  0.00     0.022 A 
BRANCH  53  56
ATOM     56  S   UNL A   1      49.772  27.169  22.319  1.00  0.00     0.127 S 
ATOM     57  O   UNL A   1      51.145  26.689  22.181  1.00  0.00    -0.237 OA
ATOM     58  O   UNL A   1      48.748  26.267  21.791  1.00  0.00    -0.237 OA
ATOM     59  O   UNL A   1      49.563  28.574  22.000  1.00  0.00    -0.744 OA
ENDBRANCH  53  56
ENDBRANCH  25  49
BRANCH  37  60
ATOM     60  C   UNL A   1      45.265  32.885  28.956  1.00  0.00     0.023 A 
ATOM     61  C   UNL A   1      46.036  33.140  30.105  1.00  0.00     0.012 A 
ATOM     62  C   UNL A   1      45.075  33.907  28.005  1.00  0.00     0.148 A 
ATOM     63  C   UNL A   1      46.599  34.399  30.312  1.00  0.00     0.002 A 
ATOM     64  C   UNL A   1      45.680  35.143  28.192  1.00  0.00     0.091 A 
ATOM     65  F   UNL A   1      44.320  33.644  26.928  1.00  0.00    -0.205 F 
ATOM     66  C   UNL A   1      46.434  35.394  29.350  1.00  0.00     0.022 A 
BRANCH  64  67
ATOM     67  S   UNL A   1      45.610  36.448  26.961  1.00  0.00     0.127 S 
ATOM     68  O   UNL A   1      44.173  36.547  26.714  1.00  0.00    -0.237 OA
ATOM     69  O   UNL A   1      46.186  37.583  27.682  1.00  0.00    -0.237 OA
ATOM     70  O   UNL A   1      46.402  35.982  25.831  1.00  0.00    -0.744 OA
ENDBRANCH  64  67
ENDBRANCH  37  60
ENDBRANCH  11  12
ENDBRANCH   4   6
ENDBRANCH   1   2
BRANCH   1  71
ATOM     71  C   UNL A   1      37.404  19.976  24.708  1.00  0.00     0.042 C 
BRANCH  71  72
ATOM     72  C   UNL A   1      36.062  20.628  25.000  1.00  0.00     0.118 C 
BRANCH  72  73
ATOM     73  N   UNL A   1      34.960  19.682  25.004  1.00  0.00    -0.352 N 
ATOM     74  C   UNL A   1      33.636  19.903  25.269  1.00  0.00     0.255 C 
ATOM     75  H   UNL A   1      35.198  18.751  24.785  1.00  0.00     0.163 HD
ATOM     76  O   UNL A   1      32.840  18.966  25.266  1.00  0.00    -0.269 OA
BRANCH  74  77
ATOM     77  C   UNL A   1      33.181  21.238  25.691  1.00  0.00     0.081 A 
ATOM     78  C   UNL A   1      32.333  21.891  24.807  1.00  0.00     0.020 A 
ATOM     79  C   UNL A   1      33.533  21.861  26.889  1.00  0.00     0.130 A 
ATOM     80  C   UNL A   1      31.800  23.132  25.146  1.00  0.00     0.027 A 
ATOM     81  C   UNL A   1      32.973  23.101  27.227  1.00  0.00     0.073 A 
ATOM     82  C   UNL A   1      32.078  23.747  26.358  1.00  0.00     0.044 A 
BRANCH  79  83
ATOM     83  O   UNL A   1      34.414  21.257  27.742  1.00  0.00    -0.507 OA
ATOM     84  H   UNL A   1      34.191  21.145  28.645  1.00  0.00     0.293 HD
ENDBRANCH  79  83
BRANCH  82  85
ATOM     85  N   UNL A   1      31.531  24.969  26.793  1.00  0.00    -0.324 N 
ATOM     86  C   UNL A   1      31.656  26.284  26.443  1.00  0.00     0.255 C 
ATOM     87  H   UNL A   1      30.900  24.846  27.538  1.00  0.00     0.170 HD
ATOM     88  O   UNL A   1      30.958  27.078  27.093  1.00  0.00    -0.272 OA
BRANCH  86  89
ATOM     89  C   UNL A   1      32.528  26.830  25.301  1.00  0.00     0.233 C 
ATOM     90  C   UNL A   1      32.803  28.328  25.514  1.00  0.00     0.202 C 
ATOM     91  O   UNL A   1      32.012  26.512  24.005  1.00  0.00    -0.364 OA
ATOM     92  O   UNL A   1      33.557  28.889  24.428  1.00  0.00    -0.376 OA
ATOM     93  C   UNL A   1      32.770  27.133  22.958  1.00  0.00     0.189 C 
ATOM     94  C   UNL A   1      32.903  28.639  23.178  1.00  0.00     0.188 C 
ENDBRANCH  86  89
ENDBRANCH  82  85
ENDBRANCH  74  77
ENDBRANCH  72  73
ENDBRANCH  71  72
ENDBRANCH   1  71
TORSDOF 16
ENDMDL
