MODEL 1
REMARK VINA RESULT:     -11.5      0.000      0.000
REMARK SMILES C[C@H](CNC(=O)N1C[C@H]2CCCC[N@@H+]2C[C@@H]1C)C(=O)NCCCNC(=O)c1ccc(-c2c3nc(c(-c4cccc(S(=O)(=O)[O-])c4F)c4ccc([nH]4)c(-c4cccc(S(=O)(=O)[O-])c4F)c4nc(c(-c5cccc(S(=O)(=O)[O-])c5F)c5ccc2[nH]5)C=C4)C=C3)cc1
REMARK SMILES IDX 22 1 21 2 20 3 18 4 19 5 2 7 1 8 3 9 4 10 5 11 6 13 7 14
REMARK SMILES IDX 8 15 16 16 9 17 15 18 17 19 10 20 14 21 11 22 13 23 12 25
REMARK SMILES IDX 23 26 24 27 25 28 26 30 27 31 28 32 89 33 29 34 88 35 30 36
REMARK SMILES IDX 31 37 32 38 82 39 33 40 87 41 81 42 83 43 34 44 86 45 80 46
REMARK SMILES IDX 79 47 35 49 67 50 47 51 66 52 48 53 51 54 65 55 84 56 49 57
REMARK SMILES IDX 50 58 64 60 85 61 52 62 36 63 37 64 45 65 38 66 40 67 46 68
REMARK SMILES IDX 39 69 41 70 42 71 43 72 44 73 68 74 69 75 77 76 70 77 72 78
REMARK SMILES IDX 78 79 71 80 73 81 74 82 75 83 76 84 53 85 54 86 62 87 55 88
REMARK SMILES IDX 57 89 63 90 56 91 58 92 59 93 60 94 61 95
REMARK H PARENT 20 6 4 12 14 24 24 29 83 48 51 59
REMARK Flexibility Score: inf
ROOT
ATOM      1  C   UNL A   1      33.369  28.274  27.152  1.00  0.00     0.042 C 
ENDROOT
BRANCH   1   2
ATOM      2  C   UNL A   1      31.862  28.380  27.345  1.00  0.00     0.117 C 
BRANCH   2   3
ATOM      3  N   UNL A   1      31.212  27.094  27.166  1.00  0.00    -0.356 N 
ATOM      4  C   UNL A   1      30.680  26.508  26.067  1.00  0.00     0.224 C 
ATOM      5  O   UNL A   1      30.115  25.420  26.227  1.00  0.00    -0.275 OA
ATOM      6  H   UNL A   1      31.148  26.554  27.987  1.00  0.00     0.163 HD
BRANCH   4   7
ATOM      7  C   UNL A   1      30.750  27.125  24.677  1.00  0.00     0.094 C 
ATOM      8  C   UNL A   1      29.580  26.764  23.766  1.00  0.00     0.020 C 
BRANCH   7   9
ATOM      9  C   UNL A   1      32.153  27.067  24.057  1.00  0.00     0.130 C 
BRANCH   9  10
ATOM     10  N   UNL A   1      32.246  26.519  22.711  1.00  0.00    -0.337 N 
ATOM     11  C   UNL A   1      32.953  25.469  22.215  1.00  0.00     0.318 C 
ATOM     12  H   UNL A   1      31.702  26.994  22.042  1.00  0.00     0.165 HD
ATOM     13  O   UNL A   1      33.273  25.498  21.030  1.00  0.00    -0.249 OA
BRANCH  11  14
ATOM     14  N   UNL A   1      33.285  24.466  23.081  1.00  0.00    -0.311 N 
ATOM     15  C   UNL A   1      34.602  24.513  23.708  1.00  0.00     0.186 C 
ATOM     16  C   UNL A   1      32.284  23.764  23.903  1.00  0.00     0.139 C 
ATOM     17  C   UNL A   1      35.117  23.084  23.830  1.00  0.00     0.203 C 
ATOM     18  C   UNL A   1      32.864  22.440  24.536  1.00  0.00     0.287 C 
ATOM     19  C   UNL A   1      31.016  23.370  23.128  1.00  0.00     0.037 C 
ATOM     20  C   UNL A   1      36.603  23.074  24.190  1.00  0.00     0.067 C 
ATOM     21  N   UNL A   1      34.319  22.355  24.835  1.00  0.00    -0.329 N 
ATOM     22  C   UNL A   1      37.107  21.640  24.260  1.00  0.00     0.012 C 
ATOM     23  C   UNL A   1      34.749  20.949  24.894  1.00  0.00     0.262 C 
ATOM     24  H   UNL A   1      34.474  22.790  25.744  1.00  0.00     0.348 HD
ATOM     25  C   UNL A   1      36.241  20.817  25.210  1.00  0.00     0.062 C 
ENDBRANCH  11  14
ENDBRANCH   9  10
ENDBRANCH   7   9
ENDBRANCH   4   7
ENDBRANCH   2   3
ENDBRANCH   1   2
BRANCH   1  26
ATOM     26  C   UNL A   1      33.985  29.418  26.366  1.00  0.00     0.118 C 
BRANCH  26  27
ATOM     27  N   UNL A   1      33.799  30.707  27.006  1.00  0.00    -0.352 N 
ATOM     28  C   UNL A   1      34.514  31.306  28.013  1.00  0.00     0.251 C 
ATOM     29  H   UNL A   1      33.042  31.233  26.664  1.00  0.00     0.163 HD
ATOM     30  O   UNL A   1      34.065  32.329  28.529  1.00  0.00    -0.269 OA
BRANCH  28  31
ATOM     31  C   UNL A   1      35.797  30.739  28.490  1.00  0.00     0.039 A 
ATOM     32  C   UNL A   1      36.988  31.218  27.934  1.00  0.00     0.014 A 
ATOM     33  C   UNL A   1      35.845  29.713  29.437  1.00  0.00     0.014 A 
ATOM     34  C   UNL A   1      38.214  30.697  28.355  1.00  0.00     0.010 A 
ATOM     35  C   UNL A   1      37.070  29.273  29.934  1.00  0.00     0.010 A 
ATOM     36  C   UNL A   1      38.269  29.734  29.376  1.00  0.00    -0.014 A 
BRANCH  36  37
ATOM     37  C   UNL A   1      39.565  29.173  29.841  1.00  0.00     0.031 A 
ATOM     38  C   UNL A   1      40.299  29.813  30.992  1.00  0.00     0.074 A 
ATOM     39  C   UNL A   1      40.114  28.128  29.192  1.00  0.00     0.049 A 
ATOM     40  N   UNL A   1      41.448  29.482  31.524  1.00  0.00    -0.248 NA
ATOM     41  C   UNL A   1      39.679  30.998  31.609  1.00  0.00     0.031 C 
ATOM     42  C   UNL A   1      39.549  27.475  28.008  1.00  0.00     0.029 A 
ATOM     43  N   UNL A   1      41.281  27.443  29.423  1.00  0.00    -0.354 N 
ATOM     44  C   UNL A   1      41.705  30.437  32.502  1.00  0.00     0.074 A 
ATOM     45  C   UNL A   1      40.614  31.384  32.463  1.00  0.00     0.031 C 
ATOM     46  C   UNL A   1      40.362  26.476  27.626  1.00  0.00     0.029 A 
ATOM     47  C   UNL A   1      41.515  26.430  28.520  1.00  0.00     0.049 A 
ATOM     48  H   UNL A   1      41.891  27.654  30.164  1.00  0.00     0.167 HD
ATOM     49  C   UNL A   1      42.734  30.500  33.381  1.00  0.00     0.034 A 
ATOM     50  C   UNL A   1      42.540  25.562  28.427  1.00  0.00     0.034 A 
ATOM     51  C   UNL A   1      43.785  29.524  33.459  1.00  0.00     0.049 A 
ATOM     52  C   UNL A   1      43.633  25.609  29.461  1.00  0.00     0.074 A 
ATOM     53  C   UNL A   1      44.823  29.445  34.370  1.00  0.00     0.029 A 
ATOM     54  N   UNL A   1      43.932  28.452  32.592  1.00  0.00    -0.354 N 
ATOM     55  N   UNL A   1      43.772  26.423  30.479  1.00  0.00    -0.248 NA
ATOM     56  C   UNL A   1      44.687  24.590  29.359  1.00  0.00     0.031 C 
ATOM     57  C   UNL A   1      45.608  28.334  34.045  1.00  0.00     0.029 A 
ATOM     58  C   UNL A   1      45.044  27.706  32.945  1.00  0.00     0.049 A 
ATOM     59  H   UNL A   1      43.334  28.250  31.837  1.00  0.00     0.167 HD
ATOM     60  C   UNL A   1      44.905  25.993  31.160  1.00  0.00     0.074 A 
ATOM     61  C   UNL A   1      45.400  24.831  30.451  1.00  0.00     0.031 C 
ATOM     62  C   UNL A   1      45.492  26.520  32.263  1.00  0.00     0.034 A 
BRANCH  49  63
ATOM     63  C   UNL A   1      42.736  31.636  34.374  1.00  0.00     0.023 A 
ATOM     64  C   UNL A   1      43.359  32.855  34.034  1.00  0.00     0.012 A 
ATOM     65  C   UNL A   1      42.081  31.520  35.615  1.00  0.00     0.148 A 
ATOM     66  C   UNL A   1      43.364  33.925  34.927  1.00  0.00     0.002 A 
ATOM     67  C   UNL A   1      42.050  32.608  36.481  1.00  0.00     0.091 A 
ATOM     68  F   UNL A   1      41.512  30.347  35.932  1.00  0.00    -0.205 F 
ATOM     69  C   UNL A   1      42.701  33.806  36.144  1.00  0.00     0.022 A 
BRANCH  67  70
ATOM     70  S   UNL A   1      41.155  32.581  38.039  1.00  0.00     0.127 S 
ATOM     71  O   UNL A   1      41.904  31.578  38.793  1.00  0.00    -0.237 OA
ATOM     72  O   UNL A   1      41.326  33.955  38.515  1.00  0.00    -0.237 OA
ATOM     73  O   UNL A   1      39.783  32.221  37.708  1.00  0.00    -0.744 OA
ENDBRANCH  67  70
ENDBRANCH  49  63
BRANCH  50  74
ATOM     74  C   UNL A   1      42.535  24.516  27.365  1.00  0.00     0.023 A 
ATOM     75  C   UNL A   1      43.262  24.734  26.179  1.00  0.00     0.012 A 
ATOM     76  C   UNL A   1      41.841  23.302  27.532  1.00  0.00     0.148 A 
ATOM     77  C   UNL A   1      43.271  23.776  25.163  1.00  0.00     0.002 A 
ATOM     78  C   UNL A   1      41.898  22.331  26.539  1.00  0.00     0.091 A 
ATOM     79  F   UNL A   1      41.146  23.119  28.663  1.00  0.00    -0.205 F 
ATOM     80  C   UNL A   1      42.598  22.572  25.347  1.00  0.00     0.022 A 
BRANCH  78  81
ATOM     81  S   UNL A   1      41.168  20.702  26.746  1.00  0.00     0.127 S 
ATOM     82  O   UNL A   1      41.775  20.260  28.001  1.00  0.00    -0.237 OA
ATOM     83  O   UNL A   1      39.741  21.018  26.832  1.00  0.00    -0.237 OA
ATOM     84  O   UNL A   1      41.546  19.950  25.561  1.00  0.00    -0.744 OA
ENDBRANCH  78  81
ENDBRANCH  50  74
BRANCH  62  85
ATOM     85  C   UNL A   1      46.717  25.826  32.799  1.00  0.00     0.023 A 
ATOM     86  C   UNL A   1      47.997  26.237  32.379  1.00  0.00     0.012 A 
ATOM     87  C   UNL A   1      46.600  24.807  33.765  1.00  0.00     0.148 A 
ATOM     88  C   UNL A   1      49.140  25.620  32.883  1.00  0.00     0.002 A 
ATOM     89  C   UNL A   1      47.746  24.231  34.301  1.00  0.00     0.091 A 
ATOM     90  F   UNL A   1      45.373  24.415  34.138  1.00  0.00    -0.205 F 
ATOM     91  C   UNL A   1      49.016  24.627  33.851  1.00  0.00     0.022 A 
BRANCH  89  92
ATOM     92  S   UNL A   1      47.678  23.015  35.620  1.00  0.00     0.127 S 
ATOM     93  O   UNL A   1      46.907  23.723  36.640  1.00  0.00    -0.237 OA
ATOM     94  O   UNL A   1      46.971  21.902  34.985  1.00  0.00    -0.237 OA
ATOM     95  O   UNL A   1      49.064  22.726  35.965  1.00  0.00    -0.744 OA
ENDBRANCH  89  92
ENDBRANCH  62  85
ENDBRANCH  36  37
ENDBRANCH  28  31
ENDBRANCH  26  27
ENDBRANCH   1  26
TORSDOF 16
ENDMDL
MODEL 2
REMARK VINA RESULT:     -11.5      3.155      8.422
REMARK SMILES C[C@H](CNC(=O)N1C[C@H]2CCCC[N@@H+]2C[C@@H]1C)C(=O)NCCCNC(=O)c1ccc(-c2c3nc(c(-c4cccc(S(=O)(=O)[O-])c4F)c4ccc([nH]4)c(-c4cccc(S(=O)(=O)[O-])c4F)c4nc(c(-c5cccc(S(=O)(=O)[O-])c5F)c5ccc2[nH]5)C=C4)C=C3)cc1
REMARK SMILES IDX 22 1 21 2 20 3 18 4 19 5 2 7 1 8 3 9 4 10 5 11 6 13 7 14
REMARK SMILES IDX 8 15 16 16 9 17 15 18 17 19 10 20 14 21 11 22 13 23 12 25
REMARK SMILES IDX 23 26 24 27 25 28 26 30 27 31 28 32 89 33 29 34 88 35 30 36
REMARK SMILES IDX 31 37 32 38 82 39 33 40 87 41 81 42 83 43 34 44 86 45 80 46
REMARK SMILES IDX 79 47 35 49 67 50 47 51 66 52 48 53 51 54 65 55 84 56 49 57
REMARK SMILES IDX 50 58 64 60 85 61 52 62 36 63 37 64 45 65 38 66 40 67 46 68
REMARK SMILES IDX 39 69 41 70 42 71 43 72 44 73 68 74 69 75 77 76 70 77 72 78
REMARK SMILES IDX 78 79 71 80 73 81 74 82 75 83 76 84 53 85 54 86 62 87 55 88
REMARK SMILES IDX 57 89 63 90 56 91 58 92 59 93 60 94 61 95
REMARK H PARENT 20 6 4 12 14 24 24 29 83 48 51 59
REMARK Flexibility Score: inf
ROOT
ATOM      1  C   UNL A   1      31.331  31.914  26.910  1.00  0.00     0.042 C 
ENDROOT
BRANCH   1   2
ATOM      2  C   UNL A   1      31.142  31.103  25.635  1.00  0.00     0.117 C 
BRANCH   2   3
ATOM      3  N   UNL A   1      32.312  30.296  25.341  1.00  0.00    -0.356 N 
ATOM      4  C   UNL A   1      32.610  29.010  25.646  1.00  0.00     0.224 C 
ATOM      5  O   UNL A   1      33.732  28.601  25.328  1.00  0.00    -0.275 OA
ATOM      6  H   UNL A   1      33.012  30.765  24.831  1.00  0.00     0.163 HD
BRANCH   4   7
ATOM      7  C   UNL A   1      31.637  28.074  26.351  1.00  0.00     0.094 C 
ATOM      8  C   UNL A   1      31.601  28.226  27.869  1.00  0.00     0.020 C 
BRANCH   7   9
ATOM      9  C   UNL A   1      31.666  26.642  25.800  1.00  0.00     0.130 C 
BRANCH   9  10
ATOM     10  N   UNL A   1      31.247  25.587  26.711  1.00  0.00    -0.337 N 
ATOM     11  C   UNL A   1      31.277  24.233  26.593  1.00  0.00     0.318 C 
ATOM     12  H   UNL A   1      30.875  25.911  27.563  1.00  0.00     0.165 HD
ATOM     13  O   UNL A   1      30.449  23.580  27.222  1.00  0.00    -0.249 OA
BRANCH  11  14
ATOM     14  N   UNL A   1      32.211  23.692  25.755  1.00  0.00    -0.311 N 
ATOM     15  C   UNL A   1      33.458  23.211  26.341  1.00  0.00     0.186 C 
ATOM     16  C   UNL A   1      31.848  22.979  24.518  1.00  0.00     0.139 C 
ATOM     17  C   UNL A   1      34.586  23.514  25.363  1.00  0.00     0.203 C 
ATOM     18  C   UNL A   1      33.093  22.770  23.571  1.00  0.00     0.287 C 
ATOM     19  C   UNL A   1      30.771  23.696  23.687  1.00  0.00     0.037 C 
ATOM     20  C   UNL A   1      35.947  23.322  26.031  1.00  0.00     0.067 C 
ATOM     21  N   UNL A   1      34.450  22.653  24.170  1.00  0.00    -0.329 N 
ATOM     22  C   UNL A   1      37.058  23.674  25.051  1.00  0.00     0.012 C 
ATOM     23  C   UNL A   1      35.480  23.001  23.179  1.00  0.00     0.262 C 
ATOM     24  H   UNL A   1      34.578  21.683  24.459  1.00  0.00     0.348 HD
ATOM     25  C   UNL A   1      36.894  22.883  23.756  1.00  0.00     0.062 C 
ENDBRANCH  11  14
ENDBRANCH   9  10
ENDBRANCH   7   9
ENDBRANCH   4   7
ENDBRANCH   2   3
ENDBRANCH   1   2
BRANCH   1  26
ATOM     26  C   UNL A   1      32.701  32.551  27.054  1.00  0.00     0.118 C 
BRANCH  26  27
ATOM     27  N   UNL A   1      32.638  33.936  27.482  1.00  0.00    -0.352 N 
ATOM     28  C   UNL A   1      33.300  34.580  28.497  1.00  0.00     0.251 C 
ATOM     29  H   UNL A   1      32.023  34.502  26.962  1.00  0.00     0.163 HD
ATOM     30  O   UNL A   1      32.954  35.721  28.799  1.00  0.00    -0.269 OA
BRANCH  28  31
ATOM     31  C   UNL A   1      34.405  33.923  29.234  1.00  0.00     0.039 A 
ATOM     32  C   UNL A   1      35.715  34.354  28.997  1.00  0.00     0.014 A 
ATOM     33  C   UNL A   1      34.179  32.863  30.115  1.00  0.00     0.014 A 
ATOM     34  C   UNL A   1      36.781  33.748  29.668  1.00  0.00     0.010 A 
ATOM     35  C   UNL A   1      35.229  32.336  30.863  1.00  0.00     0.010 A 
ATOM     36  C   UNL A   1      36.546  32.748  30.625  1.00  0.00    -0.014 A 
BRANCH  36  37
ATOM     37  C   UNL A   1      37.668  32.096  31.353  1.00  0.00     0.031 A 
ATOM     38  C   UNL A   1      38.452  30.985  30.700  1.00  0.00     0.074 A 
ATOM     39  C   UNL A   1      37.943  32.457  32.621  1.00  0.00     0.049 A 
ATOM     40  N   UNL A   1      39.444  30.282  31.182  1.00  0.00    -0.248 NA
ATOM     41  C   UNL A   1      38.049  30.589  29.340  1.00  0.00     0.031 C 
ATOM     42  C   UNL A   1      37.203  33.455  33.398  1.00  0.00     0.029 A 
ATOM     43  N   UNL A   1      38.909  32.012  33.490  1.00  0.00    -0.354 N 
ATOM     44  C   UNL A   1      39.755  29.341  30.207  1.00  0.00     0.074 A 
ATOM     45  C   UNL A   1      38.818  29.533  29.123  1.00  0.00     0.031 C 
ATOM     46  C   UNL A   1      37.749  33.556  34.620  1.00  0.00     0.029 A 
ATOM     47  C   UNL A   1      38.863  32.618  34.725  1.00  0.00     0.049 A 
ATOM     48  H   UNL A   1      39.573  31.327  33.251  1.00  0.00     0.167 HD
ATOM     49  C   UNL A   1      40.752  28.424  30.194  1.00  0.00     0.034 A 
ATOM     50  C   UNL A   1      39.633  32.439  35.815  1.00  0.00     0.034 A 
ATOM     51  C   UNL A   1      41.720  28.277  31.246  1.00  0.00     0.049 A 
ATOM     52  C   UNL A   1      40.780  31.467  35.748  1.00  0.00     0.074 A 
ATOM     53  C   UNL A   1      42.823  27.443  31.291  1.00  0.00     0.029 A 
ATOM     54  N   UNL A   1      41.703  28.982  32.439  1.00  0.00    -0.354 N 
ATOM     55  N   UNL A   1      41.155  30.700  34.753  1.00  0.00    -0.248 NA
ATOM     56  C   UNL A   1      41.635  31.367  36.939  1.00  0.00     0.031 C 
ATOM     57  C   UNL A   1      43.465  27.632  32.520  1.00  0.00     0.029 A 
ATOM     58  C   UNL A   1      42.774  28.602  33.230  1.00  0.00     0.049 A 
ATOM     59  H   UNL A   1      41.028  29.653  32.689  1.00  0.00     0.167 HD
ATOM     60  C   UNL A   1      42.310  30.056  35.182  1.00  0.00     0.074 A 
ATOM     61  C   UNL A   1      42.585  30.541  36.518  1.00  0.00     0.031 C 
ATOM     62  C   UNL A   1      43.066  29.135  34.535  1.00  0.00     0.034 A 
BRANCH  49  63
ATOM     63  C   UNL A   1      40.884  27.551  28.971  1.00  0.00     0.023 A 
ATOM     64  C   UNL A   1      39.973  26.493  28.772  1.00  0.00     0.012 A 
ATOM     65  C   UNL A   1      41.867  27.806  27.996  1.00  0.00     0.148 A 
ATOM     66  C   UNL A   1      40.063  25.678  27.644  1.00  0.00     0.002 A 
ATOM     67  C   UNL A   1      41.921  27.019  26.851  1.00  0.00     0.091 A 
ATOM     68  F   UNL A   1      42.739  28.803  28.211  1.00  0.00    -0.205 F 
ATOM     69  C   UNL A   1      41.029  25.948  26.680  1.00  0.00     0.022 A 
BRANCH  67  70
ATOM     70  S   UNL A   1      43.077  27.334  25.512  1.00  0.00     0.127 S 
ATOM     71  O   UNL A   1      42.300  28.228  24.654  1.00  0.00    -0.237 OA
ATOM     72  O   UNL A   1      44.191  27.977  26.211  1.00  0.00    -0.237 OA
ATOM     73  O   UNL A   1      43.391  26.033  24.938  1.00  0.00    -0.744 OA
ENDBRANCH  67  70
ENDBRANCH  49  63
BRANCH  50  74
ATOM     74  C   UNL A   1      39.399  33.264  37.034  1.00  0.00     0.023 A 
ATOM     75  C   UNL A   1      39.971  34.548  37.119  1.00  0.00     0.012 A 
ATOM     76  C   UNL A   1      38.595  32.800  38.093  1.00  0.00     0.148 A 
ATOM     77  C   UNL A   1      39.776  35.342  38.251  1.00  0.00     0.002 A 
ATOM     78  C   UNL A   1      38.360  33.616  39.193  1.00  0.00     0.091 A 
ATOM     79  F   UNL A   1      38.068  31.571  37.998  1.00  0.00    -0.205 F 
ATOM     80  C   UNL A   1      38.963  34.881  39.282  1.00  0.00     0.022 A 
BRANCH  78  81
ATOM     81  S   UNL A   1      37.225  33.156  40.507  1.00  0.00     0.127 S 
ATOM     82  O   UNL A   1      36.006  32.856  39.757  1.00  0.00    -0.237 OA
ATOM     83  O   UNL A   1      37.891  31.987  41.088  1.00  0.00    -0.237 OA
ATOM     84  O   UNL A   1      37.158  34.308  41.390  1.00  0.00    -0.744 OA
ENDBRANCH  78  81
ENDBRANCH  50  74
BRANCH  62  85
ATOM     85  C   UNL A   1      44.288  28.614  35.245  1.00  0.00     0.023 A 
ATOM     86  C   UNL A   1      45.548  29.190  34.987  1.00  0.00     0.012 A 
ATOM     87  C   UNL A   1      44.178  27.597  36.214  1.00  0.00     0.148 A 
ATOM     88  C   UNL A   1      46.685  28.734  35.653  1.00  0.00     0.002 A 
ATOM     89  C   UNL A   1      45.307  27.182  36.910  1.00  0.00     0.091 A 
ATOM     90  F   UNL A   1      42.974  27.047  36.431  1.00  0.00    -0.205 F 
ATOM     91  C   UNL A   1      46.563  27.741  36.622  1.00  0.00     0.022 A 
BRANCH  89  92
ATOM     92  S   UNL A   1      45.223  25.978  38.239  1.00  0.00     0.127 S 
ATOM     93  O   UNL A   1      46.615  25.922  38.681  1.00  0.00    -0.237 OA
ATOM     94  O   UNL A   1      44.309  26.619  39.185  1.00  0.00    -0.237 OA
ATOM     95  O   UNL A   1      44.704  24.757  37.636  1.00  0.00    -0.744 OA
ENDBRANCH  89  92
ENDBRANCH  62  85
ENDBRANCH  36  37
ENDBRANCH  28  31
ENDBRANCH  26  27
ENDBRANCH   1  26
TORSDOF 16
ENDMDL
MODEL 3
REMARK VINA RESULT:     -11.5      2.079      2.848
REMARK SMILES C[C@H](CNC(=O)N1C[C@H]2CCCC[N@@H+]2C[C@@H]1C)C(=O)NCCCNC(=O)c1ccc(-c2c3nc(c(-c4cccc(S(=O)(=O)[O-])c4F)c4ccc([nH]4)c(-c4cccc(S(=O)(=O)[O-])c4F)c4nc(c(-c5cccc(S(=O)(=O)[O-])c5F)c5ccc2[nH]5)C=C4)C=C3)cc1
REMARK SMILES IDX 22 1 21 2 20 3 18 4 19 5 2 7 1 8 3 9 4 10 5 11 6 13 7 14
REMARK SMILES IDX 8 15 16 16 9 17 15 18 17 19 10 20 14 21 11 22 13 23 12 25
REMARK SMILES IDX 23 26 24 27 25 28 26 30 27 31 28 32 89 33 29 34 88 35 30 36
REMARK SMILES IDX 31 37 32 38 82 39 33 40 87 41 81 42 83 43 34 44 86 45 80 46
REMARK SMILES IDX 79 47 35 49 67 50 47 51 66 52 48 53 51 54 65 55 84 56 49 57
REMARK SMILES IDX 50 58 64 60 85 61 52 62 36 63 37 64 45 65 38 66 40 67 46 68
REMARK SMILES IDX 39 69 41 70 42 71 43 72 44 73 68 74 69 75 77 76 70 77 72 78
REMARK SMILES IDX 78 79 71 80 73 81 74 82 75 83 76 84 53 85 54 86 62 87 55 88
REMARK SMILES IDX 57 89 63 90 56 91 58 92 59 93 60 94 61 95
REMARK H PARENT 20 6 4 12 14 24 24 29 83 48 51 59
REMARK Flexibility Score: inf
ROOT
ATOM      1  C   UNL A   1      32.088  29.670  25.027  1.00  0.00     0.042 C 
ENDROOT
BRANCH   1   2
ATOM      2  C   UNL A   1      32.404  28.202  24.775  1.00  0.00     0.117 C 
BRANCH   2   3
ATOM      3  N   UNL A   1      31.662  27.338  25.675  1.00  0.00    -0.356 N 
ATOM      4  C   UNL A   1      30.603  26.521  25.457  1.00  0.00     0.224 C 
ATOM      5  O   UNL A   1      30.119  25.951  26.442  1.00  0.00    -0.275 OA
ATOM      6  H   UNL A   1      31.984  27.346  26.605  1.00  0.00     0.163 HD
BRANCH   4   7
ATOM      7  C   UNL A   1      30.000  26.287  24.079  1.00  0.00     0.094 C 
ATOM      8  C   UNL A   1      28.490  26.490  24.007  1.00  0.00     0.020 C 
BRANCH   7   9
ATOM      9  C   UNL A   1      30.566  25.047  23.372  1.00  0.00     0.130 C 
BRANCH   9  10
ATOM     10  N   UNL A   1      31.523  25.289  22.301  1.00  0.00    -0.337 N 
ATOM     11  C   UNL A   1      32.849  25.009  22.201  1.00  0.00     0.318 C 
ATOM     12  H   UNL A   1      31.141  25.736  21.511  1.00  0.00     0.165 HD
ATOM     13  O   UNL A   1      33.535  25.720  21.472  1.00  0.00    -0.249 OA
BRANCH  11  14
ATOM     14  N   UNL A   1      33.334  23.971  22.946  1.00  0.00    -0.311 N 
ATOM     15  C   UNL A   1      33.196  22.622  22.408  1.00  0.00     0.186 C 
ATOM     16  C   UNL A   1      34.493  24.113  23.844  1.00  0.00     0.139 C 
ATOM     17  C   UNL A   1      32.916  21.677  23.571  1.00  0.00     0.203 C 
ATOM     18  C   UNL A   1      34.625  22.891  24.834  1.00  0.00     0.287 C 
ATOM     19  C   UNL A   1      34.451  25.385  24.708  1.00  0.00     0.037 C 
ATOM     20  C   UNL A   1      32.458  20.311  23.059  1.00  0.00     0.067 C 
ATOM     21  N   UNL A   1      34.125  21.556  24.410  1.00  0.00    -0.329 N 
ATOM     22  C   UNL A   1      32.140  19.400  24.236  1.00  0.00     0.012 C 
ATOM     23  C   UNL A   1      33.838  20.719  25.586  1.00  0.00     0.262 C 
ATOM     24  H   UNL A   1      34.857  21.113  23.855  1.00  0.00     0.348 HD
ATOM     25  C   UNL A   1      33.329  19.330  25.191  1.00  0.00     0.062 C 
ENDBRANCH  11  14
ENDBRANCH   9  10
ENDBRANCH   7   9
ENDBRANCH   4   7
ENDBRANCH   2   3
ENDBRANCH   1   2
BRANCH   1  26
ATOM     26  C   UNL A   1      32.278  30.118  26.465  1.00  0.00     0.118 C 
BRANCH  26  27
ATOM     27  N   UNL A   1      32.280  31.562  26.611  1.00  0.00    -0.352 N 
ATOM     28  C   UNL A   1      33.094  32.375  27.359  1.00  0.00     0.251 C 
ATOM     29  H   UNL A   1      31.588  32.031  26.092  1.00  0.00     0.163 HD
ATOM     30  O   UNL A   1      32.797  33.562  27.478  1.00  0.00    -0.269 OA
BRANCH  28  31
ATOM     31  C   UNL A   1      34.305  31.846  28.029  1.00  0.00     0.039 A 
ATOM     32  C   UNL A   1      35.391  32.705  28.223  1.00  0.00     0.014 A 
ATOM     33  C   UNL A   1      34.407  30.509  28.424  1.00  0.00     0.014 A 
ATOM     34  C   UNL A   1      36.553  32.234  28.843  1.00  0.00     0.010 A 
ATOM     35  C   UNL A   1      35.521  30.072  29.138  1.00  0.00     0.010 A 
ATOM     36  C   UNL A   1      36.620  30.918  29.327  1.00  0.00    -0.014 A 
BRANCH  36  37
ATOM     37  C   UNL A   1      37.845  30.402  29.994  1.00  0.00     0.031 A 
ATOM     38  C   UNL A   1      38.181  30.831  31.400  1.00  0.00     0.074 A 
ATOM     39  C   UNL A   1      38.688  29.598  29.317  1.00  0.00     0.049 A 
ATOM     40  N   UNL A   1      39.213  30.508  32.137  1.00  0.00    -0.248 NA
ATOM     41  C   UNL A   1      37.255  31.771  32.055  1.00  0.00     0.031 C 
ATOM     42  C   UNL A   1      38.525  29.181  27.922  1.00  0.00     0.029 A 
ATOM     43  N   UNL A   1      39.863  29.003  29.705  1.00  0.00    -0.354 N 
ATOM     44  C   UNL A   1      39.081  31.231  33.317  1.00  0.00     0.074 A 
ATOM     45  C   UNL A   1      37.893  32.044  33.183  1.00  0.00     0.031 C 
ATOM     46  C   UNL A   1      39.552  28.388  27.576  1.00  0.00     0.029 A 
ATOM     47  C   UNL A   1      40.458  28.256  28.714  1.00  0.00     0.049 A 
ATOM     48  H   UNL A   1      40.243  29.099  30.607  1.00  0.00     0.167 HD
ATOM     49  C   UNL A   1      39.854  31.197  34.429  1.00  0.00     0.034 A 
ATOM     50  C   UNL A   1      41.601  27.544  28.722  1.00  0.00     0.034 A 
ATOM     51  C   UNL A   1      40.999  30.343  34.584  1.00  0.00     0.049 A 
ATOM     52  C   UNL A   1      42.402  27.464  29.994  1.00  0.00     0.074 A 
ATOM     53  C   UNL A   1      41.796  30.164  35.701  1.00  0.00     0.029 A 
ATOM     54  N   UNL A   1      41.511  29.522  33.592  1.00  0.00    -0.354 N 
ATOM     55  N   UNL A   1      42.170  28.031  31.153  1.00  0.00    -0.248 NA
ATOM     56  C   UNL A   1      43.599  26.611  29.971  1.00  0.00     0.031 C 
ATOM     57  C   UNL A   1      42.801  29.245  35.379  1.00  0.00     0.029 A 
ATOM     58  C   UNL A   1      42.615  28.834  34.068  1.00  0.00     0.049 A 
ATOM     59  H   UNL A   1      41.145  29.439  32.682  1.00  0.00     0.167 HD
ATOM     60  C   UNL A   1      43.167  27.575  32.006  1.00  0.00     0.074 A 
ATOM     61  C   UNL A   1      43.991  26.666  31.237  1.00  0.00     0.031 C 
ATOM     62  C   UNL A   1      43.391  27.891  33.306  1.00  0.00     0.034 A 
BRANCH  49  63
ATOM     63  C   UNL A   1      39.445  32.066  35.592  1.00  0.00     0.023 A 
ATOM     64  C   UNL A   1      39.900  33.399  35.656  1.00  0.00     0.012 A 
ATOM     65  C   UNL A   1      38.574  31.587  36.589  1.00  0.00     0.148 A 
ATOM     66  C   UNL A   1      39.528  34.229  36.713  1.00  0.00     0.002 A 
ATOM     67  C   UNL A   1      38.169  32.435  37.614  1.00  0.00     0.091 A 
ATOM     68  F   UNL A   1      38.168  30.310  36.525  1.00  0.00    -0.205 F 
ATOM     69  C   UNL A   1      38.654  33.751  37.685  1.00  0.00     0.022 A 
BRANCH  67  70
ATOM     70  S   UNL A   1      36.984  31.939  38.871  1.00  0.00     0.127 S 
ATOM     71  O   UNL A   1      36.919  30.494  38.662  1.00  0.00    -0.237 OA
ATOM     72  O   UNL A   1      37.656  32.347  40.106  1.00  0.00    -0.237 OA
ATOM     73  O   UNL A   1      35.759  32.670  38.579  1.00  0.00    -0.744 OA
ENDBRANCH  67  70
ENDBRANCH  49  63
BRANCH  50  74
ATOM     74  C   UNL A   1      42.008  26.777  27.510  1.00  0.00     0.023 A 
ATOM     75  C   UNL A   1      42.621  27.455  26.439  1.00  0.00     0.012 A 
ATOM     76  C   UNL A   1      41.818  25.385  27.424  1.00  0.00     0.148 A 
ATOM     77  C   UNL A   1      43.008  26.766  25.287  1.00  0.00     0.002 A 
ATOM     78  C   UNL A   1      42.254  24.696  26.297  1.00  0.00     0.091 A 
ATOM     79  F   UNL A   1      41.223  24.760  28.449  1.00  0.00    -0.205 F 
ATOM     80  C   UNL A   1      42.834  25.386  25.221  1.00  0.00     0.022 A 
BRANCH  78  81
ATOM     81  S   UNL A   1      42.186  22.905  26.180  1.00  0.00     0.127 S 
ATOM     82  O   UNL A   1      40.747  22.656  26.246  1.00  0.00    -0.237 OA
ATOM     83  O   UNL A   1      42.792  22.663  24.869  1.00  0.00    -0.237 OA
ATOM     84  O   UNL A   1      42.967  22.408  27.302  1.00  0.00    -0.744 OA
ENDBRANCH  78  81
ENDBRANCH  50  74
BRANCH  62  85
ATOM     85  C   UNL A   1      44.552  27.223  33.996  1.00  0.00     0.023 A 
ATOM     86  C   UNL A   1      45.838  27.791  33.914  1.00  0.00     0.012 A 
ATOM     87  C   UNL A   1      44.355  26.065  34.775  1.00  0.00     0.148 A 
ATOM     88  C   UNL A   1      46.918  27.196  34.565  1.00  0.00     0.002 A 
ATOM     89  C   UNL A   1      45.426  25.507  35.462  1.00  0.00     0.091 A 
ATOM     90  F   UNL A   1      43.128  25.527  34.825  1.00  0.00    -0.205 F 
ATOM     91  C   UNL A   1      46.711  26.063  35.348  1.00  0.00     0.022 A 
BRANCH  89  92
ATOM     92  S   UNL A   1      45.228  24.106  36.568  1.00  0.00     0.127 S 
ATOM     93  O   UNL A   1      46.595  23.905  37.045  1.00  0.00    -0.237 OA
ATOM     94  O   UNL A   1      44.303  24.630  37.574  1.00  0.00    -0.237 OA
ATOM     95  O   UNL A   1      44.680  23.031  35.752  1.00  0.00    -0.744 OA
ENDBRANCH  89  92
ENDBRANCH  62  85
ENDBRANCH  36  37
ENDBRANCH  28  31
ENDBRANCH  26  27
ENDBRANCH   1  26
TORSDOF 16
ENDMDL
