MODEL 1
REMARK VINA RESULT:     -11.1      0.000      0.000
REMARK SMILES CCN(CC)S(=O)(=O)c1cccc(C(=O)N2C[C@H](O)C[C@H]2C(=O)NCCCNC(=O)c2ccc(-c3c4nc(c(-c5cccc(S(=O)(=O)[O-])c5F)c5ccc([nH]5)c(-c5cccc(S(=O)(=O)[O-])c5F)c5nc(c(-c6cccc(S(=O)(=O)[O-])c6F)c6ccc3[nH]6)C=C5)C=C4)cc2)c1
REMARK SMILES IDX 25 1 24 2 22 3 23 4 21 6 16 7 17 8 18 9 20 10 14 11 15 12
REMARK SMILES IDX 13 13 9 14 10 15 94 16 11 17 12 18 6 19 7 20 8 21 3 22 2 23
REMARK SMILES IDX 1 24 4 25 5 26 19 27 26 29 27 30 28 31 29 32 30 34 31 35
REMARK SMILES IDX 32 36 93 37 33 38 92 39 34 40 35 41 36 42 86 43 37 44 91 45
REMARK SMILES IDX 85 46 87 47 38 48 90 49 84 50 83 51 39 53 71 54 51 55 70 56
REMARK SMILES IDX 52 57 55 58 69 59 88 60 53 61 54 62 68 64 89 65 56 66 40 67
REMARK SMILES IDX 41 68 49 69 42 70 44 71 50 72 43 73 45 74 46 75 47 76 48 77
REMARK SMILES IDX 72 78 73 79 81 80 74 81 76 82 82 83 75 84 77 85 78 86 79 87
REMARK SMILES IDX 80 88 57 89 58 90 66 91 59 92 61 93 67 94 60 95 62 96 63 97
REMARK SMILES IDX 64 98 65 99
REMARK H PARENT 24 5 19 28 28 33 87 52 55 63
REMARK Flexibility Score: inf
ROOT
ATOM      1  C   UNL A   1      34.787  23.129  24.333  1.00  0.00     0.117 C 
ENDROOT
BRANCH   1   2
ATOM      2  N   UNL A   1      34.676  23.348  25.757  1.00  0.00    -0.354 N 
ATOM      3  C   UNL A   1      34.027  22.638  26.721  1.00  0.00     0.242 C 
ATOM      4  O   UNL A   1      34.351  22.875  27.892  1.00  0.00    -0.273 OA
ATOM      5  H   UNL A   1      35.151  24.145  26.086  1.00  0.00     0.163 HD
BRANCH   3   6
ATOM      6  C   UNL A   1      33.098  21.449  26.405  1.00  0.00     0.177 C 
ATOM      7  N   UNL A   1      32.111  21.601  25.329  1.00  0.00    -0.324 N 
ATOM      8  C   UNL A   1      32.304  20.598  24.284  1.00  0.00     0.152 C 
ATOM      9  C   UNL A   1      33.067  19.480  24.992  1.00  0.00     0.136 C 
ATOM     10  C   UNL A   1      33.902  20.189  26.056  1.00  0.00     0.069 C 
BRANCH   7  11
ATOM     11  C   UNL A   1      31.050  22.473  25.535  1.00  0.00     0.254 C 
ATOM     12  O   UNL A   1      30.081  22.162  26.226  1.00  0.00    -0.269 OA
BRANCH  11  13
ATOM     13  C   UNL A   1      30.998  23.785  24.844  1.00  0.00     0.041 A 
ATOM     14  C   UNL A   1      31.266  26.189  24.864  1.00  0.00     0.083 A 
ATOM     15  C   UNL A   1      31.026  26.249  23.490  1.00  0.00     0.022 A 
ATOM     16  C   UNL A   1      31.297  24.963  25.531  1.00  0.00     0.035 A 
ATOM     17  C   UNL A   1      30.814  25.062  22.784  1.00  0.00     0.002 A 
ATOM     18  C   UNL A   1      30.794  23.834  23.459  1.00  0.00     0.014 A 
BRANCH  14  19
ATOM     19  S   UNL A   1      31.418  27.676  25.819  1.00  0.00     0.243 S 
ATOM     20  O   UNL A   1      31.047  27.371  27.183  1.00  0.00    -0.207 OA
ATOM     21  O   UNL A   1      30.707  28.698  25.078  1.00  0.00    -0.207 OA
BRANCH  19  22
ATOM     22  N   UNL A   1      33.087  28.049  25.819  1.00  0.00    -0.198 NA
BRANCH  22  23
ATOM     23  C   UNL A   1      33.511  29.000  24.741  1.00  0.00     0.099 C 
ATOM     24  C   UNL A   1      34.028  28.309  23.493  1.00  0.00     0.022 C 
ENDBRANCH  22  23
BRANCH  22  25
ATOM     25  C   UNL A   1      33.723  28.381  27.131  1.00  0.00     0.099 C 
ATOM     26  C   UNL A   1      34.914  29.322  27.039  1.00  0.00     0.022 C 
ENDBRANCH  22  25
ENDBRANCH  19  22
ENDBRANCH  14  19
ENDBRANCH  11  13
ENDBRANCH   7  11
BRANCH   9  27
ATOM     27  O   UNL A   1      32.169  18.571  25.626  1.00  0.00    -0.391 OA
ATOM     28  H   UNL A   1      32.636  17.747  25.835  1.00  0.00     0.211 HD
ENDBRANCH   9  27
ENDBRANCH   3   6
ENDBRANCH   1   2
BRANCH   1  29
ATOM     29  C   UNL A   1      36.222  23.012  23.849  1.00  0.00     0.042 C 
BRANCH  29  30
ATOM     30  C   UNL A   1      37.248  23.644  24.785  1.00  0.00     0.118 C 
BRANCH  30  31
ATOM     31  N   UNL A   1      38.092  22.655  25.442  1.00  0.00    -0.352 N 
ATOM     32  C   UNL A   1      39.167  22.801  26.280  1.00  0.00     0.251 C 
ATOM     33  H   UNL A   1      37.848  21.721  25.252  1.00  0.00     0.163 HD
ATOM     34  O   UNL A   1      39.845  21.810  26.548  1.00  0.00    -0.269 OA
BRANCH  32  35
ATOM     35  C   UNL A   1      39.522  24.114  26.863  1.00  0.00     0.039 A 
ATOM     36  C   UNL A   1      40.156  25.059  26.048  1.00  0.00     0.014 A 
ATOM     37  C   UNL A   1      39.313  24.397  28.215  1.00  0.00     0.014 A 
ATOM     38  C   UNL A   1      40.549  26.289  26.580  1.00  0.00     0.010 A 
ATOM     39  C   UNL A   1      39.631  25.654  28.724  1.00  0.00     0.010 A 
ATOM     40  C   UNL A   1      40.277  26.603  27.921  1.00  0.00    -0.014 A 
BRANCH  40  41
ATOM     41  C   UNL A   1      40.703  27.898  28.508  1.00  0.00     0.031 A 
ATOM     42  C   UNL A   1      42.168  28.193  28.703  1.00  0.00     0.074 A 
ATOM     43  C   UNL A   1      39.775  28.784  28.921  1.00  0.00     0.049 A 
ATOM     44  N   UNL A   1      42.734  29.247  29.231  1.00  0.00    -0.248 NA
ATOM     45  C   UNL A   1      43.123  27.155  28.277  1.00  0.00     0.031 C 
ATOM     46  C   UNL A   1      38.326  28.578  28.866  1.00  0.00     0.029 A 
ATOM     47  N   UNL A   1      39.913  30.023  29.490  1.00  0.00    -0.354 N 
ATOM     48  C   UNL A   1      44.099  28.988  29.230  1.00  0.00     0.074 A 
ATOM     49  C   UNL A   1      44.277  27.660  28.687  1.00  0.00     0.031 C 
ATOM     50  C   UNL A   1      37.711  29.655  29.381  1.00  0.00     0.029 A 
ATOM     51  C   UNL A   1      38.717  30.621  29.811  1.00  0.00     0.049 A 
ATOM     52  H   UNL A   1      40.787  30.446  29.655  1.00  0.00     0.167 HD
ATOM     53  C   UNL A   1      45.119  29.797  29.605  1.00  0.00     0.034 A 
ATOM     54  C   UNL A   1      38.462  31.814  30.382  1.00  0.00     0.034 A 
ATOM     55  C   UNL A   1      44.945  31.140  30.083  1.00  0.00     0.049 A 
ATOM     56  C   UNL A   1      39.613  32.725  30.714  1.00  0.00     0.074 A 
ATOM     57  C   UNL A   1      45.916  32.068  30.420  1.00  0.00     0.029 A 
ATOM     58  N   UNL A   1      43.719  31.755  30.279  1.00  0.00    -0.354 N 
ATOM     59  N   UNL A   1      40.899  32.520  30.558  1.00  0.00    -0.248 NA
ATOM     60  C   UNL A   1      39.279  34.049  31.259  1.00  0.00     0.031 C 
ATOM     61  C   UNL A   1      45.275  33.246  30.816  1.00  0.00     0.029 A 
ATOM     62  C   UNL A   1      43.906  33.052  30.723  1.00  0.00     0.049 A 
ATOM     63  H   UNL A   1      42.844  31.331  30.127  1.00  0.00     0.167 HD
ATOM     64  C   UNL A   1      41.524  33.695  30.957  1.00  0.00     0.074 A 
ATOM     65  C   UNL A   1      40.474  34.619  31.334  1.00  0.00     0.031 C 
ATOM     66  C   UNL A   1      42.847  33.978  31.032  1.00  0.00     0.034 A 
BRANCH  53  67
ATOM     67  C   UNL A   1      46.523  29.280  29.427  1.00  0.00     0.023 A 
ATOM     68  C   UNL A   1      47.120  28.552  30.477  1.00  0.00     0.012 A 
ATOM     69  C   UNL A   1      47.224  29.454  28.219  1.00  0.00     0.148 A 
ATOM     70  C   UNL A   1      48.406  28.030  30.339  1.00  0.00     0.002 A 
ATOM     71  C   UNL A   1      48.491  28.897  28.075  1.00  0.00     0.091 A 
ATOM     72  F   UNL A   1      46.648  30.165  27.240  1.00  0.00    -0.205 F 
ATOM     73  C   UNL A   1      49.085  28.193  29.136  1.00  0.00     0.022 A 
BRANCH  71  74
ATOM     74  S   UNL A   1      49.427  28.990  26.544  1.00  0.00     0.127 S 
ATOM     75  O   UNL A   1      48.471  28.446  25.580  1.00  0.00    -0.237 OA
ATOM     76  O   UNL A   1      49.668  30.428  26.419  1.00  0.00    -0.237 OA
ATOM     77  O   UNL A   1      50.625  28.189  26.755  1.00  0.00    -0.744 OA
ENDBRANCH  71  74
ENDBRANCH  53  67
BRANCH  54  78
ATOM     78  C   UNL A   1      37.054  32.254  30.593  1.00  0.00     0.023 A 
ATOM     79  C   UNL A   1      36.470  32.106  31.866  1.00  0.00     0.012 A 
ATOM     80  C   UNL A   1      36.301  32.836  29.556  1.00  0.00     0.148 A 
ATOM     81  C   UNL A   1      35.149  32.497  32.093  1.00  0.00     0.002 A 
ATOM     82  C   UNL A   1      35.003  33.272  29.804  1.00  0.00     0.091 A 
ATOM     83  F   UNL A   1      36.864  32.955  28.346  1.00  0.00    -0.205 F 
ATOM     84  C   UNL A   1      34.419  33.089  31.067  1.00  0.00     0.022 A 
BRANCH  82  85
ATOM     85  S   UNL A   1      34.057  34.163  28.563  1.00  0.00     0.127 S 
ATOM     86  O   UNL A   1      32.837  34.494  29.294  1.00  0.00    -0.237 OA
ATOM     87  O   UNL A   1      34.925  35.303  28.266  1.00  0.00    -0.237 OA
ATOM     88  O   UNL A   1      33.911  33.226  27.456  1.00  0.00    -0.744 OA
ENDBRANCH  82  85
ENDBRANCH  54  78
BRANCH  66  89
ATOM     89  C   UNL A   1      43.240  35.346  31.522  1.00  0.00     0.023 A 
ATOM     90  C   UNL A   1      43.325  35.586  32.907  1.00  0.00     0.012 A 
ATOM     91  C   UNL A   1      43.593  36.366  30.618  1.00  0.00     0.148 A 
ATOM     92  C   UNL A   1      43.728  36.830  33.387  1.00  0.00     0.002 A 
ATOM     93  C   UNL A   1      44.034  37.592  31.104  1.00  0.00     0.091 A 
ATOM     94  F   UNL A   1      43.485  36.126  29.303  1.00  0.00    -0.205 F 
ATOM     95  C   UNL A   1      44.093  37.828  32.487  1.00  0.00     0.022 A 
BRANCH  93  96
ATOM     96  S   UNL A   1      44.607  38.900  30.012  1.00  0.00     0.127 S 
ATOM     97  O   UNL A   1      45.072  39.903  30.969  1.00  0.00    -0.237 OA
ATOM     98  O   UNL A   1      45.672  38.237  29.257  1.00  0.00    -0.237 OA
ATOM     99  O   UNL A   1      43.450  39.278  29.212  1.00  0.00    -0.744 OA
ENDBRANCH  93  96
ENDBRANCH  66  89
ENDBRANCH  40  41
ENDBRANCH  32  35
ENDBRANCH  30  31
ENDBRANCH  29  30
ENDBRANCH   1  29
TORSDOF 20
ENDMDL
MODEL 2
REMARK VINA RESULT:     -10.8      1.310      3.589
REMARK SMILES CCN(CC)S(=O)(=O)c1cccc(C(=O)N2C[C@H](O)C[C@H]2C(=O)NCCCNC(=O)c2ccc(-c3c4nc(c(-c5cccc(S(=O)(=O)[O-])c5F)c5ccc([nH]5)c(-c5cccc(S(=O)(=O)[O-])c5F)c5nc(c(-c6cccc(S(=O)(=O)[O-])c6F)c6ccc3[nH]6)C=C5)C=C4)cc2)c1
REMARK SMILES IDX 25 1 24 2 22 3 23 4 21 6 16 7 17 8 18 9 20 10 14 11 15 12
REMARK SMILES IDX 13 13 9 14 10 15 94 16 11 17 12 18 6 19 7 20 8 21 3 22 2 23
REMARK SMILES IDX 1 24 4 25 5 26 19 27 26 29 27 30 28 31 29 32 30 34 31 35
REMARK SMILES IDX 32 36 93 37 33 38 92 39 34 40 35 41 36 42 86 43 37 44 91 45
REMARK SMILES IDX 85 46 87 47 38 48 90 49 84 50 83 51 39 53 71 54 51 55 70 56
REMARK SMILES IDX 52 57 55 58 69 59 88 60 53 61 54 62 68 64 89 65 56 66 40 67
REMARK SMILES IDX 41 68 49 69 42 70 44 71 50 72 43 73 45 74 46 75 47 76 48 77
REMARK SMILES IDX 72 78 73 79 81 80 74 81 76 82 82 83 75 84 77 85 78 86 79 87
REMARK SMILES IDX 80 88 57 89 58 90 66 91 59 92 61 93 67 94 60 95 62 96 63 97
REMARK SMILES IDX 64 98 65 99
REMARK H PARENT 24 5 19 28 28 33 87 52 55 63
REMARK Flexibility Score: inf
ROOT
ATOM      1  C   UNL A   1      34.828  24.907  24.270  1.00  0.00     0.117 C 
ENDROOT
BRANCH   1   2
ATOM      2  N   UNL A   1      34.229  24.929  22.954  1.00  0.00    -0.354 N 
ATOM      3  C   UNL A   1      33.414  25.844  22.361  1.00  0.00     0.242 C 
ATOM      4  O   UNL A   1      33.301  25.765  21.131  1.00  0.00    -0.273 OA
ATOM      5  H   UNL A   1      34.450  24.151  22.392  1.00  0.00     0.163 HD
BRANCH   3   6
ATOM      6  C   UNL A   1      32.821  27.053  23.112  1.00  0.00     0.177 C 
ATOM      7  N   UNL A   1      32.149  26.817  24.395  1.00  0.00    -0.324 N 
ATOM      8  C   UNL A   1      32.785  27.568  25.476  1.00  0.00     0.152 C 
ATOM      9  C   UNL A   1      33.510  28.700  24.751  1.00  0.00     0.136 C 
ATOM     10  C   UNL A   1      33.894  28.114  23.395  1.00  0.00     0.069 C 
BRANCH   7  11
ATOM     11  C   UNL A   1      30.939  26.136  24.382  1.00  0.00     0.254 C 
ATOM     12  O   UNL A   1      29.922  26.633  23.901  1.00  0.00    -0.269 OA
BRANCH  11  13
ATOM     13  C   UNL A   1      30.802  24.813  25.042  1.00  0.00     0.041 A 
ATOM     14  C   UNL A   1      31.515  22.521  25.334  1.00  0.00     0.083 A 
ATOM     15  C   UNL A   1      30.621  22.355  26.392  1.00  0.00     0.022 A 
ATOM     16  C   UNL A   1      31.639  23.754  24.690  1.00  0.00     0.035 A 
ATOM     17  C   UNL A   1      29.844  23.441  26.804  1.00  0.00     0.002 A 
ATOM     18  C   UNL A   1      29.929  24.665  26.127  1.00  0.00     0.014 A 
BRANCH  14  19
ATOM     19  S   UNL A   1      32.430  21.140  24.700  1.00  0.00     0.243 S 
ATOM     20  O   UNL A   1      32.701  21.387  23.302  1.00  0.00    -0.207 OA
ATOM     21  O   UNL A   1      31.696  19.958  25.106  1.00  0.00    -0.207 OA
BRANCH  19  22
ATOM     22  N   UNL A   1      33.930  21.172  25.520  1.00  0.00    -0.198 NA
BRANCH  22  23
ATOM     23  C   UNL A   1      33.829  21.000  27.006  1.00  0.00     0.099 C 
ATOM     24  C   UNL A   1      33.936  22.304  27.774  1.00  0.00     0.022 C 
ENDBRANCH  22  23
BRANCH  22  25
ATOM     25  C   UNL A   1      35.052  20.367  24.946  1.00  0.00     0.099 C 
ATOM     26  C   UNL A   1      34.714  18.910  24.675  1.00  0.00     0.022 C 
ENDBRANCH  22  25
ENDBRANCH  19  22
ENDBRANCH  14  19
ENDBRANCH  11  13
ENDBRANCH   7  11
BRANCH   9  27
ATOM     27  O   UNL A   1      32.644  29.817  24.554  1.00  0.00    -0.391 OA
ATOM     28  H   UNL A   1      33.164  30.580  24.258  1.00  0.00     0.211 HD
ENDBRANCH   9  27
ENDBRANCH   3   6
ENDBRANCH   1   2
BRANCH   1  29
ATOM     29  C   UNL A   1      35.878  23.822  24.439  1.00  0.00     0.042 C 
BRANCH  29  30
ATOM     30  C   UNL A   1      36.506  23.775  25.829  1.00  0.00     0.118 C 
BRANCH  30  31
ATOM     31  N   UNL A   1      37.589  22.806  25.922  1.00  0.00    -0.352 N 
ATOM     32  C   UNL A   1      38.909  22.959  26.261  1.00  0.00     0.251 C 
ATOM     33  H   UNL A   1      37.330  21.882  25.704  1.00  0.00     0.163 HD
ATOM     34  O   UNL A   1      39.679  22.019  26.072  1.00  0.00    -0.269 OA
BRANCH  32  35
ATOM     35  C   UNL A   1      39.417  24.219  26.848  1.00  0.00     0.039 A 
ATOM     36  C   UNL A   1      39.234  24.441  28.217  1.00  0.00     0.014 A 
ATOM     37  C   UNL A   1      39.996  25.215  26.057  1.00  0.00     0.014 A 
ATOM     38  C   UNL A   1      39.657  25.642  28.794  1.00  0.00     0.010 A 
ATOM     39  C   UNL A   1      40.490  26.376  26.646  1.00  0.00     0.010 A 
ATOM     40  C   UNL A   1      40.302  26.615  28.014  1.00  0.00    -0.014 A 
BRANCH  40  41
ATOM     41  C   UNL A   1      40.742  27.904  28.605  1.00  0.00     0.031 A 
ATOM     42  C   UNL A   1      42.210  28.189  28.785  1.00  0.00     0.074 A 
ATOM     43  C   UNL A   1      39.823  28.791  29.035  1.00  0.00     0.049 A 
ATOM     44  N   UNL A   1      42.788  29.237  29.313  1.00  0.00    -0.248 NA
ATOM     45  C   UNL A   1      43.155  27.149  28.340  1.00  0.00     0.031 C 
ATOM     46  C   UNL A   1      38.373  28.594  28.996  1.00  0.00     0.029 A 
ATOM     47  N   UNL A   1      39.975  30.026  29.611  1.00  0.00    -0.354 N 
ATOM     48  C   UNL A   1      44.152  28.971  29.294  1.00  0.00     0.074 A 
ATOM     49  C   UNL A   1      44.316  27.645  28.740  1.00  0.00     0.031 C 
ATOM     50  C   UNL A   1      37.769  29.670  29.526  1.00  0.00     0.029 A 
ATOM     51  C   UNL A   1      38.785  30.628  29.951  1.00  0.00     0.049 A 
ATOM     52  H   UNL A   1      40.853  30.443  29.768  1.00  0.00     0.167 HD
ATOM     53  C   UNL A   1      45.180  29.771  29.663  1.00  0.00     0.034 A 
ATOM     54  C   UNL A   1      38.543  31.818  30.533  1.00  0.00     0.034 A 
ATOM     55  C   UNL A   1      45.019  31.112  30.152  1.00  0.00     0.049 A 
ATOM     56  C   UNL A   1      39.703  32.720  30.858  1.00  0.00     0.074 A 
ATOM     57  C   UNL A   1      45.999  32.032  30.484  1.00  0.00     0.029 A 
ATOM     58  N   UNL A   1      43.799  31.732  30.367  1.00  0.00    -0.354 N 
ATOM     59  N   UNL A   1      40.986  32.510  30.684  1.00  0.00    -0.248 NA
ATOM     60  C   UNL A   1      39.383  34.042  31.416  1.00  0.00     0.031 C 
ATOM     61  C   UNL A   1      45.368  33.211  30.896  1.00  0.00     0.029 A 
ATOM     62  C   UNL A   1      43.997  33.026  30.817  1.00  0.00     0.049 A 
ATOM     63  H   UNL A   1      42.920  31.314  30.222  1.00  0.00     0.167 HD
ATOM     64  C   UNL A   1      41.622  33.679  31.084  1.00  0.00     0.074 A 
ATOM     65  C   UNL A   1      40.582  34.606  31.480  1.00  0.00     0.031 C 
ATOM     66  C   UNL A   1      42.948  33.954  31.145  1.00  0.00     0.034 A 
BRANCH  53  67
ATOM     67  C   UNL A   1      46.579  29.248  29.465  1.00  0.00     0.023 A 
ATOM     68  C   UNL A   1      47.206  28.560  30.523  1.00  0.00     0.012 A 
ATOM     69  C   UNL A   1      47.246  29.379  28.231  1.00  0.00     0.148 A 
ATOM     70  C   UNL A   1      48.488  28.033  30.368  1.00  0.00     0.002 A 
ATOM     71  C   UNL A   1      48.509  28.816  28.073  1.00  0.00     0.091 A 
ATOM     72  F   UNL A   1      46.641  30.053  27.244  1.00  0.00    -0.205 F 
ATOM     73  C   UNL A   1      49.133  28.152  29.141  1.00  0.00     0.022 A 
BRANCH  71  74
ATOM     74  S   UNL A   1      49.401  28.854  26.513  1.00  0.00     0.127 S 
ATOM     75  O   UNL A   1      49.822  30.252  26.447  1.00  0.00    -0.237 OA
ATOM     76  O   UNL A   1      50.485  27.902  26.757  1.00  0.00    -0.237 OA
ATOM     77  O   UNL A   1      48.447  28.440  25.494  1.00  0.00    -0.744 OA
ENDBRANCH  71  74
ENDBRANCH  53  67
BRANCH  54  78
ATOM     78  C   UNL A   1      37.141  32.264  30.764  1.00  0.00     0.023 A 
ATOM     79  C   UNL A   1      36.582  32.141  32.051  1.00  0.00     0.012 A 
ATOM     80  C   UNL A   1      36.367  32.827  29.732  1.00  0.00     0.148 A 
ATOM     81  C   UNL A   1      35.267  32.539  32.297  1.00  0.00     0.002 A 
ATOM     82  C   UNL A   1      35.075  33.269  29.996  1.00  0.00     0.091 A 
ATOM     83  F   UNL A   1      36.906  32.922  28.508  1.00  0.00    -0.205 F 
ATOM     84  C   UNL A   1      34.517  33.111  31.274  1.00  0.00     0.022 A 
BRANCH  82  85
ATOM     85  S   UNL A   1      34.105  34.138  28.758  1.00  0.00     0.127 S 
ATOM     86  O   UNL A   1      34.996  35.235  28.392  1.00  0.00    -0.237 OA
ATOM     87  O   UNL A   1      33.930  33.116  27.725  1.00  0.00    -0.237 OA
ATOM     88  O   UNL A   1      32.870  34.508  29.439  1.00  0.00    -0.744 OA
ENDBRANCH  82  85
ENDBRANCH  54  78
BRANCH  66  89
ATOM     89  C   UNL A   1      43.354  35.317  31.640  1.00  0.00     0.023 A 
ATOM     90  C   UNL A   1      43.570  35.516  33.017  1.00  0.00     0.012 A 
ATOM     91  C   UNL A   1      43.590  36.374  30.741  1.00  0.00     0.148 A 
ATOM     92  C   UNL A   1      43.988  36.755  33.497  1.00  0.00     0.002 A 
ATOM     93  C   UNL A   1      44.046  37.596  31.222  1.00  0.00     0.091 A 
ATOM     94  F   UNL A   1      43.357  36.172  29.435  1.00  0.00    -0.205 F 
ATOM     95  C   UNL A   1      44.237  37.791  32.599  1.00  0.00     0.022 A 
BRANCH  93  96
ATOM     96  S   UNL A   1      44.476  38.952  30.124  1.00  0.00     0.127 S 
ATOM     97  O   UNL A   1      45.254  39.817  31.010  1.00  0.00    -0.237 OA
ATOM     98  O   UNL A   1      45.259  38.282  29.084  1.00  0.00    -0.237 OA
ATOM     99  O   UNL A   1      43.208  39.499  29.660  1.00  0.00    -0.744 OA
ENDBRANCH  93  96
ENDBRANCH  66  89
ENDBRANCH  40  41
ENDBRANCH  32  35
ENDBRANCH  30  31
ENDBRANCH  29  30
ENDBRANCH   1  29
TORSDOF 20
ENDMDL
MODEL 3
REMARK VINA RESULT:     -10.7      3.973      8.798
REMARK SMILES CCN(CC)S(=O)(=O)c1cccc(C(=O)N2C[C@H](O)C[C@H]2C(=O)NCCCNC(=O)c2ccc(-c3c4nc(c(-c5cccc(S(=O)(=O)[O-])c5F)c5ccc([nH]5)c(-c5cccc(S(=O)(=O)[O-])c5F)c5nc(c(-c6cccc(S(=O)(=O)[O-])c6F)c6ccc3[nH]6)C=C5)C=C4)cc2)c1
REMARK SMILES IDX 25 1 24 2 22 3 23 4 21 6 16 7 17 8 18 9 20 10 14 11 15 12
REMARK SMILES IDX 13 13 9 14 10 15 94 16 11 17 12 18 6 19 7 20 8 21 3 22 2 23
REMARK SMILES IDX 1 24 4 25 5 26 19 27 26 29 27 30 28 31 29 32 30 34 31 35
REMARK SMILES IDX 32 36 93 37 33 38 92 39 34 40 35 41 36 42 86 43 37 44 91 45
REMARK SMILES IDX 85 46 87 47 38 48 90 49 84 50 83 51 39 53 71 54 51 55 70 56
REMARK SMILES IDX 52 57 55 58 69 59 88 60 53 61 54 62 68 64 89 65 56 66 40 67
REMARK SMILES IDX 41 68 49 69 42 70 44 71 50 72 43 73 45 74 46 75 47 76 48 77
REMARK SMILES IDX 72 78 73 79 81 80 74 81 76 82 82 83 75 84 77 85 78 86 79 87
REMARK SMILES IDX 80 88 57 89 58 90 66 91 59 92 61 93 67 94 60 95 62 96 63 97
REMARK SMILES IDX 64 98 65 99
REMARK H PARENT 24 5 19 28 28 33 87 52 55 63
REMARK Flexibility Score: inf
ROOT
ATOM      1  C   UNL A   1      33.709  26.503  25.859  1.00  0.00     0.117 C 
ENDROOT
BRANCH   1   2
ATOM      2  N   UNL A   1      34.405  25.942  24.723  1.00  0.00    -0.354 N 
ATOM      3  C   UNL A   1      34.665  24.648  24.387  1.00  0.00     0.242 C 
ATOM      4  O   UNL A   1      35.005  24.442  23.215  1.00  0.00    -0.273 OA
ATOM      5  H   UNL A   1      34.748  26.608  24.084  1.00  0.00     0.163 HD
BRANCH   3   6
ATOM      6  C   UNL A   1      34.356  23.460  25.320  1.00  0.00     0.177 C 
ATOM      7  N   UNL A   1      33.680  22.286  24.756  1.00  0.00    -0.324 N 
ATOM      8  C   UNL A   1      34.484  21.077  24.923  1.00  0.00     0.152 C 
ATOM      9  C   UNL A   1      35.412  21.418  26.087  1.00  0.00     0.136 C 
ATOM     10  C   UNL A   1      35.633  22.925  25.984  1.00  0.00     0.069 C 
BRANCH   7  11
ATOM     11  C   UNL A   1      32.354  22.422  24.365  1.00  0.00     0.254 C 
ATOM     12  O   UNL A   1      31.866  21.722  23.480  1.00  0.00    -0.269 OA
BRANCH  11  13
ATOM     13  C   UNL A   1      31.497  23.491  24.936  1.00  0.00     0.041 A 
ATOM     14  C   UNL A   1      30.469  25.674  24.781  1.00  0.00     0.083 A 
ATOM     15  C   UNL A   1      29.765  25.452  25.966  1.00  0.00     0.022 A 
ATOM     16  C   UNL A   1      31.295  24.685  24.243  1.00  0.00     0.035 A 
ATOM     17  C   UNL A   1      29.899  24.222  26.615  1.00  0.00     0.002 A 
ATOM     18  C   UNL A   1      30.766  23.246  26.106  1.00  0.00     0.014 A 
BRANCH  14  19
ATOM     19  S   UNL A   1      30.425  27.262  23.989  1.00  0.00     0.243 S 
ATOM     20  O   UNL A   1      30.689  28.268  24.993  1.00  0.00    -0.207 OA
ATOM     21  O   UNL A   1      29.191  27.292  23.229  1.00  0.00    -0.207 OA
BRANCH  19  22
ATOM     22  N   UNL A   1      31.747  27.267  22.905  1.00  0.00    -0.198 NA
BRANCH  22  23
ATOM     23  C   UNL A   1      31.468  26.621  21.582  1.00  0.00     0.099 C 
ATOM     24  C   UNL A   1      32.551  25.653  21.141  1.00  0.00     0.022 C 
ENDBRANCH  22  23
BRANCH  22  25
ATOM     25  C   UNL A   1      32.508  28.545  22.746  1.00  0.00     0.099 C 
ATOM     26  C   UNL A   1      33.977  28.370  22.396  1.00  0.00     0.022 C 
ENDBRANCH  22  25
ENDBRANCH  19  22
ENDBRANCH  14  19
ENDBRANCH  11  13
ENDBRANCH   7  11
BRANCH   9  27
ATOM     27  O   UNL A   1      34.793  21.117  27.337  1.00  0.00    -0.391 OA
ATOM     28  H   UNL A   1      34.162  20.390  27.218  1.00  0.00     0.211 HD
ENDBRANCH   9  27
ENDBRANCH   3   6
ENDBRANCH   1   2
BRANCH   1  29
ATOM     29  C   UNL A   1      34.040  27.965  26.109  1.00  0.00     0.042 C 
BRANCH  29  30
ATOM     30  C   UNL A   1      33.369  28.552  27.347  1.00  0.00     0.118 C 
BRANCH  30  31
ATOM     31  N   UNL A   1      33.480  30.004  27.409  1.00  0.00    -0.352 N 
ATOM     32  C   UNL A   1      34.467  30.812  27.911  1.00  0.00     0.251 C 
ATOM     33  H   UNL A   1      32.715  30.488  27.025  1.00  0.00     0.163 HD
ATOM     34  O   UNL A   1      34.240  32.014  28.031  1.00  0.00    -0.269 OA
BRANCH  32  35
ATOM     35  C   UNL A   1      35.787  30.269  28.305  1.00  0.00     0.039 A 
ATOM     36  C   UNL A   1      35.926  29.706  29.578  1.00  0.00     0.014 A 
ATOM     37  C   UNL A   1      36.903  30.379  27.472  1.00  0.00     0.014 A 
ATOM     38  C   UNL A   1      37.170  29.230  30.000  1.00  0.00     0.010 A 
ATOM     39  C   UNL A   1      38.123  29.831  27.861  1.00  0.00     0.010 A 
ATOM     40  C   UNL A   1      38.277  29.276  29.138  1.00  0.00    -0.014 A 
BRANCH  40  41
ATOM     41  C   UNL A   1      39.611  28.791  29.575  1.00  0.00     0.031 A 
ATOM     42  C   UNL A   1      40.352  29.509  30.672  1.00  0.00     0.074 A 
ATOM     43  C   UNL A   1      40.181  27.744  28.947  1.00  0.00     0.049 A 
ATOM     44  N   UNL A   1      41.539  29.262  31.165  1.00  0.00    -0.248 NA
ATOM     45  C   UNL A   1      39.689  30.679  31.276  1.00  0.00     0.031 C 
ATOM     46  C   UNL A   1      39.602  27.019  27.814  1.00  0.00     0.029 A 
ATOM     47  N   UNL A   1      41.386  27.123  29.158  1.00  0.00    -0.354 N 
ATOM     48  C   UNL A   1      41.775  30.255  32.107  1.00  0.00     0.074 A 
ATOM     49  C   UNL A   1      40.629  31.136  32.090  1.00  0.00     0.031 C 
ATOM     50  C   UNL A   1      40.452  26.053  27.431  1.00  0.00     0.029 A 
ATOM     51  C   UNL A   1      41.639  26.095  28.280  1.00  0.00     0.049 A 
ATOM     52  H   UNL A   1      42.011  27.389  29.870  1.00  0.00     0.167 HD
ATOM     53  C   UNL A   1      42.830  30.400  32.944  1.00  0.00     0.034 A 
ATOM     54  C   UNL A   1      42.704  25.277  28.177  1.00  0.00     0.034 A 
ATOM     55  C   UNL A   1      43.938  29.488  33.006  1.00  0.00     0.049 A 
ATOM     56  C   UNL A   1      43.825  25.410  29.172  1.00  0.00     0.074 A 
ATOM     57  C   UNL A   1      45.022  29.505  33.868  1.00  0.00     0.029 A 
ATOM     58  N   UNL A   1      44.100  28.387  32.181  1.00  0.00    -0.354 N 
ATOM     59  N   UNL A   1      43.955  26.263  30.160  1.00  0.00    -0.248 NA
ATOM     60  C   UNL A   1      44.926  24.442  29.069  1.00  0.00     0.031 C 
ATOM     61  C   UNL A   1      45.836  28.408  33.565  1.00  0.00     0.029 A 
ATOM     62  C   UNL A   1      45.258  27.708  32.518  1.00  0.00     0.049 A 
ATOM     63  H   UNL A   1      43.482  28.125  31.461  1.00  0.00     0.167 HD
ATOM     64  C   UNL A   1      45.133  25.917  30.810  1.00  0.00     0.074 A 
ATOM     65  C   UNL A   1      45.664  24.758  30.124  1.00  0.00     0.031 C 
ATOM     66  C   UNL A   1      45.737  26.519  31.864  1.00  0.00     0.034 A 
BRANCH  53  67
ATOM     67  C   UNL A   1      42.792  31.543  33.926  1.00  0.00     0.023 A 
ATOM     68  C   UNL A   1      43.362  32.778  33.557  1.00  0.00     0.012 A 
ATOM     69  C   UNL A   1      42.149  31.421  35.172  1.00  0.00     0.148 A 
ATOM     70  C   UNL A   1      43.319  33.869  34.426  1.00  0.00     0.002 A 
ATOM     71  C   UNL A   1      42.076  32.524  36.016  1.00  0.00     0.091 A 
ATOM     72  F   UNL A   1      41.630  30.233  35.512  1.00  0.00    -0.205 F 
ATOM     73  C   UNL A   1      42.668  33.744  35.648  1.00  0.00     0.022 A 
BRANCH  71  74
ATOM     74  S   UNL A   1      41.201  32.492  37.586  1.00  0.00     0.127 S 
ATOM     75  O   UNL A   1      39.910  31.931  37.194  1.00  0.00    -0.237 OA
ATOM     76  O   UNL A   1      42.038  31.596  38.385  1.00  0.00    -0.237 OA
ATOM     77  O   UNL A   1      41.166  33.871  38.055  1.00  0.00    -0.744 OA
ENDBRANCH  71  74
ENDBRANCH  53  67
BRANCH  54  78
ATOM     78  C   UNL A   1      42.720  24.200  27.147  1.00  0.00     0.023 A 
ATOM     79  C   UNL A   1      43.409  24.414  25.938  1.00  0.00     0.012 A 
ATOM     80  C   UNL A   1      42.083  22.964  27.364  1.00  0.00     0.148 A 
ATOM     81  C   UNL A   1      43.433  23.430  24.948  1.00  0.00     0.002 A 
ATOM     82  C   UNL A   1      42.156  21.968  26.395  1.00  0.00     0.091 A 
ATOM     83  F   UNL A   1      41.417  22.781  28.513  1.00  0.00    -0.205 F 
ATOM     84  C   UNL A   1      42.816  22.205  25.179  1.00  0.00     0.022 A 
BRANCH  82  85
ATOM     85  S   UNL A   1      41.497  20.321  26.686  1.00  0.00     0.127 S 
ATOM     86  O   UNL A   1      41.870  19.627  25.457  1.00  0.00    -0.237 OA
ATOM     87  O   UNL A   1      42.231  19.898  27.879  1.00  0.00    -0.237 OA
ATOM     88  O   UNL A   1      40.071  20.521  26.908  1.00  0.00    -0.744 OA
ENDBRANCH  82  85
ENDBRANCH  54  78
BRANCH  66  89
ATOM     89  C   UNL A   1      47.031  25.928  32.355  1.00  0.00     0.023 A 
ATOM     90  C   UNL A   1      47.019  25.075  33.476  1.00  0.00     0.012 A 
ATOM     91  C   UNL A   1      48.239  26.156  31.670  1.00  0.00     0.148 A 
ATOM     92  C   UNL A   1      48.196  24.480  33.925  1.00  0.00     0.002 A 
ATOM     93  C   UNL A   1      49.402  25.527  32.099  1.00  0.00     0.091 A 
ATOM     94  F   UNL A   1      48.234  26.989  30.618  1.00  0.00    -0.205 F 
ATOM     95  C   UNL A   1      49.384  24.696  33.231  1.00  0.00     0.022 A 
BRANCH  93  96
ATOM     96  S   UNL A   1      50.955  25.682  31.207  1.00  0.00     0.127 S 
ATOM     97  O   UNL A   1      51.280  27.092  31.420  1.00  0.00    -0.237 OA
ATOM     98  O   UNL A   1      51.823  24.743  31.918  1.00  0.00    -0.237 OA
ATOM     99  O   UNL A   1      50.659  25.302  29.833  1.00  0.00    -0.744 OA
ENDBRANCH  93  96
ENDBRANCH  66  89
ENDBRANCH  40  41
ENDBRANCH  32  35
ENDBRANCH  30  31
ENDBRANCH  29  30
ENDBRANCH   1  29
TORSDOF 20
ENDMDL
