MODEL 1
REMARK VINA RESULT:     -13.0      0.000      0.000
REMARK SMILES O=C(C[C@H](NC(=O)[C@]12C[C@H]3C[C@H](C[C@H](C3)C1)C2)c1cccc([N+](=O)[O-])c1)NCCCNC(=O)c1ccc(-c2c3nc(c(-c4cccc(S(=O)(=O)[O-])c4F)c4ccc([nH]4)c(-c4cccc(S(=O)(=O)[O-])c4F)c4nc(c(-c5cccc(S(=O)(=O)[O-])c5F)c5ccc2[nH]5)C=C4)C=C3)cc1
REMARK SMILES IDX 29 1 28 2 27 3 1 4 2 5 3 7 4 8 18 9 19 10 26 11 20 12 22 13
REMARK SMILES IDX 21 14 23 15 24 16 25 17 5 18 6 19 7 21 8 22 9 23 16 24 17 25
REMARK SMILES IDX 10 26 14 27 12 28 11 29 15 30 13 31 30 32 31 33 32 34 33 36
REMARK SMILES IDX 34 37 35 38 96 39 36 40 95 41 37 42 38 43 39 44 89 45 40 46
REMARK SMILES IDX 94 47 88 48 90 49 41 50 93 51 87 52 86 53 42 55 74 56 54 57
REMARK SMILES IDX 73 58 55 59 58 60 72 61 91 62 56 63 57 64 71 66 92 67 59 68
REMARK SMILES IDX 43 69 44 70 52 71 45 72 47 73 53 74 46 75 48 76 49 77 50 78
REMARK SMILES IDX 51 79 75 80 76 81 84 82 77 83 79 84 85 85 78 86 80 87 81 88
REMARK SMILES IDX 82 89 83 90 60 91 61 92 69 93 62 94 64 95 70 96 63 97 65 98
REMARK SMILES IDX 66 99 67 100 68 101
REMARK H PARENT 27 6 5 20 31 35 90 54 58 65
REMARK Flexibility Score: inf
ROOT
ATOM      1  C   UNL A   1      31.611  32.120  26.849  1.00  0.00     0.042 C 
ENDROOT
BRANCH   1   2
ATOM      2  C   UNL A   1      31.766  30.616  26.656  1.00  0.00     0.117 C 
BRANCH   2   3
ATOM      3  N   UNL A   1      32.125  30.125  25.330  1.00  0.00    -0.356 N 
ATOM      4  O   UNL A   1      33.729  28.632  25.984  1.00  0.00    -0.275 OA
ATOM      5  C   UNL A   1      32.939  29.037  25.133  1.00  0.00     0.222 C 
ATOM      6  H   UNL A   1      31.767  30.594  24.542  1.00  0.00     0.163 HD
BRANCH   5   7
ATOM      7  C   UNL A   1      32.842  28.292  23.823  1.00  0.00     0.129 C 
BRANCH   7   8
ATOM      8  C   UNL A   1      32.203  26.900  23.723  1.00  0.00     0.122 C 
BRANCH   8   9
ATOM      9  C   UNL A   1      30.695  27.127  23.527  1.00  0.00    -0.018 A 
ATOM     10  C   UNL A   1      29.787  26.222  24.112  1.00  0.00     0.006 A 
ATOM     11  C   UNL A   1      30.188  28.271  22.891  1.00  0.00     0.091 A 
ATOM     12  C   UNL A   1      28.412  26.462  24.095  1.00  0.00     0.007 A 
ATOM     13  C   UNL A   1      28.802  28.502  22.868  1.00  0.00     0.269 A 
ATOM     14  C   UNL A   1      27.914  27.605  23.476  1.00  0.00     0.085 A 
BRANCH  13  15
ATOM     15  N   UNL A   1      28.276  29.709  22.217  1.00  0.00     0.062 N 
ATOM     16  O   UNL A   1      27.286  30.254  22.726  1.00  0.00    -0.258 OA
ATOM     17  O   UNL A   1      28.846  30.107  21.192  1.00  0.00    -0.258 OA
ENDBRANCH  13  15
ENDBRANCH   8   9
BRANCH   8  18
ATOM     18  N   UNL A   1      32.668  25.789  22.852  1.00  0.00    -0.348 N 
ATOM     19  C   UNL A   1      33.197  24.540  22.828  1.00  0.00     0.226 C 
ATOM     20  H   UNL A   1      32.542  26.074  21.918  1.00  0.00     0.164 HD
ATOM     21  O   UNL A   1      33.600  24.188  21.710  1.00  0.00    -0.274 OA
BRANCH  19  22
ATOM     22  C   UNL A   1      33.274  23.555  24.001  1.00  0.00     0.050 C 
ATOM     23  C   UNL A   1      33.830  22.193  23.560  1.00  0.00     0.020 C 
ATOM     24  C   UNL A   1      31.880  23.271  24.647  1.00  0.00     0.020 C 
ATOM     25  C   UNL A   1      34.080  24.204  25.125  1.00  0.00     0.020 C 
ATOM     26  C   UNL A   1      34.026  21.271  24.772  1.00  0.00    -0.010 C 
ATOM     27  C   UNL A   1      32.028  22.332  25.874  1.00  0.00    -0.010 C 
ATOM     28  C   UNL A   1      34.316  23.259  26.299  1.00  0.00    -0.010 C 
ATOM     29  C   UNL A   1      34.952  21.955  25.790  1.00  0.00     0.007 C 
ATOM     30  C   UNL A   1      32.661  21.005  25.425  1.00  0.00     0.007 C 
ATOM     31  C   UNL A   1      32.951  22.969  26.930  1.00  0.00     0.007 C 
ENDBRANCH  19  22
ENDBRANCH   8  18
ENDBRANCH   7   8
ENDBRANCH   5   7
ENDBRANCH   2   3
ENDBRANCH   1   2
BRANCH   1  32
ATOM     32  C   UNL A   1      32.895  32.835  27.224  1.00  0.00     0.118 C 
BRANCH  32  33
ATOM     33  N   UNL A   1      32.652  34.200  27.669  1.00  0.00    -0.352 N 
ATOM     34  C   UNL A   1      33.176  34.866  28.738  1.00  0.00     0.251 C 
ATOM     35  H   UNL A   1      32.017  34.715  27.120  1.00  0.00     0.163 HD
ATOM     36  O   UNL A   1      32.717  35.970  29.047  1.00  0.00    -0.269 OA
BRANCH  34  37
ATOM     37  C   UNL A   1      34.281  34.273  29.515  1.00  0.00     0.039 A 
ATOM     38  C   UNL A   1      35.591  34.471  29.074  1.00  0.00     0.014 A 
ATOM     39  C   UNL A   1      34.028  33.488  30.645  1.00  0.00     0.014 A 
ATOM     40  C   UNL A   1      36.647  33.885  29.770  1.00  0.00     0.010 A 
ATOM     41  C   UNL A   1      35.085  32.976  31.385  1.00  0.00     0.010 A 
ATOM     42  C   UNL A   1      36.400  33.134  30.932  1.00  0.00    -0.014 A 
BRANCH  42  43
ATOM     43  C   UNL A   1      37.509  32.455  31.643  1.00  0.00     0.031 A 
ATOM     44  C   UNL A   1      38.245  31.326  30.973  1.00  0.00     0.074 A 
ATOM     45  C   UNL A   1      37.819  32.827  32.899  1.00  0.00     0.049 A 
ATOM     46  N   UNL A   1      39.252  30.621  31.420  1.00  0.00    -0.248 NA
ATOM     47  C   UNL A   1      37.774  30.914  29.639  1.00  0.00     0.031 C 
ATOM     48  C   UNL A   1      37.115  33.847  33.678  1.00  0.00     0.029 A 
ATOM     49  N   UNL A   1      38.798  32.377  33.746  1.00  0.00    -0.354 N 
ATOM     50  C   UNL A   1      39.509  29.666  30.443  1.00  0.00     0.074 A 
ATOM     51  C   UNL A   1      38.528  29.852  29.398  1.00  0.00     0.031 C 
ATOM     52  C   UNL A   1      37.695  33.955  34.884  1.00  0.00     0.029 A 
ATOM     53  C   UNL A   1      38.799  33.005  34.969  1.00  0.00     0.049 A 
ATOM     54  H   UNL A   1      39.440  31.672  33.501  1.00  0.00     0.167 HD
ATOM     55  C   UNL A   1      40.498  28.742  30.399  1.00  0.00     0.034 A 
ATOM     56  C   UNL A   1      39.610  32.839  36.032  1.00  0.00     0.034 A 
ATOM     57  C   UNL A   1      41.503  28.603  31.416  1.00  0.00     0.049 A 
ATOM     58  C   UNL A   1      40.750  31.862  35.925  1.00  0.00     0.074 A 
ATOM     59  C   UNL A   1      42.598  27.759  31.436  1.00  0.00     0.029 A 
ATOM     60  N   UNL A   1      41.535  29.331  32.596  1.00  0.00    -0.354 N 
ATOM     61  N   UNL A   1      41.078  31.081  34.924  1.00  0.00    -0.248 NA
ATOM     62  C   UNL A   1      41.663  31.781  37.073  1.00  0.00     0.031 C 
ATOM     63  C   UNL A   1      43.287  27.970  32.636  1.00  0.00     0.029 A 
ATOM     64  C   UNL A   1      42.633  28.962  33.351  1.00  0.00     0.049 A 
ATOM     65  H   UNL A   1      40.874  30.012  32.857  1.00  0.00     0.167 HD
ATOM     66  C   UNL A   1      42.255  30.448  35.301  1.00  0.00     0.074 A 
ATOM     67  C   UNL A   1      42.594  30.952  36.617  1.00  0.00     0.031 C 
ATOM     68  C   UNL A   1      42.984  29.523  34.630  1.00  0.00     0.034 A 
BRANCH  55  69
ATOM     69  C   UNL A   1      40.576  27.858  29.181  1.00  0.00     0.023 A 
ATOM     70  C   UNL A   1      39.714  26.746  29.074  1.00  0.00     0.012 A 
ATOM     71  C   UNL A   1      41.464  28.145  28.127  1.00  0.00     0.148 A 
ATOM     72  C   UNL A   1      39.760  25.914  27.958  1.00  0.00     0.002 A 
ATOM     73  C   UNL A   1      41.472  27.337  26.995  1.00  0.00     0.091 A 
ATOM     74  F   UNL A   1      42.292  29.192  28.255  1.00  0.00    -0.205 F 
ATOM     75  C   UNL A   1      40.632  26.215  26.915  1.00  0.00     0.022 A 
BRANCH  73  76
ATOM     76  S   UNL A   1      42.502  27.683  25.565  1.00  0.00     0.127 S 
ATOM     77  O   UNL A   1      42.274  26.495  24.743  1.00  0.00    -0.237 OA
ATOM     78  O   UNL A   1      41.899  28.909  25.041  1.00  0.00    -0.237 OA
ATOM     79  O   UNL A   1      43.857  27.843  26.074  1.00  0.00    -0.744 OA
ENDBRANCH  73  76
ENDBRANCH  55  69
BRANCH  56  80
ATOM     80  C   UNL A   1      39.431  33.687  37.243  1.00  0.00     0.023 A 
ATOM     81  C   UNL A   1      39.952  34.996  37.252  1.00  0.00     0.012 A 
ATOM     82  C   UNL A   1      38.722  33.222  38.367  1.00  0.00     0.148 A 
ATOM     83  C   UNL A   1      39.802  35.814  38.372  1.00  0.00     0.002 A 
ATOM     84  C   UNL A   1      38.529  34.061  39.459  1.00  0.00     0.091 A 
ATOM     85  F   UNL A   1      38.241  31.971  38.342  1.00  0.00    -0.205 F 
ATOM     86  C   UNL A   1      39.083  35.350  39.471  1.00  0.00     0.022 A 
BRANCH  84  87
ATOM     87  S   UNL A   1      37.507  33.595  40.860  1.00  0.00     0.127 S 
ATOM     88  O   UNL A   1      38.356  32.617  41.536  1.00  0.00    -0.237 OA
ATOM     89  O   UNL A   1      37.356  34.869  41.564  1.00  0.00    -0.237 OA
ATOM     90  O   UNL A   1      36.272  33.077  40.288  1.00  0.00    -0.744 OA
ENDBRANCH  84  87
ENDBRANCH  56  80
BRANCH  68  91
ATOM     91  C   UNL A   1      44.249  29.028  35.279  1.00  0.00     0.023 A 
ATOM     92  C   UNL A   1      45.481  29.643  34.981  1.00  0.00     0.012 A 
ATOM     93  C   UNL A   1      44.204  27.998  36.240  1.00  0.00     0.148 A 
ATOM     94  C   UNL A   1      46.653  29.217  35.601  1.00  0.00     0.002 A 
ATOM     95  C   UNL A   1      45.369  27.613  36.891  1.00  0.00     0.091 A 
ATOM     96  F   UNL A   1      43.026  27.410  36.494  1.00  0.00    -0.205 F 
ATOM     97  C   UNL A   1      46.596  28.211  36.564  1.00  0.00     0.022 A 
BRANCH  95  98
ATOM     98  S   UNL A   1      45.365  26.397  38.213  1.00  0.00     0.127 S 
ATOM     99  O   UNL A   1      44.440  27.000  39.171  1.00  0.00    -0.237 OA
ATOM    100  O   UNL A   1      44.852  25.204  37.540  1.00  0.00    -0.237 OA
ATOM    101  O   UNL A   1      46.748  26.289  38.656  1.00  0.00    -0.744 OA
ENDBRANCH  95  98
ENDBRANCH  68  91
ENDBRANCH  42  43
ENDBRANCH  34  37
ENDBRANCH  32  33
ENDBRANCH   1  32
TORSDOF 18
ENDMDL
MODEL 2
REMARK VINA RESULT:     -12.7      6.311      9.896
REMARK SMILES O=C(C[C@H](NC(=O)[C@]12C[C@H]3C[C@H](C[C@H](C3)C1)C2)c1cccc([N+](=O)[O-])c1)NCCCNC(=O)c1ccc(-c2c3nc(c(-c4cccc(S(=O)(=O)[O-])c4F)c4ccc([nH]4)c(-c4cccc(S(=O)(=O)[O-])c4F)c4nc(c(-c5cccc(S(=O)(=O)[O-])c5F)c5ccc2[nH]5)C=C4)C=C3)cc1
REMARK SMILES IDX 29 1 28 2 27 3 1 4 2 5 3 7 4 8 18 9 19 10 26 11 20 12 22 13
REMARK SMILES IDX 21 14 23 15 24 16 25 17 5 18 6 19 7 21 8 22 9 23 16 24 17 25
REMARK SMILES IDX 10 26 14 27 12 28 11 29 15 30 13 31 30 32 31 33 32 34 33 36
REMARK SMILES IDX 34 37 35 38 96 39 36 40 95 41 37 42 38 43 39 44 89 45 40 46
REMARK SMILES IDX 94 47 88 48 90 49 41 50 93 51 87 52 86 53 42 55 74 56 54 57
REMARK SMILES IDX 73 58 55 59 58 60 72 61 91 62 56 63 57 64 71 66 92 67 59 68
REMARK SMILES IDX 43 69 44 70 52 71 45 72 47 73 53 74 46 75 48 76 49 77 50 78
REMARK SMILES IDX 51 79 75 80 76 81 84 82 77 83 79 84 85 85 78 86 80 87 81 88
REMARK SMILES IDX 82 89 83 90 60 91 61 92 69 93 62 94 64 95 70 96 63 97 65 98
REMARK SMILES IDX 66 99 67 100 68 101
REMARK H PARENT 27 6 5 20 31 35 90 54 58 65
REMARK Flexibility Score: inf
ROOT
ATOM      1  C   UNL A   1      38.429  19.661  25.075  1.00  0.00     0.042 C 
ENDROOT
BRANCH   1   2
ATOM      2  C   UNL A   1      37.325  20.627  24.659  1.00  0.00     0.117 C 
BRANCH   2   3
ATOM      3  N   UNL A   1      36.125  20.699  25.485  1.00  0.00    -0.356 N 
ATOM      4  O   UNL A   1      36.365  22.867  26.176  1.00  0.00    -0.275 OA
ATOM      5  C   UNL A   1      35.654  21.876  26.013  1.00  0.00     0.222 C 
ATOM      6  H   UNL A   1      35.632  19.869  25.673  1.00  0.00     0.163 HD
BRANCH   5   7
ATOM      7  C   UNL A   1      34.194  21.964  26.388  1.00  0.00     0.129 C 
BRANCH   7   8
ATOM      8  C   UNL A   1      33.174  22.714  25.520  1.00  0.00     0.122 C 
BRANCH   8   9
ATOM      9  C   UNL A   1      32.697  21.718  24.451  1.00  0.00    -0.018 A 
ATOM     10  C   UNL A   1      32.377  22.198  23.165  1.00  0.00     0.006 A 
ATOM     11  C   UNL A   1      32.687  20.332  24.672  1.00  0.00     0.091 A 
ATOM     12  C   UNL A   1      32.085  21.323  22.117  1.00  0.00     0.007 A 
ATOM     13  C   UNL A   1      32.382  19.457  23.616  1.00  0.00     0.269 A 
ATOM     14  C   UNL A   1      32.091  19.948  22.338  1.00  0.00     0.085 A 
BRANCH  13  15
ATOM     15  N   UNL A   1      32.390  18.006  23.847  1.00  0.00     0.062 N 
ATOM     16  O   UNL A   1      32.002  17.594  24.950  1.00  0.00    -0.258 OA
ATOM     17  O   UNL A   1      32.791  17.278  22.928  1.00  0.00    -0.258 OA
ENDBRANCH  13  15
ENDBRANCH   8   9
BRANCH   8  18
ATOM     18  N   UNL A   1      32.025  23.512  26.021  1.00  0.00    -0.348 N 
ATOM     19  C   UNL A   1      31.479  24.753  26.096  1.00  0.00     0.226 C 
ATOM     20  H   UNL A   1      31.416  22.893  26.484  1.00  0.00     0.164 HD
ATOM     21  O   UNL A   1      30.536  24.837  26.895  1.00  0.00    -0.274 OA
BRANCH  19  22
ATOM     22  C   UNL A   1      31.877  25.979  25.266  1.00  0.00     0.050 C 
ATOM     23  C   UNL A   1      31.574  25.773  23.774  1.00  0.00     0.020 C 
ATOM     24  C   UNL A   1      33.400  26.310  25.362  1.00  0.00     0.020 C 
ATOM     25  C   UNL A   1      31.190  27.208  25.860  1.00  0.00     0.020 C 
ATOM     26  C   UNL A   1      31.851  27.061  22.983  1.00  0.00    -0.010 C 
ATOM     27  C   UNL A   1      33.730  27.602  24.568  1.00  0.00    -0.010 C 
ATOM     28  C   UNL A   1      31.427  28.469  25.034  1.00  0.00    -0.010 C 
ATOM     29  C   UNL A   1      31.021  28.211  23.574  1.00  0.00     0.007 C 
ATOM     30  C   UNL A   1      33.345  27.403  23.092  1.00  0.00     0.007 C 
ATOM     31  C   UNL A   1      32.922  28.792  25.117  1.00  0.00     0.007 C 
ENDBRANCH  19  22
ENDBRANCH   8  18
ENDBRANCH   7   8
ENDBRANCH   5   7
ENDBRANCH   2   3
ENDBRANCH   1   2
BRANCH   1  32
ATOM     32  C   UNL A   1      39.417  20.238  26.072  1.00  0.00     0.118 C 
BRANCH  32  33
ATOM     33  N   UNL A   1      40.694  19.540  26.043  1.00  0.00    -0.352 N 
ATOM     34  C   UNL A   1      41.954  20.037  26.208  1.00  0.00     0.251 C 
ATOM     35  H   UNL A   1      40.641  18.570  25.881  1.00  0.00     0.163 HD
ATOM     36  O   UNL A   1      42.926  19.310  25.981  1.00  0.00    -0.269 OA
BRANCH  34  37
ATOM     37  C   UNL A   1      42.151  21.430  26.651  1.00  0.00     0.039 A 
ATOM     38  C   UNL A   1      42.260  22.432  25.684  1.00  0.00     0.014 A 
ATOM     39  C   UNL A   1      42.275  21.744  28.009  1.00  0.00     0.014 A 
ATOM     40  C   UNL A   1      42.487  23.749  26.080  1.00  0.00     0.010 A 
ATOM     41  C   UNL A   1      42.416  23.067  28.405  1.00  0.00     0.010 A 
ATOM     42  C   UNL A   1      42.567  24.075  27.444  1.00  0.00    -0.014 A 
BRANCH  42  43
ATOM     43  C   UNL A   1      42.871  25.460  27.874  1.00  0.00     0.031 A 
ATOM     44  C   UNL A   1      44.290  25.960  27.832  1.00  0.00     0.074 A 
ATOM     45  C   UNL A   1      41.881  26.245  28.339  1.00  0.00     0.049 A 
ATOM     46  N   UNL A   1      44.756  27.140  28.147  1.00  0.00    -0.248 NA
ATOM     47  C   UNL A   1      45.328  25.003  27.409  1.00  0.00     0.031 C 
ATOM     48  C   UNL A   1      40.485  25.835  28.507  1.00  0.00     0.029 A 
ATOM     49  N   UNL A   1      41.902  27.546  28.768  1.00  0.00    -0.354 N 
ATOM     50  C   UNL A   1      46.135  27.057  27.994  1.00  0.00     0.074 A 
ATOM     51  C   UNL A   1      46.438  25.700  27.601  1.00  0.00     0.031 C 
ATOM     52  C   UNL A   1      39.780  26.870  28.991  1.00  0.00     0.029 A 
ATOM     53  C   UNL A   1      40.675  28.009  29.180  1.00  0.00     0.049 A 
ATOM     54  H   UNL A   1      42.717  28.097  28.781  1.00  0.00     0.167 HD
ATOM     55  C   UNL A   1      47.065  28.032  28.130  1.00  0.00     0.034 A 
ATOM     56  C   UNL A   1      40.312  29.220  29.645  1.00  0.00     0.034 A 
ATOM     57  C   UNL A   1      46.748  29.393  28.466  1.00  0.00     0.049 A 
ATOM     58  C   UNL A   1      41.350  30.309  29.709  1.00  0.00     0.074 A 
ATOM     59  C   UNL A   1      47.597  30.481  28.551  1.00  0.00     0.029 A 
ATOM     60  N   UNL A   1      45.475  29.852  28.774  1.00  0.00    -0.354 N 
ATOM     61  N   UNL A   1      42.624  30.255  29.402  1.00  0.00    -0.248 NA
ATOM     62  C   UNL A   1      40.891  31.638  30.134  1.00  0.00     0.031 C 
ATOM     63  C   UNL A   1      46.837  31.597  28.920  1.00  0.00     0.029 A 
ATOM     64  C   UNL A   1      45.513  31.208  29.043  1.00  0.00     0.049 A 
ATOM     65  H   UNL A   1      44.664  29.294  28.796  1.00  0.00     0.167 HD
ATOM     66  C   UNL A   1      43.109  31.547  29.555  1.00  0.00     0.074 A 
ATOM     67  C   UNL A   1      41.986  32.367  29.964  1.00  0.00     0.031 C 
ATOM     68  C   UNL A   1      44.371  32.014  29.387  1.00  0.00     0.034 A 
BRANCH  55  69
ATOM     69  C   UNL A   1      48.501  27.674  27.850  1.00  0.00     0.023 A 
ATOM     70  C   UNL A   1      49.304  27.159  28.889  1.00  0.00     0.012 A 
ATOM     71  C   UNL A   1      49.046  27.804  26.558  1.00  0.00     0.148 A 
ATOM     72  C   UNL A   1      50.634  26.815  28.657  1.00  0.00     0.002 A 
ATOM     73  C   UNL A   1      50.361  27.415  26.324  1.00  0.00     0.091 A 
ATOM     74  F   UNL A   1      48.276  28.316  25.587  1.00  0.00    -0.205 F 
ATOM     75  C   UNL A   1      51.159  26.933  27.374  1.00  0.00     0.022 A 
BRANCH  73  76
ATOM     76  S   UNL A   1      51.107  27.455  24.690  1.00  0.00     0.127 S 
ATOM     77  O   UNL A   1      51.212  28.894  24.449  1.00  0.00    -0.237 OA
ATOM     78  O   UNL A   1      52.385  26.781  24.919  1.00  0.00    -0.237 OA
ATOM     79  O   UNL A   1      50.191  26.738  23.813  1.00  0.00    -0.744 OA
ENDBRANCH  73  76
ENDBRANCH  55  69
BRANCH  56  80
ATOM     80  C   UNL A   1      38.888  29.490  29.986  1.00  0.00     0.023 A 
ATOM     81  C   UNL A   1      38.425  29.218  31.288  1.00  0.00     0.012 A 
ATOM     82  C   UNL A   1      38.000  30.045  29.044  1.00  0.00     0.148 A 
ATOM     83  C   UNL A   1      37.096  29.460  31.637  1.00  0.00     0.002 A 
ATOM     84  C   UNL A   1      36.691  30.334  29.413  1.00  0.00     0.091 A 
ATOM     85  F   UNL A   1      38.457  30.290  27.807  1.00  0.00    -0.205 F 
ATOM     86  C   UNL A   1      36.233  30.026  30.703  1.00  0.00     0.022 A 
BRANCH  84  87
ATOM     87  S   UNL A   1      35.548  31.181  28.318  1.00  0.00     0.127 S 
ATOM     88  O   UNL A   1      35.284  30.156  27.311  1.00  0.00    -0.237 OA
ATOM     89  O   UNL A   1      34.426  31.469  29.212  1.00  0.00    -0.237 OA
ATOM     90  O   UNL A   1      36.259  32.363  27.850  1.00  0.00    -0.744 OA
ENDBRANCH  84  87
ENDBRANCH  56  80
BRANCH  68  91
ATOM     91  C   UNL A   1      44.602  33.487  29.596  1.00  0.00     0.023 A 
ATOM     92  C   UNL A   1      45.033  33.960  30.852  1.00  0.00     0.012 A 
ATOM     93  C   UNL A   1      44.460  34.393  28.526  1.00  0.00     0.148 A 
ATOM     94  C   UNL A   1      45.284  35.316  31.048  1.00  0.00     0.002 A 
ATOM     95  C   UNL A   1      44.760  35.736  28.717  1.00  0.00     0.091 A 
ATOM     96  F   UNL A   1      44.028  33.927  27.346  1.00  0.00    -0.205 F 
ATOM     97  C   UNL A   1      45.159  36.202  29.980  1.00  0.00     0.022 A 
BRANCH  95  98
ATOM     98  S   UNL A   1      44.722  36.922  27.368  1.00  0.00     0.127 S 
ATOM     99  O   UNL A   1      45.027  38.172  28.061  1.00  0.00    -0.237 OA
ATOM    100  O   UNL A   1      45.789  36.435  26.493  1.00  0.00    -0.237 OA
ATOM    101  O   UNL A   1      43.386  36.828  26.796  1.00  0.00    -0.744 OA
ENDBRANCH  95  98
ENDBRANCH  68  91
ENDBRANCH  42  43
ENDBRANCH  34  37
ENDBRANCH  32  33
ENDBRANCH   1  32
TORSDOF 18
ENDMDL
MODEL 3
REMARK VINA RESULT:     -12.6      5.994     11.981
REMARK SMILES O=C(C[C@H](NC(=O)[C@]12C[C@H]3C[C@H](C[C@H](C3)C1)C2)c1cccc([N+](=O)[O-])c1)NCCCNC(=O)c1ccc(-c2c3nc(c(-c4cccc(S(=O)(=O)[O-])c4F)c4ccc([nH]4)c(-c4cccc(S(=O)(=O)[O-])c4F)c4nc(c(-c5cccc(S(=O)(=O)[O-])c5F)c5ccc2[nH]5)C=C4)C=C3)cc1
REMARK SMILES IDX 29 1 28 2 27 3 1 4 2 5 3 7 4 8 18 9 19 10 26 11 20 12 22 13
REMARK SMILES IDX 21 14 23 15 24 16 25 17 5 18 6 19 7 21 8 22 9 23 16 24 17 25
REMARK SMILES IDX 10 26 14 27 12 28 11 29 15 30 13 31 30 32 31 33 32 34 33 36
REMARK SMILES IDX 34 37 35 38 96 39 36 40 95 41 37 42 38 43 39 44 89 45 40 46
REMARK SMILES IDX 94 47 88 48 90 49 41 50 93 51 87 52 86 53 42 55 74 56 54 57
REMARK SMILES IDX 73 58 55 59 58 60 72 61 91 62 56 63 57 64 71 66 92 67 59 68
REMARK SMILES IDX 43 69 44 70 52 71 45 72 47 73 53 74 46 75 48 76 49 77 50 78
REMARK SMILES IDX 51 79 75 80 76 81 84 82 77 83 79 84 85 85 78 86 80 87 81 88
REMARK SMILES IDX 82 89 83 90 60 91 61 92 69 93 62 94 64 95 70 96 63 97 65 98
REMARK SMILES IDX 66 99 67 100 68 101
REMARK H PARENT 27 6 5 20 31 35 90 54 58 65
REMARK Flexibility Score: inf
ROOT
ATOM      1  C   UNL A   1      39.504  21.306  26.526  1.00  0.00     0.042 C 
ENDROOT
BRANCH   1   2
ATOM      2  C   UNL A   1      38.675  22.483  26.022  1.00  0.00     0.117 C 
BRANCH   2   3
ATOM      3  N   UNL A   1      37.238  22.471  26.273  1.00  0.00    -0.356 N 
ATOM      4  O   UNL A   1      36.606  21.394  24.356  1.00  0.00    -0.275 OA
ATOM      5  C   UNL A   1      36.354  21.754  25.505  1.00  0.00     0.222 C 
ATOM      6  H   UNL A   1      36.887  23.000  27.025  1.00  0.00     0.163 HD
BRANCH   5   7
ATOM      7  C   UNL A   1      35.023  21.372  26.107  1.00  0.00     0.129 C 
BRANCH   7   8
ATOM      8  C   UNL A   1      33.691  21.810  25.484  1.00  0.00     0.122 C 
BRANCH   8   9
ATOM      9  C   UNL A   1      33.201  20.632  24.627  1.00  0.00    -0.018 A 
ATOM     10  C   UNL A   1      32.425  20.896  23.481  1.00  0.00     0.006 A 
ATOM     11  C   UNL A   1      33.604  19.310  24.876  1.00  0.00     0.091 A 
ATOM     12  C   UNL A   1      32.083  19.880  22.587  1.00  0.00     0.007 A 
ATOM     13  C   UNL A   1      33.248  18.289  23.978  1.00  0.00     0.269 A 
ATOM     14  C   UNL A   1      32.497  18.572  22.830  1.00  0.00     0.085 A 
BRANCH  13  15
ATOM     15  N   UNL A   1      33.685  16.911  24.232  1.00  0.00     0.062 N 
ATOM     16  O   UNL A   1      33.918  16.188  23.251  1.00  0.00    -0.258 OA
ATOM     17  O   UNL A   1      33.790  16.546  25.411  1.00  0.00    -0.258 OA
ENDBRANCH  13  15
ENDBRANCH   8   9
BRANCH   8  18
ATOM     18  N   UNL A   1      32.547  22.419  26.212  1.00  0.00    -0.348 N 
ATOM     19  C   UNL A   1      31.863  23.567  26.451  1.00  0.00     0.226 C 
ATOM     20  H   UNL A   1      32.112  21.703  26.728  1.00  0.00     0.164 HD
ATOM     21  O   UNL A   1      31.065  23.486  27.395  1.00  0.00    -0.274 OA
BRANCH  19  22
ATOM     22  C   UNL A   1      31.949  24.869  25.645  1.00  0.00     0.050 C 
ATOM     23  C   UNL A   1      30.670  25.707  25.788  1.00  0.00     0.020 C 
ATOM     24  C   UNL A   1      32.144  24.624  24.115  1.00  0.00     0.020 C 
ATOM     25  C   UNL A   1      33.213  25.616  26.067  1.00  0.00     0.020 C 
ATOM     26  C   UNL A   1      30.831  27.064  25.087  1.00  0.00    -0.010 C 
ATOM     27  C   UNL A   1      32.302  25.971  23.361  1.00  0.00    -0.010 C 
ATOM     28  C   UNL A   1      33.333  26.986  25.406  1.00  0.00    -0.010 C 
ATOM     29  C   UNL A   1      32.052  27.795  25.666  1.00  0.00     0.007 C 
ATOM     30  C   UNL A   1      31.044  26.828  23.584  1.00  0.00     0.007 C 
ATOM     31  C   UNL A   1      33.514  26.751  23.904  1.00  0.00     0.007 C 
ENDBRANCH  19  22
ENDBRANCH   8  18
ENDBRANCH   7   8
ENDBRANCH   5   7
ENDBRANCH   2   3
ENDBRANCH   1   2
BRANCH   1  32
ATOM     32  C   UNL A   1      39.716  20.210  25.499  1.00  0.00     0.118 C 
BRANCH  32  33
ATOM     33  N   UNL A   1      40.671  19.210  25.955  1.00  0.00    -0.352 N 
ATOM     34  C   UNL A   1      41.969  19.370  26.343  1.00  0.00     0.251 C 
ATOM     35  H   UNL A   1      40.332  18.287  25.986  1.00  0.00     0.163 HD
ATOM     36  O   UNL A   1      42.670  18.372  26.538  1.00  0.00    -0.269 OA
BRANCH  34  37
ATOM     37  C   UNL A   1      42.529  20.723  26.528  1.00  0.00     0.039 A 
ATOM     38  C   UNL A   1      42.686  21.211  27.827  1.00  0.00     0.014 A 
ATOM     39  C   UNL A   1      42.854  21.525  25.428  1.00  0.00     0.014 A 
ATOM     40  C   UNL A   1      43.175  22.502  28.022  1.00  0.00     0.010 A 
ATOM     41  C   UNL A   1      43.421  22.777  25.627  1.00  0.00     0.010 A 
ATOM     42  C   UNL A   1      43.546  23.293  26.922  1.00  0.00    -0.014 A 
BRANCH  42  43
ATOM     43  C   UNL A   1      44.006  24.688  27.116  1.00  0.00     0.031 A 
ATOM     44  C   UNL A   1      43.055  25.720  27.659  1.00  0.00     0.074 A 
ATOM     45  C   UNL A   1      45.260  25.029  26.764  1.00  0.00     0.049 A 
ATOM     46  N   UNL A   1      43.271  26.983  27.918  1.00  0.00    -0.248 NA
ATOM     47  C   UNL A   1      41.671  25.287  27.921  1.00  0.00     0.031 C 
ATOM     48  C   UNL A   1      46.239  24.133  26.145  1.00  0.00     0.029 A 
ATOM     49  N   UNL A   1      45.919  26.227  26.862  1.00  0.00    -0.354 N 
ATOM     50  C   UNL A   1      42.050  27.500  28.337  1.00  0.00     0.074 A 
ATOM     51  C   UNL A   1      41.086  26.426  28.258  1.00  0.00     0.031 C 
ATOM     52  C   UNL A   1      47.379  24.809  25.932  1.00  0.00     0.029 A 
ATOM     53  C   UNL A   1      47.208  26.186  26.385  1.00  0.00     0.049 A 
ATOM     54  H   UNL A   1      45.509  27.039  27.239  1.00  0.00     0.167 HD
ATOM     55  C   UNL A   1      41.764  28.745  28.785  1.00  0.00     0.034 A 
ATOM     56  C   UNL A   1      48.147  27.150  26.332  1.00  0.00     0.034 A 
ATOM     57  C   UNL A   1      42.743  29.789  28.913  1.00  0.00     0.049 A 
ATOM     58  C   UNL A   1      47.828  28.502  26.911  1.00  0.00     0.074 A 
ATOM     59  C   UNL A   1      42.584  31.061  29.431  1.00  0.00     0.029 A 
ATOM     60  N   UNL A   1      44.067  29.679  28.518  1.00  0.00    -0.354 N 
ATOM     61  N   UNL A   1      46.712  28.925  27.456  1.00  0.00    -0.248 NA
ATOM     62  C   UNL A   1      48.911  29.495  26.916  1.00  0.00     0.031 C 
ATOM     63  C   UNL A   1      43.813  31.725  29.339  1.00  0.00     0.029 A 
ATOM     64  C   UNL A   1      44.741  30.857  28.785  1.00  0.00     0.049 A 
ATOM     65  H   UNL A   1      44.470  28.879  28.108  1.00  0.00     0.167 HD
ATOM     66  C   UNL A   1      46.970  30.214  27.905  1.00  0.00     0.074 A 
ATOM     67  C   UNL A   1      48.355  30.496  27.586  1.00  0.00     0.031 C 
ATOM     68  C   UNL A   1      46.136  31.092  28.515  1.00  0.00     0.034 A 
BRANCH  55  69
ATOM     69  C   UNL A   1      40.351  29.021  29.230  1.00  0.00     0.023 A 
ATOM     70  C   UNL A   1      39.389  29.420  28.278  1.00  0.00     0.012 A 
ATOM     71  C   UNL A   1      39.963  28.847  30.572  1.00  0.00     0.148 A 
ATOM     72  C   UNL A   1      38.074  29.677  28.660  1.00  0.00     0.002 A 
ATOM     73  C   UNL A   1      38.638  29.061  30.937  1.00  0.00     0.091 A 
ATOM     74  F   UNL A   1      40.894  28.489  31.467  1.00  0.00    -0.205 F 
ATOM     75  C   UNL A   1      37.696  29.488  29.987  1.00  0.00     0.022 A 
BRANCH  73  76
ATOM     76  S   UNL A   1      38.033  28.771  32.603  1.00  0.00     0.127 S 
ATOM     77  O   UNL A   1      36.680  29.322  32.527  1.00  0.00    -0.237 OA
ATOM     78  O   UNL A   1      38.091  27.312  32.703  1.00  0.00    -0.237 OA
ATOM     79  O   UNL A   1      38.948  29.476  33.491  1.00  0.00    -0.744 OA
ENDBRANCH  73  76
ENDBRANCH  55  69
BRANCH  56  80
ATOM     80  C   UNL A   1      49.504  26.838  25.803  1.00  0.00     0.023 A 
ATOM     81  C   UNL A   1      50.399  26.093  26.594  1.00  0.00     0.012 A 
ATOM     82  C   UNL A   1      49.900  27.243  24.513  1.00  0.00     0.148 A 
ATOM     83  C   UNL A   1      51.677  25.786  26.126  1.00  0.00     0.002 A 
ATOM     84  C   UNL A   1      51.155  26.888  24.032  1.00  0.00     0.091 A 
ATOM     85  F   UNL A   1      49.037  27.959  23.778  1.00  0.00    -0.205 F 
ATOM     86  C   UNL A   1      52.051  26.175  24.842  1.00  0.00     0.022 A 
BRANCH  84  87
ATOM     87  S   UNL A   1      51.670  27.233  22.347  1.00  0.00     0.127 S 
ATOM     88  O   UNL A   1      51.673  28.694  22.329  1.00  0.00    -0.237 OA
ATOM     89  O   UNL A   1      52.996  26.615  22.302  1.00  0.00    -0.237 OA
ATOM     90  O   UNL A   1      50.681  26.589  21.495  1.00  0.00    -0.744 OA
ENDBRANCH  84  87
ENDBRANCH  56  80
BRANCH  68  91
ATOM     91  C   UNL A   1      46.705  32.424  28.923  1.00  0.00     0.023 A 
ATOM     92  C   UNL A   1      47.347  32.563  30.170  1.00  0.00     0.012 A 
ATOM     93  C   UNL A   1      46.665  33.520  28.039  1.00  0.00     0.148 A 
ATOM     94  C   UNL A   1      47.908  33.782  30.545  1.00  0.00     0.002 A 
ATOM     95  C   UNL A   1      47.271  34.718  28.400  1.00  0.00     0.091 A 
ATOM     96  F   UNL A   1      46.031  33.376  26.867  1.00  0.00    -0.205 F 
ATOM     97  C   UNL A   1      47.881  34.854  29.656  1.00  0.00     0.022 A 
BRANCH  95  98
ATOM     98  S   UNL A   1      47.368  36.114  27.273  1.00  0.00     0.127 S 
ATOM     99  O   UNL A   1      48.175  35.565  26.185  1.00  0.00    -0.237 OA
ATOM    100  O   UNL A   1      45.963  36.342  26.936  1.00  0.00    -0.237 OA
ATOM    101  O   UNL A   1      47.986  37.193  28.033  1.00  0.00    -0.744 OA
ENDBRANCH  95  98
ENDBRANCH  68  91
ENDBRANCH  42  43
ENDBRANCH  34  37
ENDBRANCH  32  33
ENDBRANCH   1  32
TORSDOF 18
ENDMDL
