MODEL 1
REMARK VINA RESULT:     -12.5      0.000      0.000
REMARK SMILES COc1ccc(OC)c(/C=N/[NH+]=C2/NC(=O)[C@@H](CC(=O)NCCCNC(=O)c3ccc(-c4c5nc(c(-c6cccc(S(=O)(=O)[O-])c6F)c6ccc([nH]6)c(-c6cccc(S(=O)(=O)[O-])c6F)c6nc(c(-c7cccc(S(=O)(=O)[O-])c7F)c7ccc4[nH]7)C=C6)C=C5)cc3)S2)c1
REMARK SMILES IDX 22 1 21 2 19 3 20 4 18 6 17 7 12 8 13 9 14 11 91 12 15 13
REMARK SMILES IDX 16 15 11 16 10 17 9 18 3 19 4 20 92 21 5 22 6 23 2 24 1 25
REMARK SMILES IDX 7 26 8 27 23 28 24 29 25 30 26 31 27 33 28 34 29 35 90 36
REMARK SMILES IDX 30 37 89 38 31 39 32 40 33 41 83 42 34 43 88 44 82 45 84 46
REMARK SMILES IDX 35 47 87 48 81 49 80 50 36 52 68 53 48 54 67 55 49 56 52 57
REMARK SMILES IDX 66 58 85 59 50 60 51 61 65 63 86 64 53 65 37 66 38 67 46 68
REMARK SMILES IDX 39 69 41 70 47 71 40 72 42 73 43 74 44 75 45 76 69 77 70 78
REMARK SMILES IDX 78 79 71 80 73 81 79 82 72 83 74 84 75 85 76 86 77 87 54 88
REMARK SMILES IDX 55 89 63 90 56 91 58 92 64 93 57 94 59 95 60 96 61 97 62 98
REMARK H PARENT 21 5 12 10 14 14 25 32 84 51 52 62
REMARK Flexibility Score: inf
ROOT
ATOM      1  C   UNL A   1      35.042  24.036  25.462  1.00  0.00     0.117 C 
ENDROOT
BRANCH   1   2
ATOM      2  N   UNL A   1      34.641  24.346  24.098  1.00  0.00    -0.356 N 
ATOM      3  C   UNL A   1      33.831  25.309  23.587  1.00  0.00     0.221 C 
ATOM      4  O   UNL A   1      33.758  25.393  22.359  1.00  0.00    -0.275 OA
ATOM      5  H   UNL A   1      35.030  23.748  23.420  1.00  0.00     0.163 HD
BRANCH   3   6
ATOM      6  C   UNL A   1      33.053  26.258  24.478  1.00  0.00     0.127 C 
BRANCH   6   7
ATOM      7  C   UNL A   1      31.615  25.858  24.812  1.00  0.00     0.183 C 
ATOM      8  N   UNL A   1      31.417  22.502  26.572  1.00  0.00    -0.142 N 
ATOM      9  C   UNL A   1      31.241  23.671  26.064  1.00  0.00     0.337 C 
ATOM     10  H   UNL A   1      31.595  22.367  27.531  1.00  0.00     0.343 HD
ATOM     11  N   UNL A   1      31.173  24.755  26.869  1.00  0.00    -0.202 N 
ATOM     12  S   UNL A   1      31.147  24.147  24.396  1.00  0.00    -0.020 SA
ATOM     13  C   UNL A   1      31.360  25.978  26.299  1.00  0.00     0.322 C 
ATOM     14  H   UNL A   1      30.995  24.664  27.833  1.00  0.00     0.316 HD
ATOM     15  O   UNL A   1      31.421  27.021  26.931  1.00  0.00    -0.246 OA
BRANCH   8  16
ATOM     16  N   UNL A   1      31.340  21.445  25.677  1.00  0.00    -0.093 NA
ATOM     17  C   UNL A   1      32.487  20.950  25.344  1.00  0.00     0.170 C 
BRANCH  17  18
ATOM     18  C   UNL A   1      32.532  19.697  24.581  1.00  0.00     0.042 A 
ATOM     19  C   UNL A   1      33.197  17.362  24.579  1.00  0.00     0.119 A 
ATOM     20  C   UNL A   1      32.992  17.328  23.202  1.00  0.00     0.050 A 
ATOM     21  C   UNL A   1      32.961  18.548  25.279  1.00  0.00     0.060 A 
ATOM     22  C   UNL A   1      32.523  18.455  22.527  1.00  0.00     0.051 A 
ATOM     23  C   UNL A   1      32.276  19.654  23.204  1.00  0.00     0.128 A 
BRANCH  19  24
ATOM     24  O   UNL A   1      33.711  16.208  25.102  1.00  0.00    -0.497 OA
ATOM     25  C   UNL A   1      32.783  15.171  25.383  1.00  0.00     0.278 C 
ENDBRANCH  19  24
BRANCH  23  26
ATOM     26  O   UNL A   1      31.832  20.630  22.359  1.00  0.00    -0.496 OA
ATOM     27  C   UNL A   1      32.530  21.860  22.234  1.00  0.00     0.278 C 
ENDBRANCH  23  26
ENDBRANCH  17  18
ENDBRANCH   8  16
ENDBRANCH   6   7
ENDBRANCH   3   6
ENDBRANCH   1   2
BRANCH   1  28
ATOM     28  C   UNL A   1      35.716  22.670  25.577  1.00  0.00     0.042 C 
BRANCH  28  29
ATOM     29  C   UNL A   1      37.083  22.556  24.911  1.00  0.00     0.118 C 
BRANCH  29  30
ATOM     30  N   UNL A   1      37.859  21.460  25.459  1.00  0.00    -0.352 N 
ATOM     31  C   UNL A   1      39.069  21.482  26.109  1.00  0.00     0.251 C 
ATOM     32  H   UNL A   1      37.458  20.567  25.349  1.00  0.00     0.163 HD
ATOM     33  O   UNL A   1      39.680  20.422  26.240  1.00  0.00    -0.269 OA
BRANCH  31  34
ATOM     34  C   UNL A   1      39.648  22.739  26.651  1.00  0.00     0.039 A 
ATOM     35  C   UNL A   1      39.235  23.951  26.088  1.00  0.00     0.014 A 
ATOM     36  C   UNL A   1      40.645  22.748  27.632  1.00  0.00     0.014 A 
ATOM     37  C   UNL A   1      39.807  25.154  26.511  1.00  0.00     0.010 A 
ATOM     38  C   UNL A   1      41.155  23.959  28.113  1.00  0.00     0.010 A 
ATOM     39  C   UNL A   1      40.765  25.176  27.538  1.00  0.00    -0.014 A 
BRANCH  39  40
ATOM     40  C   UNL A   1      41.351  26.470  27.987  1.00  0.00     0.031 A 
ATOM     41  C   UNL A   1      42.790  26.820  27.698  1.00  0.00     0.074 A 
ATOM     42  C   UNL A   1      40.580  27.344  28.667  1.00  0.00     0.049 A 
ATOM     43  N   UNL A   1      43.426  27.942  27.927  1.00  0.00    -0.248 NA
ATOM     44  C   UNL A   1      43.630  25.775  27.094  1.00  0.00     0.031 C 
ATOM     45  C   UNL A   1      39.200  27.097  29.091  1.00  0.00     0.029 A 
ATOM     46  N   UNL A   1      40.844  28.613  29.120  1.00  0.00    -0.354 N 
ATOM     47  C   UNL A   1      44.738  27.732  27.518  1.00  0.00     0.074 A 
ATOM     48  C   UNL A   1      44.818  26.361  27.064  1.00  0.00     0.031 C 
ATOM     49  C   UNL A   1      38.730  28.189  29.715  1.00  0.00     0.029 A 
ATOM     50  C   UNL A   1      39.778  29.203  29.758  1.00  0.00     0.049 A 
ATOM     51  H   UNL A   1      41.714  29.058  29.001  1.00  0.00     0.167 HD
ATOM     52  C   UNL A   1      45.776  28.604  27.492  1.00  0.00     0.034 A 
ATOM     53  C   UNL A   1      39.650  30.428  30.306  1.00  0.00     0.034 A 
ATOM     54  C   UNL A   1      45.690  29.977  27.919  1.00  0.00     0.049 A 
ATOM     55  C   UNL A   1      40.799  31.395  30.215  1.00  0.00     0.074 A 
ATOM     56  C   UNL A   1      46.662  30.961  27.858  1.00  0.00     0.029 A 
ATOM     57  N   UNL A   1      44.572  30.558  28.499  1.00  0.00    -0.354 N 
ATOM     58  N   UNL A   1      41.979  31.227  29.669  1.00  0.00    -0.248 NA
ATOM     59  C   UNL A   1      40.580  32.736  30.774  1.00  0.00     0.031 C 
ATOM     60  C   UNL A   1      46.143  32.128  28.430  1.00  0.00     0.029 A 
ATOM     61  C   UNL A   1      44.833  31.883  28.810  1.00  0.00     0.049 A 
ATOM     62  H   UNL A   1      43.719  30.097  28.665  1.00  0.00     0.167 HD
ATOM     63  C   UNL A   1      42.630  32.450  29.787  1.00  0.00     0.074 A 
ATOM     64  C   UNL A   1      41.699  33.357  30.429  1.00  0.00     0.031 C 
ATOM     65  C   UNL A   1      43.889  32.789  29.413  1.00  0.00     0.034 A 
BRANCH  52  66
ATOM     66  C   UNL A   1      47.092  28.115  26.938  1.00  0.00     0.023 A 
ATOM     67  C   UNL A   1      48.132  27.756  27.823  1.00  0.00     0.012 A 
ATOM     68  C   UNL A   1      47.282  27.946  25.552  1.00  0.00     0.148 A 
ATOM     69  C   UNL A   1      49.348  27.275  27.337  1.00  0.00     0.002 A 
ATOM     70  C   UNL A   1      48.479  27.420  25.078  1.00  0.00     0.091 A 
ATOM     71  F   UNL A   1      46.292  28.306  24.723  1.00  0.00    -0.205 F 
ATOM     72  C   UNL A   1      49.517  27.097  25.968  1.00  0.00     0.022 A 
BRANCH  70  73
ATOM     73  S   UNL A   1      48.768  27.073  23.339  1.00  0.00     0.127 S 
ATOM     74  O   UNL A   1      48.085  25.790  23.177  1.00  0.00    -0.237 OA
ATOM     75  O   UNL A   1      48.103  28.202  22.687  1.00  0.00    -0.237 OA
ATOM     76  O   UNL A   1      50.213  27.038  23.170  1.00  0.00    -0.744 OA
ENDBRANCH  70  73
ENDBRANCH  52  66
BRANCH  53  77
ATOM     77  C   UNL A   1      38.357  30.834  30.926  1.00  0.00     0.023 A 
ATOM     78  C   UNL A   1      38.135  30.595  32.297  1.00  0.00     0.012 A 
ATOM     79  C   UNL A   1      37.358  31.476  30.171  1.00  0.00     0.148 A 
ATOM     80  C   UNL A   1      36.925  30.955  32.894  1.00  0.00     0.002 A 
ATOM     81  C   UNL A   1      36.182  31.887  30.786  1.00  0.00     0.091 A 
ATOM     82  F   UNL A   1      37.584  31.684  28.867  1.00  0.00    -0.205 F 
ATOM     83  C   UNL A   1      35.954  31.609  32.143  1.00  0.00     0.022 A 
BRANCH  81  84
ATOM     84  S   UNL A   1      34.939  32.861  29.930  1.00  0.00     0.127 S 
ATOM     85  O   UNL A   1      34.407  31.893  28.973  1.00  0.00    -0.237 OA
ATOM     86  O   UNL A   1      34.030  33.215  31.020  1.00  0.00    -0.237 OA
ATOM     87  O   UNL A   1      35.654  33.993  29.355  1.00  0.00    -0.744 OA
ENDBRANCH  81  84
ENDBRANCH  53  77
BRANCH  65  88
ATOM     88  C   UNL A   1      44.323  34.214  29.653  1.00  0.00     0.023 A 
ATOM     89  C   UNL A   1      45.137  34.529  30.759  1.00  0.00     0.012 A 
ATOM     90  C   UNL A   1      43.943  35.239  28.764  1.00  0.00     0.148 A 
ATOM     91  C   UNL A   1      45.518  35.848  31.008  1.00  0.00     0.002 A 
ATOM     92  C   UNL A   1      44.373  36.542  28.987  1.00  0.00     0.091 A 
ATOM     93  F   UNL A   1      43.153  34.928  27.725  1.00  0.00    -0.205 F 
ATOM     94  C   UNL A   1      45.145  36.850  30.118  1.00  0.00     0.022 A 
BRANCH  92  95
ATOM     95  S   UNL A   1      44.020  37.877  27.839  1.00  0.00     0.127 S 
ATOM     96  O   UNL A   1      45.135  38.789  28.088  1.00  0.00    -0.237 OA
ATOM     97  O   UNL A   1      44.067  37.196  26.544  1.00  0.00    -0.237 OA
ATOM     98  O   UNL A   1      42.702  38.380  28.206  1.00  0.00    -0.744 OA
ENDBRANCH  92  95
ENDBRANCH  65  88
ENDBRANCH  39  40
ENDBRANCH  31  34
ENDBRANCH  29  30
ENDBRANCH  28  29
ENDBRANCH   1  28
TORSDOF 18
ENDMDL
MODEL 2
REMARK VINA RESULT:     -12.0      5.000      9.848
REMARK SMILES COc1ccc(OC)c(/C=N/[NH+]=C2/NC(=O)[C@@H](CC(=O)NCCCNC(=O)c3ccc(-c4c5nc(c(-c6cccc(S(=O)(=O)[O-])c6F)c6ccc([nH]6)c(-c6cccc(S(=O)(=O)[O-])c6F)c6nc(c(-c7cccc(S(=O)(=O)[O-])c7F)c7ccc4[nH]7)C=C6)C=C5)cc3)S2)c1
REMARK SMILES IDX 22 1 21 2 19 3 20 4 18 6 17 7 12 8 13 9 14 11 91 12 15 13
REMARK SMILES IDX 16 15 11 16 10 17 9 18 3 19 4 20 92 21 5 22 6 23 2 24 1 25
REMARK SMILES IDX 7 26 8 27 23 28 24 29 25 30 26 31 27 33 28 34 29 35 90 36
REMARK SMILES IDX 30 37 89 38 31 39 32 40 33 41 83 42 34 43 88 44 82 45 84 46
REMARK SMILES IDX 35 47 87 48 81 49 80 50 36 52 68 53 48 54 67 55 49 56 52 57
REMARK SMILES IDX 66 58 85 59 50 60 51 61 65 63 86 64 53 65 37 66 38 67 46 68
REMARK SMILES IDX 39 69 41 70 47 71 40 72 42 73 43 74 44 75 45 76 69 77 70 78
REMARK SMILES IDX 78 79 71 80 73 81 79 82 72 83 74 84 75 85 76 86 77 87 54 88
REMARK SMILES IDX 55 89 63 90 56 91 58 92 64 93 57 94 59 95 60 96 61 97 62 98
REMARK H PARENT 21 5 12 10 14 14 25 32 84 51 52 62
REMARK Flexibility Score: inf
ROOT
ATOM      1  C   UNL A   1      33.154  27.685  25.399  1.00  0.00     0.117 C 
ENDROOT
BRANCH   1   2
ATOM      2  N   UNL A   1      33.608  27.237  24.091  1.00  0.00    -0.356 N 
ATOM      3  C   UNL A   1      32.939  26.992  22.934  1.00  0.00     0.221 C 
ATOM      4  O   UNL A   1      33.615  26.717  21.939  1.00  0.00    -0.275 OA
ATOM      5  H   UNL A   1      34.579  27.086  24.033  1.00  0.00     0.163 HD
BRANCH   3   6
ATOM      6  C   UNL A   1      31.427  27.063  22.851  1.00  0.00     0.127 C 
BRANCH   6   7
ATOM      7  C   UNL A   1      30.667  25.759  23.097  1.00  0.00     0.183 C 
ATOM      8  N   UNL A   1      31.337  24.321  26.543  1.00  0.00    -0.142 N 
ATOM      9  C   UNL A   1      30.905  24.646  25.376  1.00  0.00     0.337 C 
ATOM     10  H   UNL A   1      30.906  24.637  27.370  1.00  0.00     0.343 HD
ATOM     11  N   UNL A   1      29.755  25.344  25.251  1.00  0.00    -0.202 N 
ATOM     12  S   UNL A   1      31.636  24.396  23.820  1.00  0.00    -0.020 SA
ATOM     13  C   UNL A   1      29.527  25.981  24.068  1.00  0.00     0.322 C 
ATOM     14  H   UNL A   1      29.105  25.391  25.988  1.00  0.00     0.316 HD
ATOM     15  O   UNL A   1      28.579  26.721  23.866  1.00  0.00    -0.246 OA
BRANCH   8  16
ATOM     16  N   UNL A   1      32.451  23.494  26.560  1.00  0.00    -0.093 NA
ATOM     17  C   UNL A   1      32.269  22.351  25.983  1.00  0.00     0.170 C 
BRANCH  17  18
ATOM     18  C   UNL A   1      33.425  21.479  25.741  1.00  0.00     0.042 A 
ATOM     19  C   UNL A   1      35.839  21.347  25.527  1.00  0.00     0.119 A 
ATOM     20  C   UNL A   1      35.700  20.066  24.999  1.00  0.00     0.050 A 
ATOM     21  C   UNL A   1      34.699  22.059  25.908  1.00  0.00     0.060 A 
ATOM     22  C   UNL A   1      34.439  19.481  24.881  1.00  0.00     0.051 A 
ATOM     23  C   UNL A   1      33.282  20.171  25.257  1.00  0.00     0.128 A 
BRANCH  19  24
ATOM     24  O   UNL A   1      37.123  21.818  25.534  1.00  0.00    -0.497 OA
ATOM     25  C   UNL A   1      38.132  20.915  25.106  1.00  0.00     0.278 C 
ENDBRANCH  19  24
BRANCH  23  26
ATOM     26  O   UNL A   1      32.158  19.424  25.053  1.00  0.00    -0.496 OA
ATOM     27  C   UNL A   1      32.248  18.066  24.648  1.00  0.00     0.278 C 
ENDBRANCH  23  26
ENDBRANCH  17  18
ENDBRANCH   8  16
ENDBRANCH   6   7
ENDBRANCH   3   6
ENDBRANCH   1   2
BRANCH   1  28
ATOM     28  C   UNL A   1      33.061  29.207  25.497  1.00  0.00     0.042 C 
BRANCH  28  29
ATOM     29  C   UNL A   1      32.893  29.764  26.906  1.00  0.00     0.118 C 
BRANCH  29  30
ATOM     30  N   UNL A   1      32.897  31.214  26.915  1.00  0.00    -0.352 N 
ATOM     31  C   UNL A   1      33.732  32.085  27.573  1.00  0.00     0.251 C 
ATOM     32  H   UNL A   1      32.196  31.637  26.368  1.00  0.00     0.163 HD
ATOM     33  O   UNL A   1      33.387  33.262  27.668  1.00  0.00    -0.269 OA
BRANCH  31  34
ATOM     34  C   UNL A   1      35.023  31.643  28.161  1.00  0.00     0.039 A 
ATOM     35  C   UNL A   1      35.081  30.373  28.743  1.00  0.00     0.014 A 
ATOM     36  C   UNL A   1      36.144  32.477  28.231  1.00  0.00     0.014 A 
ATOM     37  C   UNL A   1      36.250  29.943  29.377  1.00  0.00     0.010 A 
ATOM     38  C   UNL A   1      37.339  32.013  28.791  1.00  0.00     0.010 A 
ATOM     39  C   UNL A   1      37.399  30.751  29.398  1.00  0.00    -0.014 A 
BRANCH  39  40
ATOM     40  C   UNL A   1      38.641  30.268  30.065  1.00  0.00     0.031 A 
ATOM     41  C   UNL A   1      39.003  30.709  31.461  1.00  0.00     0.074 A 
ATOM     42  C   UNL A   1      39.459  29.423  29.404  1.00  0.00     0.049 A 
ATOM     43  N   UNL A   1      39.990  30.306  32.222  1.00  0.00    -0.248 NA
ATOM     44  C   UNL A   1      38.165  31.749  32.078  1.00  0.00     0.031 C 
ATOM     45  C   UNL A   1      39.277  28.985  28.018  1.00  0.00     0.029 A 
ATOM     46  N   UNL A   1      40.604  28.780  29.807  1.00  0.00    -0.354 N 
ATOM     47  C   UNL A   1      39.905  31.053  33.392  1.00  0.00     0.074 A 
ATOM     48  C   UNL A   1      38.794  31.965  33.225  1.00  0.00     0.031 C 
ATOM     49  C   UNL A   1      40.256  28.125  27.696  1.00  0.00     0.029 A 
ATOM     50  C   UNL A   1      41.148  27.967  28.840  1.00  0.00     0.049 A 
ATOM     51  H   UNL A   1      40.998  28.892  30.702  1.00  0.00     0.167 HD
ATOM     52  C   UNL A   1      40.660  30.971  34.515  1.00  0.00     0.034 A 
ATOM     53  C   UNL A   1      42.236  27.172  28.872  1.00  0.00     0.034 A 
ATOM     54  C   UNL A   1      41.749  30.046  34.693  1.00  0.00     0.049 A 
ATOM     55  C   UNL A   1      43.024  27.059  30.148  1.00  0.00     0.074 A 
ATOM     56  C   UNL A   1      42.522  29.831  35.821  1.00  0.00     0.029 A 
ATOM     57  N   UNL A   1      42.230  29.190  33.713  1.00  0.00    -0.354 N 
ATOM     58  N   UNL A   1      42.822  27.651  31.300  1.00  0.00    -0.248 NA
ATOM     59  C   UNL A   1      44.163  26.130  30.142  1.00  0.00     0.031 C 
ATOM     60  C   UNL A   1      43.491  28.869  35.513  1.00  0.00     0.029 A 
ATOM     61  C   UNL A   1      43.295  28.453  34.206  1.00  0.00     0.049 A 
ATOM     62  H   UNL A   1      41.867  29.117  32.801  1.00  0.00     0.167 HD
ATOM     63  C   UNL A   1      43.784  27.142  32.165  1.00  0.00     0.074 A 
ATOM     64  C   UNL A   1      44.548  26.168  31.410  1.00  0.00     0.031 C 
ATOM     65  C   UNL A   1      44.024  27.460  33.461  1.00  0.00     0.034 A 
BRANCH  52  66
ATOM     66  C   UNL A   1      40.305  31.879  35.669  1.00  0.00     0.023 A 
ATOM     67  C   UNL A   1      41.099  33.016  35.932  1.00  0.00     0.012 A 
ATOM     68  C   UNL A   1      39.155  31.649  36.449  1.00  0.00     0.148 A 
ATOM     69  C   UNL A   1      40.777  33.885  36.974  1.00  0.00     0.002 A 
ATOM     70  C   UNL A   1      38.813  32.546  37.455  1.00  0.00     0.091 A 
ATOM     71  F   UNL A   1      38.420  30.557  36.199  1.00  0.00    -0.205 F 
ATOM     72  C   UNL A   1      39.630  33.656  37.728  1.00  0.00     0.022 A 
BRANCH  70  73
ATOM     73  S   UNL A   1      37.311  32.390  38.429  1.00  0.00     0.127 S 
ATOM     74  O   UNL A   1      36.337  33.076  37.581  1.00  0.00    -0.237 OA
ATOM     75  O   UNL A   1      37.141  30.937  38.498  1.00  0.00    -0.237 OA
ATOM     76  O   UNL A   1      37.590  33.031  39.706  1.00  0.00    -0.744 OA
ENDBRANCH  70  73
ENDBRANCH  52  66
BRANCH  53  77
ATOM     77  C   UNL A   1      42.601  26.363  27.674  1.00  0.00     0.023 A 
ATOM     78  C   UNL A   1      43.417  26.928  26.673  1.00  0.00     0.012 A 
ATOM     79  C   UNL A   1      42.164  25.033  27.534  1.00  0.00     0.148 A 
ATOM     80  C   UNL A   1      43.759  26.193  25.537  1.00  0.00     0.002 A 
ATOM     81  C   UNL A   1      42.560  24.287  26.430  1.00  0.00     0.091 A 
ATOM     82  F   UNL A   1      41.381  24.519  28.491  1.00  0.00    -0.205 F 
ATOM     83  C   UNL A   1      43.340  24.870  25.420  1.00  0.00     0.022 A 
BRANCH  81  84
ATOM     84  S   UNL A   1      42.187  22.537  26.270  1.00  0.00     0.127 S 
ATOM     85  O   UNL A   1      42.825  21.985  27.461  1.00  0.00    -0.237 OA
ATOM     86  O   UNL A   1      40.723  22.539  26.298  1.00  0.00    -0.237 OA
ATOM     87  O   UNL A   1      42.760  22.128  24.995  1.00  0.00    -0.744 OA
ENDBRANCH  81  84
ENDBRANCH  53  77
BRANCH  65  88
ATOM     88  C   UNL A   1      45.137  26.720  34.161  1.00  0.00     0.023 A 
ATOM     89  C   UNL A   1      46.456  27.215  34.112  1.00  0.00     0.012 A 
ATOM     90  C   UNL A   1      44.870  25.544  34.890  1.00  0.00     0.148 A 
ATOM     91  C   UNL A   1      47.498  26.523  34.730  1.00  0.00     0.002 A 
ATOM     92  C   UNL A   1      45.905  24.890  35.549  1.00  0.00     0.091 A 
ATOM     93  F   UNL A   1      43.614  25.074  34.912  1.00  0.00    -0.205 F 
ATOM     94  C   UNL A   1      47.221  25.368  35.454  1.00  0.00     0.022 A 
BRANCH  92  95
ATOM     95  S   UNL A   1      45.621  23.451  36.586  1.00  0.00     0.127 S 
ATOM     96  O   UNL A   1      46.984  23.077  36.957  1.00  0.00    -0.237 OA
ATOM     97  O   UNL A   1      44.821  24.006  37.679  1.00  0.00    -0.237 OA
ATOM     98  O   UNL A   1      44.911  22.492  35.750  1.00  0.00    -0.744 OA
ENDBRANCH  92  95
ENDBRANCH  65  88
ENDBRANCH  39  40
ENDBRANCH  31  34
ENDBRANCH  29  30
ENDBRANCH  28  29
ENDBRANCH   1  28
TORSDOF 18
ENDMDL
MODEL 3
REMARK VINA RESULT:     -12.0      1.930      2.165
REMARK SMILES COc1ccc(OC)c(/C=N/[NH+]=C2/NC(=O)[C@@H](CC(=O)NCCCNC(=O)c3ccc(-c4c5nc(c(-c6cccc(S(=O)(=O)[O-])c6F)c6ccc([nH]6)c(-c6cccc(S(=O)(=O)[O-])c6F)c6nc(c(-c7cccc(S(=O)(=O)[O-])c7F)c7ccc4[nH]7)C=C6)C=C5)cc3)S2)c1
REMARK SMILES IDX 22 1 21 2 19 3 20 4 18 6 17 7 12 8 13 9 14 11 91 12 15 13
REMARK SMILES IDX 16 15 11 16 10 17 9 18 3 19 4 20 92 21 5 22 6 23 2 24 1 25
REMARK SMILES IDX 7 26 8 27 23 28 24 29 25 30 26 31 27 33 28 34 29 35 90 36
REMARK SMILES IDX 30 37 89 38 31 39 32 40 33 41 83 42 34 43 88 44 82 45 84 46
REMARK SMILES IDX 35 47 87 48 81 49 80 50 36 52 68 53 48 54 67 55 49 56 52 57
REMARK SMILES IDX 66 58 85 59 50 60 51 61 65 63 86 64 53 65 37 66 38 67 46 68
REMARK SMILES IDX 39 69 41 70 47 71 40 72 42 73 43 74 44 75 45 76 69 77 70 78
REMARK SMILES IDX 78 79 71 80 73 81 79 82 72 83 74 84 75 85 76 86 77 87 54 88
REMARK SMILES IDX 55 89 63 90 56 91 58 92 64 93 57 94 59 95 60 96 61 97 62 98
REMARK H PARENT 21 5 12 10 14 14 25 32 84 51 52 62
REMARK Flexibility Score: inf
ROOT
ATOM      1  C   UNL A   1      34.801  24.326  25.693  1.00  0.00     0.117 C 
ENDROOT
BRANCH   1   2
ATOM      2  N   UNL A   1      34.480  24.469  24.281  1.00  0.00    -0.356 N 
ATOM      3  C   UNL A   1      33.679  25.342  23.617  1.00  0.00     0.221 C 
ATOM      4  O   UNL A   1      33.682  25.285  22.385  1.00  0.00    -0.275 OA
ATOM      5  H   UNL A   1      34.926  23.812  23.700  1.00  0.00     0.163 HD
BRANCH   3   6
ATOM      6  C   UNL A   1      32.822  26.359  24.346  1.00  0.00     0.127 C 
BRANCH   6   7
ATOM      7  C   UNL A   1      31.430  25.895  24.777  1.00  0.00     0.183 C 
ATOM      8  N   UNL A   1      31.503  22.537  26.541  1.00  0.00    -0.142 N 
ATOM      9  C   UNL A   1      31.240  23.696  26.049  1.00  0.00     0.337 C 
ATOM     10  H   UNL A   1      31.751  22.412  27.486  1.00  0.00     0.343 HD
ATOM     11  N   UNL A   1      31.179  24.778  26.858  1.00  0.00    -0.202 N 
ATOM     12  S   UNL A   1      31.011  24.165  24.391  1.00  0.00    -0.020 SA
ATOM     13  C   UNL A   1      31.272  26.007  26.278  1.00  0.00     0.322 C 
ATOM     14  H   UNL A   1      31.072  24.680  27.831  1.00  0.00     0.316 HD
ATOM     15  O   UNL A   1      31.330  27.052  26.906  1.00  0.00    -0.246 OA
BRANCH   8  16
ATOM     16  N   UNL A   1      31.411  21.476  25.653  1.00  0.00    -0.093 NA
ATOM     17  C   UNL A   1      32.545  20.918  25.378  1.00  0.00     0.170 C 
BRANCH  17  18
ATOM     18  C   UNL A   1      32.559  19.656  24.628  1.00  0.00     0.042 A 
ATOM     19  C   UNL A   1      33.153  17.303  24.656  1.00  0.00     0.119 A 
ATOM     20  C   UNL A   1      32.961  17.260  23.278  1.00  0.00     0.050 A 
ATOM     21  C   UNL A   1      32.946  18.502  25.341  1.00  0.00     0.060 A 
ATOM     22  C   UNL A   1      32.532  18.394  22.587  1.00  0.00     0.051 A 
ATOM     23  C   UNL A   1      32.315  19.607  23.249  1.00  0.00     0.128 A 
BRANCH  19  24
ATOM     24  O   UNL A   1      33.626  16.139  25.195  1.00  0.00    -0.497 OA
ATOM     25  C   UNL A   1      32.664  15.136  25.486  1.00  0.00     0.278 C 
ENDBRANCH  19  24
BRANCH  23  26
ATOM     26  O   UNL A   1      31.909  20.587  22.390  1.00  0.00    -0.496 OA
ATOM     27  C   UNL A   1      32.652  21.790  22.251  1.00  0.00     0.278 C 
ENDBRANCH  23  26
ENDBRANCH  17  18
ENDBRANCH   8  16
ENDBRANCH   6   7
ENDBRANCH   3   6
ENDBRANCH   1   2
BRANCH   1  28
ATOM     28  C   UNL A   1      35.718  23.135  25.967  1.00  0.00     0.042 C 
BRANCH  28  29
ATOM     29  C   UNL A   1      37.104  23.216  25.337  1.00  0.00     0.118 C 
BRANCH  29  30
ATOM     30  N   UNL A   1      37.989  22.188  25.850  1.00  0.00    -0.352 N 
ATOM     31  C   UNL A   1      39.198  22.312  26.490  1.00  0.00     0.251 C 
ATOM     32  H   UNL A   1      37.675  21.264  25.721  1.00  0.00     0.163 HD
ATOM     33  O   UNL A   1      39.910  21.313  26.588  1.00  0.00    -0.269 OA
BRANCH  31  34
ATOM     34  C   UNL A   1      39.659  23.605  27.059  1.00  0.00     0.039 A 
ATOM     35  C   UNL A   1      39.197  24.786  26.468  1.00  0.00     0.014 A 
ATOM     36  C   UNL A   1      40.596  23.683  28.094  1.00  0.00     0.014 A 
ATOM     37  C   UNL A   1      39.661  26.025  26.918  1.00  0.00     0.010 A 
ATOM     38  C   UNL A   1      40.994  24.926  28.599  1.00  0.00     0.010 A 
ATOM     39  C   UNL A   1      40.555  26.113  27.997  1.00  0.00    -0.014 A 
BRANCH  39  40
ATOM     40  C   UNL A   1      41.026  27.444  28.473  1.00  0.00     0.031 A 
ATOM     41  C   UNL A   1      42.483  27.831  28.405  1.00  0.00     0.074 A 
ATOM     42  C   UNL A   1      40.132  28.319  28.977  1.00  0.00     0.049 A 
ATOM     43  N   UNL A   1      43.042  28.982  28.680  1.00  0.00    -0.248 NA
ATOM     44  C   UNL A   1      43.438  26.789  27.995  1.00  0.00     0.031 C 
ATOM     45  C   UNL A   1      38.708  28.044  29.184  1.00  0.00     0.029 A 
ATOM     46  N   UNL A   1      40.284  29.615  29.407  1.00  0.00    -0.354 N 
ATOM     47  C   UNL A   1      44.409  28.799  28.498  1.00  0.00     0.074 A 
ATOM     48  C   UNL A   1      44.599  27.414  28.129  1.00  0.00     0.031 C 
ATOM     49  C   UNL A   1      38.113  29.144  29.671  1.00  0.00     0.029 A 
ATOM     50  C   UNL A   1      39.113  30.195  29.835  1.00  0.00     0.049 A 
ATOM     51  H   UNL A   1      41.150  30.083  29.409  1.00  0.00     0.167 HD
ATOM     52  C   UNL A   1      45.414  29.705  28.599  1.00  0.00     0.034 A 
ATOM     53  C   UNL A   1      38.865  31.436  30.297  1.00  0.00     0.034 A 
ATOM     54  C   UNL A   1      45.223  31.090  28.941  1.00  0.00     0.049 A 
ATOM     55  C   UNL A   1      39.987  32.437  30.347  1.00  0.00     0.074 A 
ATOM     56  C   UNL A   1      46.165  32.103  28.991  1.00  0.00     0.029 A 
ATOM     57  N   UNL A   1      44.010  31.658  29.305  1.00  0.00    -0.354 N 
ATOM     58  N   UNL A   1      41.244  32.287  30.007  1.00  0.00    -0.248 NA
ATOM     59  C   UNL A   1      39.644  33.793  30.799  1.00  0.00     0.031 C 
ATOM     60  C   UNL A   1      45.528  33.276  29.417  1.00  0.00     0.029 A 
ATOM     61  C   UNL A   1      44.181  33.003  29.591  1.00  0.00     0.049 A 
ATOM     62  H   UNL A   1      43.154  31.175  29.353  1.00  0.00     0.167 HD
ATOM     63  C   UNL A   1      41.835  33.535  30.171  1.00  0.00     0.074 A 
ATOM     64  C   UNL A   1      40.787  34.436  30.610  1.00  0.00     0.031 C 
ATOM     65  C   UNL A   1      43.128  33.900  29.989  1.00  0.00     0.034 A 
BRANCH  52  66
ATOM     66  C   UNL A   1      46.815  29.237  28.289  1.00  0.00     0.023 A 
ATOM     67  C   UNL A   1      47.297  29.306  26.964  1.00  0.00     0.012 A 
ATOM     68  C   UNL A   1      47.678  28.794  29.311  1.00  0.00     0.148 A 
ATOM     69  C   UNL A   1      48.597  28.906  26.656  1.00  0.00     0.002 A 
ATOM     70  C   UNL A   1      48.988  28.443  29.004  1.00  0.00     0.091 A 
ATOM     71  F   UNL A   1      47.203  28.719  30.562  1.00  0.00    -0.205 F 
ATOM     72  C   UNL A   1      49.445  28.485  27.676  1.00  0.00     0.022 A 
BRANCH  70  73
ATOM     73  S   UNL A   1      50.187  27.968  30.256  1.00  0.00     0.127 S 
ATOM     74  O   UNL A   1      49.562  26.775  30.824  1.00  0.00    -0.237 OA
ATOM     75  O   UNL A   1      51.382  27.705  29.451  1.00  0.00    -0.237 OA
ATOM     76  O   UNL A   1      50.299  29.105  31.158  1.00  0.00    -0.744 OA
ENDBRANCH  70  73
ENDBRANCH  52  66
BRANCH  53  77
ATOM     77  C   UNL A   1      37.477  31.824  30.680  1.00  0.00     0.023 A 
ATOM     78  C   UNL A   1      37.021  31.580  31.990  1.00  0.00     0.012 A 
ATOM     79  C   UNL A   1      36.618  32.455  29.760  1.00  0.00     0.148 A 
ATOM     80  C   UNL A   1      35.720  31.922  32.366  1.00  0.00     0.002 A 
ATOM     81  C   UNL A   1      35.347  32.849  30.159  1.00  0.00     0.091 A 
ATOM     82  F   UNL A   1      37.068  32.669  28.516  1.00  0.00    -0.205 F 
ATOM     83  C   UNL A   1      34.888  32.566  31.455  1.00  0.00     0.022 A 
BRANCH  81  84
ATOM     84  S   UNL A   1      34.262  33.809  29.097  1.00  0.00     0.127 S 
ATOM     85  O   UNL A   1      33.795  32.797  28.153  1.00  0.00    -0.237 OA
ATOM     86  O   UNL A   1      33.252  34.280  30.046  1.00  0.00    -0.237 OA
ATOM     87  O   UNL A   1      35.094  34.864  28.535  1.00  0.00    -0.744 OA
ENDBRANCH  81  84
ENDBRANCH  53  77
BRANCH  65  88
ATOM     88  C   UNL A   1      43.479  35.348  30.229  1.00  0.00     0.023 A 
ATOM     89  C   UNL A   1      43.919  35.769  31.500  1.00  0.00     0.012 A 
ATOM     90  C   UNL A   1      43.396  36.288  29.183  1.00  0.00     0.148 A 
ATOM     91  C   UNL A   1      44.216  37.110  31.740  1.00  0.00     0.002 A 
ATOM     92  C   UNL A   1      43.747  37.613  29.415  1.00  0.00     0.091 A 
ATOM     93  F   UNL A   1      42.958  35.878  27.983  1.00  0.00    -0.205 F 
ATOM     94  C   UNL A   1      44.140  38.029  30.697  1.00  0.00     0.022 A 
BRANCH  92  95
ATOM     95  S   UNL A   1      43.772  38.842  28.106  1.00  0.00     0.127 S 
ATOM     96  O   UNL A   1      44.593  38.183  27.092  1.00  0.00    -0.237 OA
ATOM     97  O   UNL A   1      42.354  38.959  27.761  1.00  0.00    -0.237 OA
ATOM     98  O   UNL A   1      44.346  40.044  28.698  1.00  0.00    -0.744 OA
ENDBRANCH  92  95
ENDBRANCH  65  88
ENDBRANCH  39  40
ENDBRANCH  31  34
ENDBRANCH  29  30
ENDBRANCH  28  29
ENDBRANCH   1  28
TORSDOF 18
ENDMDL
