MODEL 1
REMARK VINA RESULT:     -13.1      0.000      0.000
REMARK SMILES C[N@@H+]1CC[C@H]2CN(C(=O)c3csc(-c4ccncc4)n3)C[C@@]2(C(=O)NCCCNC(=O)c2ccc(-c3c4nc(c(-c5cccc(S(=O)(=O)[O-])c5F)c5ccc([nH]5)c(-c5cccc(S(=O)(=O)[O-])c5F)c5nc(c(-c6cccc(S(=O)(=O)[O-])c6F)c6ccc3[nH]6)C=C5)C=C4)cc2)C1
REMARK SMILES IDX 27 1 26 2 25 3 23 4 24 5 22 7 1 8 2 9 3 10 95 11 4 13 5 14
REMARK SMILES IDX 21 15 6 16 7 17 8 18 9 19 10 20 11 21 20 22 12 23 13 24
REMARK SMILES IDX 14 25 15 26 19 27 16 28 18 29 17 30 28 31 29 32 30 33 31 35
REMARK SMILES IDX 32 36 33 37 94 38 34 39 93 40 35 41 36 42 37 43 87 44 38 45
REMARK SMILES IDX 92 46 86 47 88 48 39 49 91 50 85 51 84 52 40 54 72 55 52 56
REMARK SMILES IDX 71 57 53 58 56 59 70 60 89 61 54 62 55 63 69 65 90 66 57 67
REMARK SMILES IDX 41 68 42 69 50 70 43 71 45 72 51 73 44 74 46 75 47 76 48 77
REMARK SMILES IDX 49 78 73 79 74 80 82 81 75 82 77 83 83 84 76 85 78 86 79 87
REMARK SMILES IDX 80 88 81 89 58 90 59 91 67 92 60 93 62 94 68 95 61 96 63 97
REMARK SMILES IDX 64 98 65 99 66 100
REMARK H PARENT 25 6 2 12 29 34 88 53 56 64
REMARK Flexibility Score: inf
ROOT
ATOM      1  C   UNL A   1      32.104  27.913  26.664  1.00  0.00     0.042 C 
ENDROOT
BRANCH   1   2
ATOM      2  C   UNL A   1      31.950  26.494  26.106  1.00  0.00     0.117 C 
BRANCH   2   3
ATOM      3  N   UNL A   1      33.017  25.520  26.372  1.00  0.00    -0.355 N 
ATOM      4  C   UNL A   1      33.559  24.456  25.683  1.00  0.00     0.234 C 
ATOM      5  O   UNL A   1      34.726  24.170  25.979  1.00  0.00    -0.274 OA
ATOM      6  H   UNL A   1      33.446  25.659  27.247  1.00  0.00     0.163 HD
BRANCH   4   7
ATOM      7  C   UNL A   1      32.732  23.533  24.763  1.00  0.00     0.120 C 
ATOM      8  C   UNL A   1      33.429  21.474  27.457  1.00  0.00     0.332 C 
ATOM      9  N   UNL A   1      32.720  21.380  26.188  1.00  0.00    -0.336 N 
ATOM     10  C   UNL A   1      33.476  20.641  25.184  1.00  0.00     0.262 C 
ATOM     11  C   UNL A   1      31.981  22.577  25.734  1.00  0.00     0.281 C 
ATOM     12  H   UNL A   1      31.911  20.791  26.384  1.00  0.00     0.347 HD
ATOM     13  C   UNL A   1      33.221  21.160  23.789  1.00  0.00     0.068 C 
ATOM     14  C   UNL A   1      33.546  22.656  23.724  1.00  0.00     0.037 C 
ATOM     15  C   UNL A   1      31.876  24.400  23.823  1.00  0.00     0.143 C 
ATOM     16  C   UNL A   1      33.176  23.138  22.321  1.00  0.00     0.125 C 
ATOM     17  N   UNL A   1      32.572  24.406  22.547  1.00  0.00    -0.336 N 
BRANCH  17  18
ATOM     18  C   UNL A   1      32.637  25.396  21.585  1.00  0.00     0.273 C 
ATOM     19  O   UNL A   1      33.074  25.178  20.457  1.00  0.00    -0.267 OA
BRANCH  18  20
ATOM     20  C   UNL A   1      32.248  26.750  21.987  1.00  0.00     0.139 A 
ATOM     21  C   UNL A   1      33.122  27.665  22.542  1.00  0.00     0.101 A 
ATOM     22  N   UNL A   1      30.910  27.161  21.979  1.00  0.00    -0.231 NA
ATOM     23  S   UNL A   1      32.278  29.069  23.037  1.00  0.00    -0.122 S 
ATOM     24  C   UNL A   1      30.794  28.341  22.552  1.00  0.00     0.124 A 
BRANCH  24  25
ATOM     25  C   UNL A   1      29.529  29.008  22.857  1.00  0.00     0.013 A 
ATOM     26  C   UNL A   1      28.339  28.273  22.857  1.00  0.00     0.031 A 
ATOM     27  C   UNL A   1      29.476  30.370  23.154  1.00  0.00     0.031 A 
ATOM     28  C   UNL A   1      27.160  28.925  23.180  1.00  0.00     0.111 A 
ATOM     29  C   UNL A   1      28.247  30.933  23.453  1.00  0.00     0.111 A 
ATOM     30  N   UNL A   1      27.089  30.238  23.481  1.00  0.00    -0.265 NA
ENDBRANCH  24  25
ENDBRANCH  18  20
ENDBRANCH  17  18
ENDBRANCH   4   7
ENDBRANCH   2   3
ENDBRANCH   1   2
BRANCH   1  31
ATOM     31  C   UNL A   1      33.546  28.334  26.971  1.00  0.00     0.118 C 
BRANCH  31  32
ATOM     32  N   UNL A   1      33.701  29.785  27.041  1.00  0.00    -0.352 N 
ATOM     33  C   UNL A   1      34.585  30.586  27.717  1.00  0.00     0.251 C 
ATOM     34  H   UNL A   1      33.045  30.282  26.500  1.00  0.00     0.163 HD
ATOM     35  O   UNL A   1      34.281  31.764  27.904  1.00  0.00    -0.269 OA
BRANCH  33  36
ATOM     36  C   UNL A   1      35.893  30.082  28.197  1.00  0.00     0.039 A 
ATOM     37  C   UNL A   1      35.980  29.543  29.486  1.00  0.00     0.014 A 
ATOM     38  C   UNL A   1      37.052  30.237  27.436  1.00  0.00     0.014 A 
ATOM     39  C   UNL A   1      37.214  29.115  29.988  1.00  0.00     0.010 A 
ATOM     40  C   UNL A   1      38.268  29.742  27.906  1.00  0.00     0.010 A 
ATOM     41  C   UNL A   1      38.365  29.185  29.189  1.00  0.00    -0.014 A 
BRANCH  41  42
ATOM     42  C   UNL A   1      39.678  28.676  29.665  1.00  0.00     0.031 A 
ATOM     43  C   UNL A   1      40.431  29.399  30.751  1.00  0.00     0.074 A 
ATOM     44  C   UNL A   1      40.247  27.628  29.037  1.00  0.00     0.049 A 
ATOM     45  N   UNL A   1      41.631  29.167  31.221  1.00  0.00    -0.248 NA
ATOM     46  C   UNL A   1      39.761  30.556  31.368  1.00  0.00     0.031 C 
ATOM     47  C   UNL A   1      39.661  26.902  27.910  1.00  0.00     0.029 A 
ATOM     48  N   UNL A   1      41.464  27.021  29.228  1.00  0.00    -0.354 N 
ATOM     49  C   UNL A   1      41.875  30.169  32.152  1.00  0.00     0.074 A 
ATOM     50  C   UNL A   1      40.713  31.032  32.155  1.00  0.00     0.031 C 
ATOM     51  C   UNL A   1      40.522  25.957  27.500  1.00  0.00     0.029 A 
ATOM     52  C   UNL A   1      41.731  26.028  28.314  1.00  0.00     0.049 A 
ATOM     53  H   UNL A   1      42.085  27.272  29.949  1.00  0.00     0.167 HD
ATOM     54  C   UNL A   1      42.953  30.340  32.956  1.00  0.00     0.034 A 
ATOM     55  C   UNL A   1      42.831  25.271  28.137  1.00  0.00     0.034 A 
ATOM     56  C   UNL A   1      44.087  29.455  32.978  1.00  0.00     0.049 A 
ATOM     57  C   UNL A   1      43.992  25.438  29.078  1.00  0.00     0.074 A 
ATOM     58  C   UNL A   1      45.186  29.482  33.819  1.00  0.00     0.029 A 
ATOM     59  N   UNL A   1      44.271  28.384  32.116  1.00  0.00    -0.354 N 
ATOM     60  N   UNL A   1      44.136  26.288  30.066  1.00  0.00    -0.248 NA
ATOM     61  C   UNL A   1      45.124  24.516  28.910  1.00  0.00     0.031 C 
ATOM     62  C   UNL A   1      46.044  28.439  33.451  1.00  0.00     0.029 A 
ATOM     63  C   UNL A   1      45.467  27.747  32.398  1.00  0.00     0.049 A 
ATOM     64  H   UNL A   1      43.642  28.116  31.408  1.00  0.00     0.167 HD
ATOM     65  C   UNL A   1      45.358  25.987  30.655  1.00  0.00     0.074 A 
ATOM     66  C   UNL A   1      45.904  24.859  29.926  1.00  0.00     0.031 C 
ATOM     67  C   UNL A   1      45.978  26.597  31.694  1.00  0.00     0.034 A 
BRANCH  54  68
ATOM     68  C   UNL A   1      42.927  31.502  33.918  1.00  0.00     0.023 A 
ATOM     69  C   UNL A   1      43.491  32.736  33.530  1.00  0.00     0.012 A 
ATOM     70  C   UNL A   1      42.321  31.391  35.184  1.00  0.00     0.148 A 
ATOM     71  C   UNL A   1      43.498  33.822  34.403  1.00  0.00     0.002 A 
ATOM     72  C   UNL A   1      42.290  32.494  36.032  1.00  0.00     0.091 A 
ATOM     73  F   UNL A   1      41.807  30.208  35.549  1.00  0.00    -0.205 F 
ATOM     74  C   UNL A   1      42.891  33.705  35.649  1.00  0.00     0.022 A 
BRANCH  72  75
ATOM     75  S   UNL A   1      41.460  32.465  37.625  1.00  0.00     0.127 S 
ATOM     76  O   UNL A   1      42.293  31.525  38.375  1.00  0.00    -0.237 OA
ATOM     77  O   UNL A   1      41.573  33.858  38.059  1.00  0.00    -0.237 OA
ATOM     78  O   UNL A   1      40.098  32.024  37.357  1.00  0.00    -0.744 OA
ENDBRANCH  72  75
ENDBRANCH  54  68
BRANCH  55  79
ATOM     79  C   UNL A   1      42.849  24.246  27.056  1.00  0.00     0.023 A 
ATOM     80  C   UNL A   1      43.575  24.496  25.875  1.00  0.00     0.012 A 
ATOM     81  C   UNL A   1      42.208  23.002  27.220  1.00  0.00     0.148 A 
ATOM     82  C   UNL A   1      43.642  23.535  24.866  1.00  0.00     0.002 A 
ATOM     83  C   UNL A   1      42.328  22.028  26.236  1.00  0.00     0.091 A 
ATOM     84  F   UNL A   1      41.518  22.788  28.348  1.00  0.00    -0.205 F 
ATOM     85  C   UNL A   1      43.030  22.297  25.051  1.00  0.00     0.022 A 
BRANCH  83  86
ATOM     86  S   UNL A   1      41.698  20.359  26.451  1.00  0.00     0.127 S 
ATOM     87  O   UNL A   1      42.241  20.001  27.759  1.00  0.00    -0.237 OA
ATOM     88  O   UNL A   1      40.252  20.577  26.421  1.00  0.00    -0.237 OA
ATOM     89  O   UNL A   1      42.212  19.596  25.322  1.00  0.00    -0.744 OA
ENDBRANCH  83  86
ENDBRANCH  55  79
BRANCH  67  90
ATOM     90  C   UNL A   1      47.311  26.048  32.132  1.00  0.00     0.023 A 
ATOM     91  C   UNL A   1      48.494  26.526  31.537  1.00  0.00     0.012 A 
ATOM     92  C   UNL A   1      47.393  25.115  33.185  1.00  0.00     0.148 A 
ATOM     93  C   UNL A   1      49.739  26.062  31.963  1.00  0.00     0.002 A 
ATOM     94  C   UNL A   1      48.637  24.694  33.637  1.00  0.00     0.091 A 
ATOM     95  F   UNL A   1      46.253  24.656  33.724  1.00  0.00    -0.205 F 
ATOM     96  C   UNL A   1      49.811  25.157  33.020  1.00  0.00     0.022 A 
BRANCH  94  97
ATOM     97  S   UNL A   1      48.829  23.604  35.052  1.00  0.00     0.127 S 
ATOM     98  O   UNL A   1      50.284  23.494  35.149  1.00  0.00    -0.237 OA
ATOM     99  O   UNL A   1      48.204  24.378  36.126  1.00  0.00    -0.237 OA
ATOM    100  O   UNL A   1      48.129  22.374  34.709  1.00  0.00    -0.744 OA
ENDBRANCH  94  97
ENDBRANCH  67  90
ENDBRANCH  41  42
ENDBRANCH  33  36
ENDBRANCH  31  32
ENDBRANCH   1  31
TORSDOF 16
ENDMDL
MODEL 2
REMARK VINA RESULT:     -13.0      4.440      8.103
REMARK SMILES C[N@@H+]1CC[C@H]2CN(C(=O)c3csc(-c4ccncc4)n3)C[C@@]2(C(=O)NCCCNC(=O)c2ccc(-c3c4nc(c(-c5cccc(S(=O)(=O)[O-])c5F)c5ccc([nH]5)c(-c5cccc(S(=O)(=O)[O-])c5F)c5nc(c(-c6cccc(S(=O)(=O)[O-])c6F)c6ccc3[nH]6)C=C5)C=C4)cc2)C1
REMARK SMILES IDX 27 1 26 2 25 3 23 4 24 5 22 7 1 8 2 9 3 10 95 11 4 13 5 14
REMARK SMILES IDX 21 15 6 16 7 17 8 18 9 19 10 20 11 21 20 22 12 23 13 24
REMARK SMILES IDX 14 25 15 26 19 27 16 28 18 29 17 30 28 31 29 32 30 33 31 35
REMARK SMILES IDX 32 36 33 37 94 38 34 39 93 40 35 41 36 42 37 43 87 44 38 45
REMARK SMILES IDX 92 46 86 47 88 48 39 49 91 50 85 51 84 52 40 54 72 55 52 56
REMARK SMILES IDX 71 57 53 58 56 59 70 60 89 61 54 62 55 63 69 65 90 66 57 67
REMARK SMILES IDX 41 68 42 69 50 70 43 71 45 72 51 73 44 74 46 75 47 76 48 77
REMARK SMILES IDX 49 78 73 79 74 80 82 81 75 82 77 83 83 84 76 85 78 86 79 87
REMARK SMILES IDX 80 88 81 89 58 90 59 91 67 92 60 93 62 94 68 95 61 96 63 97
REMARK SMILES IDX 64 98 65 99 66 100
REMARK H PARENT 25 6 2 12 29 34 88 53 56 64
REMARK Flexibility Score: inf
ROOT
ATOM      1  C   UNL A   1      35.346  22.465  24.446  1.00  0.00     0.042 C 
ENDROOT
BRANCH   1   2
ATOM      2  C   UNL A   1      35.139  23.972  24.262  1.00  0.00     0.117 C 
BRANCH   2   3
ATOM      3  N   UNL A   1      34.374  24.434  23.096  1.00  0.00    -0.355 N 
ATOM      4  C   UNL A   1      33.511  25.480  22.848  1.00  0.00     0.234 C 
ATOM      5  O   UNL A   1      33.435  25.838  21.666  1.00  0.00    -0.274 OA
ATOM      6  H   UNL A   1      34.509  23.863  22.305  1.00  0.00     0.163 HD
BRANCH   4   7
ATOM      7  C   UNL A   1      32.537  26.042  23.905  1.00  0.00     0.120 C 
ATOM      8  C   UNL A   1      34.202  28.883  22.837  1.00  0.00     0.332 C 
ATOM      9  N   UNL A   1      33.157  28.546  23.794  1.00  0.00    -0.336 N 
ATOM     10  C   UNL A   1      33.643  28.547  25.169  1.00  0.00     0.262 C 
ATOM     11  C   UNL A   1      32.206  27.480  23.413  1.00  0.00     0.281 C 
ATOM     12  H   UNL A   1      32.504  29.328  23.752  1.00  0.00     0.347 HD
ATOM     13  C   UNL A   1      32.933  27.521  26.020  1.00  0.00     0.068 C 
ATOM     14  C   UNL A   1      33.081  26.132  25.391  1.00  0.00     0.037 C 
ATOM     15  C   UNL A   1      31.360  25.064  24.071  1.00  0.00     0.143 C 
ATOM     16  C   UNL A   1      32.263  25.162  26.244  1.00  0.00     0.125 C 
ATOM     17  N   UNL A   1      31.637  24.315  25.286  1.00  0.00    -0.336 N 
BRANCH  17  18
ATOM     18  C   UNL A   1      31.317  23.010  25.607  1.00  0.00     0.273 C 
ATOM     19  O   UNL A   1      30.697  22.725  26.629  1.00  0.00    -0.267 OA
BRANCH  18  20
ATOM     20  C   UNL A   1      31.824  21.957  24.723  1.00  0.00     0.139 A 
ATOM     21  C   UNL A   1      31.755  22.015  23.344  1.00  0.00     0.101 A 
ATOM     22  N   UNL A   1      32.281  20.733  25.228  1.00  0.00    -0.231 NA
ATOM     23  S   UNL A   1      32.289  20.541  22.660  1.00  0.00    -0.122 S 
ATOM     24  C   UNL A   1      32.507  19.892  24.240  1.00  0.00     0.124 A 
BRANCH  24  25
ATOM     25  C   UNL A   1      32.844  18.478  24.401  1.00  0.00     0.013 A 
ATOM     26  C   UNL A   1      33.546  17.811  23.392  1.00  0.00     0.031 A 
ATOM     27  C   UNL A   1      32.486  17.770  25.549  1.00  0.00     0.031 A 
ATOM     28  C   UNL A   1      33.879  16.481  23.586  1.00  0.00     0.111 A 
ATOM     29  C   UNL A   1      32.856  16.438  25.646  1.00  0.00     0.111 A 
ATOM     30  N   UNL A   1      33.552  15.781  24.693  1.00  0.00    -0.265 NA
ENDBRANCH  24  25
ENDBRANCH  18  20
ENDBRANCH  17  18
ENDBRANCH   4   7
ENDBRANCH   2   3
ENDBRANCH   1   2
BRANCH   1  31
ATOM     31  C   UNL A   1      35.819  22.042  25.842  1.00  0.00     0.118 C 
BRANCH  31  32
ATOM     32  N   UNL A   1      36.849  21.008  25.792  1.00  0.00    -0.352 N 
ATOM     33  C   UNL A   1      38.219  21.072  25.758  1.00  0.00     0.251 C 
ATOM     34  H   UNL A   1      36.492  20.091  25.781  1.00  0.00     0.163 HD
ATOM     35  O   UNL A   1      38.839  20.091  25.351  1.00  0.00    -0.269 OA
BRANCH  33  36
ATOM     36  C   UNL A   1      38.961  22.268  26.221  1.00  0.00     0.039 A 
ATOM     37  C   UNL A   1      40.019  22.103  27.123  1.00  0.00     0.014 A 
ATOM     38  C   UNL A   1      38.556  23.554  25.865  1.00  0.00     0.014 A 
ATOM     39  C   UNL A   1      40.698  23.219  27.624  1.00  0.00     0.010 A 
ATOM     40  C   UNL A   1      39.279  24.662  26.304  1.00  0.00     0.010 A 
ATOM     41  C   UNL A   1      40.351  24.509  27.195  1.00  0.00    -0.014 A 
BRANCH  41  42
ATOM     42  C   UNL A   1      41.096  25.711  27.654  1.00  0.00     0.031 A 
ATOM     43  C   UNL A   1      40.387  26.815  28.394  1.00  0.00     0.074 A 
ATOM     44  C   UNL A   1      42.387  25.862  27.300  1.00  0.00     0.049 A 
ATOM     45  N   UNL A   1      40.844  27.980  28.777  1.00  0.00    -0.248 NA
ATOM     46  C   UNL A   1      38.967  26.594  28.716  1.00  0.00     0.031 C 
ATOM     47  C   UNL A   1      43.160  24.907  26.504  1.00  0.00     0.029 A 
ATOM     48  N   UNL A   1      43.265  26.893  27.526  1.00  0.00    -0.354 N 
ATOM     49  C   UNL A   1      39.764  28.645  29.344  1.00  0.00     0.074 A 
ATOM     50  C   UNL A   1      38.619  27.768  29.222  1.00  0.00     0.031 C 
ATOM     51  C   UNL A   1      44.390  25.401  26.296  1.00  0.00     0.029 A 
ATOM     52  C   UNL A   1      44.486  26.718  26.917  1.00  0.00     0.049 A 
ATOM     53  H   UNL A   1      43.041  27.682  28.071  1.00  0.00     0.167 HD
ATOM     54  C   UNL A   1      39.731  29.861  29.942  1.00  0.00     0.034 A 
ATOM     55  C   UNL A   1      45.558  27.532  26.850  1.00  0.00     0.034 A 
ATOM     56  C   UNL A   1      40.881  30.711  30.097  1.00  0.00     0.049 A 
ATOM     57  C   UNL A   1      45.520  28.851  27.570  1.00  0.00     0.074 A 
ATOM     58  C   UNL A   1      40.978  31.917  30.768  1.00  0.00     0.029 A 
ATOM     59  N   UNL A   1      42.137  30.447  29.569  1.00  0.00    -0.354 N 
ATOM     60  N   UNL A   1      44.535  29.393  28.246  1.00  0.00    -0.248 NA
ATOM     61  C   UNL A   1      46.750  29.654  27.556  1.00  0.00     0.031 C 
ATOM     62  C   UNL A   1      42.287  32.392  30.629  1.00  0.00     0.029 A 
ATOM     63  C   UNL A   1      43.013  31.469  29.892  1.00  0.00     0.049 A 
ATOM     64  H   UNL A   1      42.370  29.649  29.042  1.00  0.00     0.167 HD
ATOM     65  C   UNL A   1      45.033  30.583  28.760  1.00  0.00     0.074 A 
ATOM     66  C   UNL A   1      46.416  30.672  28.337  1.00  0.00     0.031 C 
ATOM     67  C   UNL A   1      44.399  31.524  29.503  1.00  0.00     0.034 A 
BRANCH  54  68
ATOM     68  C   UNL A   1      38.414  30.317  30.520  1.00  0.00     0.023 A 
ATOM     69  C   UNL A   1      38.085  29.977  31.849  1.00  0.00     0.012 A 
ATOM     70  C   UNL A   1      37.518  31.103  29.770  1.00  0.00     0.148 A 
ATOM     71  C   UNL A   1      36.869  30.368  32.405  1.00  0.00     0.002 A 
ATOM     72  C   UNL A   1      36.326  31.530  30.348  1.00  0.00     0.091 A 
ATOM     73  F   UNL A   1      37.833  31.402  28.501  1.00  0.00    -0.205 F 
ATOM     74  C   UNL A   1      35.993  31.150  31.658  1.00  0.00     0.022 A 
BRANCH  72  75
ATOM     75  S   UNL A   1      35.170  32.608  29.494  1.00  0.00     0.127 S 
ATOM     76  O   UNL A   1      34.186  32.875  30.541  1.00  0.00    -0.237 OA
ATOM     77  O   UNL A   1      36.013  33.752  29.145  1.00  0.00    -0.237 OA
ATOM     78  O   UNL A   1      34.684  31.845  28.352  1.00  0.00    -0.744 OA
ENDBRANCH  72  75
ENDBRANCH  54  68
BRANCH  55  79
ATOM     79  C   UNL A   1      46.775  27.081  26.119  1.00  0.00     0.023 A 
ATOM     80  C   UNL A   1      46.901  27.359  24.744  1.00  0.00     0.012 A 
ATOM     81  C   UNL A   1      47.834  26.441  26.792  1.00  0.00     0.148 A 
ATOM     82  C   UNL A   1      48.050  26.984  24.047  1.00  0.00     0.002 A 
ATOM     83  C   UNL A   1      48.999  26.123  26.104  1.00  0.00     0.091 A 
ATOM     84  F   UNL A   1      47.690  26.180  28.098  1.00  0.00    -0.205 F 
ATOM     85  C   UNL A   1      49.103  26.378  24.728  1.00  0.00     0.022 A 
BRANCH  83  86
ATOM     86  S   UNL A   1      50.459  25.476  26.928  1.00  0.00     0.127 S 
ATOM     87  O   UNL A   1      51.372  25.274  25.806  1.00  0.00    -0.237 OA
ATOM     88  O   UNL A   1      50.814  26.579  27.821  1.00  0.00    -0.237 OA
ATOM     89  O   UNL A   1      50.021  24.268  27.613  1.00  0.00    -0.744 OA
ENDBRANCH  83  86
ENDBRANCH  55  79
BRANCH  67  90
ATOM     90  C   UNL A   1      45.197  32.727  29.934  1.00  0.00     0.023 A 
ATOM     91  C   UNL A   1      46.026  32.647  31.070  1.00  0.00     0.012 A 
ATOM     92  C   UNL A   1      45.183  33.911  29.170  1.00  0.00     0.148 A 
ATOM     93  C   UNL A   1      46.806  33.736  31.456  1.00  0.00     0.002 A 
ATOM     94  C   UNL A   1      45.999  34.975  29.533  1.00  0.00     0.091 A 
ATOM     95  F   UNL A   1      44.371  33.974  28.104  1.00  0.00    -0.205 F 
ATOM     96  C   UNL A   1      46.802  34.894  30.682  1.00  0.00     0.022 A 
BRANCH  94  97
ATOM     97  S   UNL A   1      46.130  36.468  28.542  1.00  0.00     0.127 S 
ATOM     98  O   UNL A   1      44.777  37.013  28.644  1.00  0.00    -0.237 OA
ATOM     99  O   UNL A   1      47.150  37.230  29.264  1.00  0.00    -0.237 OA
ATOM    100  O   UNL A   1      46.531  36.033  27.212  1.00  0.00    -0.744 OA
ENDBRANCH  94  97
ENDBRANCH  67  90
ENDBRANCH  41  42
ENDBRANCH  33  36
ENDBRANCH  31  32
ENDBRANCH   1  31
TORSDOF 16
ENDMDL
MODEL 3
REMARK VINA RESULT:     -12.9      4.254      9.686
REMARK SMILES C[N@@H+]1CC[C@H]2CN(C(=O)c3csc(-c4ccncc4)n3)C[C@@]2(C(=O)NCCCNC(=O)c2ccc(-c3c4nc(c(-c5cccc(S(=O)(=O)[O-])c5F)c5ccc([nH]5)c(-c5cccc(S(=O)(=O)[O-])c5F)c5nc(c(-c6cccc(S(=O)(=O)[O-])c6F)c6ccc3[nH]6)C=C5)C=C4)cc2)C1
REMARK SMILES IDX 27 1 26 2 25 3 23 4 24 5 22 7 1 8 2 9 3 10 95 11 4 13 5 14
REMARK SMILES IDX 21 15 6 16 7 17 8 18 9 19 10 20 11 21 20 22 12 23 13 24
REMARK SMILES IDX 14 25 15 26 19 27 16 28 18 29 17 30 28 31 29 32 30 33 31 35
REMARK SMILES IDX 32 36 33 37 94 38 34 39 93 40 35 41 36 42 37 43 87 44 38 45
REMARK SMILES IDX 92 46 86 47 88 48 39 49 91 50 85 51 84 52 40 54 72 55 52 56
REMARK SMILES IDX 71 57 53 58 56 59 70 60 89 61 54 62 55 63 69 65 90 66 57 67
REMARK SMILES IDX 41 68 42 69 50 70 43 71 45 72 51 73 44 74 46 75 47 76 48 77
REMARK SMILES IDX 49 78 73 79 74 80 82 81 75 82 77 83 83 84 76 85 78 86 79 87
REMARK SMILES IDX 80 88 81 89 58 90 59 91 67 92 60 93 62 94 68 95 61 96 63 97
REMARK SMILES IDX 64 98 65 99 66 100
REMARK H PARENT 25 6 2 12 29 34 88 53 56 64
REMARK Flexibility Score: inf
ROOT
ATOM      1  C   UNL A   1      36.060  23.081  24.282  1.00  0.00     0.042 C 
ENDROOT
BRANCH   1   2
ATOM      2  C   UNL A   1      34.779  23.818  23.877  1.00  0.00     0.117 C 
BRANCH   2   3
ATOM      3  N   UNL A   1      34.658  25.243  24.214  1.00  0.00    -0.355 N 
ATOM      4  C   UNL A   1      33.621  26.073  24.584  1.00  0.00     0.234 C 
ATOM      5  O   UNL A   1      33.947  27.069  25.242  1.00  0.00    -0.274 OA
ATOM      6  H   UNL A   1      35.520  25.717  24.163  1.00  0.00     0.163 HD
BRANCH   4   7
ATOM      7  C   UNL A   1      32.181  25.916  24.053  1.00  0.00     0.120 C 
ATOM      8  C   UNL A   1      33.254  28.799  22.467  1.00  0.00     0.332 C 
ATOM      9  N   UNL A   1      32.046  27.986  22.516  1.00  0.00    -0.336 N 
ATOM     10  C   UNL A   1      31.000  28.595  23.329  1.00  0.00     0.262 C 
ATOM     11  C   UNL A   1      32.220  26.521  22.621  1.00  0.00     0.281 C 
ATOM     12  H   UNL A   1      31.678  28.008  21.565  1.00  0.00     0.347 HD
ATOM     13  C   UNL A   1      30.151  27.559  24.026  1.00  0.00     0.068 C 
ATOM     14  C   UNL A   1      31.040  26.646  24.877  1.00  0.00     0.037 C 
ATOM     15  C   UNL A   1      31.756  24.443  24.186  1.00  0.00     0.143 C 
ATOM     16  C   UNL A   1      30.137  25.567  25.475  1.00  0.00     0.125 C 
ATOM     17  N   UNL A   1      30.915  24.379  25.370  1.00  0.00    -0.336 N 
BRANCH  17  18
ATOM     18  C   UNL A   1      30.750  23.350  26.278  1.00  0.00     0.273 C 
ATOM     19  O   UNL A   1      29.885  23.386  27.151  1.00  0.00    -0.267 OA
BRANCH  18  20
ATOM     20  C   UNL A   1      31.708  22.244  26.221  1.00  0.00     0.139 A 
ATOM     21  C   UNL A   1      32.886  22.213  26.943  1.00  0.00     0.101 A 
ATOM     22  N   UNL A   1      31.568  21.199  25.299  1.00  0.00    -0.231 NA
ATOM     23  S   UNL A   1      33.822  20.853  26.494  1.00  0.00    -0.122 S 
ATOM     24  C   UNL A   1      32.639  20.434  25.314  1.00  0.00     0.124 A 
BRANCH  24  25
ATOM     25  C   UNL A   1      32.906  19.342  24.378  1.00  0.00     0.013 A 
ATOM     26  C   UNL A   1      33.961  18.458  24.624  1.00  0.00     0.031 A 
ATOM     27  C   UNL A   1      32.125  19.154  23.237  1.00  0.00     0.031 A 
ATOM     28  C   UNL A   1      34.170  17.415  23.738  1.00  0.00     0.111 A 
ATOM     29  C   UNL A   1      32.420  18.087  22.405  1.00  0.00     0.111 A 
ATOM     30  N   UNL A   1      33.420  17.208  22.635  1.00  0.00    -0.265 NA
ENDBRANCH  24  25
ENDBRANCH  18  20
ENDBRANCH  17  18
ENDBRANCH   4   7
ENDBRANCH   2   3
ENDBRANCH   1   2
BRANCH   1  31
ATOM     31  C   UNL A   1      36.481  23.270  25.744  1.00  0.00     0.118 C 
BRANCH  31  32
ATOM     32  N   UNL A   1      37.602  22.412  26.118  1.00  0.00    -0.352 N 
ATOM     33  C   UNL A   1      38.914  22.684  26.413  1.00  0.00     0.251 C 
ATOM     34  H   UNL A   1      37.372  21.456  26.167  1.00  0.00     0.163 HD
ATOM     35  O   UNL A   1      39.732  21.768  26.335  1.00  0.00    -0.269 OA
BRANCH  33  36
ATOM     36  C   UNL A   1      39.358  24.029  26.844  1.00  0.00     0.039 A 
ATOM     37  C   UNL A   1      39.966  24.876  25.908  1.00  0.00     0.014 A 
ATOM     38  C   UNL A   1      39.285  24.423  28.180  1.00  0.00     0.014 A 
ATOM     39  C   UNL A   1      40.450  26.128  26.301  1.00  0.00     0.010 A 
ATOM     40  C   UNL A   1      39.699  25.699  28.558  1.00  0.00     0.010 A 
ATOM     41  C   UNL A   1      40.295  26.562  27.627  1.00  0.00    -0.014 A 
BRANCH  41  42
ATOM     42  C   UNL A   1      40.736  27.913  28.062  1.00  0.00     0.031 A 
ATOM     43  C   UNL A   1      42.201  28.253  28.136  1.00  0.00     0.074 A 
ATOM     44  C   UNL A   1      39.819  28.796  28.504  1.00  0.00     0.049 A 
ATOM     45  N   UNL A   1      42.777  29.337  28.591  1.00  0.00    -0.248 NA
ATOM     46  C   UNL A   1      43.146  27.226  27.668  1.00  0.00     0.031 C 
ATOM     47  C   UNL A   1      38.377  28.552  28.570  1.00  0.00     0.029 A 
ATOM     48  N   UNL A   1      39.966  30.059  29.021  1.00  0.00    -0.354 N 
ATOM     49  C   UNL A   1      44.144  29.107  28.504  1.00  0.00     0.074 A 
ATOM     50  C   UNL A   1      44.313  27.766  27.988  1.00  0.00     0.031 C 
ATOM     51  C   UNL A   1      37.774  29.622  29.110  1.00  0.00     0.029 A 
ATOM     52  C   UNL A   1      38.785  30.617  29.454  1.00  0.00     0.049 A 
ATOM     53  H   UNL A   1      40.834  30.522  29.077  1.00  0.00     0.167 HD
ATOM     54  C   UNL A   1      45.169  29.945  28.797  1.00  0.00     0.034 A 
ATOM     55  C   UNL A   1      38.542  31.788  30.075  1.00  0.00     0.034 A 
ATOM     56  C   UNL A   1      44.995  31.292  29.272  1.00  0.00     0.049 A 
ATOM     57  C   UNL A   1      39.687  32.726  30.336  1.00  0.00     0.074 A 
ATOM     58  C   UNL A   1      45.960  32.254  29.507  1.00  0.00     0.029 A 
ATOM     59  N   UNL A   1      43.773  31.867  29.587  1.00  0.00    -0.354 N 
ATOM     60  N   UNL A   1      40.964  32.556  30.093  1.00  0.00    -0.248 NA
ATOM     61  C   UNL A   1      39.357  34.035  30.917  1.00  0.00     0.031 C 
ATOM     62  C   UNL A   1      45.323  33.406  29.986  1.00  0.00     0.029 A 
ATOM     63  C   UNL A   1      43.958  33.168  30.023  1.00  0.00     0.049 A 
ATOM     64  H   UNL A   1      42.901  31.416  29.512  1.00  0.00     0.167 HD
ATOM     65  C   UNL A   1      41.586  33.742  30.464  1.00  0.00     0.074 A 
ATOM     66  C   UNL A   1      40.541  34.632  30.926  1.00  0.00     0.031 C 
ATOM     67  C   UNL A   1      42.904  34.059  30.438  1.00  0.00     0.034 A 
BRANCH  54  68
ATOM     68  C   UNL A   1      46.570  29.440  28.558  1.00  0.00     0.023 A 
ATOM     69  C   UNL A   1      47.204  29.708  27.326  1.00  0.00     0.012 A 
ATOM     70  C   UNL A   1      47.274  28.733  29.553  1.00  0.00     0.148 A 
ATOM     71  C   UNL A   1      48.491  29.240  27.069  1.00  0.00     0.002 A 
ATOM     72  C   UNL A   1      48.576  28.309  29.306  1.00  0.00     0.091 A 
ATOM     73  F   UNL A   1      46.653  28.467  30.711  1.00  0.00    -0.205 F 
ATOM     74  C   UNL A   1      49.180  28.548  28.061  1.00  0.00     0.022 A 
BRANCH  72  75
ATOM     75  S   UNL A   1      49.574  27.481  30.550  1.00  0.00     0.127 S 
ATOM     76  O   UNL A   1      48.871  26.207  30.692  1.00  0.00    -0.237 OA
ATOM     77  O   UNL A   1      50.876  27.387  29.890  1.00  0.00    -0.237 OA
ATOM     78  O   UNL A   1      49.550  28.348  31.720  1.00  0.00    -0.744 OA
ENDBRANCH  72  75
ENDBRANCH  54  68
BRANCH  55  79
ATOM     79  C   UNL A   1      37.143  32.152  30.430  1.00  0.00     0.023 A 
ATOM     80  C   UNL A   1      36.684  31.942  31.745  1.00  0.00     0.012 A 
ATOM     81  C   UNL A   1      36.289  32.766  29.492  1.00  0.00     0.148 A 
ATOM     82  C   UNL A   1      35.390  32.314  32.113  1.00  0.00     0.002 A 
ATOM     83  C   UNL A   1      35.023  33.187  29.883  1.00  0.00     0.091 A 
ATOM     84  F   UNL A   1      36.743  32.950  28.246  1.00  0.00    -0.205 F 
ATOM     85  C   UNL A   1      34.565  32.947  31.187  1.00  0.00     0.022 A 
BRANCH  83  86
ATOM     86  S   UNL A   1      33.949  34.139  28.801  1.00  0.00     0.127 S 
ATOM     87  O   UNL A   1      34.850  35.189  28.333  1.00  0.00    -0.237 OA
ATOM     88  O   UNL A   1      33.581  33.145  27.792  1.00  0.00    -0.237 OA
ATOM     89  O   UNL A   1      32.841  34.581  29.637  1.00  0.00    -0.744 OA
ENDBRANCH  83  86
ENDBRANCH  55  79
BRANCH  67  90
ATOM     90  C   UNL A   1      43.299  35.439  30.898  1.00  0.00     0.023 A 
ATOM     91  C   UNL A   1      43.655  35.652  32.244  1.00  0.00     0.012 A 
ATOM     92  C   UNL A   1      43.391  36.504  29.980  1.00  0.00     0.148 A 
ATOM     93  C   UNL A   1      44.067  36.912  32.676  1.00  0.00     0.002 A 
ATOM     94  C   UNL A   1      43.849  37.744  30.407  1.00  0.00     0.091 A 
ATOM     95  F   UNL A   1      43.028  36.285  28.707  1.00  0.00    -0.205 F 
ATOM     96  C   UNL A   1      44.177  37.953  31.757  1.00  0.00     0.022 A 
BRANCH  94  97
ATOM     97  S   UNL A   1      44.112  39.114  29.276  1.00  0.00     0.127 S 
ATOM     98  O   UNL A   1      42.755  39.370  28.797  1.00  0.00    -0.237 OA
ATOM     99  O   UNL A   1      44.651  40.148  30.161  1.00  0.00    -0.237 OA
ATOM    100  O   UNL A   1      45.050  38.632  28.272  1.00  0.00    -0.744 OA
ENDBRANCH  94  97
ENDBRANCH  67  90
ENDBRANCH  41  42
ENDBRANCH  33  36
ENDBRANCH  31  32
ENDBRANCH   1  31
TORSDOF 16
ENDMDL
