MODEL 1
REMARK VINA RESULT:     -11.2      0.000      0.000
REMARK SMILES CC[NH2+][C@]1(C(=O)NCCCNC(=O)c2ccc(-c3c4nc(c(-c5cccc(S(=O)(=O)[O-])c5F)c5ccc([nH]5)c(-c5cccc(S(=O)(=O)[O-])c5F)c5nc(c(-c6cccc(S(=O)(=O)[O-])c6F)c6ccc3[nH]6)C=C5)C=C4)cc2)CC[C@@H](Sc2ccc(OC)cc2)C1
REMARK SMILES IDX 9 1 8 2 7 3 5 4 6 5 4 7 77 8 89 9 78 10 79 11 3 12 2 15 1 16
REMARK SMILES IDX 80 17 81 18 82 19 88 20 83 21 87 22 84 23 85 24 86 25 10 26
REMARK SMILES IDX 11 27 12 28 13 30 14 31 15 32 76 33 16 34 75 35 17 36 18 37
REMARK SMILES IDX 19 38 69 39 20 40 74 41 68 42 70 43 21 44 73 45 67 46 66 47
REMARK SMILES IDX 22 49 54 50 34 51 53 52 35 53 38 54 52 55 71 56 36 57 37 58
REMARK SMILES IDX 51 60 72 61 39 62 23 63 24 64 32 65 25 66 27 67 33 68 26 69
REMARK SMILES IDX 28 70 29 71 30 72 31 73 55 74 56 75 64 76 57 77 59 78 65 79
REMARK SMILES IDX 58 80 60 81 61 82 62 83 63 84 40 85 41 86 49 87 42 88 44 89
REMARK SMILES IDX 50 90 43 91 45 92 46 93 47 94 48 95
REMARK H PARENT 7 6 3 13 3 14 11 29 70 48 38 59
REMARK Flexibility Score: inf
ROOT
ATOM      1  C   UNL A   1      35.644  23.261  26.465  1.00  0.00     0.042 C 
ENDROOT
BRANCH   1   2
ATOM      2  C   UNL A   1      34.362  22.697  25.899  1.00  0.00     0.118 C 
BRANCH   2   3
ATOM      3  N   UNL A   1      33.184  22.972  26.678  1.00  0.00    -0.351 N 
ATOM      4  C   UNL A   1      32.243  23.940  26.490  1.00  0.00     0.281 C 
ATOM      5  O   UNL A   1      31.347  23.974  27.344  1.00  0.00    -0.268 OA
ATOM      6  H   UNL A   1      33.039  22.381  27.452  1.00  0.00     0.163 HD
BRANCH   4   7
ATOM      7  C   UNL A   1      32.203  24.865  25.220  1.00  0.00     0.176 C 
ATOM      8  C   UNL A   1      31.691  24.047  24.021  1.00  0.00     0.080 C 
ATOM      9  C   UNL A   1      31.053  25.894  25.380  1.00  0.00     0.094 C 
ATOM     10  C   UNL A   1      31.100  25.072  23.060  1.00  0.00     0.022 C 
ATOM     11  C   UNL A   1      30.578  26.201  23.956  1.00  0.00     0.058 C 
BRANCH   7  12
ATOM     12  N   UNL A   1      33.412  25.702  25.011  1.00  0.00    -0.334 N 
ATOM     13  H   UNL A   1      34.213  25.069  25.000  1.00  0.00     0.347 HD
ATOM     14  H   UNL A   1      33.215  26.204  24.146  1.00  0.00     0.347 HD
BRANCH  12  15
ATOM     15  C   UNL A   1      33.717  26.760  25.968  1.00  0.00     0.257 C 
ATOM     16  C   UNL A   1      33.865  28.125  25.292  1.00  0.00     0.071 C 
ENDBRANCH  12  15
ENDBRANCH   7  12
BRANCH  11  17
ATOM     17  S   UNL A   1      28.771  26.532  23.841  1.00  0.00    -0.122 SA
BRANCH  17  18
ATOM     18  C   UNL A   1      28.713  28.158  23.109  1.00  0.00     0.008 A 
ATOM     19  C   UNL A   1      29.869  28.686  22.528  1.00  0.00     0.019 A 
ATOM     20  C   UNL A   1      27.564  28.949  23.161  1.00  0.00     0.019 A 
ATOM     21  C   UNL A   1      29.858  29.972  21.977  1.00  0.00     0.047 A 
ATOM     22  C   UNL A   1      27.549  30.230  22.596  1.00  0.00     0.047 A 
ATOM     23  C   UNL A   1      28.699  30.749  22.005  1.00  0.00     0.118 A 
BRANCH  23  24
ATOM     24  O   UNL A   1      28.823  31.989  21.442  1.00  0.00    -0.497 OA
ATOM     25  C   UNL A   1      27.981  32.270  20.329  1.00  0.00     0.278 C 
ENDBRANCH  23  24
ENDBRANCH  17  18
ENDBRANCH  11  17
ENDBRANCH   4   7
ENDBRANCH   2   3
ENDBRANCH   1   2
BRANCH   1  26
ATOM     26  C   UNL A   1      36.775  23.274  25.463  1.00  0.00     0.118 C 
BRANCH  26  27
ATOM     27  N   UNL A   1      37.899  22.434  25.876  1.00  0.00    -0.352 N 
ATOM     28  C   UNL A   1      39.120  22.754  26.425  1.00  0.00     0.251 C 
ATOM     29  H   UNL A   1      37.758  21.470  25.735  1.00  0.00     0.163 HD
ATOM     30  O   UNL A   1      40.000  21.895  26.476  1.00  0.00    -0.269 OA
BRANCH  28  31
ATOM     31  C   UNL A   1      39.387  24.118  26.927  1.00  0.00     0.039 A 
ATOM     32  C   UNL A   1      39.104  24.447  28.256  1.00  0.00     0.014 A 
ATOM     33  C   UNL A   1      39.921  25.086  26.079  1.00  0.00     0.014 A 
ATOM     34  C   UNL A   1      39.442  25.712  28.743  1.00  0.00     0.010 A 
ATOM     35  C   UNL A   1      40.409  26.270  26.603  1.00  0.00     0.010 A 
ATOM     36  C   UNL A   1      40.146  26.618  27.933  1.00  0.00    -0.014 A 
BRANCH  36  37
ATOM     37  C   UNL A   1      40.592  27.948  28.422  1.00  0.00     0.031 A 
ATOM     38  C   UNL A   1      42.066  28.236  28.571  1.00  0.00     0.074 A 
ATOM     39  C   UNL A   1      39.681  28.848  28.841  1.00  0.00     0.049 A 
ATOM     40  N   UNL A   1      42.654  29.283  29.088  1.00  0.00    -0.248 NA
ATOM     41  C   UNL A   1      43.003  27.186  28.132  1.00  0.00     0.031 C 
ATOM     42  C   UNL A   1      38.230  28.649  28.845  1.00  0.00     0.029 A 
ATOM     43  N   UNL A   1      39.843  30.102  29.375  1.00  0.00    -0.354 N 
ATOM     44  C   UNL A   1      44.014  28.992  29.086  1.00  0.00     0.074 A 
ATOM     45  C   UNL A   1      44.160  27.649  28.576  1.00  0.00     0.031 C 
ATOM     46  C   UNL A   1      37.635  29.747  29.335  1.00  0.00     0.029 A 
ATOM     47  C   UNL A   1      38.660  30.711  29.721  1.00  0.00     0.049 A 
ATOM     48  H   UNL A   1      40.724  30.525  29.499  1.00  0.00     0.167 HD
ATOM     49  C   UNL A   1      45.056  29.783  29.436  1.00  0.00     0.034 A 
ATOM     50  C   UNL A   1      38.426  31.907  30.295  1.00  0.00     0.034 A 
ATOM     51  C   UNL A   1      44.906  31.140  29.883  1.00  0.00     0.049 A 
ATOM     52  C   UNL A   1      39.594  32.798  30.617  1.00  0.00     0.074 A 
ATOM     53  C   UNL A   1      45.892  32.068  30.160  1.00  0.00     0.029 A 
ATOM     54  N   UNL A   1      43.689  31.760  30.124  1.00  0.00    -0.354 N 
ATOM     55  N   UNL A   1      40.876  32.565  30.458  1.00  0.00    -0.248 NA
ATOM     56  C   UNL A   1      39.288  34.126  31.162  1.00  0.00     0.031 C 
ATOM     57  C   UNL A   1      45.270  33.242  30.602  1.00  0.00     0.029 A 
ATOM     58  C   UNL A   1      43.897  33.056  30.560  1.00  0.00     0.049 A 
ATOM     59  H   UNL A   1      42.807  31.339  30.002  1.00  0.00     0.167 HD
ATOM     60  C   UNL A   1      41.526  33.729  30.850  1.00  0.00     0.074 A 
ATOM     61  C   UNL A   1      40.494  34.671  31.235  1.00  0.00     0.031 C 
ATOM     62  C   UNL A   1      42.855  33.992  30.898  1.00  0.00     0.034 A 
BRANCH  49  63
ATOM     63  C   UNL A   1      46.445  29.210  29.299  1.00  0.00     0.023 A 
ATOM     64  C   UNL A   1      47.001  28.455  30.353  1.00  0.00     0.012 A 
ATOM     65  C   UNL A   1      47.192  29.398  28.120  1.00  0.00     0.148 A 
ATOM     66  C   UNL A   1      48.295  27.945  30.260  1.00  0.00     0.002 A 
ATOM     67  C   UNL A   1      48.460  28.838  28.013  1.00  0.00     0.091 A 
ATOM     68  F   UNL A   1      46.660  30.135  27.135  1.00  0.00    -0.205 F 
ATOM     69  C   UNL A   1      49.020  28.128  29.087  1.00  0.00     0.022 A 
BRANCH  67  70
ATOM     70  S   UNL A   1      49.441  28.944  26.512  1.00  0.00     0.127 S 
ATOM     71  O   UNL A   1      48.502  28.439  25.510  1.00  0.00    -0.237 OA
ATOM     72  O   UNL A   1      49.712  30.379  26.424  1.00  0.00    -0.237 OA
ATOM     73  O   UNL A   1      50.616  28.116  26.740  1.00  0.00    -0.744 OA
ENDBRANCH  67  70
ENDBRANCH  49  63
BRANCH  50  74
ATOM     74  C   UNL A   1      37.025  32.352  30.532  1.00  0.00     0.023 A 
ATOM     75  C   UNL A   1      36.470  32.239  31.822  1.00  0.00     0.012 A 
ATOM     76  C   UNL A   1      36.259  32.935  29.505  1.00  0.00     0.148 A 
ATOM     77  C   UNL A   1      35.168  32.672  32.078  1.00  0.00     0.002 A 
ATOM     78  C   UNL A   1      34.984  33.417  29.779  1.00  0.00     0.091 A 
ATOM     79  F   UNL A   1      36.804  33.031  28.284  1.00  0.00    -0.205 F 
ATOM     80  C   UNL A   1      34.430  33.270  31.060  1.00  0.00     0.022 A 
BRANCH  78  81
ATOM     81  S   UNL A   1      34.013  34.323  28.571  1.00  0.00     0.127 S 
ATOM     82  O   UNL A   1      32.777  34.574  29.308  1.00  0.00    -0.237 OA
ATOM     83  O   UNL A   1      34.846  35.504  28.343  1.00  0.00    -0.237 OA
ATOM     84  O   UNL A   1      33.891  33.441  27.418  1.00  0.00    -0.744 OA
ENDBRANCH  78  81
ENDBRANCH  50  74
BRANCH  62  85
ATOM     85  C   UNL A   1      43.279  35.366  31.345  1.00  0.00     0.023 A 
ATOM     86  C   UNL A   1      43.526  35.620  32.709  1.00  0.00     0.012 A 
ATOM     87  C   UNL A   1      43.509  36.383  30.397  1.00  0.00     0.148 A 
ATOM     88  C   UNL A   1      43.962  36.877  33.126  1.00  0.00     0.002 A 
ATOM     89  C   UNL A   1      43.996  37.615  30.815  1.00  0.00     0.091 A 
ATOM     90  F   UNL A   1      43.253  36.125  29.107  1.00  0.00    -0.205 F 
ATOM     91  C   UNL A   1      44.209  37.868  32.179  1.00  0.00     0.022 A 
BRANCH  89  92
ATOM     92  S   UNL A   1      44.440  38.915  29.659  1.00  0.00     0.127 S 
ATOM     93  O   UNL A   1      43.135  39.299  29.126  1.00  0.00    -0.237 OA
ATOM     94  O   UNL A   1      45.059  39.910  30.536  1.00  0.00    -0.237 OA
ATOM     95  O   UNL A   1      45.351  38.307  28.698  1.00  0.00    -0.744 OA
ENDBRANCH  89  92
ENDBRANCH  62  85
ENDBRANCH  36  37
ENDBRANCH  28  31
ENDBRANCH  26  27
ENDBRANCH   1  26
TORSDOF 18
ENDMDL
MODEL 2
REMARK VINA RESULT:     -10.9      4.765      9.354
REMARK SMILES CC[NH2+][C@]1(C(=O)NCCCNC(=O)c2ccc(-c3c4nc(c(-c5cccc(S(=O)(=O)[O-])c5F)c5ccc([nH]5)c(-c5cccc(S(=O)(=O)[O-])c5F)c5nc(c(-c6cccc(S(=O)(=O)[O-])c6F)c6ccc3[nH]6)C=C5)C=C4)cc2)CC[C@@H](Sc2ccc(OC)cc2)C1
REMARK SMILES IDX 9 1 8 2 7 3 5 4 6 5 4 7 77 8 89 9 78 10 79 11 3 12 2 15 1 16
REMARK SMILES IDX 80 17 81 18 82 19 88 20 83 21 87 22 84 23 85 24 86 25 10 26
REMARK SMILES IDX 11 27 12 28 13 30 14 31 15 32 76 33 16 34 75 35 17 36 18 37
REMARK SMILES IDX 19 38 69 39 20 40 74 41 68 42 70 43 21 44 73 45 67 46 66 47
REMARK SMILES IDX 22 49 54 50 34 51 53 52 35 53 38 54 52 55 71 56 36 57 37 58
REMARK SMILES IDX 51 60 72 61 39 62 23 63 24 64 32 65 25 66 27 67 33 68 26 69
REMARK SMILES IDX 28 70 29 71 30 72 31 73 55 74 56 75 64 76 57 77 59 78 65 79
REMARK SMILES IDX 58 80 60 81 61 82 62 83 63 84 40 85 41 86 49 87 42 88 44 89
REMARK SMILES IDX 50 90 43 91 45 92 46 93 47 94 48 95
REMARK H PARENT 7 6 3 13 3 14 11 29 70 48 38 59
REMARK Flexibility Score: inf
ROOT
ATOM      1  C   UNL A   1      31.745  28.843  26.578  1.00  0.00     0.042 C 
ENDROOT
BRANCH   1   2
ATOM      2  C   UNL A   1      32.108  27.383  26.442  1.00  0.00     0.118 C 
BRANCH   2   3
ATOM      3  N   UNL A   1      31.057  26.463  26.786  1.00  0.00    -0.351 N 
ATOM      4  C   UNL A   1      30.952  25.137  26.487  1.00  0.00     0.281 C 
ATOM      5  O   UNL A   1      29.910  24.592  26.878  1.00  0.00    -0.268 OA
ATOM      6  H   UNL A   1      30.313  26.843  27.308  1.00  0.00     0.163 HD
BRANCH   4   7
ATOM      7  C   UNL A   1      32.109  24.311  25.817  1.00  0.00     0.176 C 
ATOM      8  C   UNL A   1      31.497  23.317  24.813  1.00  0.00     0.080 C 
ATOM      9  C   UNL A   1      32.903  25.237  24.859  1.00  0.00     0.094 C 
ATOM     10  C   UNL A   1      32.606  23.032  23.807  1.00  0.00     0.022 C 
ATOM     11  C   UNL A   1      33.433  24.322  23.751  1.00  0.00     0.058 C 
BRANCH   7  12
ATOM     12  N   UNL A   1      33.136  23.791  26.755  1.00  0.00    -0.334 N 
ATOM     13  H   UNL A   1      33.964  23.574  26.200  1.00  0.00     0.347 HD
ATOM     14  H   UNL A   1      33.231  24.532  27.449  1.00  0.00     0.347 HD
BRANCH  12  15
ATOM     15  C   UNL A   1      32.833  22.606  27.551  1.00  0.00     0.257 C 
ATOM     16  C   UNL A   1      33.784  21.446  27.245  1.00  0.00     0.071 C 
ENDBRANCH  12  15
ENDBRANCH   7  12
BRANCH  11  17
ATOM     17  S   UNL A   1      33.516  25.138  22.103  1.00  0.00    -0.122 SA
BRANCH  17  18
ATOM     18  C   UNL A   1      32.551  26.618  22.347  1.00  0.00     0.008 A 
ATOM     19  C   UNL A   1      31.157  26.525  22.385  1.00  0.00     0.019 A 
ATOM     20  C   UNL A   1      33.144  27.879  22.432  1.00  0.00     0.019 A 
ATOM     21  C   UNL A   1      30.377  27.676  22.542  1.00  0.00     0.047 A 
ATOM     22  C   UNL A   1      32.363  29.028  22.605  1.00  0.00     0.047 A 
ATOM     23  C   UNL A   1      30.974  28.932  22.656  1.00  0.00     0.118 A 
BRANCH  23  24
ATOM     24  O   UNL A   1      30.102  29.975  22.796  1.00  0.00    -0.497 OA
ATOM     25  C   UNL A   1      28.734  29.639  22.994  1.00  0.00     0.278 C 
ENDBRANCH  23  24
ENDBRANCH  17  18
ENDBRANCH  11  17
ENDBRANCH   4   7
ENDBRANCH   2   3
ENDBRANCH   1   2
BRANCH   1  26
ATOM     26  C   UNL A   1      32.742  29.763  25.914  1.00  0.00     0.118 C 
BRANCH  26  27
ATOM     27  N   UNL A   1      32.594  31.153  26.342  1.00  0.00    -0.352 N 
ATOM     28  C   UNL A   1      33.287  31.898  27.269  1.00  0.00     0.251 C 
ATOM     29  H   UNL A   1      31.870  31.643  25.889  1.00  0.00     0.163 HD
ATOM     30  O   UNL A   1      32.833  32.985  27.629  1.00  0.00    -0.269 OA
BRANCH  28  31
ATOM     31  C   UNL A   1      34.549  31.394  27.850  1.00  0.00     0.039 A 
ATOM     32  C   UNL A   1      35.630  32.260  28.040  1.00  0.00     0.014 A 
ATOM     33  C   UNL A   1      34.671  30.055  28.211  1.00  0.00     0.014 A 
ATOM     34  C   UNL A   1      36.788  31.794  28.670  1.00  0.00     0.010 A 
ATOM     35  C   UNL A   1      35.742  29.642  28.985  1.00  0.00     0.010 A 
ATOM     36  C   UNL A   1      36.833  30.492  29.196  1.00  0.00    -0.014 A 
BRANCH  36  37
ATOM     37  C   UNL A   1      38.009  29.969  29.937  1.00  0.00     0.031 A 
ATOM     38  C   UNL A   1      38.272  30.433  31.349  1.00  0.00     0.074 A 
ATOM     39  C   UNL A   1      38.901  29.179  29.308  1.00  0.00     0.049 A 
ATOM     40  N   UNL A   1      39.299  30.188  32.120  1.00  0.00    -0.248 NA
ATOM     41  C   UNL A   1      37.275  31.333  31.957  1.00  0.00     0.031 C 
ATOM     42  C   UNL A   1      38.813  28.745  27.911  1.00  0.00     0.029 A 
ATOM     43  N   UNL A   1      40.073  28.623  29.753  1.00  0.00    -0.354 N 
ATOM     44  C   UNL A   1      39.098  30.945  33.269  1.00  0.00     0.074 A 
ATOM     45  C   UNL A   1      37.885  31.703  33.071  1.00  0.00     0.031 C 
ATOM     46  C   UNL A   1      39.873  27.975  27.621  1.00  0.00     0.029 A 
ATOM     47  C   UNL A   1      40.737  27.895  28.793  1.00  0.00     0.049 A 
ATOM     48  H   UNL A   1      40.408  28.735  30.672  1.00  0.00     0.167 HD
ATOM     49  C   UNL A   1      39.830  30.978  34.408  1.00  0.00     0.034 A 
ATOM     50  C   UNL A   1      41.916  27.244  28.848  1.00  0.00     0.034 A 
ATOM     51  C   UNL A   1      41.000  30.174  34.621  1.00  0.00     0.049 A 
ATOM     52  C   UNL A   1      42.682  27.240  30.142  1.00  0.00     0.074 A 
ATOM     53  C   UNL A   1      41.757  30.043  35.771  1.00  0.00     0.029 A 
ATOM     54  N   UNL A   1      41.588  29.366  33.659  1.00  0.00    -0.354 N 
ATOM     55  N   UNL A   1      42.391  27.835  31.274  1.00  0.00    -0.248 NA
ATOM     56  C   UNL A   1      43.917  26.447  30.181  1.00  0.00     0.031 C 
ATOM     57  C   UNL A   1      42.823  29.181  35.492  1.00  0.00     0.029 A 
ATOM     58  C   UNL A   1      42.706  28.743  34.182  1.00  0.00     0.049 A 
ATOM     59  H   UNL A   1      41.256  29.253  32.738  1.00  0.00     0.167 HD
ATOM     60  C   UNL A   1      43.387  27.462  32.169  1.00  0.00     0.074 A 
ATOM     61  C   UNL A   1      44.278  26.573  31.450  1.00  0.00     0.031 C 
ATOM     62  C   UNL A   1      43.556  27.828  33.463  1.00  0.00     0.034 A 
BRANCH  49  63
ATOM     63  C   UNL A   1      39.351  31.878  35.520  1.00  0.00     0.023 A 
ATOM     64  C   UNL A   1      38.415  31.396  36.460  1.00  0.00     0.012 A 
ATOM     65  C   UNL A   1      39.843  33.191  35.651  1.00  0.00     0.148 A 
ATOM     66  C   UNL A   1      37.934  32.222  37.475  1.00  0.00     0.002 A 
ATOM     67  C   UNL A   1      39.401  33.990  36.699  1.00  0.00     0.091 A 
ATOM     68  F   UNL A   1      40.714  33.642  34.739  1.00  0.00    -0.205 F 
ATOM     69  C   UNL A   1      38.434  33.514  37.600  1.00  0.00     0.022 A 
BRANCH  67  70
ATOM     70  S   UNL A   1      40.047  35.638  36.998  1.00  0.00     0.127 S 
ATOM     71  O   UNL A   1      39.393  35.987  38.260  1.00  0.00    -0.237 OA
ATOM     72  O   UNL A   1      41.484  35.390  37.105  1.00  0.00    -0.237 OA
ATOM     73  O   UNL A   1      39.652  36.439  35.849  1.00  0.00    -0.744 OA
ENDBRANCH  67  70
ENDBRANCH  49  63
BRANCH  50  74
ATOM     74  C   UNL A   1      42.400  26.488  27.659  1.00  0.00     0.023 A 
ATOM     75  C   UNL A   1      43.255  27.121  26.737  1.00  0.00     0.012 A 
ATOM     76  C   UNL A   1      42.062  25.136  27.466  1.00  0.00     0.148 A 
ATOM     77  C   UNL A   1      43.744  26.428  25.628  1.00  0.00     0.002 A 
ATOM     78  C   UNL A   1      42.596  24.435  26.391  1.00  0.00     0.091 A 
ATOM     79  F   UNL A   1      41.244  24.553  28.354  1.00  0.00    -0.205 F 
ATOM     80  C   UNL A   1      43.423  25.084  25.461  1.00  0.00     0.022 A 
BRANCH  78  81
ATOM     81  S   UNL A   1      42.352  22.670  26.171  1.00  0.00     0.127 S 
ATOM     82  O   UNL A   1      43.058  22.424  24.916  1.00  0.00    -0.237 OA
ATOM     83  O   UNL A   1      43.005  22.126  27.363  1.00  0.00    -0.237 OA
ATOM     84  O   UNL A   1      40.910  22.471  26.131  1.00  0.00    -0.744 OA
ENDBRANCH  78  81
ENDBRANCH  50  74
BRANCH  62  85
ATOM     85  C   UNL A   1      44.726  27.242  34.208  1.00  0.00     0.023 A 
ATOM     86  C   UNL A   1      45.971  27.900  34.197  1.00  0.00     0.012 A 
ATOM     87  C   UNL A   1      44.563  26.077  34.984  1.00  0.00     0.148 A 
ATOM     88  C   UNL A   1      47.048  27.387  34.920  1.00  0.00     0.002 A 
ATOM     89  C   UNL A   1      45.624  25.604  35.745  1.00  0.00     0.091 A 
ATOM     90  F   UNL A   1      43.374  25.458  34.967  1.00  0.00    -0.205 F 
ATOM     91  C   UNL A   1      46.870  26.249  35.703  1.00  0.00     0.022 A 
BRANCH  89  92
ATOM     92  S   UNL A   1      45.459  24.207  36.861  1.00  0.00     0.127 S 
ATOM     93  O   UNL A   1      45.077  23.136  35.943  1.00  0.00    -0.237 OA
ATOM     94  O   UNL A   1      46.811  24.088  37.408  1.00  0.00    -0.237 OA
ATOM     95  O   UNL A   1      44.443  24.585  37.834  1.00  0.00    -0.744 OA
ENDBRANCH  89  92
ENDBRANCH  62  85
ENDBRANCH  36  37
ENDBRANCH  28  31
ENDBRANCH  26  27
ENDBRANCH   1  26
TORSDOF 18
ENDMDL
MODEL 3
REMARK VINA RESULT:     -10.9      5.048     10.063
REMARK SMILES CC[NH2+][C@]1(C(=O)NCCCNC(=O)c2ccc(-c3c4nc(c(-c5cccc(S(=O)(=O)[O-])c5F)c5ccc([nH]5)c(-c5cccc(S(=O)(=O)[O-])c5F)c5nc(c(-c6cccc(S(=O)(=O)[O-])c6F)c6ccc3[nH]6)C=C5)C=C4)cc2)CC[C@@H](Sc2ccc(OC)cc2)C1
REMARK SMILES IDX 9 1 8 2 7 3 5 4 6 5 4 7 77 8 89 9 78 10 79 11 3 12 2 15 1 16
REMARK SMILES IDX 80 17 81 18 82 19 88 20 83 21 87 22 84 23 85 24 86 25 10 26
REMARK SMILES IDX 11 27 12 28 13 30 14 31 15 32 76 33 16 34 75 35 17 36 18 37
REMARK SMILES IDX 19 38 69 39 20 40 74 41 68 42 70 43 21 44 73 45 67 46 66 47
REMARK SMILES IDX 22 49 54 50 34 51 53 52 35 53 38 54 52 55 71 56 36 57 37 58
REMARK SMILES IDX 51 60 72 61 39 62 23 63 24 64 32 65 25 66 27 67 33 68 26 69
REMARK SMILES IDX 28 70 29 71 30 72 31 73 55 74 56 75 64 76 57 77 59 78 65 79
REMARK SMILES IDX 58 80 60 81 61 82 62 83 63 84 40 85 41 86 49 87 42 88 44 89
REMARK SMILES IDX 50 90 43 91 45 92 46 93 47 94 48 95
REMARK H PARENT 7 6 3 13 3 14 11 29 70 48 38 59
REMARK Flexibility Score: inf
ROOT
ATOM      1  C   UNL A   1      31.496  30.814  26.097  1.00  0.00     0.042 C 
ENDROOT
BRANCH   1   2
ATOM      2  C   UNL A   1      31.931  29.683  25.194  1.00  0.00     0.118 C 
BRANCH   2   3
ATOM      3  N   UNL A   1      31.356  28.402  25.507  1.00  0.00    -0.351 N 
ATOM      4  C   UNL A   1      31.125  27.345  24.679  1.00  0.00     0.281 C 
ATOM      5  O   UNL A   1      30.575  26.371  25.213  1.00  0.00    -0.268 OA
ATOM      6  H   UNL A   1      31.093  28.273  26.448  1.00  0.00     0.163 HD
BRANCH   4   7
ATOM      7  C   UNL A   1      31.630  27.290  23.192  1.00  0.00     0.176 C 
ATOM      8  C   UNL A   1      33.169  27.344  23.184  1.00  0.00     0.080 C 
ATOM      9  C   UNL A   1      31.388  25.866  22.628  1.00  0.00     0.094 C 
ATOM     10  C   UNL A   1      33.585  26.682  21.876  1.00  0.00     0.022 C 
ATOM     11  C   UNL A   1      32.495  25.643  21.592  1.00  0.00     0.058 C 
BRANCH   7  12
ATOM     12  N   UNL A   1      30.910  28.183  22.249  1.00  0.00    -0.334 N 
ATOM     13  H   UNL A   1      31.465  29.034  22.162  1.00  0.00     0.347 HD
ATOM     14  H   UNL A   1      30.807  27.617  21.407  1.00  0.00     0.347 HD
BRANCH  12  15
ATOM     15  C   UNL A   1      29.545  28.592  22.562  1.00  0.00     0.257 C 
ATOM     16  C   UNL A   1      29.287  30.060  22.214  1.00  0.00     0.071 C 
ENDBRANCH  12  15
ENDBRANCH   7  12
BRANCH  11  17
ATOM     17  S   UNL A   1      33.071  23.897  21.499  1.00  0.00    -0.122 SA
BRANCH  17  18
ATOM     18  C   UNL A   1      33.642  23.581  23.159  1.00  0.00     0.008 A 
ATOM     19  C   UNL A   1      32.710  23.298  24.160  1.00  0.00     0.019 A 
ATOM     20  C   UNL A   1      34.992  23.676  23.504  1.00  0.00     0.019 A 
ATOM     21  C   UNL A   1      33.130  23.080  25.476  1.00  0.00     0.047 A 
ATOM     22  C   UNL A   1      35.414  23.442  24.818  1.00  0.00     0.047 A 
ATOM     23  C   UNL A   1      34.483  23.147  25.812  1.00  0.00     0.118 A 
BRANCH  23  24
ATOM     24  O   UNL A   1      34.761  22.923  27.132  1.00  0.00    -0.497 OA
ATOM     25  C   UNL A   1      33.719  22.350  27.914  1.00  0.00     0.278 C 
ENDBRANCH  23  24
ENDBRANCH  17  18
ENDBRANCH  11  17
ENDBRANCH   4   7
ENDBRANCH   2   3
ENDBRANCH   1   2
BRANCH   1  26
ATOM     26  C   UNL A   1      32.511  31.135  27.170  1.00  0.00     0.118 C 
BRANCH  26  27
ATOM     27  N   UNL A   1      32.815  32.563  27.243  1.00  0.00    -0.352 N 
ATOM     28  C   UNL A   1      33.860  33.242  27.828  1.00  0.00     0.251 C 
ATOM     29  H   UNL A   1      32.155  33.142  26.797  1.00  0.00     0.163 HD
ATOM     30  O   UNL A   1      33.785  34.464  27.962  1.00  0.00    -0.269 OA
BRANCH  28  31
ATOM     31  C   UNL A   1      35.051  32.516  28.316  1.00  0.00     0.039 A 
ATOM     32  C   UNL A   1      36.323  33.079  28.176  1.00  0.00     0.014 A 
ATOM     33  C   UNL A   1      34.916  31.267  28.917  1.00  0.00     0.014 A 
ATOM     34  C   UNL A   1      37.433  32.425  28.719  1.00  0.00     0.010 A 
ATOM     35  C   UNL A   1      35.983  30.709  29.600  1.00  0.00     0.010 A 
ATOM     36  C   UNL A   1      37.265  31.258  29.482  1.00  0.00    -0.014 A 
BRANCH  36  37
ATOM     37  C   UNL A   1      38.399  30.562  30.141  1.00  0.00     0.031 A 
ATOM     38  C   UNL A   1      38.802  30.948  31.544  1.00  0.00     0.074 A 
ATOM     39  C   UNL A   1      39.139  29.677  29.445  1.00  0.00     0.049 A 
ATOM     40  N   UNL A   1      39.829  30.547  32.247  1.00  0.00    -0.248 NA
ATOM     41  C   UNL A   1      37.972  31.957  32.228  1.00  0.00     0.031 C 
ATOM     42  C   UNL A   1      38.914  29.297  28.048  1.00  0.00     0.029 A 
ATOM     43  N   UNL A   1      40.248  28.957  29.808  1.00  0.00    -0.354 N 
ATOM     44  C   UNL A   1      39.797  31.292  33.420  1.00  0.00     0.074 A 
ATOM     45  C   UNL A   1      38.689  32.212  33.310  1.00  0.00     0.031 C 
ATOM     46  C   UNL A   1      39.842  28.400  27.680  1.00  0.00     0.029 A 
ATOM     47  C   UNL A   1      40.752  28.173  28.796  1.00  0.00     0.049 A 
ATOM     48  H   UNL A   1      40.646  28.998  30.707  1.00  0.00     0.167 HD
ATOM     49  C   UNL A   1      40.590  31.196  34.514  1.00  0.00     0.034 A 
ATOM     50  C   UNL A   1      41.833  27.369  28.768  1.00  0.00     0.034 A 
ATOM     51  C   UNL A   1      41.651  30.237  34.641  1.00  0.00     0.049 A 
ATOM     52  C   UNL A   1      42.664  27.227  30.014  1.00  0.00     0.074 A 
ATOM     53  C   UNL A   1      42.448  29.975  35.740  1.00  0.00     0.029 A 
ATOM     54  N   UNL A   1      42.069  29.384  33.630  1.00  0.00    -0.354 N 
ATOM     55  N   UNL A   1      42.521  27.825  31.172  1.00  0.00    -0.248 NA
ATOM     56  C   UNL A   1      43.781  26.275  29.963  1.00  0.00     0.031 C 
ATOM     57  C   UNL A   1      43.370  28.986  35.382  1.00  0.00     0.029 A 
ATOM     58  C   UNL A   1      43.120  28.603  34.073  1.00  0.00     0.049 A 
ATOM     59  H   UNL A   1      41.673  29.342  32.729  1.00  0.00     0.167 HD
ATOM     60  C   UNL A   1      43.506  27.297  31.998  1.00  0.00     0.074 A 
ATOM     61  C   UNL A   1      44.226  26.317  31.210  1.00  0.00     0.031 C 
ATOM     62  C   UNL A   1      43.796  27.603  33.287  1.00  0.00     0.034 A 
BRANCH  49  63
ATOM     63  C   UNL A   1      40.302  32.121  35.670  1.00  0.00     0.023 A 
ATOM     64  C   UNL A   1      41.098  33.269  35.868  1.00  0.00     0.012 A 
ATOM     65  C   UNL A   1      39.229  31.869  36.548  1.00  0.00     0.148 A 
ATOM     66  C   UNL A   1      40.869  34.119  36.949  1.00  0.00     0.002 A 
ATOM     67  C   UNL A   1      38.972  32.752  37.591  1.00  0.00     0.091 A 
ATOM     68  F   UNL A   1      38.495  30.764  36.361  1.00  0.00    -0.205 F 
ATOM     69  C   UNL A   1      39.801  33.865  37.804  1.00  0.00     0.022 A 
BRANCH  67  70
ATOM     70  S   UNL A   1      37.569  32.561  38.696  1.00  0.00     0.127 S 
ATOM     71  O   UNL A   1      37.648  31.140  39.029  1.00  0.00    -0.237 OA
ATOM     72  O   UNL A   1      37.918  33.464  39.792  1.00  0.00    -0.237 OA
ATOM     73  O   UNL A   1      36.398  32.960  37.929  1.00  0.00    -0.744 OA
ENDBRANCH  67  70
ENDBRANCH  49  63
BRANCH  50  74
ATOM     74  C   UNL A   1      42.142  26.588  27.538  1.00  0.00     0.023 A 
ATOM     75  C   UNL A   1      42.791  27.220  26.460  1.00  0.00     0.012 A 
ATOM     76  C   UNL A   1      41.845  25.215  27.450  1.00  0.00     0.148 A 
ATOM     77  C   UNL A   1      43.115  26.505  25.306  1.00  0.00     0.002 A 
ATOM     78  C   UNL A   1      42.221  24.495  26.322  1.00  0.00     0.091 A 
ATOM     79  F   UNL A   1      41.224  24.633  28.486  1.00  0.00    -0.205 F 
ATOM     80  C   UNL A   1      42.840  25.142  25.241  1.00  0.00     0.022 A 
BRANCH  78  81
ATOM     81  S   UNL A   1      42.032  22.713  26.205  1.00  0.00     0.127 S 
ATOM     82  O   UNL A   1      42.644  22.433  24.909  1.00  0.00    -0.237 OA
ATOM     83  O   UNL A   1      42.801  22.255  27.363  1.00  0.00    -0.237 OA
ATOM     84  O   UNL A   1      40.601  22.459  26.294  1.00  0.00    -0.744 OA
ENDBRANCH  78  81
ENDBRANCH  50  74
BRANCH  62  85
ATOM     85  C   UNL A   1      44.917  26.844  33.948  1.00  0.00     0.023 A 
ATOM     86  C   UNL A   1      46.244  27.303  33.834  1.00  0.00     0.012 A 
ATOM     87  C   UNL A   1      44.637  25.721  34.751  1.00  0.00     0.148 A 
ATOM     88  C   UNL A   1      47.281  26.632  34.480  1.00  0.00     0.002 A 
ATOM     89  C   UNL A   1      45.669  25.091  35.436  1.00  0.00     0.091 A 
ATOM     90  F   UNL A   1      43.370  25.292  34.833  1.00  0.00    -0.205 F 
ATOM     91  C   UNL A   1      46.992  25.536  35.290  1.00  0.00     0.022 A 
BRANCH  89  92
ATOM     92  S   UNL A   1      45.379  23.739  36.580  1.00  0.00     0.127 S 
ATOM     93  O   UNL A   1      46.738  23.408  37.003  1.00  0.00    -0.237 OA
ATOM     94  O   UNL A   1      44.558  24.377  37.611  1.00  0.00    -0.237 OA
ATOM     95  O   UNL A   1      44.694  22.704  35.817  1.00  0.00    -0.744 OA
ENDBRANCH  89  92
ENDBRANCH  62  85
ENDBRANCH  36  37
ENDBRANCH  28  31
ENDBRANCH  26  27
ENDBRANCH   1  26
TORSDOF 18
ENDMDL
