MODEL 1
REMARK VINA RESULT:     -12.8      0.000      0.000
REMARK SMILES COc1ccc2c(c1)c(CC(=O)NCCCNC(=O)c1ccc(-c3c4nc(c(-c5cccc(S(=O)(=O)[O-])c5F)c5ccc([nH]5)c(-c5cccc(S(=O)(=O)[O-])c5F)c5nc(c(-c6cccc(S(=O)(=O)[O-])c6F)c6ccc3[nH]6)C=C5)C=C4)cc1)c(C(F)(F)F)n2C(=O)c1ccc(Cl)cc1
REMARK SMILES IDX 15 1 14 2 13 3 11 4 12 5 10 7 9 8 3 9 4 10 8 11 5 12 7 13
REMARK SMILES IDX 6 14 88 15 83 16 2 17 1 18 89 19 90 20 91 21 92 22 97 23
REMARK SMILES IDX 93 24 96 25 94 26 95 27 84 28 85 29 86 30 87 31 16 32 17 33
REMARK SMILES IDX 18 34 19 36 20 37 21 38 82 39 22 40 81 41 23 42 24 43 25 44
REMARK SMILES IDX 75 45 26 46 80 47 74 48 76 49 27 50 79 51 73 52 72 53 28 55
REMARK SMILES IDX 60 56 40 57 59 58 41 59 44 60 58 61 77 62 42 63 43 64 57 66
REMARK SMILES IDX 78 67 45 68 29 69 30 70 38 71 31 72 33 73 39 74 32 75 34 76
REMARK SMILES IDX 35 77 36 78 37 79 61 80 62 81 70 82 63 83 65 84 71 85 64 86
REMARK SMILES IDX 66 87 67 88 68 89 69 90 46 91 47 92 55 93 48 94 50 95 56 96
REMARK SMILES IDX 49 97 51 98 52 99 53 100 54 101
REMARK H PARENT 13 6 17 35 76 54 44 65
REMARK Flexibility Score: inf
ROOT
ATOM      1  C   UNL A   1      33.266  30.036  27.051  1.00  0.00     0.042 C 
ENDROOT
BRANCH   1   2
ATOM      2  C   UNL A   1      33.695  29.002  26.011  1.00  0.00     0.117 C 
BRANCH   2   3
ATOM      3  N   UNL A   1      33.568  29.505  24.654  1.00  0.00    -0.356 N 
ATOM      4  C   UNL A   1      33.706  28.850  23.466  1.00  0.00     0.224 C 
ATOM      5  O   UNL A   1      33.563  29.493  22.424  1.00  0.00    -0.275 OA
ATOM      6  H   UNL A   1      33.348  30.462  24.581  1.00  0.00     0.163 HD
BRANCH   4   7
ATOM      7  C   UNL A   1      33.978  27.356  23.444  1.00  0.00     0.138 C 
BRANCH   7   8
ATOM      8  C   UNL A   1      32.823  26.521  23.925  1.00  0.00     0.000 A 
ATOM      9  C   UNL A   1      29.353  27.816  22.987  1.00  0.00     0.119 A 
ATOM     10  C   UNL A   1      28.643  26.864  23.703  1.00  0.00     0.048 A 
ATOM     11  C   UNL A   1      30.749  27.773  22.979  1.00  0.00     0.057 A 
ATOM     12  C   UNL A   1      29.306  25.856  24.413  1.00  0.00     0.031 A 
ATOM     13  C   UNL A   1      31.442  26.767  23.688  1.00  0.00     0.008 A 
ATOM     14  C   UNL A   1      30.713  25.785  24.367  1.00  0.00     0.057 A 
ATOM     15  N   UNL A   1      31.631  24.835  24.841  1.00  0.00    -0.271 N 
ATOM     16  C   UNL A   1      32.896  25.419  24.772  1.00  0.00     0.135 A 
BRANCH   9  17
ATOM     17  O   UNL A   1      28.799  28.822  22.245  1.00  0.00    -0.497 OA
ATOM     18  C   UNL A   1      29.247  30.135  22.555  1.00  0.00     0.278 C 
ENDBRANCH   9  17
BRANCH  15  19
ATOM     19  C   UNL A   1      31.356  23.503  25.260  1.00  0.00     0.262 C 
ATOM     20  O   UNL A   1      30.784  23.355  26.330  1.00  0.00    -0.268 OA
BRANCH  19  21
ATOM     21  C   UNL A   1      31.764  22.290  24.530  1.00  0.00     0.040 A 
ATOM     22  C   UNL A   1      31.803  22.288  23.131  1.00  0.00     0.015 A 
ATOM     23  C   UNL A   1      32.054  21.129  25.256  1.00  0.00     0.015 A 
ATOM     24  C   UNL A   1      32.046  21.090  22.455  1.00  0.00     0.021 A 
ATOM     25  C   UNL A   1      32.306  19.937  24.573  1.00  0.00     0.021 A 
ATOM     26  C   UNL A   1      32.277  19.917  23.177  1.00  0.00     0.041 A 
ATOM     27  Cl  UNL A   1      32.487  18.429  22.339  1.00  0.00    -0.084 Cl
ENDBRANCH  19  21
ENDBRANCH  15  19
BRANCH  16  28
ATOM     28  C   UNL A   1      34.086  24.866  25.485  1.00  0.00     0.432 C 
ATOM     29  F   UNL A   1      34.905  24.183  24.652  1.00  0.00    -0.165 F 
ATOM     30  F   UNL A   1      34.836  25.890  25.988  1.00  0.00    -0.165 F 
ATOM     31  F   UNL A   1      33.788  24.097  26.555  1.00  0.00    -0.165 F 
ENDBRANCH  16  28
ENDBRANCH   7   8
ENDBRANCH   4   7
ENDBRANCH   2   3
ENDBRANCH   1   2
BRANCH   1  32
ATOM     32  C   UNL A   1      34.375  31.020  27.428  1.00  0.00     0.118 C 
BRANCH  32  33
ATOM     33  N   UNL A   1      34.200  31.652  28.722  1.00  0.00    -0.352 N 
ATOM     34  C   UNL A   1      34.989  31.841  29.823  1.00  0.00     0.251 C 
ATOM     35  H   UNL A   1      33.300  32.036  28.834  1.00  0.00     0.163 HD
ATOM     36  O   UNL A   1      34.501  32.539  30.715  1.00  0.00    -0.269 OA
BRANCH  34  37
ATOM     37  C   UNL A   1      36.322  31.217  30.038  1.00  0.00     0.039 A 
ATOM     38  C   UNL A   1      37.546  31.884  29.980  1.00  0.00     0.014 A 
ATOM     39  C   UNL A   1      36.323  29.825  30.252  1.00  0.00     0.014 A 
ATOM     40  C   UNL A   1      38.737  31.171  29.995  1.00  0.00     0.010 A 
ATOM     41  C   UNL A   1      37.512  29.109  30.299  1.00  0.00     0.010 A 
ATOM     42  C   UNL A   1      38.714  29.780  30.104  1.00  0.00    -0.014 A 
BRANCH  42  43
ATOM     43  C   UNL A   1      39.990  29.076  30.043  1.00  0.00     0.031 A 
ATOM     44  C   UNL A   1      40.671  28.868  31.352  1.00  0.00     0.074 A 
ATOM     45  C   UNL A   1      40.479  28.577  28.891  1.00  0.00     0.049 A 
ATOM     46  N   UNL A   1      41.827  29.309  31.739  1.00  0.00    -0.248 NA
ATOM     47  C   UNL A   1      39.916  28.165  32.399  1.00  0.00     0.031 C 
ATOM     48  C   UNL A   1      39.792  28.467  27.599  1.00  0.00     0.029 A 
ATOM     49  N   UNL A   1      41.662  27.940  28.667  1.00  0.00    -0.354 N 
ATOM     50  C   UNL A   1      42.026  28.774  33.012  1.00  0.00     0.074 A 
ATOM     51  C   UNL A   1      40.772  28.195  33.419  1.00  0.00     0.031 C 
ATOM     52  C   UNL A   1      40.461  27.593  26.813  1.00  0.00     0.029 A 
ATOM     53  C   UNL A   1      41.688  27.208  27.484  1.00  0.00     0.049 A 
ATOM     54  H   UNL A   1      42.427  27.992  29.284  1.00  0.00     0.167 HD
ATOM     55  C   UNL A   1      43.258  28.660  33.578  1.00  0.00     0.034 A 
ATOM     56  C   UNL A   1      42.623  26.296  27.132  1.00  0.00     0.034 A 
ATOM     57  C   UNL A   1      44.252  29.429  32.888  1.00  0.00     0.049 A 
ATOM     58  C   UNL A   1      43.837  26.591  27.923  1.00  0.00     0.074 A 
ATOM     59  C   UNL A   1      44.565  30.763  32.753  1.00  0.00     0.029 A 
ATOM     60  N   UNL A   1      44.926  28.754  31.904  1.00  0.00    -0.354 N 
ATOM     61  N   UNL A   1      44.545  27.676  27.788  1.00  0.00    -0.248 NA
ATOM     62  C   UNL A   1      44.125  25.800  29.110  1.00  0.00     0.031 C 
ATOM     63  C   UNL A   1      45.158  30.884  31.462  1.00  0.00     0.029 A 
ATOM     64  C   UNL A   1      45.195  29.618  30.877  1.00  0.00     0.049 A 
ATOM     65  H   UNL A   1      45.176  27.802  31.932  1.00  0.00     0.167 HD
ATOM     66  C   UNL A   1      45.046  27.920  29.055  1.00  0.00     0.074 A 
ATOM     67  C   UNL A   1      44.909  26.657  29.767  1.00  0.00     0.031 C 
ATOM     68  C   UNL A   1      45.247  29.197  29.492  1.00  0.00     0.034 A 
BRANCH  55  69
ATOM     69  C   UNL A   1      43.647  27.578  34.554  1.00  0.00     0.023 A 
ATOM     70  C   UNL A   1      44.102  27.953  35.837  1.00  0.00     0.012 A 
ATOM     71  C   UNL A   1      43.828  26.228  34.176  1.00  0.00     0.148 A 
ATOM     72  C   UNL A   1      44.700  27.027  36.701  1.00  0.00     0.002 A 
ATOM     73  C   UNL A   1      44.356  25.296  35.063  1.00  0.00     0.091 A 
ATOM     74  F   UNL A   1      43.610  25.864  32.906  1.00  0.00    -0.205 F 
ATOM     75  C   UNL A   1      44.812  25.695  36.321  1.00  0.00     0.022 A 
BRANCH  73  76
ATOM     76  S   UNL A   1      44.480  23.557  34.634  1.00  0.00     0.127 S 
ATOM     77  O   UNL A   1      45.488  23.585  33.579  1.00  0.00    -0.237 OA
ATOM     78  O   UNL A   1      44.920  22.964  35.897  1.00  0.00    -0.237 OA
ATOM     79  O   UNL A   1      43.134  23.166  34.232  1.00  0.00    -0.744 OA
ENDBRANCH  73  76
ENDBRANCH  55  69
BRANCH  56  80
ATOM     80  C   UNL A   1      42.498  25.043  26.350  1.00  0.00     0.023 A 
ATOM     81  C   UNL A   1      43.515  24.709  25.431  1.00  0.00     0.012 A 
ATOM     82  C   UNL A   1      41.576  24.038  26.714  1.00  0.00     0.148 A 
ATOM     83  C   UNL A   1      43.656  23.403  24.950  1.00  0.00     0.002 A 
ATOM     84  C   UNL A   1      41.714  22.743  26.225  1.00  0.00     0.091 A 
ATOM     85  F   UNL A   1      40.631  24.323  27.620  1.00  0.00    -0.205 F 
ATOM     86  C   UNL A   1      42.764  22.417  25.358  1.00  0.00     0.022 A 
BRANCH  84  87
ATOM     87  S   UNL A   1      40.609  21.414  26.722  1.00  0.00     0.127 S 
ATOM     88  O   UNL A   1      39.317  21.883  26.219  1.00  0.00    -0.237 OA
ATOM     89  O   UNL A   1      41.168  20.272  26.003  1.00  0.00    -0.237 OA
ATOM     90  O   UNL A   1      40.696  21.355  28.176  1.00  0.00    -0.744 OA
ENDBRANCH  84  87
ENDBRANCH  56  80
BRANCH  68  91
ATOM     91  C   UNL A   1      45.262  30.284  28.450  1.00  0.00     0.023 A 
ATOM     92  C   UNL A   1      44.074  30.822  27.912  1.00  0.00     0.012 A 
ATOM     93  C   UNL A   1      46.493  30.862  28.099  1.00  0.00     0.148 A 
ATOM     94  C   UNL A   1      44.116  31.901  27.025  1.00  0.00     0.002 A 
ATOM     95  C   UNL A   1      46.528  31.959  27.246  1.00  0.00     0.091 A 
ATOM     96  F   UNL A   1      47.610  30.342  28.630  1.00  0.00    -0.205 F 
ATOM     97  C   UNL A   1      45.342  32.476  26.700  1.00  0.00     0.022 A 
BRANCH  95  98
ATOM     98  S   UNL A   1      48.059  32.815  26.872  1.00  0.00     0.127 S 
ATOM     99  O   UNL A   1      48.458  33.321  28.184  1.00  0.00    -0.237 OA
ATOM    100  O   UNL A   1      48.903  31.739  26.349  1.00  0.00    -0.237 OA
ATOM    101  O   UNL A   1      47.721  33.835  25.886  1.00  0.00    -0.744 OA
ENDBRANCH  95  98
ENDBRANCH  68  91
ENDBRANCH  42  43
ENDBRANCH  34  37
ENDBRANCH  32  33
ENDBRANCH   1  32
TORSDOF 18
ENDMDL
MODEL 2
REMARK VINA RESULT:     -12.6      1.535      2.281
REMARK SMILES COc1ccc2c(c1)c(CC(=O)NCCCNC(=O)c1ccc(-c3c4nc(c(-c5cccc(S(=O)(=O)[O-])c5F)c5ccc([nH]5)c(-c5cccc(S(=O)(=O)[O-])c5F)c5nc(c(-c6cccc(S(=O)(=O)[O-])c6F)c6ccc3[nH]6)C=C5)C=C4)cc1)c(C(F)(F)F)n2C(=O)c1ccc(Cl)cc1
REMARK SMILES IDX 15 1 14 2 13 3 11 4 12 5 10 7 9 8 3 9 4 10 8 11 5 12 7 13
REMARK SMILES IDX 6 14 88 15 83 16 2 17 1 18 89 19 90 20 91 21 92 22 97 23
REMARK SMILES IDX 93 24 96 25 94 26 95 27 84 28 85 29 86 30 87 31 16 32 17 33
REMARK SMILES IDX 18 34 19 36 20 37 21 38 82 39 22 40 81 41 23 42 24 43 25 44
REMARK SMILES IDX 75 45 26 46 80 47 74 48 76 49 27 50 79 51 73 52 72 53 28 55
REMARK SMILES IDX 60 56 40 57 59 58 41 59 44 60 58 61 77 62 42 63 43 64 57 66
REMARK SMILES IDX 78 67 45 68 29 69 30 70 38 71 31 72 33 73 39 74 32 75 34 76
REMARK SMILES IDX 35 77 36 78 37 79 61 80 62 81 70 82 63 83 65 84 71 85 64 86
REMARK SMILES IDX 66 87 67 88 68 89 69 90 46 91 47 92 55 93 48 94 50 95 56 96
REMARK SMILES IDX 49 97 51 98 52 99 53 100 54 101
REMARK H PARENT 13 6 17 35 76 54 44 65
REMARK Flexibility Score: inf
ROOT
ATOM      1  C   UNL A   1      32.712  29.374  26.884  1.00  0.00     0.042 C 
ENDROOT
BRANCH   1   2
ATOM      2  C   UNL A   1      32.704  28.297  25.799  1.00  0.00     0.117 C 
BRANCH   2   3
ATOM      3  N   UNL A   1      31.575  27.392  25.935  1.00  0.00    -0.356 N 
ATOM      4  C   UNL A   1      31.555  26.073  26.282  1.00  0.00     0.224 C 
ATOM      5  O   UNL A   1      30.465  25.497  26.321  1.00  0.00    -0.275 OA
ATOM      6  H   UNL A   1      30.695  27.790  25.750  1.00  0.00     0.163 HD
BRANCH   4   7
ATOM      7  C   UNL A   1      32.842  25.361  26.659  1.00  0.00     0.138 C 
BRANCH   7   8
ATOM      8  C   UNL A   1      33.197  24.223  25.744  1.00  0.00     0.000 A 
ATOM      9  C   UNL A   1      32.672  24.881  22.017  1.00  0.00     0.119 A 
ATOM     10  C   UNL A   1      32.986  23.597  21.596  1.00  0.00     0.048 A 
ATOM     11  C   UNL A   1      32.735  25.195  23.376  1.00  0.00     0.057 A 
ATOM     12  C   UNL A   1      33.373  22.614  22.514  1.00  0.00     0.031 A 
ATOM     13  C   UNL A   1      33.120  24.220  24.324  1.00  0.00     0.008 A 
ATOM     14  C   UNL A   1      33.481  22.943  23.880  1.00  0.00     0.057 A 
ATOM     15  N   UNL A   1      33.967  22.237  24.991  1.00  0.00    -0.271 N 
ATOM     16  C   UNL A   1      33.566  22.936  26.129  1.00  0.00     0.135 A 
BRANCH   9  17
ATOM     17  O   UNL A   1      32.309  25.914  21.199  1.00  0.00    -0.497 OA
ATOM     18  C   UNL A   1      31.526  26.934  21.805  1.00  0.00     0.278 C 
ENDBRANCH   9  17
BRANCH  15  19
ATOM     19  C   UNL A   1      34.772  21.063  24.983  1.00  0.00     0.262 C 
ATOM     20  O   UNL A   1      35.982  21.207  25.068  1.00  0.00    -0.268 OA
BRANCH  19  21
ATOM     21  C   UNL A   1      34.258  19.691  24.816  1.00  0.00     0.040 A 
ATOM     22  C   UNL A   1      32.893  19.427  24.973  1.00  0.00     0.015 A 
ATOM     23  C   UNL A   1      35.163  18.657  24.558  1.00  0.00     0.015 A 
ATOM     24  C   UNL A   1      32.447  18.103  24.960  1.00  0.00     0.021 A 
ATOM     25  C   UNL A   1      34.709  17.336  24.535  1.00  0.00     0.021 A 
ATOM     26  C   UNL A   1      33.359  17.063  24.761  1.00  0.00     0.041 A 
ATOM     27  Cl  UNL A   1      32.817  15.431  24.835  1.00  0.00    -0.084 Cl
ENDBRANCH  19  21
ENDBRANCH  15  19
BRANCH  16  28
ATOM     28  C   UNL A   1      33.596  22.345  27.499  1.00  0.00     0.432 C 
ATOM     29  F   UNL A   1      34.555  22.905  28.273  1.00  0.00    -0.165 F 
ATOM     30  F   UNL A   1      32.413  22.595  28.134  1.00  0.00    -0.165 F 
ATOM     31  F   UNL A   1      33.724  21.000  27.524  1.00  0.00    -0.165 F 
ENDBRANCH  16  28
ENDBRANCH   7   8
ENDBRANCH   4   7
ENDBRANCH   2   3
ENDBRANCH   1   2
BRANCH   1  32
ATOM     32  C   UNL A   1      34.051  30.102  27.012  1.00  0.00     0.118 C 
BRANCH  32  33
ATOM     33  N   UNL A   1      34.043  31.212  27.947  1.00  0.00    -0.352 N 
ATOM     34  C   UNL A   1      34.950  31.754  28.814  1.00  0.00     0.251 C 
ATOM     35  H   UNL A   1      33.180  31.686  27.960  1.00  0.00     0.163 HD
ATOM     36  O   UNL A   1      34.592  32.790  29.381  1.00  0.00    -0.269 OA
BRANCH  34  37
ATOM     37  C   UNL A   1      36.265  31.154  29.165  1.00  0.00     0.039 A 
ATOM     38  C   UNL A   1      37.466  31.853  29.287  1.00  0.00     0.014 A 
ATOM     39  C   UNL A   1      36.282  29.754  29.317  1.00  0.00     0.014 A 
ATOM     40  C   UNL A   1      38.668  31.170  29.418  1.00  0.00     0.010 A 
ATOM     41  C   UNL A   1      37.478  29.066  29.479  1.00  0.00     0.010 A 
ATOM     42  C   UNL A   1      38.674  29.775  29.463  1.00  0.00    -0.014 A 
BRANCH  42  43
ATOM     43  C   UNL A   1      39.968  29.107  29.528  1.00  0.00     0.031 A 
ATOM     44  C   UNL A   1      40.520  28.910  30.899  1.00  0.00     0.074 A 
ATOM     45  C   UNL A   1      40.584  28.627  28.430  1.00  0.00     0.049 A 
ATOM     46  N   UNL A   1      41.618  29.380  31.402  1.00  0.00    -0.248 NA
ATOM     47  C   UNL A   1      39.682  28.181  31.862  1.00  0.00     0.031 C 
ATOM     48  C   UNL A   1      40.034  28.506  27.075  1.00  0.00     0.029 A 
ATOM     49  N   UNL A   1      41.802  28.024  28.325  1.00  0.00    -0.354 N 
ATOM     50  C   UNL A   1      41.702  28.844  32.687  1.00  0.00     0.074 A 
ATOM     51  C   UNL A   1      40.430  28.229  32.964  1.00  0.00     0.031 C 
ATOM     52  C   UNL A   1      40.803  27.655  26.359  1.00  0.00     0.029 A 
ATOM     53  C   UNL A   1      41.966  27.299  27.149  1.00  0.00     0.049 A 
ATOM     54  H   UNL A   1      42.499  28.094  29.016  1.00  0.00     0.167 HD
ATOM     55  C   UNL A   1      42.874  28.761  33.374  1.00  0.00     0.034 A 
ATOM     56  C   UNL A   1      42.957  26.415  26.891  1.00  0.00     0.034 A 
ATOM     57  C   UNL A   1      43.911  29.560  32.790  1.00  0.00     0.049 A 
ATOM     58  C   UNL A   1      44.076  26.739  27.801  1.00  0.00     0.074 A 
ATOM     59  C   UNL A   1      44.198  30.903  32.691  1.00  0.00     0.029 A 
ATOM     60  N   UNL A   1      44.698  28.910  31.877  1.00  0.00    -0.354 N 
ATOM     61  N   UNL A   1      44.764  27.844  27.741  1.00  0.00    -0.248 NA
ATOM     62  C   UNL A   1      44.266  25.950  29.009  1.00  0.00     0.031 C 
ATOM     63  C   UNL A   1      44.915  31.048  31.466  1.00  0.00     0.029 A 
ATOM     64  C   UNL A   1      45.045  29.786  30.884  1.00  0.00     0.049 A 
ATOM     65  H   UNL A   1      44.971  27.965  31.927  1.00  0.00     0.167 HD
ATOM     66  C   UNL A   1      45.128  28.095  29.052  1.00  0.00     0.074 A 
ATOM     67  C   UNL A   1      44.955  26.825  29.744  1.00  0.00     0.031 C 
ATOM     68  C   UNL A   1      45.249  29.374  29.510  1.00  0.00     0.034 A 
BRANCH  55  69
ATOM     69  C   UNL A   1      43.192  27.684  34.381  1.00  0.00     0.023 A 
ATOM     70  C   UNL A   1      43.365  28.051  35.733  1.00  0.00     0.012 A 
ATOM     71  C   UNL A   1      43.581  26.376  34.014  1.00  0.00     0.148 A 
ATOM     72  C   UNL A   1      43.892  27.156  36.673  1.00  0.00     0.002 A 
ATOM     73  C   UNL A   1      44.035  25.467  34.962  1.00  0.00     0.091 A 
ATOM     74  F   UNL A   1      43.637  26.045  32.718  1.00  0.00    -0.205 F 
ATOM     75  C   UNL A   1      44.211  25.858  36.292  1.00  0.00     0.022 A 
BRANCH  73  76
ATOM     76  S   UNL A   1      44.419  23.767  34.526  1.00  0.00     0.127 S 
ATOM     77  O   UNL A   1      45.498  23.948  33.559  1.00  0.00    -0.237 OA
ATOM     78  O   UNL A   1      44.829  23.210  35.815  1.00  0.00    -0.237 OA
ATOM     79  O   UNL A   1      43.173  23.215  34.010  1.00  0.00    -0.744 OA
ENDBRANCH  73  76
ENDBRANCH  55  69
BRANCH  56  80
ATOM     80  C   UNL A   1      42.946  25.164  26.096  1.00  0.00     0.023 A 
ATOM     81  C   UNL A   1      44.001  24.923  25.190  1.00  0.00     0.012 A 
ATOM     82  C   UNL A   1      42.105  24.084  26.439  1.00  0.00     0.148 A 
ATOM     83  C   UNL A   1      44.254  23.638  24.700  1.00  0.00     0.002 A 
ATOM     84  C   UNL A   1      42.355  22.808  25.940  1.00  0.00     0.091 A 
ATOM     85  F   UNL A   1      41.127  24.281  27.333  1.00  0.00    -0.205 F 
ATOM     86  C   UNL A   1      43.441  22.577  25.087  1.00  0.00     0.022 A 
BRANCH  84  87
ATOM     87  S   UNL A   1      41.356  21.389  26.411  1.00  0.00     0.127 S 
ATOM     88  O   UNL A   1      40.036  21.758  25.899  1.00  0.00    -0.237 OA
ATOM     89  O   UNL A   1      42.013  20.305  25.685  1.00  0.00    -0.237 OA
ATOM     90  O   UNL A   1      41.433  21.319  27.865  1.00  0.00    -0.744 OA
ENDBRANCH  84  87
ENDBRANCH  56  80
BRANCH  68  91
ATOM     91  C   UNL A   1      45.339  30.467  28.478  1.00  0.00     0.023 A 
ATOM     92  C   UNL A   1      44.191  31.026  27.878  1.00  0.00     0.012 A 
ATOM     93  C   UNL A   1      46.595  31.028  28.200  1.00  0.00     0.148 A 
ATOM     94  C   UNL A   1      44.298  32.110  27.003  1.00  0.00     0.002 A 
ATOM     95  C   UNL A   1      46.695  32.129  27.357  1.00  0.00     0.091 A 
ATOM     96  F   UNL A   1      47.673  30.487  28.789  1.00  0.00    -0.205 F 
ATOM     97  C   UNL A   1      45.549  32.668  26.751  1.00  0.00     0.022 A 
BRANCH  95  98
ATOM     98  S   UNL A   1      48.257  32.964  27.076  1.00  0.00     0.127 S 
ATOM     99  O   UNL A   1      48.679  33.297  28.434  1.00  0.00    -0.237 OA
ATOM    100  O   UNL A   1      49.057  31.924  26.424  1.00  0.00    -0.237 OA
ATOM    101  O   UNL A   1      47.956  34.103  26.218  1.00  0.00    -0.744 OA
ENDBRANCH  95  98
ENDBRANCH  68  91
ENDBRANCH  42  43
ENDBRANCH  34  37
ENDBRANCH  32  33
ENDBRANCH   1  32
TORSDOF 18
ENDMDL
MODEL 3
REMARK VINA RESULT:     -12.5      3.430      8.700
REMARK SMILES COc1ccc2c(c1)c(CC(=O)NCCCNC(=O)c1ccc(-c3c4nc(c(-c5cccc(S(=O)(=O)[O-])c5F)c5ccc([nH]5)c(-c5cccc(S(=O)(=O)[O-])c5F)c5nc(c(-c6cccc(S(=O)(=O)[O-])c6F)c6ccc3[nH]6)C=C5)C=C4)cc1)c(C(F)(F)F)n2C(=O)c1ccc(Cl)cc1
REMARK SMILES IDX 15 1 14 2 13 3 11 4 12 5 10 7 9 8 3 9 4 10 8 11 5 12 7 13
REMARK SMILES IDX 6 14 88 15 83 16 2 17 1 18 89 19 90 20 91 21 92 22 97 23
REMARK SMILES IDX 93 24 96 25 94 26 95 27 84 28 85 29 86 30 87 31 16 32 17 33
REMARK SMILES IDX 18 34 19 36 20 37 21 38 82 39 22 40 81 41 23 42 24 43 25 44
REMARK SMILES IDX 75 45 26 46 80 47 74 48 76 49 27 50 79 51 73 52 72 53 28 55
REMARK SMILES IDX 60 56 40 57 59 58 41 59 44 60 58 61 77 62 42 63 43 64 57 66
REMARK SMILES IDX 78 67 45 68 29 69 30 70 38 71 31 72 33 73 39 74 32 75 34 76
REMARK SMILES IDX 35 77 36 78 37 79 61 80 62 81 70 82 63 83 65 84 71 85 64 86
REMARK SMILES IDX 66 87 67 88 68 89 69 90 46 91 47 92 55 93 48 94 50 95 56 96
REMARK SMILES IDX 49 97 51 98 52 99 53 100 54 101
REMARK H PARENT 13 6 17 35 76 54 44 65
REMARK Flexibility Score: inf
ROOT
ATOM      1  C   UNL A   1      37.952  23.676  25.865  1.00  0.00     0.042 C 
ENDROOT
BRANCH   1   2
ATOM      2  C   UNL A   1      36.473  23.456  25.552  1.00  0.00     0.117 C 
BRANCH   2   3
ATOM      3  N   UNL A   1      35.877  22.443  26.407  1.00  0.00    -0.356 N 
ATOM      4  C   UNL A   1      34.656  22.425  27.013  1.00  0.00     0.224 C 
ATOM      5  O   UNL A   1      34.366  21.451  27.713  1.00  0.00    -0.275 OA
ATOM      6  H   UNL A   1      36.439  21.652  26.573  1.00  0.00     0.163 HD
BRANCH   4   7
ATOM      7  C   UNL A   1      33.669  23.555  26.780  1.00  0.00     0.138 C 
BRANCH   7   8
ATOM      8  C   UNL A   1      33.196  23.665  25.358  1.00  0.00     0.000 A 
ATOM      9  C   UNL A   1      32.406  20.354  23.624  1.00  0.00     0.119 A 
ATOM     10  C   UNL A   1      32.150  20.899  22.375  1.00  0.00     0.048 A 
ATOM     11  C   UNL A   1      32.740  21.194  24.688  1.00  0.00     0.057 A 
ATOM     12  C   UNL A   1      32.214  22.282  22.168  1.00  0.00     0.031 A 
ATOM     13  C   UNL A   1      32.814  22.593  24.505  1.00  0.00     0.008 A 
ATOM     14  C   UNL A   1      32.505  23.134  23.252  1.00  0.00     0.057 A 
ATOM     15  N   UNL A   1      32.500  24.531  23.390  1.00  0.00    -0.271 N 
ATOM     16  C   UNL A   1      33.147  24.826  24.590  1.00  0.00     0.135 A 
BRANCH   9  17
ATOM     17  O   UNL A   1      32.346  19.023  23.932  1.00  0.00    -0.497 OA
ATOM     18  C   UNL A   1      33.021  18.634  25.122  1.00  0.00     0.278 C 
ENDBRANCH   9  17
BRANCH  15  19
ATOM     19  C   UNL A   1      31.901  25.482  22.517  1.00  0.00     0.262 C 
ATOM     20  O   UNL A   1      32.385  25.607  21.401  1.00  0.00    -0.268 OA
BRANCH  19  21
ATOM     21  C   UNL A   1      30.781  26.369  22.879  1.00  0.00     0.040 A 
ATOM     22  C   UNL A   1      29.730  25.890  23.669  1.00  0.00     0.015 A 
ATOM     23  C   UNL A   1      30.761  27.672  22.372  1.00  0.00     0.015 A 
ATOM     24  C   UNL A   1      28.608  26.697  23.876  1.00  0.00     0.021 A 
ATOM     25  C   UNL A   1      29.640  28.477  22.592  1.00  0.00     0.021 A 
ATOM     26  C   UNL A   1      28.559  27.978  23.321  1.00  0.00     0.041 A 
ATOM     27  Cl  UNL A   1      27.139  28.931  23.505  1.00  0.00    -0.084 Cl
ENDBRANCH  19  21
ENDBRANCH  15  19
BRANCH  16  28
ATOM     28  C   UNL A   1      33.636  26.194  24.934  1.00  0.00     0.432 C 
ATOM     29  F   UNL A   1      32.707  26.912  25.606  1.00  0.00    -0.165 F 
ATOM     30  F   UNL A   1      34.712  26.099  25.770  1.00  0.00    -0.165 F 
ATOM     31  F   UNL A   1      34.082  26.910  23.877  1.00  0.00    -0.165 F 
ENDBRANCH  16  28
ENDBRANCH   7   8
ENDBRANCH   4   7
ENDBRANCH   2   3
ENDBRANCH   1   2
BRANCH   1  32
ATOM     32  C   UNL A   1      38.642  22.442  26.451  1.00  0.00     0.118 C 
BRANCH  32  33
ATOM     33  N   UNL A   1      39.982  22.209  25.946  1.00  0.00    -0.352 N 
ATOM     34  C   UNL A   1      41.191  22.835  26.082  1.00  0.00     0.251 C 
ATOM     35  H   UNL A   1      40.034  21.413  25.369  1.00  0.00     0.163 HD
ATOM     36  O   UNL A   1      42.151  22.257  25.565  1.00  0.00    -0.269 OA
BRANCH  34  37
ATOM     37  C   UNL A   1      41.402  24.159  26.724  1.00  0.00     0.039 A 
ATOM     38  C   UNL A   1      42.007  24.369  27.964  1.00  0.00     0.014 A 
ATOM     39  C   UNL A   1      40.883  25.270  26.032  1.00  0.00     0.014 A 
ATOM     40  C   UNL A   1      41.972  25.623  28.561  1.00  0.00     0.010 A 
ATOM     41  C   UNL A   1      40.872  26.533  26.610  1.00  0.00     0.010 A 
ATOM     42  C   UNL A   1      41.360  26.690  27.903  1.00  0.00    -0.014 A 
BRANCH  42  43
ATOM     43  C   UNL A   1      41.288  27.966  28.605  1.00  0.00     0.031 A 
ATOM     44  C   UNL A   1      42.323  28.968  28.221  1.00  0.00     0.074 A 
ATOM     45  C   UNL A   1      40.304  28.248  29.481  1.00  0.00     0.049 A 
ATOM     46  N   UNL A   1      43.240  29.504  28.964  1.00  0.00    -0.248 NA
ATOM     47  C   UNL A   1      42.408  29.336  26.801  1.00  0.00     0.031 C 
ATOM     48  C   UNL A   1      39.084  27.474  29.739  1.00  0.00     0.029 A 
ATOM     49  N   UNL A   1      40.126  29.366  30.240  1.00  0.00    -0.354 N 
ATOM     50  C   UNL A   1      43.895  30.424  28.145  1.00  0.00     0.074 A 
ATOM     51  C   UNL A   1      43.436  30.184  26.802  1.00  0.00     0.031 C 
ATOM     52  C   UNL A   1      38.193  28.254  30.390  1.00  0.00     0.029 A 
ATOM     53  C   UNL A   1      38.830  29.513  30.723  1.00  0.00     0.049 A 
ATOM     54  H   UNL A   1      40.847  30.009  30.428  1.00  0.00     0.167 HD
ATOM     55  C   UNL A   1      44.625  31.461  28.639  1.00  0.00     0.034 A 
ATOM     56  C   UNL A   1      38.313  30.629  31.287  1.00  0.00     0.034 A 
ATOM     57  C   UNL A   1      44.914  31.311  30.036  1.00  0.00     0.049 A 
ATOM     58  C   UNL A   1      39.451  31.437  31.774  1.00  0.00     0.074 A 
ATOM     59  C   UNL A   1      45.735  30.517  30.805  1.00  0.00     0.029 A 
ATOM     60  N   UNL A   1      44.002  31.888  30.880  1.00  0.00    -0.354 N 
ATOM     61  N   UNL A   1      40.244  31.067  32.738  1.00  0.00    -0.248 NA
ATOM     62  C   UNL A   1      39.915  32.567  30.982  1.00  0.00     0.031 C 
ATOM     63  C   UNL A   1      45.064  30.379  32.056  1.00  0.00     0.029 A 
ATOM     64  C   UNL A   1      43.875  31.108  31.998  1.00  0.00     0.049 A 
ATOM     65  H   UNL A   1      43.517  32.728  30.711  1.00  0.00     0.167 HD
ATOM     66  C   UNL A   1      41.469  31.622  32.410  1.00  0.00     0.074 A 
ATOM     67  C   UNL A   1      41.165  32.664  31.439  1.00  0.00     0.031 C 
ATOM     68  C   UNL A   1      42.632  30.985  32.732  1.00  0.00     0.034 A 
BRANCH  55  69
ATOM     69  C   UNL A   1      44.789  32.790  27.946  1.00  0.00     0.023 A 
ATOM     70  C   UNL A   1      46.045  33.112  27.388  1.00  0.00     0.012 A 
ATOM     71  C   UNL A   1      43.842  33.835  28.048  1.00  0.00     0.148 A 
ATOM     72  C   UNL A   1      46.339  34.409  26.947  1.00  0.00     0.002 A 
ATOM     73  C   UNL A   1      44.111  35.101  27.542  1.00  0.00     0.091 A 
ATOM     74  F   UNL A   1      42.721  33.641  28.754  1.00  0.00    -0.205 F 
ATOM     75  C   UNL A   1      45.366  35.400  27.007  1.00  0.00     0.022 A 
BRANCH  73  76
ATOM     76  S   UNL A   1      42.871  36.401  27.559  1.00  0.00     0.127 S 
ATOM     77  O   UNL A   1      43.523  37.440  26.768  1.00  0.00    -0.237 OA
ATOM     78  O   UNL A   1      41.737  35.746  26.907  1.00  0.00    -0.237 OA
ATOM     79  O   UNL A   1      42.653  36.702  28.968  1.00  0.00    -0.744 OA
ENDBRANCH  73  76
ENDBRANCH  55  69
BRANCH  56  80
ATOM     80  C   UNL A   1      36.939  31.182  31.238  1.00  0.00     0.023 A 
ATOM     81  C   UNL A   1      36.361  31.678  32.426  1.00  0.00     0.012 A 
ATOM     82  C   UNL A   1      36.324  31.514  30.012  1.00  0.00     0.148 A 
ATOM     83  C   UNL A   1      35.256  32.534  32.391  1.00  0.00     0.002 A 
ATOM     84  C   UNL A   1      35.217  32.358  29.982  1.00  0.00     0.091 A 
ATOM     85  F   UNL A   1      36.883  31.092  28.870  1.00  0.00    -0.205 F 
ATOM     86  C   UNL A   1      34.693  32.886  31.169  1.00  0.00     0.022 A 
BRANCH  84  87
ATOM     87  S   UNL A   1      34.449  32.869  28.439  1.00  0.00     0.127 S 
ATOM     88  O   UNL A   1      33.900  31.609  27.937  1.00  0.00    -0.237 OA
ATOM     89  O   UNL A   1      33.452  33.830  28.902  1.00  0.00    -0.237 OA
ATOM     90  O   UNL A   1      35.529  33.414  27.625  1.00  0.00    -0.744 OA
ENDBRANCH  84  87
ENDBRANCH  56  80
BRANCH  68  91
ATOM     91  C   UNL A   1      42.551  29.883  33.755  1.00  0.00     0.023 A 
ATOM     92  C   UNL A   1      41.873  28.673  33.499  1.00  0.00     0.012 A 
ATOM     93  C   UNL A   1      43.278  30.019  34.948  1.00  0.00     0.148 A 
ATOM     94  C   UNL A   1      41.903  27.628  34.425  1.00  0.00     0.002 A 
ATOM     95  C   UNL A   1      43.337  28.963  35.851  1.00  0.00     0.091 A 
ATOM     96  F   UNL A   1      43.924  31.174  35.167  1.00  0.00    -0.205 F 
ATOM     97  C   UNL A   1      42.644  27.769  35.597  1.00  0.00     0.022 A 
BRANCH  95  98
ATOM     98  S   UNL A   1      44.358  29.036  37.323  1.00  0.00     0.127 S 
ATOM     99  O   UNL A   1      43.778  30.164  38.047  1.00  0.00    -0.237 OA
ATOM    100  O   UNL A   1      44.120  27.727  37.937  1.00  0.00    -0.237 OA
ATOM    101  O   UNL A   1      45.726  29.230  36.856  1.00  0.00    -0.744 OA
ENDBRANCH  95  98
ENDBRANCH  68  91
ENDBRANCH  42  43
ENDBRANCH  34  37
ENDBRANCH  32  33
ENDBRANCH   1  32
TORSDOF 18
ENDMDL
