MODEL 1
REMARK VINA RESULT:     -12.6      0.000      0.000
REMARK SMILES Cc1cc2n(n1)[C@H](C(F)(F)F)CCN2C(=O)c1cnn([C@@H](C)C(=O)NCCCNC(=O)c2ccc(-c3c4nc(c(-c5cccc(S(=O)(=O)[O-])c5F)c5ccc([nH]5)c(-c5cccc(S(=O)(=O)[O-])c5F)c5nc(c(-c6cccc(S(=O)(=O)[O-])c6F)c6ccc3[nH]6)C=C5)C=C4)cc2)c1
REMARK SMILES IDX 26 1 25 2 23 3 24 4 21 6 22 7 20 8 17 9 18 10 95 11 19 12
REMARK SMILES IDX 15 13 16 14 14 15 1 16 2 17 3 18 6 19 4 20 5 21 7 22 13 23
REMARK SMILES IDX 12 24 8 25 9 26 10 27 11 28 27 29 28 30 29 31 30 32 31 34
REMARK SMILES IDX 32 35 33 36 94 37 34 38 93 39 35 40 36 41 37 42 87 43 38 44
REMARK SMILES IDX 92 45 86 46 88 47 39 48 91 49 85 50 84 51 40 53 72 54 52 55
REMARK SMILES IDX 71 56 53 57 56 58 70 59 89 60 54 61 55 62 69 64 90 65 57 66
REMARK SMILES IDX 41 67 42 68 50 69 43 70 45 71 51 72 44 73 46 74 47 75 48 76
REMARK SMILES IDX 49 77 73 78 74 79 82 80 75 81 77 82 83 83 76 84 78 85 79 86
REMARK SMILES IDX 80 87 81 88 58 89 59 90 67 91 60 92 62 93 68 94 61 95 63 96
REMARK SMILES IDX 64 97 65 98 66 99
REMARK H PARENT 25 5 29 33 88 52 56 63
REMARK Flexibility Score: inf
ROOT
ATOM      1  C   UNL A   1      38.097  23.690  25.841  1.00  0.00     0.117 C 
ENDROOT
BRANCH   1   2
ATOM      2  N   UNL A   1      37.400  23.619  24.565  1.00  0.00    -0.354 N 
ATOM      3  C   UNL A   1      36.229  23.024  24.202  1.00  0.00     0.244 C 
ATOM      4  O   UNL A   1      35.868  23.189  23.031  1.00  0.00    -0.273 OA
ATOM      5  H   UNL A   1      37.858  24.088  23.830  1.00  0.00     0.163 HD
BRANCH   3   6
ATOM      6  C   UNL A   1      35.328  22.231  25.142  1.00  0.00     0.193 C 
ATOM      7  C   UNL A   1      35.470  20.717  25.034  1.00  0.00     0.044 C 
BRANCH   6   8
ATOM      8  N   UNL A   1      33.949  22.706  25.137  1.00  0.00    -0.260 N 
ATOM      9  C   UNL A   1      32.125  23.936  25.343  1.00  0.00     0.078 A 
ATOM     10  C   UNL A   1      31.902  22.735  24.648  1.00  0.00     0.149 A 
ATOM     11  C   UNL A   1      33.487  23.913  25.594  1.00  0.00     0.123 A 
ATOM     12  N   UNL A   1      32.941  21.907  24.741  1.00  0.00    -0.180 NA
BRANCH   9  13
ATOM     13  C   UNL A   1      31.213  25.003  25.657  1.00  0.00     0.262 C 
ATOM     14  O   UNL A   1      30.384  24.949  26.556  1.00  0.00    -0.269 OA
BRANCH  13  15
ATOM     15  N   UNL A   1      31.253  26.125  24.715  1.00  0.00    -0.293 N 
ATOM     16  C   UNL A   1      32.837  30.149  27.279  1.00  0.00     0.069 C 
ATOM     17  C   UNL A   1      32.368  29.200  26.242  1.00  0.00     0.062 A 
ATOM     18  C   UNL A   1      32.199  27.796  26.368  1.00  0.00     0.072 A 
ATOM     19  N   UNL A   1      32.021  29.633  25.023  1.00  0.00    -0.176 NA
ATOM     20  C   UNL A   1      31.666  27.386  25.169  1.00  0.00     0.134 A 
ATOM     21  N   UNL A   1      31.588  28.525  24.411  1.00  0.00    -0.237 N 
ATOM     22  C   UNL A   1      31.111  28.562  23.047  1.00  0.00     0.216 C 
ATOM     23  C   UNL A   1      30.612  26.071  23.373  1.00  0.00     0.130 C 
ATOM     24  C   UNL A   1      31.162  27.155  22.441  1.00  0.00     0.059 C 
BRANCH  22  25
ATOM     25  C   UNL A   1      29.719  29.151  22.989  1.00  0.00     0.410 C 
ATOM     26  F   UNL A   1      29.265  29.121  21.710  1.00  0.00    -0.169 F 
ATOM     27  F   UNL A   1      28.840  28.436  23.727  1.00  0.00    -0.169 F 
ATOM     28  F   UNL A   1      29.661  30.434  23.392  1.00  0.00    -0.169 F 
ENDBRANCH  22  25
ENDBRANCH  13  15
ENDBRANCH   9  13
ENDBRANCH   6   8
ENDBRANCH   3   6
ENDBRANCH   1   2
BRANCH   1  29
ATOM     29  C   UNL A   1      38.900  22.428  26.174  1.00  0.00     0.042 C 
BRANCH  29  30
ATOM     30  C   UNL A   1      40.112  22.693  27.042  1.00  0.00     0.118 C 
BRANCH  30  31
ATOM     31  N   UNL A   1      41.338  22.873  26.266  1.00  0.00    -0.352 N 
ATOM     32  C   UNL A   1      42.031  24.050  26.060  1.00  0.00     0.251 C 
ATOM     33  H   UNL A   1      41.711  22.066  25.843  1.00  0.00     0.163 HD
ATOM     34  O   UNL A   1      42.867  24.141  25.170  1.00  0.00    -0.269 OA
BRANCH  32  35
ATOM     35  C   UNL A   1      41.700  25.201  26.916  1.00  0.00     0.039 A 
ATOM     36  C   UNL A   1      42.334  25.365  28.148  1.00  0.00     0.014 A 
ATOM     37  C   UNL A   1      40.862  26.186  26.400  1.00  0.00     0.014 A 
ATOM     38  C   UNL A   1      42.208  26.584  28.812  1.00  0.00     0.010 A 
ATOM     39  C   UNL A   1      40.852  27.432  26.992  1.00  0.00     0.010 A 
ATOM     40  C   UNL A   1      41.501  27.639  28.211  1.00  0.00    -0.014 A 
BRANCH  40  41
ATOM     41  C   UNL A   1      41.574  28.990  28.785  1.00  0.00     0.031 A 
ATOM     42  C   UNL A   1      42.758  29.806  28.381  1.00  0.00     0.074 A 
ATOM     43  C   UNL A   1      40.547  29.588  29.429  1.00  0.00     0.049 A 
ATOM     44  N   UNL A   1      43.671  30.315  29.144  1.00  0.00    -0.248 NA
ATOM     45  C   UNL A   1      43.002  30.013  26.944  1.00  0.00     0.031 C 
ATOM     46  C   UNL A   1      39.195  29.049  29.622  1.00  0.00     0.029 A 
ATOM     47  N   UNL A   1      40.435  30.868  29.900  1.00  0.00    -0.354 N 
ATOM     48  C   UNL A   1      44.464  31.105  28.308  1.00  0.00     0.074 A 
ATOM     49  C   UNL A   1      44.126  30.732  26.961  1.00  0.00     0.031 C 
ATOM     50  C   UNL A   1      38.344  30.062  29.879  1.00  0.00     0.029 A 
ATOM     51  C   UNL A   1      39.117  31.271  30.077  1.00  0.00     0.049 A 
ATOM     52  H   UNL A   1      41.209  31.445  30.093  1.00  0.00     0.167 HD
ATOM     53  C   UNL A   1      45.129  32.193  28.789  1.00  0.00     0.034 A 
ATOM     54  C   UNL A   1      38.656  32.509  30.361  1.00  0.00     0.034 A 
ATOM     55  C   UNL A   1      45.155  32.200  30.228  1.00  0.00     0.049 A 
ATOM     56  C   UNL A   1      39.742  33.269  31.009  1.00  0.00     0.074 A 
ATOM     57  C   UNL A   1      45.794  31.519  31.239  1.00  0.00     0.029 A 
ATOM     58  N   UNL A   1      44.123  32.900  30.792  1.00  0.00    -0.354 N 
ATOM     59  N   UNL A   1      40.241  32.954  32.172  1.00  0.00    -0.248 NA
ATOM     60  C   UNL A   1      40.494  34.265  30.256  1.00  0.00     0.031 C 
ATOM     61  C   UNL A   1      44.975  31.677  32.398  1.00  0.00     0.029 A 
ATOM     62  C   UNL A   1      43.868  32.452  32.057  1.00  0.00     0.049 A 
ATOM     63  H   UNL A   1      43.632  33.627  30.346  1.00  0.00     0.167 HD
ATOM     64  C   UNL A   1      41.561  33.352  32.089  1.00  0.00     0.074 A 
ATOM     65  C   UNL A   1      41.598  34.324  31.007  1.00  0.00     0.031 C 
ATOM     66  C   UNL A   1      42.554  32.605  32.650  1.00  0.00     0.034 A 
BRANCH  53  67
ATOM     67  C   UNL A   1      45.363  33.501  28.043  1.00  0.00     0.023 A 
ATOM     68  C   UNL A   1      46.713  33.871  27.812  1.00  0.00     0.012 A 
ATOM     69  C   UNL A   1      44.394  34.510  27.853  1.00  0.00     0.148 A 
ATOM     70  C   UNL A   1      47.080  35.183  27.490  1.00  0.00     0.002 A 
ATOM     71  C   UNL A   1      44.758  35.797  27.460  1.00  0.00     0.091 A 
ATOM     72  F   UNL A   1      43.118  34.290  28.181  1.00  0.00    -0.205 F 
ATOM     73  C   UNL A   1      46.100  36.149  27.311  1.00  0.00     0.022 A 
BRANCH  71  74
ATOM     74  S   UNL A   1      43.515  37.064  27.174  1.00  0.00     0.127 S 
ATOM     75  O   UNL A   1      42.675  36.428  26.165  1.00  0.00    -0.237 OA
ATOM     76  O   UNL A   1      42.905  37.200  28.496  1.00  0.00    -0.237 OA
ATOM     77  O   UNL A   1      44.263  38.241  26.744  1.00  0.00    -0.744 OA
ENDBRANCH  71  74
ENDBRANCH  53  67
BRANCH  54  78
ATOM     78  C   UNL A   1      37.336  33.100  30.064  1.00  0.00     0.023 A 
ATOM     79  C   UNL A   1      36.793  33.001  28.772  1.00  0.00     0.012 A 
ATOM     80  C   UNL A   1      36.509  33.569  31.111  1.00  0.00     0.148 A 
ATOM     81  C   UNL A   1      35.456  33.335  28.529  1.00  0.00     0.002 A 
ATOM     82  C   UNL A   1      35.182  33.904  30.865  1.00  0.00     0.091 A 
ATOM     83  F   UNL A   1      37.009  33.612  32.354  1.00  0.00    -0.205 F 
ATOM     84  C   UNL A   1      34.649  33.777  29.575  1.00  0.00     0.022 A 
BRANCH  82  85
ATOM     85  S   UNL A   1      34.074  34.469  32.163  1.00  0.00     0.127 S 
ATOM     86  O   UNL A   1      32.947  34.995  31.391  1.00  0.00    -0.237 OA
ATOM     87  O   UNL A   1      33.795  33.229  32.884  1.00  0.00    -0.237 OA
ATOM     88  O   UNL A   1      34.814  35.479  32.907  1.00  0.00    -0.744 OA
ENDBRANCH  82  85
ENDBRANCH  54  78
BRANCH  66  89
ATOM     89  C   UNL A   1      42.191  31.680  33.777  1.00  0.00     0.023 A 
ATOM     90  C   UNL A   1      41.887  32.147  35.070  1.00  0.00     0.012 A 
ATOM     91  C   UNL A   1      42.040  30.311  33.495  1.00  0.00     0.148 A 
ATOM     92  C   UNL A   1      41.470  31.265  36.069  1.00  0.00     0.002 A 
ATOM     93  C   UNL A   1      41.578  29.444  34.478  1.00  0.00     0.091 A 
ATOM     94  F   UNL A   1      42.336  29.879  32.259  1.00  0.00    -0.205 F 
ATOM     95  C   UNL A   1      41.303  29.916  35.770  1.00  0.00     0.022 A 
BRANCH  93  96
ATOM     96  S   UNL A   1      41.221  27.724  34.111  1.00  0.00     0.127 S 
ATOM     97  O   UNL A   1      42.413  27.314  33.374  1.00  0.00    -0.237 OA
ATOM     98  O   UNL A   1      41.091  27.136  35.445  1.00  0.00    -0.237 OA
ATOM     99  O   UNL A   1      39.978  27.735  33.347  1.00  0.00    -0.744 OA
ENDBRANCH  93  96
ENDBRANCH  66  89
ENDBRANCH  40  41
ENDBRANCH  32  35
ENDBRANCH  30  31
ENDBRANCH  29  30
ENDBRANCH   1  29
TORSDOF 17
ENDMDL
MODEL 2
REMARK VINA RESULT:     -12.6      3.644      7.217
REMARK SMILES Cc1cc2n(n1)[C@H](C(F)(F)F)CCN2C(=O)c1cnn([C@@H](C)C(=O)NCCCNC(=O)c2ccc(-c3c4nc(c(-c5cccc(S(=O)(=O)[O-])c5F)c5ccc([nH]5)c(-c5cccc(S(=O)(=O)[O-])c5F)c5nc(c(-c6cccc(S(=O)(=O)[O-])c6F)c6ccc3[nH]6)C=C5)C=C4)cc2)c1
REMARK SMILES IDX 26 1 25 2 23 3 24 4 21 6 22 7 20 8 17 9 18 10 95 11 19 12
REMARK SMILES IDX 15 13 16 14 14 15 1 16 2 17 3 18 6 19 4 20 5 21 7 22 13 23
REMARK SMILES IDX 12 24 8 25 9 26 10 27 11 28 27 29 28 30 29 31 30 32 31 34
REMARK SMILES IDX 32 35 33 36 94 37 34 38 93 39 35 40 36 41 37 42 87 43 38 44
REMARK SMILES IDX 92 45 86 46 88 47 39 48 91 49 85 50 84 51 40 53 72 54 52 55
REMARK SMILES IDX 71 56 53 57 56 58 70 59 89 60 54 61 55 62 69 64 90 65 57 66
REMARK SMILES IDX 41 67 42 68 50 69 43 70 45 71 51 72 44 73 46 74 47 75 48 76
REMARK SMILES IDX 49 77 73 78 74 79 82 80 75 81 77 82 83 83 76 84 78 85 79 86
REMARK SMILES IDX 80 87 81 88 58 89 59 90 67 91 60 92 62 93 68 94 61 95 63 96
REMARK SMILES IDX 64 97 65 98 66 99
REMARK H PARENT 25 5 29 33 88 52 56 63
REMARK Flexibility Score: inf
ROOT
ATOM      1  C   UNL A   1      37.530  21.482  25.714  1.00  0.00     0.117 C 
ENDROOT
BRANCH   1   2
ATOM      2  N   UNL A   1      36.754  22.039  24.617  1.00  0.00    -0.354 N 
ATOM      3  C   UNL A   1      35.426  21.976  24.319  1.00  0.00     0.244 C 
ATOM      4  O   UNL A   1      35.054  22.610  23.325  1.00  0.00    -0.273 OA
ATOM      5  H   UNL A   1      37.286  22.559  23.972  1.00  0.00     0.163 HD
BRANCH   3   6
ATOM      6  C   UNL A   1      34.384  21.233  25.147  1.00  0.00     0.193 C 
ATOM      7  C   UNL A   1      34.156  19.783  24.733  1.00  0.00     0.044 C 
BRANCH   6   8
ATOM      8  N   UNL A   1      33.159  22.001  25.334  1.00  0.00    -0.260 N 
ATOM      9  C   UNL A   1      31.700  23.636  25.625  1.00  0.00     0.078 A 
ATOM     10  C   UNL A   1      31.092  22.401  25.339  1.00  0.00     0.149 A 
ATOM     11  C   UNL A   1      33.054  23.351  25.553  1.00  0.00     0.123 A 
ATOM     12  N   UNL A   1      31.960  21.393  25.404  1.00  0.00    -0.180 NA
BRANCH   9  13
ATOM     13  C   UNL A   1      31.105  24.926  25.849  1.00  0.00     0.262 C 
ATOM     14  O   UNL A   1      30.362  25.180  26.788  1.00  0.00    -0.269 OA
BRANCH  13  15
ATOM     15  N   UNL A   1      31.345  25.894  24.775  1.00  0.00    -0.293 N 
ATOM     16  C   UNL A   1      33.969  29.691  26.767  1.00  0.00     0.069 C 
ATOM     17  C   UNL A   1      33.231  28.770  25.871  1.00  0.00     0.062 A 
ATOM     18  C   UNL A   1      32.751  27.469  26.176  1.00  0.00     0.072 A 
ATOM     19  N   UNL A   1      32.919  29.132  24.620  1.00  0.00    -0.176 NA
ATOM     20  C   UNL A   1      32.065  27.065  25.055  1.00  0.00     0.134 A 
ATOM     21  N   UNL A   1      32.205  28.097  24.165  1.00  0.00    -0.237 N 
ATOM     22  C   UNL A   1      31.666  28.092  22.823  1.00  0.00     0.216 C 
ATOM     23  C   UNL A   1      30.628  25.842  23.472  1.00  0.00     0.130 C 
ATOM     24  C   UNL A   1      31.354  26.654  22.395  1.00  0.00     0.059 C 
BRANCH  22  25
ATOM     25  C   UNL A   1      30.447  28.983  22.740  1.00  0.00     0.410 C 
ATOM     26  F   UNL A   1      30.624  29.904  21.758  1.00  0.00    -0.169 F 
ATOM     27  F   UNL A   1      29.336  28.284  22.417  1.00  0.00    -0.169 F 
ATOM     28  F   UNL A   1      30.201  29.666  23.873  1.00  0.00    -0.169 F 
ENDBRANCH  22  25
ENDBRANCH  13  15
ENDBRANCH   9  13
ENDBRANCH   6   8
ENDBRANCH   3   6
ENDBRANCH   1   2
BRANCH   1  29
ATOM     29  C   UNL A   1      38.860  20.861  25.274  1.00  0.00     0.042 C 
BRANCH  29  30
ATOM     30  C   UNL A   1      39.551  20.072  26.367  1.00  0.00     0.118 C 
BRANCH  30  31
ATOM     31  N   UNL A   1      40.631  19.228  25.860  1.00  0.00    -0.352 N 
ATOM     32  C   UNL A   1      41.969  19.556  25.758  1.00  0.00     0.251 C 
ATOM     33  H   UNL A   1      40.378  18.325  25.559  1.00  0.00     0.163 HD
ATOM     34  O   UNL A   1      42.729  18.894  25.062  1.00  0.00    -0.269 OA
BRANCH  32  35
ATOM     35  C   UNL A   1      42.441  20.751  26.477  1.00  0.00     0.039 A 
ATOM     36  C   UNL A   1      42.974  21.830  25.770  1.00  0.00     0.014 A 
ATOM     37  C   UNL A   1      42.203  20.834  27.846  1.00  0.00     0.014 A 
ATOM     38  C   UNL A   1      43.162  23.041  26.434  1.00  0.00     0.010 A 
ATOM     39  C   UNL A   1      42.262  22.067  28.461  1.00  0.00     0.010 A 
ATOM     40  C   UNL A   1      42.764  23.175  27.774  1.00  0.00    -0.014 A 
BRANCH  40  41
ATOM     41  C   UNL A   1      42.730  24.504  28.399  1.00  0.00     0.031 A 
ATOM     42  C   UNL A   1      41.518  25.329  28.110  1.00  0.00     0.074 A 
ATOM     43  C   UNL A   1      43.581  24.898  29.373  1.00  0.00     0.049 A 
ATOM     44  N   UNL A   1      41.464  26.491  27.543  1.00  0.00    -0.248 NA
ATOM     45  C   UNL A   1      40.198  24.756  28.416  1.00  0.00     0.031 C 
ATOM     46  C   UNL A   1      44.625  24.086  30.010  1.00  0.00     0.029 A 
ATOM     47  N   UNL A   1      43.588  26.044  30.119  1.00  0.00    -0.354 N 
ATOM     48  C   UNL A   1      40.131  26.897  27.640  1.00  0.00     0.074 A 
ATOM     49  C   UNL A   1      39.379  25.727  28.007  1.00  0.00     0.031 C 
ATOM     50  C   UNL A   1      44.945  24.627  31.203  1.00  0.00     0.029 A 
ATOM     51  C   UNL A   1      44.292  25.916  31.310  1.00  0.00     0.049 A 
ATOM     52  H   UNL A   1      43.140  26.876  29.841  1.00  0.00     0.167 HD
ATOM     53  C   UNL A   1      39.798  28.218  27.684  1.00  0.00     0.034 A 
ATOM     54  C   UNL A   1      44.353  26.788  32.340  1.00  0.00     0.034 A 
ATOM     55  C   UNL A   1      40.907  29.053  27.305  1.00  0.00     0.049 A 
ATOM     56  C   UNL A   1      44.033  28.134  31.826  1.00  0.00     0.074 A 
ATOM     57  C   UNL A   1      41.583  29.390  26.155  1.00  0.00     0.029 A 
ATOM     58  N   UNL A   1      41.664  29.472  28.366  1.00  0.00    -0.354 N 
ATOM     59  N   UNL A   1      44.783  28.766  30.965  1.00  0.00    -0.248 NA
ATOM     60  C   UNL A   1      42.720  28.719  32.059  1.00  0.00     0.031 C 
ATOM     61  C   UNL A   1      42.870  29.842  26.574  1.00  0.00     0.029 A 
ATOM     62  C   UNL A   1      42.936  29.770  27.964  1.00  0.00     0.049 A 
ATOM     63  H   UNL A   1      41.337  29.548  29.291  1.00  0.00     0.167 HD
ATOM     64  C   UNL A   1      43.888  29.527  30.238  1.00  0.00     0.074 A 
ATOM     65  C   UNL A   1      42.703  29.625  31.076  1.00  0.00     0.031 C 
ATOM     66  C   UNL A   1      44.046  29.700  28.894  1.00  0.00     0.034 A 
BRANCH  53  67
ATOM     67  C   UNL A   1      38.661  28.827  28.495  1.00  0.00     0.023 A 
ATOM     68  C   UNL A   1      37.803  29.729  27.814  1.00  0.00     0.012 A 
ATOM     69  C   UNL A   1      38.581  28.828  29.905  1.00  0.00     0.148 A 
ATOM     70  C   UNL A   1      36.977  30.630  28.497  1.00  0.00     0.002 A 
ATOM     71  C   UNL A   1      37.702  29.675  30.578  1.00  0.00     0.091 A 
ATOM     72  F   UNL A   1      39.445  28.114  30.630  1.00  0.00    -0.205 F 
ATOM     73  C   UNL A   1      36.924  30.602  29.883  1.00  0.00     0.022 A 
BRANCH  71  74
ATOM     74  S   UNL A   1      37.571  29.638  32.371  1.00  0.00     0.127 S 
ATOM     75  O   UNL A   1      38.804  30.307  32.769  1.00  0.00    -0.237 OA
ATOM     76  O   UNL A   1      36.345  30.402  32.604  1.00  0.00    -0.237 OA
ATOM     77  O   UNL A   1      37.460  28.224  32.715  1.00  0.00    -0.744 OA
ENDBRANCH  71  74
ENDBRANCH  53  67
BRANCH  54  78
ATOM     78  C   UNL A   1      44.626  26.524  33.767  1.00  0.00     0.023 A 
ATOM     79  C   UNL A   1      45.939  26.606  34.261  1.00  0.00     0.012 A 
ATOM     80  C   UNL A   1      43.562  26.409  34.691  1.00  0.00     0.148 A 
ATOM     81  C   UNL A   1      46.187  26.600  35.638  1.00  0.00     0.002 A 
ATOM     82  C   UNL A   1      43.813  26.399  36.058  1.00  0.00     0.091 A 
ATOM     83  F   UNL A   1      42.306  26.386  34.224  1.00  0.00    -0.205 F 
ATOM     84  C   UNL A   1      45.126  26.506  36.536  1.00  0.00     0.022 A 
BRANCH  82  85
ATOM     85  S   UNL A   1      42.499  26.294  37.280  1.00  0.00     0.127 S 
ATOM     86  O   UNL A   1      43.248  26.333  38.536  1.00  0.00    -0.237 OA
ATOM     87  O   UNL A   1      41.722  27.498  36.993  1.00  0.00    -0.237 OA
ATOM     88  O   UNL A   1      41.820  25.030  37.026  1.00  0.00    -0.744 OA
ENDBRANCH  82  85
ENDBRANCH  54  78
BRANCH  66  89
ATOM     89  C   UNL A   1      45.423  29.532  28.318  1.00  0.00     0.023 A 
ATOM     90  C   UNL A   1      46.411  30.531  28.417  1.00  0.00     0.012 A 
ATOM     91  C   UNL A   1      45.767  28.287  27.762  1.00  0.00     0.148 A 
ATOM     92  C   UNL A   1      47.706  30.305  27.946  1.00  0.00     0.002 A 
ATOM     93  C   UNL A   1      47.069  28.050  27.338  1.00  0.00     0.091 A 
ATOM     94  F   UNL A   1      44.815  27.346  27.671  1.00  0.00    -0.205 F 
ATOM     95  C   UNL A   1      48.038  29.061  27.418  1.00  0.00     0.022 A 
BRANCH  93  96
ATOM     96  S   UNL A   1      47.584  26.427  26.773  1.00  0.00     0.127 S 
ATOM     97  O   UNL A   1      46.718  26.217  25.614  1.00  0.00    -0.237 OA
ATOM     98  O   UNL A   1      48.997  26.636  26.453  1.00  0.00    -0.237 OA
ATOM     99  O   UNL A   1      47.360  25.529  27.900  1.00  0.00    -0.744 OA
ENDBRANCH  93  96
ENDBRANCH  66  89
ENDBRANCH  40  41
ENDBRANCH  32  35
ENDBRANCH  30  31
ENDBRANCH  29  30
ENDBRANCH   1  29
TORSDOF 17
ENDMDL
MODEL 3
REMARK VINA RESULT:     -12.4      3.872      9.194
REMARK SMILES Cc1cc2n(n1)[C@H](C(F)(F)F)CCN2C(=O)c1cnn([C@@H](C)C(=O)NCCCNC(=O)c2ccc(-c3c4nc(c(-c5cccc(S(=O)(=O)[O-])c5F)c5ccc([nH]5)c(-c5cccc(S(=O)(=O)[O-])c5F)c5nc(c(-c6cccc(S(=O)(=O)[O-])c6F)c6ccc3[nH]6)C=C5)C=C4)cc2)c1
REMARK SMILES IDX 26 1 25 2 23 3 24 4 21 6 22 7 20 8 17 9 18 10 95 11 19 12
REMARK SMILES IDX 15 13 16 14 14 15 1 16 2 17 3 18 6 19 4 20 5 21 7 22 13 23
REMARK SMILES IDX 12 24 8 25 9 26 10 27 11 28 27 29 28 30 29 31 30 32 31 34
REMARK SMILES IDX 32 35 33 36 94 37 34 38 93 39 35 40 36 41 37 42 87 43 38 44
REMARK SMILES IDX 92 45 86 46 88 47 39 48 91 49 85 50 84 51 40 53 72 54 52 55
REMARK SMILES IDX 71 56 53 57 56 58 70 59 89 60 54 61 55 62 69 64 90 65 57 66
REMARK SMILES IDX 41 67 42 68 50 69 43 70 45 71 51 72 44 73 46 74 47 75 48 76
REMARK SMILES IDX 49 77 73 78 74 79 82 80 75 81 77 82 83 83 76 84 78 85 79 86
REMARK SMILES IDX 80 87 81 88 58 89 59 90 67 91 60 92 62 93 68 94 61 95 63 96
REMARK SMILES IDX 64 97 65 98 66 99
REMARK H PARENT 25 5 29 33 88 52 56 63
REMARK Flexibility Score: inf
ROOT
ATOM      1  C   UNL A   1      31.781  29.485  25.739  1.00  0.00     0.117 C 
ENDROOT
BRANCH   1   2
ATOM      2  N   UNL A   1      32.391  29.343  24.426  1.00  0.00    -0.354 N 
ATOM      3  C   UNL A   1      32.011  28.647  23.318  1.00  0.00     0.244 C 
ATOM      4  O   UNL A   1      32.728  28.770  22.318  1.00  0.00    -0.273 OA
ATOM      5  H   UNL A   1      33.234  29.841  24.318  1.00  0.00     0.163 HD
BRANCH   3   6
ATOM      6  C   UNL A   1      30.754  27.790  23.218  1.00  0.00     0.193 C 
ATOM      7  C   UNL A   1      29.452  28.579  23.114  1.00  0.00     0.044 C 
BRANCH   6   8
ATOM      8  N   UNL A   1      30.725  26.713  24.200  1.00  0.00    -0.260 N 
ATOM      9  C   UNL A   1      31.283  25.064  25.562  1.00  0.00     0.078 A 
ATOM     10  C   UNL A   1      29.969  25.523  25.764  1.00  0.00     0.149 A 
ATOM     11  C   UNL A   1      31.768  25.906  24.574  1.00  0.00     0.123 A 
ATOM     12  N   UNL A   1      29.574  26.340  24.790  1.00  0.00    -0.180 NA
BRANCH   9  13
ATOM     13  C   UNL A   1      32.018  24.039  26.253  1.00  0.00     0.262 C 
ATOM     14  O   UNL A   1      31.798  23.706  27.410  1.00  0.00    -0.269 OA
BRANCH  13  15
ATOM     15  N   UNL A   1      33.162  23.511  25.505  1.00  0.00    -0.293 N 
ATOM     16  C   UNL A   1      32.401  18.574  24.937  1.00  0.00     0.069 C 
ATOM     17  C   UNL A   1      32.929  19.959  24.909  1.00  0.00     0.062 A 
ATOM     18  C   UNL A   1      32.283  21.139  25.360  1.00  0.00     0.072 A 
ATOM     19  N   UNL A   1      34.158  20.215  24.442  1.00  0.00    -0.176 NA
ATOM     20  C   UNL A   1      33.209  22.142  25.201  1.00  0.00     0.134 A 
ATOM     21  N   UNL A   1      34.302  21.529  24.647  1.00  0.00    -0.237 N 
ATOM     22  C   UNL A   1      35.518  22.216  24.274  1.00  0.00     0.216 C 
ATOM     23  C   UNL A   1      34.412  24.289  25.292  1.00  0.00     0.130 C 
ATOM     24  C   UNL A   1      35.245  23.718  24.141  1.00  0.00     0.059 C 
BRANCH  22  25
ATOM     25  C   UNL A   1      36.616  21.928  25.274  1.00  0.00     0.410 C 
ATOM     26  F   UNL A   1      37.396  20.916  24.813  1.00  0.00    -0.169 F 
ATOM     27  F   UNL A   1      37.429  22.994  25.445  1.00  0.00    -0.169 F 
ATOM     28  F   UNL A   1      36.158  21.547  26.481  1.00  0.00    -0.169 F 
ENDBRANCH  22  25
ENDBRANCH  13  15
ENDBRANCH   9  13
ENDBRANCH   6   8
ENDBRANCH   3   6
ENDBRANCH   1   2
BRANCH   1  29
ATOM     29  C   UNL A   1      32.584  28.824  26.865  1.00  0.00     0.042 C 
BRANCH  29  30
ATOM     30  C   UNL A   1      34.008  29.330  26.970  1.00  0.00     0.118 C 
BRANCH  30  31
ATOM     31  N   UNL A   1      34.099  30.787  26.914  1.00  0.00    -0.352 N 
ATOM     32  C   UNL A   1      34.973  31.597  27.612  1.00  0.00     0.251 C 
ATOM     33  H   UNL A   1      33.467  31.243  26.311  1.00  0.00     0.163 HD
ATOM     34  O   UNL A   1      34.773  32.801  27.711  1.00  0.00    -0.269 OA
BRANCH  32  35
ATOM     35  C   UNL A   1      36.125  30.959  28.270  1.00  0.00     0.039 A 
ATOM     36  C   UNL A   1      36.336  29.586  28.140  1.00  0.00     0.014 A 
ATOM     37  C   UNL A   1      37.067  31.777  28.888  1.00  0.00     0.014 A 
ATOM     38  C   UNL A   1      37.561  29.053  28.538  1.00  0.00     0.010 A 
ATOM     39  C   UNL A   1      38.321  31.269  29.152  1.00  0.00     0.010 A 
ATOM     40  C   UNL A   1      38.576  29.904  29.006  1.00  0.00    -0.014 A 
BRANCH  40  41
ATOM     41  C   UNL A   1      39.938  29.386  29.190  1.00  0.00     0.031 A 
ATOM     42  C   UNL A   1      40.397  29.248  30.605  1.00  0.00     0.074 A 
ATOM     43  C   UNL A   1      40.668  28.823  28.201  1.00  0.00     0.049 A 
ATOM     44  N   UNL A   1      41.411  29.819  31.172  1.00  0.00    -0.248 NA
ATOM     45  C   UNL A   1      39.579  28.442  31.526  1.00  0.00     0.031 C 
ATOM     46  C   UNL A   1      40.236  28.576  26.820  1.00  0.00     0.029 A 
ATOM     47  N   UNL A   1      41.883  28.198  28.257  1.00  0.00    -0.354 N 
ATOM     48  C   UNL A   1      41.498  29.255  32.446  1.00  0.00     0.074 A 
ATOM     49  C   UNL A   1      40.253  28.570  32.670  1.00  0.00     0.031 C 
ATOM     50  C   UNL A   1      41.013  27.619  26.273  1.00  0.00     0.029 A 
ATOM     51  C   UNL A   1      42.111  27.349  27.180  1.00  0.00     0.049 A 
ATOM     52  H   UNL A   1      42.531  28.334  28.985  1.00  0.00     0.167 HD
ATOM     53  C   UNL A   1      42.692  29.164  33.097  1.00  0.00     0.034 A 
ATOM     54  C   UNL A   1      43.119  26.466  27.014  1.00  0.00     0.034 A 
ATOM     55  C   UNL A   1      43.699  29.974  32.464  1.00  0.00     0.049 A 
ATOM     56  C   UNL A   1      44.255  26.899  27.851  1.00  0.00     0.074 A 
ATOM     57  C   UNL A   1      44.007  31.310  32.347  1.00  0.00     0.029 A 
ATOM     58  N   UNL A   1      44.444  29.297  31.537  1.00  0.00    -0.354 N 
ATOM     59  N   UNL A   1      44.908  28.010  27.650  1.00  0.00    -0.248 NA
ATOM     60  C   UNL A   1      44.539  26.226  29.112  1.00  0.00     0.031 C 
ATOM     61  C   UNL A   1      44.812  31.426  31.174  1.00  0.00     0.029 A 
ATOM     62  C   UNL A   1      44.971  30.158  30.617  1.00  0.00     0.049 A 
ATOM     63  H   UNL A   1      44.581  28.322  31.534  1.00  0.00     0.167 HD
ATOM     64  C   UNL A   1      45.313  28.393  28.914  1.00  0.00     0.074 A 
ATOM     65  C   UNL A   1      45.253  27.180  29.716  1.00  0.00     0.031 C 
ATOM     66  C   UNL A   1      45.311  29.706  29.282  1.00  0.00     0.034 A 
BRANCH  53  67
ATOM     67  C   UNL A   1      43.130  28.023  34.008  1.00  0.00     0.023 A 
ATOM     68  C   UNL A   1      43.420  28.358  35.355  1.00  0.00     0.012 A 
ATOM     69  C   UNL A   1      43.575  26.758  33.565  1.00  0.00     0.148 A 
ATOM     70  C   UNL A   1      44.174  27.519  36.185  1.00  0.00     0.002 A 
ATOM     71  C   UNL A   1      44.262  25.895  34.417  1.00  0.00     0.091 A 
ATOM     72  F   UNL A   1      43.468  26.418  32.278  1.00  0.00    -0.205 F 
ATOM     73  C   UNL A   1      44.595  26.282  35.716  1.00  0.00     0.022 A 
BRANCH  71  74
ATOM     74  S   UNL A   1      44.784  24.266  33.862  1.00  0.00     0.127 S 
ATOM     75  O   UNL A   1      45.640  24.603  32.730  1.00  0.00    -0.237 OA
ATOM     76  O   UNL A   1      45.483  23.751  35.039  1.00  0.00    -0.237 OA
ATOM     77  O   UNL A   1      43.548  23.556  33.551  1.00  0.00    -0.744 OA
ENDBRANCH  71  74
ENDBRANCH  53  67
BRANCH  54  78
ATOM     78  C   UNL A   1      43.150  25.231  26.205  1.00  0.00     0.023 A 
ATOM     79  C   UNL A   1      44.094  25.085  25.174  1.00  0.00     0.012 A 
ATOM     80  C   UNL A   1      42.393  24.102  26.592  1.00  0.00     0.148 A 
ATOM     81  C   UNL A   1      44.300  23.844  24.562  1.00  0.00     0.002 A 
ATOM     82  C   UNL A   1      42.598  22.871  25.979  1.00  0.00     0.091 A 
ATOM     83  F   UNL A   1      41.531  24.225  27.612  1.00  0.00    -0.205 F 
ATOM     84  C   UNL A   1      43.561  22.736  24.969  1.00  0.00     0.022 A 
BRANCH  82  85
ATOM     85  S   UNL A   1      41.694  21.393  26.457  1.00  0.00     0.127 S 
ATOM     86  O   UNL A   1      40.323  21.740  26.080  1.00  0.00    -0.237 OA
ATOM     87  O   UNL A   1      42.319  20.372  25.619  1.00  0.00    -0.237 OA
ATOM     88  O   UNL A   1      41.902  21.245  27.891  1.00  0.00    -0.744 OA
ENDBRANCH  82  85
ENDBRANCH  54  78
BRANCH  66  89
ATOM     89  C   UNL A   1      45.389  30.744  28.198  1.00  0.00     0.023 A 
ATOM     90  C   UNL A   1      44.244  31.242  27.546  1.00  0.00     0.012 A 
ATOM     91  C   UNL A   1      46.640  31.315  27.910  1.00  0.00     0.148 A 
ATOM     92  C   UNL A   1      44.349  32.268  26.605  1.00  0.00     0.002 A 
ATOM     93  C   UNL A   1      46.733  32.369  27.009  1.00  0.00     0.091 A 
ATOM     94  F   UNL A   1      47.722  30.828  28.537  1.00  0.00    -0.205 F 
ATOM     95  C   UNL A   1      45.591  32.840  26.345  1.00  0.00     0.022 A 
BRANCH  93  96
ATOM     96  S   UNL A   1      48.285  33.227  26.735  1.00  0.00     0.127 S 
ATOM     97  O   UNL A   1      49.177  32.135  26.354  1.00  0.00    -0.237 OA
ATOM     98  O   UNL A   1      47.949  34.152  25.651  1.00  0.00    -0.237 OA
ATOM     99  O   UNL A   1      48.597  33.886  27.998  1.00  0.00    -0.744 OA
ENDBRANCH  93  96
ENDBRANCH  66  89
ENDBRANCH  40  41
ENDBRANCH  32  35
ENDBRANCH  30  31
ENDBRANCH  29  30
ENDBRANCH   1  29
TORSDOF 17
ENDMDL
