MODEL 1
REMARK VINA RESULT:     -10.8      0.000      0.000
REMARK SMILES COc1ccc2c(c1C)OC(=O)[C@@H](CC(=O)N[C@@H](CC1=c3ccccc3=NC1)C(=O)NCCCNC(=O)c1ccc(-c3c4nc(c(-c5cccc(S(=O)(=O)[O-])c5F)c5ccc([nH]5)c(-c5cccc(S(=O)(=O)[O-])c5F)c5nc(c(-c6cccc(S(=O)(=O)[O-])c6F)c6ccc3[nH]6)C=C5)C=C4)cc1)[C@H]2C
REMARK SMILES IDX 32 1 31 2 29 3 30 4 18 6 17 7 15 8 16 9 14 11 13 12 3 13
REMARK SMILES IDX 4 14 8 15 5 16 7 17 9 18 6 19 10 20 101 21 11 22 102 23
REMARK SMILES IDX 12 24 2 25 1 26 19 27 20 28 21 29 28 30 22 31 26 32 27 33
REMARK SMILES IDX 23 34 25 35 24 36 33 37 34 38 35 39 36 40 37 42 38 43 39 44
REMARK SMILES IDX 100 45 40 46 99 47 41 48 42 49 43 50 93 51 44 52 98 53 92 54
REMARK SMILES IDX 94 55 45 56 97 57 91 58 90 59 46 61 78 62 58 63 77 64 59 65
REMARK SMILES IDX 62 66 76 67 95 68 60 69 61 70 75 72 96 73 63 74 47 75 48 76
REMARK SMILES IDX 56 77 49 78 51 79 57 80 50 81 52 82 53 83 54 84 55 85 79 86
REMARK SMILES IDX 80 87 88 88 81 89 83 90 89 91 82 92 84 93 85 94 86 95 87 96
REMARK SMILES IDX 64 97 65 98 73 99 66 100 68 101 74 102 67 103 69 104 70 105
REMARK SMILES IDX 71 106 72 107
REMARK H PARENT 31 5 17 10 35 41 94 60 62 71
REMARK Flexibility Score: inf
ROOT
ATOM      1  C   UNL A   1      46.347  26.678  39.813  1.00  0.00     0.117 C 
ENDROOT
BRANCH   1   2
ATOM      2  N   UNL A   1      47.668  26.119  39.982  1.00  0.00    -0.354 N 
ATOM      3  C   UNL A   1      48.187  24.982  39.460  1.00  0.00     0.242 C 
ATOM      4  O   UNL A   1      49.408  24.816  39.562  1.00  0.00    -0.273 OA
ATOM      5  H   UNL A   1      48.275  26.636  40.557  1.00  0.00     0.163 HD
BRANCH   3   6
ATOM      6  C   UNL A   1      47.334  23.944  38.708  1.00  0.00     0.175 C 
BRANCH   6   7
ATOM      7  N   UNL A   1      46.256  23.328  39.477  1.00  0.00    -0.344 N 
ATOM      8  C   UNL A   1      46.041  22.032  39.838  1.00  0.00     0.221 C 
ATOM      9  O   UNL A   1      44.954  21.761  40.349  1.00  0.00    -0.275 OA
ATOM     10  H   UNL A   1      45.566  23.958  39.789  1.00  0.00     0.164 HD
BRANCH   8  11
ATOM     11  C   UNL A   1      47.114  20.960  39.694  1.00  0.00     0.116 C 
BRANCH  11  12
ATOM     12  C   UNL A   1      47.752  20.863  38.304  1.00  0.00     0.116 C 
ATOM     13  C   UNL A   1      50.678  21.214  34.338  1.00  0.00     0.125 A 
ATOM     14  C   UNL A   1      51.382  21.805  35.397  1.00  0.00     0.047 A 
ATOM     15  C   UNL A   1      49.493  20.498  34.583  1.00  0.00     0.034 A 
ATOM     16  C   UNL A   1      50.951  21.638  36.711  1.00  0.00     0.012 A 
ATOM     17  C   UNL A   1      49.071  20.360  35.914  1.00  0.00     0.140 A 
ATOM     18  C   UNL A   1      48.671  19.918  33.468  1.00  0.00     0.052 C 
ATOM     19  C   UNL A   1      49.800  20.897  36.976  1.00  0.00    -0.001 A 
ATOM     20  O   UNL A   1      47.878  19.646  36.185  1.00  0.00    -0.426 OA
ATOM     21  C   UNL A   1      49.288  20.726  38.377  1.00  0.00     0.035 C 
ATOM     22  C   UNL A   1      47.227  19.739  37.426  1.00  0.00     0.315 C 
ATOM     23  C   UNL A   1      49.792  19.444  39.038  1.00  0.00     0.014 C 
ATOM     24  O   UNL A   1      46.287  19.009  37.706  1.00  0.00    -0.251 OA
BRANCH  13  25
ATOM     25  O   UNL A   1      51.083  21.356  33.035  1.00  0.00    -0.496 OA
ATOM     26  C   UNL A   1      52.357  20.777  32.757  1.00  0.00     0.278 C 
ENDBRANCH  13  25
ENDBRANCH  11  12
ENDBRANCH   8  11
ENDBRANCH   6   7
BRANCH   6  27
ATOM     27  C   UNL A   1      46.989  24.304  37.233  1.00  0.00     0.068 C 
BRANCH  27  28
ATOM     28  C   UNL A   1      45.805  23.650  36.591  1.00  0.00    -0.037 C 
ATOM     29  C   UNL A   1      44.520  23.997  36.636  1.00  0.00     0.001 A 
ATOM     30  C   UNL A   1      46.002  22.501  35.646  1.00  0.00     0.174 C 
ATOM     31  C   UNL A   1      43.754  24.980  37.331  1.00  0.00     0.010 A 
ATOM     32  C   UNL A   1      43.966  23.265  35.481  1.00  0.00     0.065 A 
ATOM     33  N   UNL A   1      44.728  22.385  34.904  1.00  0.00    -0.280 NA
ATOM     34  C   UNL A   1      42.560  25.341  36.834  1.00  0.00     0.001 A 
ATOM     35  C   UNL A   1      42.639  23.710  34.999  1.00  0.00     0.028 A 
ATOM     36  C   UNL A   1      42.025  24.724  35.633  1.00  0.00     0.002 A 
ENDBRANCH  27  28
ENDBRANCH   6  27
ENDBRANCH   3   6
ENDBRANCH   1   2
BRANCH   1  37
ATOM     37  C   UNL A   1      46.100  27.265  38.443  1.00  0.00     0.042 C 
BRANCH  37  38
ATOM     38  C   UNL A   1      47.074  28.375  38.103  1.00  0.00     0.118 C 
BRANCH  38  39
ATOM     39  N   UNL A   1      48.162  27.922  37.242  1.00  0.00    -0.352 N 
ATOM     40  C   UNL A   1      48.152  27.565  35.911  1.00  0.00     0.251 C 
ATOM     41  H   UNL A   1      49.041  27.864  37.680  1.00  0.00     0.163 HD
ATOM     42  O   UNL A   1      49.119  27.009  35.414  1.00  0.00    -0.269 OA
BRANCH  40  43
ATOM     43  C   UNL A   1      46.950  27.842  35.099  1.00  0.00     0.039 A 
ATOM     44  C   UNL A   1      45.956  26.868  34.975  1.00  0.00     0.014 A 
ATOM     45  C   UNL A   1      46.814  29.075  34.463  1.00  0.00     0.014 A 
ATOM     46  C   UNL A   1      44.789  27.168  34.271  1.00  0.00     0.010 A 
ATOM     47  C   UNL A   1      45.608  29.415  33.876  1.00  0.00     0.010 A 
ATOM     48  C   UNL A   1      44.597  28.454  33.743  1.00  0.00    -0.014 A 
BRANCH  48  49
ATOM     49  C   UNL A   1      43.392  28.820  32.968  1.00  0.00     0.031 A 
ATOM     50  C   UNL A   1      42.335  29.664  33.627  1.00  0.00     0.074 A 
ATOM     51  C   UNL A   1      43.202  28.316  31.734  1.00  0.00     0.049 A 
ATOM     52  N   UNL A   1      41.149  29.989  33.188  1.00  0.00    -0.248 NA
ATOM     53  C   UNL A   1      42.635  30.179  34.976  1.00  0.00     0.031 C 
ATOM     54  C   UNL A   1      44.127  27.431  31.024  1.00  0.00     0.029 A 
ATOM     55  N   UNL A   1      42.149  28.463  30.867  1.00  0.00    -0.354 N 
ATOM     56  C   UNL A   1      40.553  30.704  34.217  1.00  0.00     0.074 A 
ATOM     57  C   UNL A   1      41.482  30.728  35.322  1.00  0.00     0.031 C 
ATOM     58  C   UNL A   1      43.610  27.129  29.822  1.00  0.00     0.029 A 
ATOM     59  C   UNL A   1      42.307  27.774  29.688  1.00  0.00     0.049 A 
ATOM     60  H   UNL A   1      41.356  29.009  31.070  1.00  0.00     0.167 HD
ATOM     61  C   UNL A   1      39.354  31.328  34.227  1.00  0.00     0.034 A 
ATOM     62  C   UNL A   1      41.492  27.681  28.620  1.00  0.00     0.034 A 
ATOM     63  C   UNL A   1      38.470  31.373  33.099  1.00  0.00     0.049 A 
ATOM     64  C   UNL A   1      40.184  28.421  28.635  1.00  0.00     0.074 A 
ATOM     65  C   UNL A   1      37.275  32.052  32.973  1.00  0.00     0.029 A 
ATOM     66  N   UNL A   1      38.699  30.723  31.897  1.00  0.00    -0.354 N 
ATOM     67  N   UNL A   1      39.683  29.183  29.577  1.00  0.00    -0.248 NA
ATOM     68  C   UNL A   1      39.340  28.312  27.437  1.00  0.00     0.031 C 
ATOM     69  C   UNL A   1      36.777  31.814  31.688  1.00  0.00     0.029 A 
ATOM     70  C   UNL A   1      37.668  30.988  31.018  1.00  0.00     0.049 A 
ATOM     71  H   UNL A   1      39.480  30.156  31.699  1.00  0.00     0.167 HD
ATOM     72  C   UNL A   1      38.476  29.661  29.080  1.00  0.00     0.074 A 
ATOM     73  C   UNL A   1      38.328  29.114  27.747  1.00  0.00     0.031 C 
ATOM     74  C   UNL A   1      37.567  30.468  29.680  1.00  0.00     0.034 A 
BRANCH  61  75
ATOM     75  C   UNL A   1      38.975  32.089  35.466  1.00  0.00     0.023 A 
ATOM     76  C   UNL A   1      38.128  31.477  36.412  1.00  0.00     0.012 A 
ATOM     77  C   UNL A   1      39.490  33.373  35.720  1.00  0.00     0.148 A 
ATOM     78  C   UNL A   1      37.780  32.140  37.585  1.00  0.00     0.002 A 
ATOM     79  C   UNL A   1      39.167  34.016  36.910  1.00  0.00     0.091 A 
ATOM     80  F   UNL A   1      40.276  33.941  34.795  1.00  0.00    -0.205 F 
ATOM     81  C   UNL A   1      38.308  33.403  37.839  1.00  0.00     0.022 A 
BRANCH  79  82
ATOM     82  S   UNL A   1      39.827  35.624  37.360  1.00  0.00     0.127 S 
ATOM     83  O   UNL A   1      41.247  35.321  37.532  1.00  0.00    -0.237 OA
ATOM     84  O   UNL A   1      39.511  36.424  36.177  1.00  0.00    -0.237 OA
ATOM     85  O   UNL A   1      39.128  36.022  38.574  1.00  0.00    -0.744 OA
ENDBRANCH  79  82
ENDBRANCH  61  75
BRANCH  62  86
ATOM     86  C   UNL A   1      41.947  26.932  27.418  1.00  0.00     0.023 A 
ATOM     87  C   UNL A   1      42.562  27.643  26.370  1.00  0.00     0.012 A 
ATOM     88  C   UNL A   1      41.847  25.530  27.339  1.00  0.00     0.148 A 
ATOM     89  C   UNL A   1      43.067  26.970  25.257  1.00  0.00     0.002 A 
ATOM     90  C   UNL A   1      42.383  24.863  26.243  1.00  0.00     0.091 A 
ATOM     91  F   UNL A   1      41.261  24.880  28.354  1.00  0.00    -0.205 F 
ATOM     92  C   UNL A   1      42.985  25.582  25.197  1.00  0.00     0.022 A 
BRANCH  90  93
ATOM     93  S   UNL A   1      42.417  23.072  26.115  1.00  0.00     0.127 S 
ATOM     94  O   UNL A   1      43.294  22.709  27.225  1.00  0.00    -0.237 OA
ATOM     95  O   UNL A   1      41.006  22.735  26.306  1.00  0.00    -0.237 OA
ATOM     96  O   UNL A   1      42.939  22.780  24.787  1.00  0.00    -0.744 OA
ENDBRANCH  90  93
ENDBRANCH  62  86
BRANCH  74  97
ATOM     97  C   UNL A   1      36.327  30.826  28.912  1.00  0.00     0.023 A 
ATOM     98  C   UNL A   1      35.504  29.794  28.423  1.00  0.00     0.012 A 
ATOM     99  C   UNL A   1      35.907  32.166  28.811  1.00  0.00     0.148 A 
ATOM    100  C   UNL A   1      34.275  30.092  27.838  1.00  0.00     0.002 A 
ATOM    101  C   UNL A   1      34.666  32.453  28.258  1.00  0.00     0.091 A 
ATOM    102  F   UNL A   1      36.716  33.125  29.282  1.00  0.00    -0.205 F 
ATOM    103  C   UNL A   1      33.851  31.419  27.768  1.00  0.00     0.022 A 
BRANCH 101 104
ATOM    104  S   UNL A   1      33.996  34.119  28.198  1.00  0.00     0.127 S 
ATOM    105  O   UNL A   1      34.881  34.759  27.226  1.00  0.00    -0.237 OA
ATOM    106  O   UNL A   1      32.633  33.885  27.721  1.00  0.00    -0.237 OA
ATOM    107  O   UNL A   1      34.086  34.640  29.555  1.00  0.00    -0.744 OA
ENDBRANCH 101 104
ENDBRANCH  74  97
ENDBRANCH  48  49
ENDBRANCH  40  43
ENDBRANCH  38  39
ENDBRANCH  37  38
ENDBRANCH   1  37
TORSDOF 19
ENDMDL
MODEL 2
REMARK VINA RESULT:     -10.8      4.380     11.412
REMARK SMILES COc1ccc2c(c1C)OC(=O)[C@@H](CC(=O)N[C@@H](CC1=c3ccccc3=NC1)C(=O)NCCCNC(=O)c1ccc(-c3c4nc(c(-c5cccc(S(=O)(=O)[O-])c5F)c5ccc([nH]5)c(-c5cccc(S(=O)(=O)[O-])c5F)c5nc(c(-c6cccc(S(=O)(=O)[O-])c6F)c6ccc3[nH]6)C=C5)C=C4)cc1)[C@H]2C
REMARK SMILES IDX 32 1 31 2 29 3 30 4 18 6 17 7 15 8 16 9 14 11 13 12 3 13
REMARK SMILES IDX 4 14 8 15 5 16 7 17 9 18 6 19 10 20 101 21 11 22 102 23
REMARK SMILES IDX 12 24 2 25 1 26 19 27 20 28 21 29 28 30 22 31 26 32 27 33
REMARK SMILES IDX 23 34 25 35 24 36 33 37 34 38 35 39 36 40 37 42 38 43 39 44
REMARK SMILES IDX 100 45 40 46 99 47 41 48 42 49 43 50 93 51 44 52 98 53 92 54
REMARK SMILES IDX 94 55 45 56 97 57 91 58 90 59 46 61 78 62 58 63 77 64 59 65
REMARK SMILES IDX 62 66 76 67 95 68 60 69 61 70 75 72 96 73 63 74 47 75 48 76
REMARK SMILES IDX 56 77 49 78 51 79 57 80 50 81 52 82 53 83 54 84 55 85 79 86
REMARK SMILES IDX 80 87 88 88 81 89 83 90 89 91 82 92 84 93 85 94 86 95 87 96
REMARK SMILES IDX 64 97 65 98 73 99 66 100 68 101 74 102 67 103 69 104 70 105
REMARK SMILES IDX 71 106 72 107
REMARK H PARENT 31 5 17 10 35 41 94 60 62 71
REMARK Flexibility Score: inf
ROOT
ATOM      1  C   UNL A   1      46.238  24.481  26.842  1.00  0.00     0.117 C 
ENDROOT
BRANCH   1   2
ATOM      2  N   UNL A   1      45.051  24.206  26.067  1.00  0.00    -0.354 N 
ATOM      3  C   UNL A   1      43.933  24.957  25.923  1.00  0.00     0.242 C 
ATOM      4  O   UNL A   1      43.138  24.628  25.035  1.00  0.00    -0.273 OA
ATOM      5  H   UNL A   1      45.055  23.355  25.574  1.00  0.00     0.163 HD
BRANCH   3   6
ATOM      6  C   UNL A   1      43.658  26.214  26.768  1.00  0.00     0.175 C 
BRANCH   6   7
ATOM      7  N   UNL A   1      43.246  27.403  26.026  1.00  0.00    -0.344 N 
ATOM      8  C   UNL A   1      42.013  27.943  25.813  1.00  0.00     0.221 C 
ATOM      9  O   UNL A   1      41.934  28.866  25.001  1.00  0.00    -0.275 OA
ATOM     10  H   UNL A   1      43.986  27.899  25.607  1.00  0.00     0.164 HD
BRANCH   8  11
ATOM     11  C   UNL A   1      40.783  27.492  26.591  1.00  0.00     0.116 C 
BRANCH  11  12
ATOM     12  C   UNL A   1      40.075  28.596  27.384  1.00  0.00     0.116 C 
ATOM     13  C   UNL A   1      36.798  31.552  29.605  1.00  0.00     0.125 A 
ATOM     14  C   UNL A   1      36.066  30.472  29.093  1.00  0.00     0.047 A 
ATOM     15  C   UNL A   1      38.204  31.521  29.609  1.00  0.00     0.034 A 
ATOM     16  C   UNL A   1      36.719  29.329  28.637  1.00  0.00     0.012 A 
ATOM     17  C   UNL A   1      38.837  30.365  29.128  1.00  0.00     0.140 A 
ATOM     18  C   UNL A   1      39.022  32.690  30.078  1.00  0.00     0.052 C 
ATOM     19  C   UNL A   1      38.111  29.265  28.670  1.00  0.00    -0.001 A 
ATOM     20  O   UNL A   1      40.253  30.313  29.118  1.00  0.00    -0.426 OA
ATOM     21  C   UNL A   1      38.849  28.062  28.156  1.00  0.00     0.035 C 
ATOM     22  C   UNL A   1      40.951  29.352  28.369  1.00  0.00     0.315 C 
ATOM     23  C   UNL A   1      39.167  27.050  29.254  1.00  0.00     0.014 C 
ATOM     24  O   UNL A   1      42.161  29.215  28.482  1.00  0.00    -0.251 OA
BRANCH  13  25
ATOM     25  O   UNL A   1      36.181  32.687  30.067  1.00  0.00    -0.496 OA
ATOM     26  C   UNL A   1      35.092  32.436  30.954  1.00  0.00     0.278 C 
ENDBRANCH  13  25
ENDBRANCH  11  12
ENDBRANCH   8  11
ENDBRANCH   6   7
BRANCH   6  27
ATOM     27  C   UNL A   1      42.913  25.967  28.112  1.00  0.00     0.068 C 
BRANCH  27  28
ATOM     28  C   UNL A   1      42.493  24.572  28.456  1.00  0.00    -0.037 C 
ATOM     29  C   UNL A   1      41.426  23.886  28.048  1.00  0.00     0.001 A 
ATOM     30  C   UNL A   1      43.393  23.695  29.275  1.00  0.00     0.174 C 
ATOM     31  C   UNL A   1      40.264  24.176  27.271  1.00  0.00     0.010 A 
ATOM     32  C   UNL A   1      41.820  22.498  28.355  1.00  0.00     0.065 A 
ATOM     33  N   UNL A   1      42.889  22.320  29.070  1.00  0.00    -0.280 NA
ATOM     34  C   UNL A   1      39.603  23.161  26.692  1.00  0.00     0.001 A 
ATOM     35  C   UNL A   1      41.034  21.433  27.692  1.00  0.00     0.028 A 
ATOM     36  C   UNL A   1      40.025  21.783  26.877  1.00  0.00     0.002 A 
ENDBRANCH  27  28
ENDBRANCH   6  27
ENDBRANCH   3   6
ENDBRANCH   1   2
BRANCH   1  37
ATOM     37  C   UNL A   1      47.473  24.729  26.008  1.00  0.00     0.042 C 
BRANCH  37  38
ATOM     38  C   UNL A   1      48.632  25.254  26.832  1.00  0.00     0.118 C 
BRANCH  38  39
ATOM     39  N   UNL A   1      49.384  26.297  26.140  1.00  0.00    -0.352 N 
ATOM     40  C   UNL A   1      49.182  27.659  26.099  1.00  0.00     0.251 C 
ATOM     41  H   UNL A   1      50.157  25.977  25.622  1.00  0.00     0.163 HD
ATOM     42  O   UNL A   1      49.790  28.349  25.294  1.00  0.00    -0.269 OA
BRANCH  40  43
ATOM     43  C   UNL A   1      48.207  28.272  27.022  1.00  0.00     0.039 A 
ATOM     44  C   UNL A   1      46.840  28.191  26.744  1.00  0.00     0.014 A 
ATOM     45  C   UNL A   1      48.656  28.925  28.170  1.00  0.00     0.014 A 
ATOM     46  C   UNL A   1      45.923  28.704  27.663  1.00  0.00     0.010 A 
ATOM     47  C   UNL A   1      47.747  29.318  29.136  1.00  0.00     0.010 A 
ATOM     48  C   UNL A   1      46.373  29.243  28.878  1.00  0.00    -0.014 A 
BRANCH  48  49
ATOM     49  C   UNL A   1      45.448  29.823  29.876  1.00  0.00     0.031 A 
ATOM     50  C   UNL A   1      45.033  28.982  31.053  1.00  0.00     0.074 A 
ATOM     51  C   UNL A   1      44.910  31.040  29.674  1.00  0.00     0.049 A 
ATOM     52  N   UNL A   1      44.137  29.234  31.969  1.00  0.00    -0.248 NA
ATOM     53  C   UNL A   1      45.682  27.666  31.197  1.00  0.00     0.031 C 
ATOM     54  C   UNL A   1      45.187  31.915  28.533  1.00  0.00     0.029 A 
ATOM     55  N   UNL A   1      43.997  31.742  30.418  1.00  0.00    -0.354 N 
ATOM     56  C   UNL A   1      44.088  28.098  32.765  1.00  0.00     0.074 A 
ATOM     57  C   UNL A   1      45.004  27.135  32.202  1.00  0.00     0.031 C 
ATOM     58  C   UNL A   1      44.473  33.045  28.664  1.00  0.00     0.029 A 
ATOM     59  C   UNL A   1      43.668  32.963  29.879  1.00  0.00     0.049 A 
ATOM     60  H   UNL A   1      43.612  31.404  31.259  1.00  0.00     0.167 HD
ATOM     61  C   UNL A   1      43.376  27.889  33.895  1.00  0.00     0.034 A 
ATOM     62  C   UNL A   1      42.818  33.909  30.322  1.00  0.00     0.034 A 
ATOM     63  C   UNL A   1      42.530  28.879  34.497  1.00  0.00     0.049 A 
ATOM     64  C   UNL A   1      42.072  33.674  31.605  1.00  0.00     0.074 A 
ATOM     65  C   UNL A   1      41.836  28.802  35.688  1.00  0.00     0.029 A 
ATOM     66  N   UNL A   1      42.281  30.131  33.959  1.00  0.00    -0.354 N 
ATOM     67  N   UNL A   1      42.119  32.636  32.405  1.00  0.00    -0.248 NA
ATOM     68  C   UNL A   1      41.176  34.746  32.063  1.00  0.00     0.031 C 
ATOM     69  C   UNL A   1      41.164  30.014  35.873  1.00  0.00     0.029 A 
ATOM     70  C   UNL A   1      41.444  30.842  34.795  1.00  0.00     0.049 A 
ATOM     71  H   UNL A   1      42.645  30.463  33.106  1.00  0.00     0.167 HD
ATOM     72  C   UNL A   1      41.278  32.935  33.469  1.00  0.00     0.074 A 
ATOM     73  C   UNL A   1      40.744  34.259  33.220  1.00  0.00     0.031 C 
ATOM     74  C   UNL A   1      40.965  32.176  34.547  1.00  0.00     0.034 A 
BRANCH  61  75
ATOM     75  C   UNL A   1      43.557  26.575  34.599  1.00  0.00     0.023 A 
ATOM     76  C   UNL A   1      42.638  25.535  34.352  1.00  0.00     0.012 A 
ATOM     77  C   UNL A   1      44.650  26.350  35.455  1.00  0.00     0.148 A 
ATOM     78  C   UNL A   1      42.791  24.294  34.963  1.00  0.00     0.002 A 
ATOM     79  C   UNL A   1      44.816  25.097  36.035  1.00  0.00     0.091 A 
ATOM     80  F   UNL A   1      45.497  27.361  35.690  1.00  0.00    -0.205 F 
ATOM     81  C   UNL A   1      43.885  24.072  35.795  1.00  0.00     0.022 A 
BRANCH  79  82
ATOM     82  S   UNL A   1      46.214  24.687  37.085  1.00  0.00     0.127 S 
ATOM     83  O   UNL A   1      45.933  23.291  37.417  1.00  0.00    -0.237 OA
ATOM     84  O   UNL A   1      47.344  24.885  36.178  1.00  0.00    -0.237 OA
ATOM     85  O   UNL A   1      46.160  25.613  38.209  1.00  0.00    -0.744 OA
ENDBRANCH  79  82
ENDBRANCH  61  75
BRANCH  62  86
ATOM     86  C   UNL A   1      42.712  35.197  29.586  1.00  0.00     0.023 A 
ATOM     87  C   UNL A   1      41.779  35.302  28.537  1.00  0.00     0.012 A 
ATOM     88  C   UNL A   1      43.461  36.328  29.962  1.00  0.00     0.148 A 
ATOM     89  C   UNL A   1      41.597  36.513  27.867  1.00  0.00     0.002 A 
ATOM     90  C   UNL A   1      43.250  37.540  29.314  1.00  0.00     0.091 A 
ATOM     91  F   UNL A   1      44.337  36.200  30.968  1.00  0.00    -0.205 F 
ATOM     92  C   UNL A   1      42.325  37.632  28.260  1.00  0.00     0.022 A 
BRANCH  90  93
ATOM     93  S   UNL A   1      44.063  39.063  29.808  1.00  0.00     0.127 S 
ATOM     94  O   UNL A   1      43.533  39.263  31.154  1.00  0.00    -0.237 OA
ATOM     95  O   UNL A   1      45.473  38.677  29.750  1.00  0.00    -0.237 OA
ATOM     96  O   UNL A   1      43.664  40.062  28.826  1.00  0.00    -0.744 OA
ENDBRANCH  90  93
ENDBRANCH  62  86
BRANCH  74  97
ATOM     97  C   UNL A   1      40.007  32.743  35.555  1.00  0.00     0.023 A 
ATOM     98  C   UNL A   1      38.628  32.507  35.397  1.00  0.00     0.012 A 
ATOM     99  C   UNL A   1      40.481  33.370  36.723  1.00  0.00     0.148 A 
ATOM    100  C   UNL A   1      37.730  32.892  36.390  1.00  0.00     0.002 A 
ATOM    101  C   UNL A   1      39.584  33.720  37.724  1.00  0.00     0.091 A 
ATOM    102  F   UNL A   1      41.799  33.585  36.841  1.00  0.00    -0.205 F 
ATOM    103  C   UNL A   1      38.209  33.485  37.557  1.00  0.00     0.022 A 
BRANCH 101 104
ATOM    104  S   UNL A   1      40.110  34.412  39.296  1.00  0.00     0.127 S 
ATOM    105  O   UNL A   1      40.895  33.312  39.855  1.00  0.00    -0.237 OA
ATOM    106  O   UNL A   1      40.897  35.570  38.874  1.00  0.00    -0.237 OA
ATOM    107  O   UNL A   1      38.891  34.735  40.024  1.00  0.00    -0.744 OA
ENDBRANCH 101 104
ENDBRANCH  74  97
ENDBRANCH  48  49
ENDBRANCH  40  43
ENDBRANCH  38  39
ENDBRANCH  37  38
ENDBRANCH   1  37
TORSDOF 19
ENDMDL
MODEL 3
REMARK VINA RESULT:     -10.7      5.850     10.933
REMARK SMILES COc1ccc2c(c1C)OC(=O)[C@@H](CC(=O)N[C@@H](CC1=c3ccccc3=NC1)C(=O)NCCCNC(=O)c1ccc(-c3c4nc(c(-c5cccc(S(=O)(=O)[O-])c5F)c5ccc([nH]5)c(-c5cccc(S(=O)(=O)[O-])c5F)c5nc(c(-c6cccc(S(=O)(=O)[O-])c6F)c6ccc3[nH]6)C=C5)C=C4)cc1)[C@H]2C
REMARK SMILES IDX 32 1 31 2 29 3 30 4 18 6 17 7 15 8 16 9 14 11 13 12 3 13
REMARK SMILES IDX 4 14 8 15 5 16 7 17 9 18 6 19 10 20 101 21 11 22 102 23
REMARK SMILES IDX 12 24 2 25 1 26 19 27 20 28 21 29 28 30 22 31 26 32 27 33
REMARK SMILES IDX 23 34 25 35 24 36 33 37 34 38 35 39 36 40 37 42 38 43 39 44
REMARK SMILES IDX 100 45 40 46 99 47 41 48 42 49 43 50 93 51 44 52 98 53 92 54
REMARK SMILES IDX 94 55 45 56 97 57 91 58 90 59 46 61 78 62 58 63 77 64 59 65
REMARK SMILES IDX 62 66 76 67 95 68 60 69 61 70 75 72 96 73 63 74 47 75 48 76
REMARK SMILES IDX 56 77 49 78 51 79 57 80 50 81 52 82 53 83 54 84 55 85 79 86
REMARK SMILES IDX 80 87 88 88 81 89 83 90 89 91 82 92 84 93 85 94 86 95 87 96
REMARK SMILES IDX 64 97 65 98 73 99 66 100 68 101 74 102 67 103 69 104 70 105
REMARK SMILES IDX 71 106 72 107
REMARK H PARENT 31 5 17 10 35 41 94 60 62 71
REMARK Flexibility Score: inf
ROOT
ATOM      1  C   UNL A   1      46.586  19.531  39.767  1.00  0.00     0.117 C 
ENDROOT
BRANCH   1   2
ATOM      2  N   UNL A   1      45.569  19.593  40.790  1.00  0.00    -0.354 N 
ATOM      3  C   UNL A   1      45.004  18.583  41.495  1.00  0.00     0.242 C 
ATOM      4  O   UNL A   1      44.314  18.890  42.473  1.00  0.00    -0.273 OA
ATOM      5  H   UNL A   1      45.240  20.494  41.005  1.00  0.00     0.163 HD
BRANCH   3   6
ATOM      6  C   UNL A   1      45.240  17.099  41.160  1.00  0.00     0.175 C 
BRANCH   6   7
ATOM      7  N   UNL A   1      44.769  16.659  39.848  1.00  0.00    -0.344 N 
ATOM      8  C   UNL A   1      43.661  15.954  39.484  1.00  0.00     0.221 C 
ATOM      9  O   UNL A   1      43.594  15.573  38.315  1.00  0.00    -0.275 OA
ATOM     10  H   UNL A   1      45.354  16.917  39.099  1.00  0.00     0.164 HD
BRANCH   8  11
ATOM     11  C   UNL A   1      42.507  15.703  40.445  1.00  0.00     0.116 C 
BRANCH  11  12
ATOM     12  C   UNL A   1      42.647  14.448  41.314  1.00  0.00     0.116 C 
ATOM     13  C   UNL A   1      43.473  11.202  44.946  1.00  0.00     0.125 A 
ATOM     14  C   UNL A   1      43.670  12.472  45.505  1.00  0.00     0.047 A 
ATOM     15  C   UNL A   1      42.918  11.068  43.661  1.00  0.00     0.034 A 
ATOM     16  C   UNL A   1      43.263  13.615  44.822  1.00  0.00     0.012 A 
ATOM     17  C   UNL A   1      42.532  12.236  42.987  1.00  0.00     0.140 A 
ATOM     18  C   UNL A   1      42.763   9.729  42.999  1.00  0.00     0.052 C 
ATOM     19  C   UNL A   1      42.673  13.499  43.563  1.00  0.00    -0.001 A 
ATOM     20  O   UNL A   1      41.974  12.126  41.689  1.00  0.00    -0.426 OA
ATOM     21  C   UNL A   1      42.253  14.712  42.784  1.00  0.00     0.035 C 
ATOM     22  C   UNL A   1      41.867  13.235  40.835  1.00  0.00     0.315 C 
ATOM     23  C   UNL A   1      40.786  15.076  43.005  1.00  0.00     0.014 C 
ATOM     24  O   UNL A   1      41.251  13.168  39.781  1.00  0.00    -0.251 OA
BRANCH  13  25
ATOM     25  O   UNL A   1      43.859  10.058  45.600  1.00  0.00    -0.496 OA
ATOM     26  C   UNL A   1      45.048  10.205  46.373  1.00  0.00     0.278 C 
ENDBRANCH  13  25
ENDBRANCH  11  12
ENDBRANCH   8  11
ENDBRANCH   6   7
BRANCH   6  27
ATOM     27  C   UNL A   1      46.612  16.520  41.612  1.00  0.00     0.068 C 
BRANCH  27  28
ATOM     28  C   UNL A   1      47.159  16.925  42.945  1.00  0.00    -0.037 C 
ATOM     29  C   UNL A   1      47.123  16.275  44.107  1.00  0.00     0.001 A 
ATOM     30  C   UNL A   1      47.987  18.170  43.071  1.00  0.00     0.174 C 
ATOM     31  C   UNL A   1      46.514  15.075  44.584  1.00  0.00     0.010 A 
ATOM     32  C   UNL A   1      48.185  16.955  44.871  1.00  0.00     0.065 A 
ATOM     33  N   UNL A   1      48.686  18.043  44.368  1.00  0.00    -0.280 NA
ATOM     34  C   UNL A   1      47.019  14.483  45.678  1.00  0.00     0.001 A 
ATOM     35  C   UNL A   1      48.681  16.248  46.074  1.00  0.00     0.028 A 
ATOM     36  C   UNL A   1      48.140  15.061  46.398  1.00  0.00     0.002 A 
ENDBRANCH  27  28
ENDBRANCH   6  27
ENDBRANCH   3   6
ENDBRANCH   1   2
BRANCH   1  37
ATOM     37  C   UNL A   1      46.697  20.786  38.934  1.00  0.00     0.042 C 
BRANCH  37  38
ATOM     38  C   UNL A   1      47.552  20.588  37.698  1.00  0.00     0.118 C 
BRANCH  38  39
ATOM     39  N   UNL A   1      47.010  19.575  36.798  1.00  0.00    -0.352 N 
ATOM     40  C   UNL A   1      46.157  19.705  35.724  1.00  0.00     0.251 C 
ATOM     41  H   UNL A   1      47.301  18.654  36.987  1.00  0.00     0.163 HD
ATOM     42  O   UNL A   1      45.645  18.717  35.219  1.00  0.00    -0.269 OA
BRANCH  40  43
ATOM     43  C   UNL A   1      45.852  21.053  35.205  1.00  0.00     0.039 A 
ATOM     44  C   UNL A   1      46.888  21.875  34.755  1.00  0.00     0.014 A 
ATOM     45  C   UNL A   1      44.530  21.495  35.163  1.00  0.00     0.014 A 
ATOM     46  C   UNL A   1      46.582  23.116  34.193  1.00  0.00     0.010 A 
ATOM     47  C   UNL A   1      44.219  22.665  34.492  1.00  0.00     0.010 A 
ATOM     48  C   UNL A   1      45.243  23.503  34.032  1.00  0.00    -0.014 A 
BRANCH  48  49
ATOM     49  C   UNL A   1      44.861  24.815  33.467  1.00  0.00     0.031 A 
ATOM     50  C   UNL A   1      44.501  24.898  32.008  1.00  0.00     0.074 A 
ATOM     51  C   UNL A   1      44.940  25.927  34.221  1.00  0.00     0.049 A 
ATOM     52  N   UNL A   1      44.268  25.954  31.276  1.00  0.00    -0.248 NA
ATOM     53  C   UNL A   1      44.431  23.627  31.262  1.00  0.00     0.031 C 
ATOM     54  C   UNL A   1      45.344  25.974  35.628  1.00  0.00     0.029 A 
ATOM     55  N   UNL A   1      44.701  27.239  33.899  1.00  0.00    -0.354 N 
ATOM     56  C   UNL A   1      44.069  25.479  29.987  1.00  0.00     0.074 A 
ATOM     57  C   UNL A   1      44.254  24.048  30.020  1.00  0.00     0.031 C 
ATOM     58  C   UNL A   1      45.307  27.248  36.052  1.00  0.00     0.029 A 
ATOM     59  C   UNL A   1      44.905  28.108  34.943  1.00  0.00     0.049 A 
ATOM     60  H   UNL A   1      44.412  27.530  33.004  1.00  0.00     0.167 HD
ATOM     61  C   UNL A   1      43.716  26.168  28.879  1.00  0.00     0.034 A 
ATOM     62  C   UNL A   1      44.775  29.448  34.998  1.00  0.00     0.034 A 
ATOM     63  C   UNL A   1      43.452  27.577  28.868  1.00  0.00     0.049 A 
ATOM     64  C   UNL A   1      44.338  30.188  33.764  1.00  0.00     0.074 A 
ATOM     65  C   UNL A   1      43.001  28.356  27.821  1.00  0.00     0.029 A 
ATOM     66  N   UNL A   1      43.598  28.411  29.964  1.00  0.00    -0.354 N 
ATOM     67  N   UNL A   1      44.047  29.708  32.579  1.00  0.00    -0.248 NA
ATOM     68  C   UNL A   1      44.183  31.645  33.878  1.00  0.00     0.031 C 
ATOM     69  C   UNL A   1      42.873  29.669  28.285  1.00  0.00     0.029 A 
ATOM     70  C   UNL A   1      43.243  29.701  29.622  1.00  0.00     0.049 A 
ATOM     71  H   UNL A   1      43.911  28.128  30.854  1.00  0.00     0.167 HD
ATOM     72  C   UNL A   1      43.658  30.799  31.811  1.00  0.00     0.074 A 
ATOM     73  C   UNL A   1      43.734  31.963  32.670  1.00  0.00     0.031 C 
ATOM     74  C   UNL A   1      43.284  30.834  30.509  1.00  0.00     0.034 A 
BRANCH  61  75
ATOM     75  C   UNL A   1      43.507  25.388  27.612  1.00  0.00     0.023 A 
ATOM     76  C   UNL A   1      42.194  25.205  27.132  1.00  0.00     0.012 A 
ATOM     77  C   UNL A   1      44.594  24.887  26.875  1.00  0.00     0.148 A 
ATOM     78  C   UNL A   1      41.964  24.514  25.945  1.00  0.00     0.002 A 
ATOM     79  C   UNL A   1      44.360  24.228  25.673  1.00  0.00     0.091 A 
ATOM     80  F   UNL A   1      45.831  25.056  27.364  1.00  0.00    -0.205 F 
ATOM     81  C   UNL A   1      43.046  24.036  25.211  1.00  0.00     0.022 A 
BRANCH  79  82
ATOM     82  S   UNL A   1      45.681  23.613  24.625  1.00  0.00     0.127 S 
ATOM     83  O   UNL A   1      46.391  24.848  24.291  1.00  0.00    -0.237 OA
ATOM     84  O   UNL A   1      46.401  22.722  25.533  1.00  0.00    -0.237 OA
ATOM     85  O   UNL A   1      45.031  22.951  23.502  1.00  0.00    -0.744 OA
ENDBRANCH  79  82
ENDBRANCH  61  75
BRANCH  62  86
ATOM     86  C   UNL A   1      44.973  30.149  36.294  1.00  0.00     0.023 A 
ATOM     87  C   UNL A   1      43.849  30.406  37.103  1.00  0.00     0.012 A 
ATOM     88  C   UNL A   1      46.255  30.488  36.764  1.00  0.00     0.148 A 
ATOM     89  C   UNL A   1      43.998  30.997  38.358  1.00  0.00     0.002 A 
ATOM     90  C   UNL A   1      46.400  31.044  38.030  1.00  0.00     0.091 A 
ATOM     91  F   UNL A   1      47.307  30.226  35.975  1.00  0.00    -0.205 F 
ATOM     92  C   UNL A   1      45.272  31.308  38.824  1.00  0.00     0.022 A 
BRANCH  90  93
ATOM     93  S   UNL A   1      48.002  31.391  38.764  1.00  0.00     0.127 S 
ATOM     94  O   UNL A   1      48.651  30.084  38.698  1.00  0.00    -0.237 OA
ATOM     95  O   UNL A   1      48.537  32.395  37.843  1.00  0.00    -0.237 OA
ATOM     96  O   UNL A   1      47.725  31.882  40.107  1.00  0.00    -0.744 OA
ENDBRANCH  90  93
ENDBRANCH  62  86
BRANCH  74  97
ATOM     97  C   UNL A   1      42.920  32.164  29.915  1.00  0.00     0.023 A 
ATOM     98  C   UNL A   1      41.679  32.743  30.243  1.00  0.00     0.012 A 
ATOM     99  C   UNL A   1      43.858  32.896  29.164  1.00  0.00     0.148 A 
ATOM    100  C   UNL A   1      41.375  34.037  29.828  1.00  0.00     0.002 A 
ATOM    101  C   UNL A   1      43.562  34.199  28.782  1.00  0.00     0.091 A 
ATOM    102  F   UNL A   1      45.028  32.315  28.863  1.00  0.00    -0.205 F 
ATOM    103  C   UNL A   1      42.320  34.769  29.111  1.00  0.00     0.022 A 
BRANCH 101 104
ATOM    104  S   UNL A   1      44.743  35.250  27.929  1.00  0.00     0.127 S 
ATOM    105  O   UNL A   1      45.882  35.220  28.847  1.00  0.00    -0.237 OA
ATOM    106  O   UNL A   1      44.951  34.525  26.676  1.00  0.00    -0.237 OA
ATOM    107  O   UNL A   1      44.099  36.548  27.783  1.00  0.00    -0.744 OA
ENDBRANCH 101 104
ENDBRANCH  74  97
ENDBRANCH  48  49
ENDBRANCH  40  43
ENDBRANCH  38  39
ENDBRANCH  37  38
ENDBRANCH   1  37
TORSDOF 19
ENDMDL
