MODEL 1
REMARK VINA RESULT:     -10.5      0.000      0.000
REMARK SMILES CCCCCCNC(=O)Nc1cccc(-c2ccc([C@@H](C)C(=O)NCCCNC(=O)c3ccc(-c4c5nc(c(-c6cccc(S(=O)(=O)[O-])c6F)c6ccc([nH]6)c(-c6cccc(S(=O)(=O)[O-])c6F)c6nc(c(-c7cccc(S(=O)(=O)[O-])c7F)c7ccc4[nH]7)C=C6)C=C5)cc3)cc2F)c1
REMARK SMILES IDX 20 1 21 2 19 3 16 4 17 5 95 6 18 7 94 8 96 9 15 10 11 11
REMARK SMILES IDX 12 12 97 13 13 14 14 15 10 16 7 17 8 18 9 20 6 22 5 23 4 24
REMARK SMILES IDX 3 25 2 26 1 27 22 28 23 29 24 30 25 32 26 33 27 34 28 35
REMARK SMILES IDX 29 36 30 38 31 39 32 40 93 41 33 42 92 43 34 44 35 45 36 46
REMARK SMILES IDX 86 47 37 48 91 49 85 50 87 51 38 52 90 53 84 54 83 55 39 57
REMARK SMILES IDX 71 58 51 59 70 60 52 61 55 62 69 63 88 64 53 65 54 66 68 68
REMARK SMILES IDX 89 69 56 70 40 71 41 72 49 73 42 74 44 75 50 76 43 77 45 78
REMARK SMILES IDX 46 79 47 80 48 81 72 82 73 83 81 84 74 85 76 86 82 87 75 88
REMARK SMILES IDX 77 89 78 90 79 91 80 92 57 93 58 94 66 95 59 96 61 97 67 98
REMARK SMILES IDX 60 99 62 100 63 101 64 102 65 103
REMARK H PARENT 7 19 10 21 24 31 28 37 87 56 55 67
REMARK Flexibility Score: inf
ROOT
ATOM      1  C   UNL A   1      35.731  33.329  29.336  1.00  0.00     0.105 C 
ATOM      2  C   UNL A   1      37.082  33.744  28.757  1.00  0.00     0.023 C 
ENDROOT
BRANCH   1   3
ATOM      3  C   UNL A   1      35.072  32.164  28.618  1.00  0.00    -0.033 A 
ATOM      4  C   UNL A   1      33.892  29.935  27.258  1.00  0.00     0.018 A 
ATOM      5  C   UNL A   1      33.206  31.148  27.423  1.00  0.00     0.012 A 
ATOM      6  C   UNL A   1      35.182  29.868  27.801  1.00  0.00     0.131 A 
ATOM      7  C   UNL A   1      33.799  32.250  28.053  1.00  0.00     0.005 A 
ATOM      8  C   UNL A   1      35.756  30.948  28.484  1.00  0.00     0.044 A 
ATOM      9  F   UNL A   1      35.926  28.759  27.666  1.00  0.00    -0.206 F 
BRANCH   4  10
ATOM     10  C   UNL A   1      33.246  28.804  26.557  1.00  0.00    -0.013 A 
ATOM     11  C   UNL A   1      33.166  27.243  24.677  1.00  0.00     0.043 A 
ATOM     12  C   UNL A   1      32.151  26.524  25.298  1.00  0.00     0.026 A 
ATOM     13  C   UNL A   1      33.649  28.417  25.268  1.00  0.00     0.035 A 
ATOM     14  C   UNL A   1      31.726  26.888  26.571  1.00  0.00     0.003 A 
ATOM     15  C   UNL A   1      32.276  28.008  27.196  1.00  0.00     0.009 A 
BRANCH  11  16
ATOM     16  N   UNL A   1      33.729  26.704  23.510  1.00  0.00    -0.308 N 
ATOM     17  N   UNL A   1      32.312  27.493  21.790  1.00  0.00    -0.338 N 
ATOM     18  C   UNL A   1      33.210  26.592  22.263  1.00  0.00     0.319 C 
ATOM     19  H   UNL A   1      31.837  27.222  20.971  1.00  0.00     0.165 HD
ATOM     20  O   UNL A   1      33.612  25.710  21.500  1.00  0.00    -0.249 OA
ATOM     21  H   UNL A   1      34.643  26.354  23.614  1.00  0.00     0.171 HD
BRANCH  17  22
ATOM     22  C   UNL A   1      31.947  28.802  22.315  1.00  0.00     0.117 C 
BRANCH  22  23
ATOM     23  C   UNL A   1      30.445  29.056  22.364  1.00  0.00     0.021 C 
BRANCH  23  24
ATOM     24  C   UNL A   1      29.883  29.444  23.732  1.00  0.00     0.002 C 
BRANCH  24  25
ATOM     25  C   UNL A   1      29.602  30.935  23.950  1.00  0.00    -0.000 C 
BRANCH  25  26
ATOM     26  C   UNL A   1      28.181  31.398  23.632  1.00  0.00    -0.003 C 
ATOM     27  C   UNL A   1      28.032  31.939  22.224  1.00  0.00     0.004 C 
ENDBRANCH  25  26
ENDBRANCH  24  25
ENDBRANCH  23  24
ENDBRANCH  22  23
ENDBRANCH  17  22
ENDBRANCH  11  16
ENDBRANCH   4  10
ENDBRANCH   1   3
BRANCH   1  28
ATOM     28  C   UNL A   1      34.789  34.491  29.679  1.00  0.00     0.227 C 
ATOM     29  O   UNL A   1      34.337  35.200  28.769  1.00  0.00    -0.274 OA
ATOM     30  N   UNL A   1      34.371  34.803  30.935  1.00  0.00    -0.356 N 
ATOM     31  H   UNL A   1      33.729  35.550  30.964  1.00  0.00     0.163 HD
BRANCH  30  32
ATOM     32  C   UNL A   1      34.685  34.253  32.238  1.00  0.00     0.117 C 
BRANCH  32  33
ATOM     33  C   UNL A   1      34.848  32.735  32.205  1.00  0.00     0.042 C 
BRANCH  33  34
ATOM     34  C   UNL A   1      36.110  32.233  32.897  1.00  0.00     0.118 C 
BRANCH  34  35
ATOM     35  N   UNL A   1      36.244  30.783  32.836  1.00  0.00    -0.352 N 
ATOM     36  C   UNL A   1      37.196  30.006  32.215  1.00  0.00     0.251 C 
ATOM     37  H   UNL A   1      35.545  30.280  33.312  1.00  0.00     0.163 HD
ATOM     38  O   UNL A   1      37.005  28.799  32.101  1.00  0.00    -0.269 OA
BRANCH  36  39
ATOM     39  C   UNL A   1      38.437  30.612  31.675  1.00  0.00     0.039 A 
ATOM     40  C   UNL A   1      39.460  30.971  32.557  1.00  0.00     0.014 A 
ATOM     41  C   UNL A   1      38.586  30.856  30.310  1.00  0.00     0.014 A 
ATOM     42  C   UNL A   1      40.660  31.494  32.060  1.00  0.00     0.010 A 
ATOM     43  C   UNL A   1      39.810  31.306  29.813  1.00  0.00     0.010 A 
ATOM     44  C   UNL A   1      40.869  31.620  30.677  1.00  0.00    -0.014 A 
BRANCH  44  45
ATOM     45  C   UNL A   1      42.183  32.047  30.116  1.00  0.00     0.031 A 
ATOM     46  C   UNL A   1      42.451  33.496  29.798  1.00  0.00     0.074 A 
ATOM     47  C   UNL A   1      43.112  31.119  29.801  1.00  0.00     0.049 A 
ATOM     48  N   UNL A   1      43.501  34.035  29.233  1.00  0.00    -0.248 NA
ATOM     49  C   UNL A   1      41.391  34.461  30.130  1.00  0.00     0.031 C 
ATOM     50  C   UNL A   1      42.960  29.672  29.975  1.00  0.00     0.029 A 
ATOM     51  N   UNL A   1      44.361  31.252  29.244  1.00  0.00    -0.354 N 
ATOM     52  C   UNL A   1      43.213  35.390  29.106  1.00  0.00     0.074 A 
ATOM     53  C   UNL A   1      41.874  35.584  29.618  1.00  0.00     0.031 C 
ATOM     54  C   UNL A   1      44.076  29.057  29.555  1.00  0.00     0.029 A 
ATOM     55  C   UNL A   1      45.006  30.054  29.036  1.00  0.00     0.049 A 
ATOM     56  H   UNL A   1      44.758  32.123  29.013  1.00  0.00     0.167 HD
ATOM     57  C   UNL A   1      43.997  36.391  28.636  1.00  0.00     0.034 A 
ATOM     58  C   UNL A   1      46.200  29.782  28.473  1.00  0.00     0.034 A 
ATOM     59  C   UNL A   1      45.345  36.211  28.168  1.00  0.00     0.049 A 
ATOM     60  C   UNL A   1      47.052  30.910  27.958  1.00  0.00     0.074 A 
ATOM     61  C   UNL A   1      46.250  37.180  27.768  1.00  0.00     0.029 A 
ATOM     62  N   UNL A   1      45.979  34.988  28.020  1.00  0.00    -0.354 N 
ATOM     63  N   UNL A   1      46.822  32.199  27.995  1.00  0.00    -0.248 NA
ATOM     64  C   UNL A   1      48.337  30.546  27.343  1.00  0.00     0.031 C 
ATOM     65  C   UNL A   1      47.419  36.539  27.345  1.00  0.00     0.029 A 
ATOM     66  C   UNL A   1      47.255  35.174  27.516  1.00  0.00     0.049 A 
ATOM     67  H   UNL A   1      45.580  34.116  28.242  1.00  0.00     0.167 HD
ATOM     68  C   UNL A   1      47.945  32.800  27.438  1.00  0.00     0.074 A 
ATOM     69  C   UNL A   1      48.864  31.737  27.093  1.00  0.00     0.031 C 
ATOM     70  C   UNL A   1      48.185  34.116  27.219  1.00  0.00     0.034 A 
BRANCH  57  71
ATOM     71  C   UNL A   1      43.433  37.788  28.649  1.00  0.00     0.023 A 
ATOM     72  C   UNL A   1      42.639  38.229  27.570  1.00  0.00     0.012 A 
ATOM     73  C   UNL A   1      43.635  38.641  29.751  1.00  0.00     0.148 A 
ATOM     74  C   UNL A   1      42.089  39.509  27.568  1.00  0.00     0.002 A 
ATOM     75  C   UNL A   1      43.043  39.900  29.764  1.00  0.00     0.091 A 
ATOM     76  F   UNL A   1      44.405  38.212  30.761  1.00  0.00    -0.205 F 
ATOM     77  C   UNL A   1      42.281  40.340  28.668  1.00  0.00     0.022 A 
BRANCH  75  78
ATOM     78  S   UNL A   1      43.161  41.014  31.169  1.00  0.00     0.127 S 
ATOM     79  O   UNL A   1      42.337  42.136  30.722  1.00  0.00    -0.237 OA
ATOM     80  O   UNL A   1      42.571  40.214  32.243  1.00  0.00    -0.237 OA
ATOM     81  O   UNL A   1      44.577  41.305  31.333  1.00  0.00    -0.744 OA
ENDBRANCH  75  78
ENDBRANCH  57  71
BRANCH  58  82
ATOM     82  C   UNL A   1      46.681  28.375  28.375  1.00  0.00     0.023 A 
ATOM     83  C   UNL A   1      47.471  27.829  29.405  1.00  0.00     0.012 A 
ATOM     84  C   UNL A   1      46.357  27.579  27.263  1.00  0.00     0.148 A 
ATOM     85  C   UNL A   1      47.957  26.523  29.310  1.00  0.00     0.002 A 
ATOM     86  C   UNL A   1      46.797  26.263  27.202  1.00  0.00     0.091 A 
ATOM     87  F   UNL A   1      45.602  28.121  26.296  1.00  0.00    -0.205 F 
ATOM     88  C   UNL A   1      47.614  25.737  28.214  1.00  0.00     0.022 A 
BRANCH  86  89
ATOM     89  S   UNL A   1      46.312  25.155  25.882  1.00  0.00     0.127 S 
ATOM     90  O   UNL A   1      46.978  23.911  26.255  1.00  0.00    -0.237 OA
ATOM     91  O   UNL A   1      44.856  25.139  26.019  1.00  0.00    -0.237 OA
ATOM     92  O   UNL A   1      46.803  25.772  24.658  1.00  0.00    -0.744 OA
ENDBRANCH  86  89
ENDBRANCH  58  82
BRANCH  70  93
ATOM     93  C   UNL A   1      49.510  34.498  26.613  1.00  0.00     0.023 A 
ATOM     94  C   UNL A   1      49.615  34.703  25.224  1.00  0.00     0.012 A 
ATOM     95  C   UNL A   1      50.632  34.727  27.433  1.00  0.00     0.148 A 
ATOM     96  C   UNL A   1      50.824  35.105  24.657  1.00  0.00     0.002 A 
ATOM     97  C   UNL A   1      51.820  35.177  26.868  1.00  0.00     0.091 A 
ATOM     98  F   UNL A   1      50.516  34.508  28.751  1.00  0.00    -0.205 F 
ATOM     99  C   UNL A   1      51.920  35.354  25.479  1.00  0.00     0.022 A 
BRANCH  97 100
ATOM    100  S   UNL A   1      53.255  35.615  27.855  1.00  0.00     0.127 S 
ATOM    101  O   UNL A   1      52.676  36.542  28.826  1.00  0.00    -0.237 OA
ATOM    102  O   UNL A   1      53.655  34.322  28.408  1.00  0.00    -0.237 OA
ATOM    103  O   UNL A   1      54.216  36.205  26.932  1.00  0.00    -0.744 OA
ENDBRANCH  97 100
ENDBRANCH  70  93
ENDBRANCH  44  45
ENDBRANCH  36  39
ENDBRANCH  34  35
ENDBRANCH  33  34
ENDBRANCH  32  33
ENDBRANCH  30  32
ENDBRANCH   1  28
TORSDOF 21
ENDMDL
MODEL 2
REMARK VINA RESULT:     -10.2      4.099      9.335
REMARK SMILES CCCCCCNC(=O)Nc1cccc(-c2ccc([C@@H](C)C(=O)NCCCNC(=O)c3ccc(-c4c5nc(c(-c6cccc(S(=O)(=O)[O-])c6F)c6ccc([nH]6)c(-c6cccc(S(=O)(=O)[O-])c6F)c6nc(c(-c7cccc(S(=O)(=O)[O-])c7F)c7ccc4[nH]7)C=C6)C=C5)cc3)cc2F)c1
REMARK SMILES IDX 20 1 21 2 19 3 16 4 17 5 95 6 18 7 94 8 96 9 15 10 11 11
REMARK SMILES IDX 12 12 97 13 13 14 14 15 10 16 7 17 8 18 9 20 6 22 5 23 4 24
REMARK SMILES IDX 3 25 2 26 1 27 22 28 23 29 24 30 25 32 26 33 27 34 28 35
REMARK SMILES IDX 29 36 30 38 31 39 32 40 93 41 33 42 92 43 34 44 35 45 36 46
REMARK SMILES IDX 86 47 37 48 91 49 85 50 87 51 38 52 90 53 84 54 83 55 39 57
REMARK SMILES IDX 71 58 51 59 70 60 52 61 55 62 69 63 88 64 53 65 54 66 68 68
REMARK SMILES IDX 89 69 56 70 40 71 41 72 49 73 42 74 44 75 50 76 43 77 45 78
REMARK SMILES IDX 46 79 47 80 48 81 72 82 73 83 81 84 74 85 76 86 82 87 75 88
REMARK SMILES IDX 77 89 78 90 79 91 80 92 57 93 58 94 66 95 59 96 61 97 67 98
REMARK SMILES IDX 60 99 62 100 63 101 64 102 65 103
REMARK H PARENT 7 19 10 21 24 31 28 37 87 56 55 67
REMARK Flexibility Score: inf
ROOT
ATOM      1  C   UNL A   1      34.024  33.816  27.678  1.00  0.00     0.105 C 
ATOM      2  C   UNL A   1      32.533  33.485  27.626  1.00  0.00     0.023 C 
ENDROOT
BRANCH   1   3
ATOM      3  C   UNL A   1      34.913  32.645  28.060  1.00  0.00    -0.033 A 
ATOM      4  C   UNL A   1      36.648  30.481  28.778  1.00  0.00     0.018 A 
ATOM      5  C   UNL A   1      35.329  30.262  28.350  1.00  0.00     0.012 A 
ATOM      6  C   UNL A   1      37.070  31.815  28.843  1.00  0.00     0.131 A 
ATOM      7  C   UNL A   1      34.495  31.317  27.962  1.00  0.00     0.005 A 
ATOM      8  C   UNL A   1      36.219  32.878  28.513  1.00  0.00     0.044 A 
ATOM      9  F   UNL A   1      38.323  32.121  29.213  1.00  0.00    -0.206 F 
BRANCH   4  10
ATOM     10  C   UNL A   1      37.510  29.338  29.148  1.00  0.00    -0.013 A 
ATOM     11  C   UNL A   1      39.104  27.593  28.518  1.00  0.00     0.043 A 
ATOM     12  C   UNL A   1      39.313  27.280  29.856  1.00  0.00     0.026 A 
ATOM     13  C   UNL A   1      38.151  28.559  28.170  1.00  0.00     0.035 A 
ATOM     14  C   UNL A   1      38.686  28.029  30.846  1.00  0.00     0.003 A 
ATOM     15  C   UNL A   1      37.805  29.052  30.495  1.00  0.00     0.009 A 
BRANCH  11  16
ATOM     16  N   UNL A   1      39.933  26.981  27.566  1.00  0.00    -0.308 N 
ATOM     17  N   UNL A   1      41.512  28.659  27.038  1.00  0.00    -0.338 N 
ATOM     18  C   UNL A   1      40.835  27.528  26.715  1.00  0.00     0.319 C 
ATOM     19  H   UNL A   1      41.982  29.095  26.291  1.00  0.00     0.165 HD
ATOM     20  O   UNL A   1      41.122  26.954  25.661  1.00  0.00    -0.249 OA
ATOM     21  H   UNL A   1      39.845  26.002  27.507  1.00  0.00     0.171 HD
BRANCH  17  22
ATOM     22  C   UNL A   1      41.646  29.324  28.328  1.00  0.00     0.117 C 
BRANCH  22  23
ATOM     23  C   UNL A   1      42.503  28.563  29.333  1.00  0.00     0.021 C 
BRANCH  23  24
ATOM     24  C   UNL A   1      43.419  27.489  28.745  1.00  0.00     0.002 C 
BRANCH  24  25
ATOM     25  C   UNL A   1      43.338  26.103  29.394  1.00  0.00    -0.000 C 
BRANCH  25  26
ATOM     26  C   UNL A   1      43.512  24.915  28.450  1.00  0.00    -0.003 C 
ATOM     27  C   UNL A   1      44.886  24.280  28.537  1.00  0.00     0.004 C 
ENDBRANCH  25  26
ENDBRANCH  24  25
ENDBRANCH  23  24
ENDBRANCH  22  23
ENDBRANCH  17  22
ENDBRANCH  11  16
ENDBRANCH   4  10
ENDBRANCH   1   3
BRANCH   1  28
ATOM     28  C   UNL A   1      34.369  35.141  28.373  1.00  0.00     0.227 C 
ATOM     29  O   UNL A   1      34.779  36.096  27.700  1.00  0.00    -0.274 OA
ATOM     30  N   UNL A   1      34.232  35.373  29.706  1.00  0.00    -0.356 N 
ATOM     31  H   UNL A   1      34.455  36.295  29.971  1.00  0.00     0.163 HD
BRANCH  30  32
ATOM     32  C   UNL A   1      33.824  34.529  30.812  1.00  0.00     0.117 C 
BRANCH  32  33
ATOM     33  C   UNL A   1      34.926  34.365  31.855  1.00  0.00     0.042 C 
BRANCH  33  34
ATOM     34  C   UNL A   1      34.625  33.308  32.912  1.00  0.00     0.118 C 
BRANCH  34  35
ATOM     35  N   UNL A   1      34.902  33.772  34.265  1.00  0.00    -0.352 N 
ATOM     36  C   UNL A   1      35.975  33.517  35.088  1.00  0.00     0.251 C 
ATOM     37  H   UNL A   1      34.213  34.360  34.652  1.00  0.00     0.163 HD
ATOM     38  O   UNL A   1      35.910  33.829  36.274  1.00  0.00    -0.269 OA
BRANCH  36  39
ATOM     39  C   UNL A   1      37.196  32.861  34.563  1.00  0.00     0.039 A 
ATOM     40  C   UNL A   1      37.071  31.877  33.579  1.00  0.00     0.014 A 
ATOM     41  C   UNL A   1      38.459  33.187  35.057  1.00  0.00     0.014 A 
ATOM     42  C   UNL A   1      38.217  31.285  33.032  1.00  0.00     0.010 A 
ATOM     43  C   UNL A   1      39.600  32.651  34.456  1.00  0.00     0.010 A 
ATOM     44  C   UNL A   1      39.498  31.702  33.429  1.00  0.00    -0.014 A 
BRANCH  44  45
ATOM     45  C   UNL A   1      40.732  31.187  32.770  1.00  0.00     0.031 A 
ATOM     46  C   UNL A   1      41.418  29.945  33.280  1.00  0.00     0.074 A 
ATOM     47  C   UNL A   1      41.298  31.886  31.763  1.00  0.00     0.049 A 
ATOM     48  N   UNL A   1      42.538  29.399  32.884  1.00  0.00    -0.248 NA
ATOM     49  C   UNL A   1      40.776  29.240  34.402  1.00  0.00     0.031 C 
ATOM     50  C   UNL A   1      40.793  33.149  31.218  1.00  0.00     0.029 A 
ATOM     51  N   UNL A   1      42.438  31.647  31.034  1.00  0.00    -0.354 N 
ATOM     52  C   UNL A   1      42.757  28.317  33.728  1.00  0.00     0.074 A 
ATOM     53  C   UNL A   1      41.671  28.304  34.684  1.00  0.00     0.031 C 
ATOM     54  C   UNL A   1      41.605  33.561  30.232  1.00  0.00     0.029 A 
ATOM     55  C   UNL A   1      42.715  32.622  30.102  1.00  0.00     0.049 A 
ATOM     56  H   UNL A   1      43.005  30.854  31.166  1.00  0.00     0.167 HD
ATOM     57  C   UNL A   1      43.750  27.395  33.699  1.00  0.00     0.034 A 
ATOM     58  C   UNL A   1      43.753  32.760  29.253  1.00  0.00     0.034 A 
ATOM     59  C   UNL A   1      44.807  27.375  32.724  1.00  0.00     0.049 A 
ATOM     60  C   UNL A   1      44.843  31.725  29.239  1.00  0.00     0.074 A 
ATOM     61  C   UNL A   1      45.800  26.425  32.552  1.00  0.00     0.029 A 
ATOM     62  N   UNL A   1      45.023  28.352  31.765  1.00  0.00    -0.354 N 
ATOM     63  N   UNL A   1      44.943  30.624  29.941  1.00  0.00    -0.248 NA
ATOM     64  C   UNL A   1      45.954  31.941  28.299  1.00  0.00     0.031 C 
ATOM     65  C   UNL A   1      46.636  26.846  31.514  1.00  0.00     0.029 A 
ATOM     66  C   UNL A   1      46.143  28.040  31.014  1.00  0.00     0.049 A 
ATOM     67  H   UNL A   1      44.462  29.151  31.638  1.00  0.00     0.167 HD
ATOM     68  C   UNL A   1      46.107  30.001  29.508  1.00  0.00     0.074 A 
ATOM     69  C   UNL A   1      46.667  30.836  28.466  1.00  0.00     0.031 C 
ATOM     70  C   UNL A   1      46.670  28.848  29.946  1.00  0.00     0.034 A 
BRANCH  57  71
ATOM     71  C   UNL A   1      43.717  26.294  34.727  1.00  0.00     0.023 A 
ATOM     72  C   UNL A   1      43.213  25.026  34.374  1.00  0.00     0.012 A 
ATOM     73  C   UNL A   1      44.238  26.495  36.021  1.00  0.00     0.148 A 
ATOM     74  C   UNL A   1      43.191  23.985  35.301  1.00  0.00     0.002 A 
ATOM     75  C   UNL A   1      44.256  25.439  36.925  1.00  0.00     0.091 A 
ATOM     76  F   UNL A   1      44.698  27.711  36.344  1.00  0.00    -0.205 F 
ATOM     77  C   UNL A   1      43.722  24.188  36.572  1.00  0.00     0.022 A 
BRANCH  75  78
ATOM     78  S   UNL A   1      44.993  25.573  38.559  1.00  0.00     0.127 S 
ATOM     79  O   UNL A   1      44.082  26.510  39.214  1.00  0.00    -0.237 OA
ATOM     80  O   UNL A   1      44.906  24.196  39.047  1.00  0.00    -0.237 OA
ATOM     81  O   UNL A   1      46.348  26.060  38.350  1.00  0.00    -0.744 OA
ENDBRANCH  75  78
ENDBRANCH  57  71
BRANCH  58  82
ATOM     82  C   UNL A   1      43.811  33.924  28.323  1.00  0.00     0.023 A 
ATOM     83  C   UNL A   1      43.436  33.766  26.975  1.00  0.00     0.012 A 
ATOM     84  C   UNL A   1      44.240  35.185  28.773  1.00  0.00     0.148 A 
ATOM     85  C   UNL A   1      43.519  34.838  26.084  1.00  0.00     0.002 A 
ATOM     86  C   UNL A   1      44.266  36.261  27.895  1.00  0.00     0.091 A 
ATOM     87  F   UNL A   1      44.589  35.310  30.061  1.00  0.00    -0.205 F 
ATOM     88  C   UNL A   1      43.926  36.087  26.545  1.00  0.00     0.022 A 
BRANCH  86  89
ATOM     89  S   UNL A   1      44.673  37.919  28.431  1.00  0.00     0.127 S 
ATOM     90  O   UNL A   1      46.052  37.774  28.887  1.00  0.00    -0.237 OA
ATOM     91  O   UNL A   1      44.511  38.686  27.195  1.00  0.00    -0.237 OA
ATOM     92  O   UNL A   1      43.710  38.236  29.476  1.00  0.00    -0.744 OA
ENDBRANCH  86  89
ENDBRANCH  58  82
BRANCH  70  93
ATOM     93  C   UNL A   1      47.938  28.387  29.277  1.00  0.00     0.023 A 
ATOM     94  C   UNL A   1      49.172  28.967  29.633  1.00  0.00     0.012 A 
ATOM     95  C   UNL A   1      47.914  27.325  28.352  1.00  0.00     0.148 A 
ATOM     96  C   UNL A   1      50.359  28.513  29.058  1.00  0.00     0.002 A 
ATOM     97  C   UNL A   1      49.105  26.845  27.821  1.00  0.00     0.091 A 
ATOM     98  F   UNL A   1      46.727  26.800  28.013  1.00  0.00    -0.205 F 
ATOM     99  C   UNL A   1      50.327  27.446  28.164  1.00  0.00     0.022 A 
BRANCH  97 100
ATOM    100  S   UNL A   1      49.173  25.415  26.736  1.00  0.00     0.127 S 
ATOM    101  O   UNL A   1      50.583  25.037  26.831  1.00  0.00    -0.237 OA
ATOM    102  O   UNL A   1      48.248  24.490  27.389  1.00  0.00    -0.237 OA
ATOM    103  O   UNL A   1      48.743  25.881  25.425  1.00  0.00    -0.744 OA
ENDBRANCH  97 100
ENDBRANCH  70  93
ENDBRANCH  44  45
ENDBRANCH  36  39
ENDBRANCH  34  35
ENDBRANCH  33  34
ENDBRANCH  32  33
ENDBRANCH  30  32
ENDBRANCH   1  28
TORSDOF 21
ENDMDL
MODEL 3
REMARK VINA RESULT:     -10.1      6.511     11.878
REMARK SMILES CCCCCCNC(=O)Nc1cccc(-c2ccc([C@@H](C)C(=O)NCCCNC(=O)c3ccc(-c4c5nc(c(-c6cccc(S(=O)(=O)[O-])c6F)c6ccc([nH]6)c(-c6cccc(S(=O)(=O)[O-])c6F)c6nc(c(-c7cccc(S(=O)(=O)[O-])c7F)c7ccc4[nH]7)C=C6)C=C5)cc3)cc2F)c1
REMARK SMILES IDX 20 1 21 2 19 3 16 4 17 5 95 6 18 7 94 8 96 9 15 10 11 11
REMARK SMILES IDX 12 12 97 13 13 14 14 15 10 16 7 17 8 18 9 20 6 22 5 23 4 24
REMARK SMILES IDX 3 25 2 26 1 27 22 28 23 29 24 30 25 32 26 33 27 34 28 35
REMARK SMILES IDX 29 36 30 38 31 39 32 40 93 41 33 42 92 43 34 44 35 45 36 46
REMARK SMILES IDX 86 47 37 48 91 49 85 50 87 51 38 52 90 53 84 54 83 55 39 57
REMARK SMILES IDX 71 58 51 59 70 60 52 61 55 62 69 63 88 64 53 65 54 66 68 68
REMARK SMILES IDX 89 69 56 70 40 71 41 72 49 73 42 74 44 75 50 76 43 77 45 78
REMARK SMILES IDX 46 79 47 80 48 81 72 82 73 83 81 84 74 85 76 86 82 87 75 88
REMARK SMILES IDX 77 89 78 90 79 91 80 92 57 93 58 94 66 95 59 96 61 97 67 98
REMARK SMILES IDX 60 99 62 100 63 101 64 102 65 103
REMARK H PARENT 7 19 10 21 24 31 28 37 87 56 55 67
REMARK Flexibility Score: inf
ROOT
ATOM      1  C   UNL A   1      41.881  21.686  27.191  1.00  0.00     0.105 C 
ATOM      2  C   UNL A   1      42.245  22.372  28.506  1.00  0.00     0.023 C 
ENDROOT
BRANCH   1   3
ATOM      3  C   UNL A   1      40.484  22.003  26.683  1.00  0.00    -0.033 A 
ATOM      4  C   UNL A   1      37.849  22.659  25.770  1.00  0.00     0.018 A 
ATOM      5  C   UNL A   1      38.437  21.413  25.501  1.00  0.00     0.012 A 
ATOM      6  C   UNL A   1      38.622  23.569  26.502  1.00  0.00     0.131 A 
ATOM      7  C   UNL A   1      39.709  21.079  25.981  1.00  0.00     0.005 A 
ATOM      8  C   UNL A   1      39.919  23.261  26.934  1.00  0.00     0.044 A 
ATOM      9  F   UNL A   1      38.133  24.774  26.833  1.00  0.00    -0.206 F 
BRANCH   4  10
ATOM     10  C   UNL A   1      36.489  22.963  25.274  1.00  0.00    -0.013 A 
ATOM     11  C   UNL A   1      34.130  23.435  25.711  1.00  0.00     0.043 A 
ATOM     12  C   UNL A   1      33.927  23.737  24.369  1.00  0.00     0.026 A 
ATOM     13  C   UNL A   1      35.382  22.976  26.139  1.00  0.00     0.035 A 
ATOM     14  C   UNL A   1      35.002  23.724  23.488  1.00  0.00     0.003 A 
ATOM     15  C   UNL A   1      36.270  23.353  23.939  1.00  0.00     0.009 A 
BRANCH  11  16
ATOM     16  N   UNL A   1      33.080  23.693  26.605  1.00  0.00    -0.308 N 
ATOM     17  N   UNL A   1      31.654  21.825  26.344  1.00  0.00    -0.338 N 
ATOM     18  C   UNL A   1      31.855  23.120  26.699  1.00  0.00     0.319 C 
ATOM     19  H   UNL A   1      30.712  21.558  26.246  1.00  0.00     0.165 HD
ATOM     20  O   UNL A   1      30.914  23.745  27.194  1.00  0.00    -0.249 OA
ATOM     21  H   UNL A   1      33.261  24.399  27.266  1.00  0.00     0.171 HD
BRANCH  17  22
ATOM     22  C   UNL A   1      32.627  20.772  26.087  1.00  0.00     0.117 C 
BRANCH  22  23
ATOM     23  C   UNL A   1      32.554  20.188  24.681  1.00  0.00     0.021 C 
BRANCH  23  24
ATOM     24  C   UNL A   1      33.570  19.090  24.365  1.00  0.00     0.002 C 
BRANCH  24  25
ATOM     25  C   UNL A   1      33.084  17.963  23.447  1.00  0.00    -0.000 C 
BRANCH  25  26
ATOM     26  C   UNL A   1      33.948  16.703  23.426  1.00  0.00    -0.003 C 
ATOM     27  C   UNL A   1      34.716  16.486  24.714  1.00  0.00     0.004 C 
ENDBRANCH  25  26
ENDBRANCH  24  25
ENDBRANCH  23  24
ENDBRANCH  22  23
ENDBRANCH  17  22
ENDBRANCH  11  16
ENDBRANCH   4  10
ENDBRANCH   1   3
BRANCH   1  28
ATOM     28  C   UNL A   1      42.277  20.206  27.102  1.00  0.00     0.227 C 
ATOM     29  O   UNL A   1      41.852  19.406  27.947  1.00  0.00    -0.274 OA
ATOM     30  N   UNL A   1      43.059  19.672  26.125  1.00  0.00    -0.356 N 
ATOM     31  H   UNL A   1      43.171  18.696  26.197  1.00  0.00     0.163 HD
BRANCH  30  32
ATOM     32  C   UNL A   1      43.760  20.259  25.000  1.00  0.00     0.117 C 
BRANCH  32  33
ATOM     33  C   UNL A   1      44.849  21.235  25.438  1.00  0.00     0.042 C 
BRANCH  33  34
ATOM     34  C   UNL A   1      44.433  22.699  25.367  1.00  0.00     0.118 C 
BRANCH  34  35
ATOM     35  N   UNL A   1      45.482  23.555  24.827  1.00  0.00    -0.352 N 
ATOM     36  C   UNL A   1      45.681  24.910  24.970  1.00  0.00     0.251 C 
ATOM     37  H   UNL A   1      46.152  23.093  24.273  1.00  0.00     0.163 HD
ATOM     38  O   UNL A   1      46.503  25.474  24.253  1.00  0.00    -0.269 OA
BRANCH  36  39
ATOM     39  C   UNL A   1      44.910  25.691  25.966  1.00  0.00     0.039 A 
ATOM     40  C   UNL A   1      44.183  25.013  26.948  1.00  0.00     0.014 A 
ATOM     41  C   UNL A   1      44.873  27.084  25.918  1.00  0.00     0.014 A 
ATOM     42  C   UNL A   1      43.493  25.735  27.930  1.00  0.00     0.010 A 
ATOM     43  C   UNL A   1      44.247  27.799  26.941  1.00  0.00     0.010 A 
ATOM     44  C   UNL A   1      43.558  27.138  27.968  1.00  0.00    -0.014 A 
BRANCH  44  45
ATOM     45  C   UNL A   1      42.945  27.924  29.076  1.00  0.00     0.031 A 
ATOM     46  C   UNL A   1      43.661  28.086  30.393  1.00  0.00     0.074 A 
ATOM     47  C   UNL A   1      41.697  28.420  28.938  1.00  0.00     0.049 A 
ATOM     48  N   UNL A   1      43.247  28.665  31.491  1.00  0.00    -0.248 NA
ATOM     49  C   UNL A   1      45.005  27.496  30.501  1.00  0.00     0.031 C 
ATOM     50  C   UNL A   1      40.851  28.271  27.752  1.00  0.00     0.029 A 
ATOM     51  N   UNL A   1      40.912  29.130  29.814  1.00  0.00    -0.354 N 
ATOM     52  C   UNL A   1      44.257  28.475  32.428  1.00  0.00     0.074 A 
ATOM     53  C   UNL A   1      45.288  27.693  31.780  1.00  0.00     0.031 C 
ATOM     54  C   UNL A   1      39.678  28.886  27.966  1.00  0.00     0.029 A 
ATOM     55  C   UNL A   1      39.663  29.434  29.319  1.00  0.00     0.049 A 
ATOM     56  H   UNL A   1      41.212  29.397  30.712  1.00  0.00     0.167 HD
ATOM     57  C   UNL A   1      44.339  28.931  33.702  1.00  0.00     0.034 A 
ATOM     58  C   UNL A   1      38.616  30.060  29.891  1.00  0.00     0.034 A 
ATOM     59  C   UNL A   1      43.339  29.745  34.336  1.00  0.00     0.049 A 
ATOM     60  C   UNL A   1      38.732  30.557  31.305  1.00  0.00     0.074 A 
ATOM     61  C   UNL A   1      43.380  30.338  35.587  1.00  0.00     0.029 A 
ATOM     62  N   UNL A   1      42.111  30.072  33.782  1.00  0.00    -0.354 N 
ATOM     63  N   UNL A   1      39.759  30.503  32.117  1.00  0.00    -0.248 NA
ATOM     64  C   UNL A   1      37.550  31.220  31.876  1.00  0.00     0.031 C 
ATOM     65  C   UNL A   1      42.164  30.993  35.803  1.00  0.00     0.029 A 
ATOM     66  C   UNL A   1      41.379  30.839  34.672  1.00  0.00     0.049 A 
ATOM     67  H   UNL A   1      41.806  29.798  32.887  1.00  0.00     0.167 HD
ATOM     68  C   UNL A   1      39.359  31.151  33.280  1.00  0.00     0.074 A 
ATOM     69  C   UNL A   1      38.004  31.610  33.060  1.00  0.00     0.031 C 
ATOM     70  C   UNL A   1      40.049  31.335  34.432  1.00  0.00     0.034 A 
BRANCH  57  71
ATOM     71  C   UNL A   1      45.583  28.599  34.486  1.00  0.00     0.023 A 
ATOM     72  C   UNL A   1      46.696  29.462  34.423  1.00  0.00     0.012 A 
ATOM     73  C   UNL A   1      45.629  27.473  35.331  1.00  0.00     0.148 A 
ATOM     74  C   UNL A   1      47.851  29.188  35.156  1.00  0.00     0.002 A 
ATOM     75  C   UNL A   1      46.765  27.233  36.095  1.00  0.00     0.091 A 
ATOM     76  F   UNL A   1      44.567  26.655  35.366  1.00  0.00    -0.205 F 
ATOM     77  C   UNL A   1      47.881  28.081  35.999  1.00  0.00     0.022 A 
BRANCH  75  78
ATOM     78  S   UNL A   1      46.874  25.881  37.274  1.00  0.00     0.127 S 
ATOM     79  O   UNL A   1      47.687  24.915  36.537  1.00  0.00    -0.237 OA
ATOM     80  O   UNL A   1      47.555  26.515  38.404  1.00  0.00    -0.237 OA
ATOM     81  O   UNL A   1      45.504  25.469  37.541  1.00  0.00    -0.744 OA
ENDBRANCH  75  78
ENDBRANCH  57  71
BRANCH  58  82
ATOM     82  C   UNL A   1      37.358  30.274  29.122  1.00  0.00     0.023 A 
ATOM     83  C   UNL A   1      36.677  29.172  28.568  1.00  0.00     0.012 A 
ATOM     84  C   UNL A   1      36.836  31.566  28.937  1.00  0.00     0.148 A 
ATOM     85  C   UNL A   1      35.516  29.360  27.815  1.00  0.00     0.002 A 
ATOM     86  C   UNL A   1      35.650  31.740  28.236  1.00  0.00     0.091 A 
ATOM     87  F   UNL A   1      37.501  32.598  29.477  1.00  0.00    -0.205 F 
ATOM     88  C   UNL A   1      34.998  30.642  27.656  1.00  0.00     0.022 A 
BRANCH  86  89
ATOM     89  S   UNL A   1      34.862  33.339  28.078  1.00  0.00     0.127 S 
ATOM     90  O   UNL A   1      34.666  33.732  29.470  1.00  0.00    -0.237 OA
ATOM     91  O   UNL A   1      35.877  34.108  27.357  1.00  0.00    -0.237 OA
ATOM     92  O   UNL A   1      33.636  33.095  27.330  1.00  0.00    -0.744 OA
ENDBRANCH  86  89
ENDBRANCH  58  82
BRANCH  70  93
ATOM     93  C   UNL A   1      39.375  32.101  35.540  1.00  0.00     0.023 A 
ATOM     94  C   UNL A   1      38.371  31.484  36.311  1.00  0.00     0.012 A 
ATOM     95  C   UNL A   1      39.793  33.407  35.864  1.00  0.00     0.148 A 
ATOM     96  C   UNL A   1      37.775  32.165  37.372  1.00  0.00     0.002 A 
ATOM     97  C   UNL A   1      39.230  34.060  36.954  1.00  0.00     0.091 A 
ATOM     98  F   UNL A   1      40.737  33.982  35.105  1.00  0.00    -0.205 F 
ATOM     99  C   UNL A   1      38.213  33.445  37.701  1.00  0.00     0.022 A 
BRANCH  97 100
ATOM    100  S   UNL A   1      39.795  35.671  37.511  1.00  0.00     0.127 S 
ATOM    101  O   UNL A   1      41.176  35.385  37.900  1.00  0.00    -0.237 OA
ATOM    102  O   UNL A   1      39.657  36.482  36.302  1.00  0.00    -0.237 OA
ATOM    103  O   UNL A   1      38.911  36.054  38.604  1.00  0.00    -0.744 OA
ENDBRANCH  97 100
ENDBRANCH  70  93
ENDBRANCH  44  45
ENDBRANCH  36  39
ENDBRANCH  34  35
ENDBRANCH  33  34
ENDBRANCH  32  33
ENDBRANCH  30  32
ENDBRANCH   1  28
TORSDOF 21
ENDMDL
