MODEL 1
REMARK VINA RESULT:     -13.9      0.000      0.000
REMARK SMILES Cc1ccc(S(=O)(=O)n2cc(C(=O)C(=O)NCC(=O)N[C@@H](Cc3c[nH]c4ccccc34)C(=O)NCCCNC(=O)c3ccc(-c4c5nc(c(-c6cccc(S(=O)(=O)[O-])c6F)c6ccc([nH]6)c(-c6cccc(S(=O)(=O)[O-])c6F)c6nc(c(-c7cccc(S(=O)(=O)[O-])c7F)c7ccc4[nH]7)C=C6)C=C5)cc3)c3ccccc32)cc1
REMARK SMILES IDX 32 1 33 2 34 3 21 5 20 6 18 7 19 8 17 10 16 11 14 12 15 13
REMARK SMILES IDX 12 15 13 16 11 17 9 18 10 19 109 20 104 21 108 22 105 23
REMARK SMILES IDX 107 24 106 25 6 26 7 27 8 28 5 29 1 30 2 31 3 32 111 33 4 34
REMARK SMILES IDX 110 35 22 36 23 37 24 38 31 39 25 40 26 41 30 42 27 44 29 45
REMARK SMILES IDX 28 46 35 47 36 48 37 49 38 50 39 51 40 53 41 54 42 55 103 56
REMARK SMILES IDX 43 57 102 58 44 59 45 60 46 61 96 62 47 63 101 64 95 65
REMARK SMILES IDX 97 66 48 67 100 68 94 69 93 70 49 72 81 73 61 74 80 75 62 76
REMARK SMILES IDX 65 77 79 78 98 79 63 80 64 81 78 83 99 84 66 85 50 86 51 87
REMARK SMILES IDX 59 88 52 89 54 90 60 91 53 92 55 93 56 94 57 95 58 96 82 97
REMARK SMILES IDX 83 98 91 99 84 100 86 101 92 102 85 103 87 104 88 105 89 106
REMARK SMILES IDX 90 107 67 108 68 109 76 110 69 111 71 112 77 113 70 114
REMARK SMILES IDX 72 115 73 116 74 117 75 118
REMARK H PARENT 34 4 20 9 16 14 25 43 38 52 97 71 65 82
REMARK Flexibility Score: inf
ROOT
ATOM      1  C   UNL A   1      33.391  28.876  24.186  1.00  0.00     0.242 C 
ATOM      2  O   UNL A   1      34.092  28.901  23.172  1.00  0.00    -0.273 OA
ATOM      3  N   UNL A   1      33.637  29.790  25.178  1.00  0.00    -0.354 N 
ATOM      4  H   UNL A   1      34.572  30.071  25.305  1.00  0.00     0.163 HD
ENDROOT
BRANCH   1   5
ATOM      5  C   UNL A   1      32.231  27.861  24.292  1.00  0.00     0.175 C 
BRANCH   5   6
ATOM      6  N   UNL A   1      31.544  27.951  25.589  1.00  0.00    -0.342 N 
ATOM      7  C   UNL A   1      31.523  27.003  26.579  1.00  0.00     0.240 C 
ATOM      8  O   UNL A   1      31.318  27.370  27.736  1.00  0.00    -0.273 OA
ATOM      9  H   UNL A   1      31.046  28.782  25.766  1.00  0.00     0.164 HD
BRANCH   7  10
ATOM     10  C   UNL A   1      31.824  25.531  26.237  1.00  0.00     0.216 C 
BRANCH  10  11
ATOM     11  N   UNL A   1      31.073  25.126  25.041  1.00  0.00    -0.340 N 
ATOM     12  C   UNL A   1      30.794  23.851  24.574  1.00  0.00     0.292 C 
ATOM     13  O   UNL A   1      30.316  23.685  23.458  1.00  0.00    -0.265 OA
ATOM     14  H   UNL A   1      30.717  25.864  24.495  1.00  0.00     0.164 HD
BRANCH  12  15
ATOM     15  C   UNL A   1      31.080  22.640  25.472  1.00  0.00     0.252 C 
ATOM     16  O   UNL A   1      30.178  22.340  26.255  1.00  0.00    -0.283 OA
BRANCH  15  17
ATOM     17  C   UNL A   1      32.388  21.959  25.494  1.00  0.00     0.054 A 
ATOM     18  N   UNL A   1      34.506  21.242  25.880  1.00  0.00    -0.240 N 
ATOM     19  C   UNL A   1      33.595  22.270  26.140  1.00  0.00     0.117 A 
ATOM     20  C   UNL A   1      33.784  20.201  25.261  1.00  0.00     0.065 A 
ATOM     21  C   UNL A   1      32.674  20.815  24.689  1.00  0.00     0.012 A 
ATOM     22  C   UNL A   1      34.202  18.915  24.863  1.00  0.00     0.028 A 
ATOM     23  C   UNL A   1      32.087  20.215  23.555  1.00  0.00     0.011 A 
ATOM     24  C   UNL A   1      33.693  18.412  23.668  1.00  0.00     0.002 A 
ATOM     25  C   UNL A   1      32.673  19.073  23.001  1.00  0.00     0.001 A 
BRANCH  18  26
ATOM     26  S   UNL A   1      36.083  21.362  25.136  1.00  0.00     0.268 S 
ATOM     27  O   UNL A   1      35.787  22.059  23.892  1.00  0.00    -0.201 OA
ATOM     28  O   UNL A   1      36.499  19.964  25.143  1.00  0.00    -0.201 OA
BRANCH  26  29
ATOM     29  C   UNL A   1      37.586  22.099  25.659  1.00  0.00     0.088 A 
ATOM     30  C   UNL A   1      41.526  22.680  27.343  1.00  0.00     0.044 C 
ATOM     31  C   UNL A   1      40.176  22.540  26.704  1.00  0.00    -0.051 A 
ATOM     32  C   UNL A   1      39.839  21.281  26.239  1.00  0.00     0.005 A 
ATOM     33  C   UNL A   1      39.223  23.584  26.604  1.00  0.00     0.005 A 
ATOM     34  C   UNL A   1      38.579  21.080  25.716  1.00  0.00     0.022 A 
ATOM     35  C   UNL A   1      37.912  23.372  26.086  1.00  0.00     0.022 A 
ENDBRANCH  26  29
ENDBRANCH  18  26
ENDBRANCH  15  17
ENDBRANCH  12  15
ENDBRANCH  10  11
ENDBRANCH   7  10
ENDBRANCH   5   6
BRANCH   5  36
ATOM     36  C   UNL A   1      31.306  27.731  23.059  1.00  0.00     0.072 C 
BRANCH  36  37
ATOM     37  C   UNL A   1      29.859  28.094  23.225  1.00  0.00    -0.020 A 
ATOM     38  C   UNL A   1      28.800  27.202  23.265  1.00  0.00     0.087 A 
ATOM     39  C   UNL A   1      29.286  29.400  23.392  1.00  0.00     0.003 A 
ATOM     40  N   UNL A   1      27.630  27.916  23.203  1.00  0.00    -0.361 N 
ATOM     41  C   UNL A   1      27.900  29.262  23.281  1.00  0.00     0.046 A 
ATOM     42  C   UNL A   1      29.808  30.695  23.593  1.00  0.00     0.010 A 
ATOM     43  H   UNL A   1      26.731  27.523  23.115  1.00  0.00     0.166 HD
ATOM     44  C   UNL A   1      27.022  30.351  23.269  1.00  0.00     0.026 A 
ATOM     45  C   UNL A   1      28.934  31.789  23.667  1.00  0.00     0.001 A 
ATOM     46  C   UNL A   1      27.564  31.620  23.479  1.00  0.00     0.002 A 
ENDBRANCH  36  37
ENDBRANCH   5  36
ENDBRANCH   1   5
BRANCH   3  47
ATOM     47  C   UNL A   1      32.647  30.380  26.057  1.00  0.00     0.117 C 
BRANCH  47  48
ATOM     48  C   UNL A   1      33.074  30.683  27.486  1.00  0.00     0.042 C 
BRANCH  48  49
ATOM     49  C   UNL A   1      34.281  31.602  27.531  1.00  0.00     0.118 C 
BRANCH  49  50
ATOM     50  N   UNL A   1      33.966  32.888  28.190  1.00  0.00    -0.352 N 
ATOM     51  C   UNL A   1      34.460  33.421  29.370  1.00  0.00     0.251 C 
ATOM     52  H   UNL A   1      33.306  33.448  27.720  1.00  0.00     0.163 HD
ATOM     53  O   UNL A   1      33.740  34.187  30.022  1.00  0.00    -0.269 OA
BRANCH  51  54
ATOM     54  C   UNL A   1      35.845  33.118  29.759  1.00  0.00     0.039 A 
ATOM     55  C   UNL A   1      36.999  33.726  29.254  1.00  0.00     0.014 A 
ATOM     56  C   UNL A   1      35.972  32.039  30.613  1.00  0.00     0.014 A 
ATOM     57  C   UNL A   1      38.236  33.154  29.567  1.00  0.00     0.010 A 
ATOM     58  C   UNL A   1      37.131  31.804  31.250  1.00  0.00     0.010 A 
ATOM     59  C   UNL A   1      38.256  32.150  30.530  1.00  0.00    -0.014 A 
BRANCH  59  60
ATOM     60  C   UNL A   1      39.336  31.261  30.887  1.00  0.00     0.031 A 
ATOM     61  C   UNL A   1      39.498  30.044  30.103  1.00  0.00     0.074 A 
ATOM     62  C   UNL A   1      40.349  31.859  31.565  1.00  0.00     0.049 A 
ATOM     63  N   UNL A   1      40.282  29.086  30.428  1.00  0.00    -0.248 NA
ATOM     64  C   UNL A   1      38.770  29.825  28.857  1.00  0.00     0.031 C 
ATOM     65  C   UNL A   1      41.781  31.614  31.463  1.00  0.00     0.029 A 
ATOM     66  N   UNL A   1      40.309  32.960  32.409  1.00  0.00    -0.354 N 
ATOM     67  C   UNL A   1      40.422  28.308  29.301  1.00  0.00     0.074 A 
ATOM     68  C   UNL A   1      39.354  28.708  28.416  1.00  0.00     0.031 C 
ATOM     69  C   UNL A   1      42.420  32.344  32.401  1.00  0.00     0.029 A 
ATOM     70  C   UNL A   1      41.411  32.957  33.251  1.00  0.00     0.049 A 
ATOM     71  H   UNL A   1      39.601  33.644  32.409  1.00  0.00     0.167 HD
ATOM     72  C   UNL A   1      41.563  27.581  29.151  1.00  0.00     0.034 A 
ATOM     73  C   UNL A   1      41.235  32.671  34.580  1.00  0.00     0.034 A 
ATOM     74  C   UNL A   1      42.490  27.867  30.266  1.00  0.00     0.049 A 
ATOM     75  C   UNL A   1      41.696  31.264  34.931  1.00  0.00     0.074 A 
ATOM     76  C   UNL A   1      43.584  28.711  30.381  1.00  0.00     0.029 A 
ATOM     77  N   UNL A   1      42.115  27.550  31.569  1.00  0.00    -0.354 N 
ATOM     78  N   UNL A   1      42.134  30.392  34.062  1.00  0.00    -0.248 NA
ATOM     79  C   UNL A   1      41.735  30.734  36.290  1.00  0.00     0.031 C 
ATOM     80  C   UNL A   1      43.816  28.952  31.768  1.00  0.00     0.029 A 
ATOM     81  C   UNL A   1      42.883  28.237  32.501  1.00  0.00     0.049 A 
ATOM     82  H   UNL A   1      41.395  26.919  31.801  1.00  0.00     0.167 HD
ATOM     83  C   UNL A   1      42.371  29.187  34.662  1.00  0.00     0.074 A 
ATOM     84  C   UNL A   1      42.194  29.487  36.076  1.00  0.00     0.031 C 
ATOM     85  C   UNL A   1      42.642  28.052  33.936  1.00  0.00     0.034 A 
BRANCH  72  86
ATOM     86  C   UNL A   1      41.982  26.920  27.852  1.00  0.00     0.023 A 
ATOM     87  C   UNL A   1      41.039  26.902  26.802  1.00  0.00     0.012 A 
ATOM     88  C   UNL A   1      43.228  26.302  27.578  1.00  0.00     0.148 A 
ATOM     89  C   UNL A   1      41.271  26.238  25.594  1.00  0.00     0.002 A 
ATOM     90  C   UNL A   1      43.434  25.574  26.400  1.00  0.00     0.091 A 
ATOM     91  F   UNL A   1      44.260  26.487  28.408  1.00  0.00    -0.205 F 
ATOM     92  C   UNL A   1      42.455  25.542  25.405  1.00  0.00     0.022 A 
BRANCH  90  93
ATOM     93  S   UNL A   1      44.911  24.580  26.120  1.00  0.00     0.127 S 
ATOM     94  O   UNL A   1      45.959  25.600  26.021  1.00  0.00    -0.237 OA
ATOM     95  O   UNL A   1      44.976  23.762  27.328  1.00  0.00    -0.237 OA
ATOM     96  O   UNL A   1      44.677  23.857  24.875  1.00  0.00    -0.744 OA
ENDBRANCH  90  93
ENDBRANCH  72  86
BRANCH  73  97
ATOM     97  C   UNL A   1      40.037  33.386  35.142  1.00  0.00     0.023 A 
ATOM     98  C   UNL A   1      38.808  32.683  35.066  1.00  0.00     0.012 A 
ATOM     99  C   UNL A   1      40.187  34.380  36.128  1.00  0.00     0.148 A 
ATOM    100  C   UNL A   1      37.837  32.823  36.060  1.00  0.00     0.002 A 
ATOM    101  C   UNL A   1      39.222  34.499  37.129  1.00  0.00     0.091 A 
ATOM    102  F   UNL A   1      41.300  35.123  36.126  1.00  0.00    -0.205 F 
ATOM    103  C   UNL A   1      38.070  33.691  37.120  1.00  0.00     0.022 A 
BRANCH 101 104
ATOM    104  S   UNL A   1      39.470  35.543  38.572  1.00  0.00     0.127 S 
ATOM    105  O   UNL A   1      38.486  34.997  39.503  1.00  0.00    -0.237 OA
ATOM    106  O   UNL A   1      40.860  35.254  38.923  1.00  0.00    -0.237 OA
ATOM    107  O   UNL A   1      39.233  36.903  38.114  1.00  0.00    -0.744 OA
ENDBRANCH 101 104
ENDBRANCH  73  97
BRANCH  85 108
ATOM    108  C   UNL A   1      42.705  26.636  34.496  1.00  0.00     0.023 A 
ATOM    109  C   UNL A   1      41.629  26.035  35.171  1.00  0.00     0.012 A 
ATOM    110  C   UNL A   1      43.832  25.801  34.249  1.00  0.00     0.148 A 
ATOM    111  C   UNL A   1      41.684  24.717  35.639  1.00  0.00     0.002 A 
ATOM    112  C   UNL A   1      43.822  24.452  34.586  1.00  0.00     0.091 A 
ATOM    113  F   UNL A   1      44.950  26.313  33.716  1.00  0.00    -0.205 F 
ATOM    114  C   UNL A   1      42.768  23.915  35.321  1.00  0.00     0.022 A 
BRANCH 112 115
ATOM    115  S   UNL A   1      45.069  23.321  33.951  1.00  0.00     0.127 S 
ATOM    116  O   UNL A   1      44.552  22.028  34.389  1.00  0.00    -0.237 OA
ATOM    117  O   UNL A   1      44.989  23.553  32.507  1.00  0.00    -0.237 OA
ATOM    118  O   UNL A   1      46.323  23.751  34.555  1.00  0.00    -0.744 OA
ENDBRANCH 112 115
ENDBRANCH  85 108
ENDBRANCH  59  60
ENDBRANCH  51  54
ENDBRANCH  49  50
ENDBRANCH  48  49
ENDBRANCH  47  48
ENDBRANCH   3  47
TORSDOF 22
ENDMDL
MODEL 2
REMARK VINA RESULT:     -13.5      2.871      4.489
REMARK SMILES Cc1ccc(S(=O)(=O)n2cc(C(=O)C(=O)NCC(=O)N[C@@H](Cc3c[nH]c4ccccc34)C(=O)NCCCNC(=O)c3ccc(-c4c5nc(c(-c6cccc(S(=O)(=O)[O-])c6F)c6ccc([nH]6)c(-c6cccc(S(=O)(=O)[O-])c6F)c6nc(c(-c7cccc(S(=O)(=O)[O-])c7F)c7ccc4[nH]7)C=C6)C=C5)cc3)c3ccccc32)cc1
REMARK SMILES IDX 32 1 33 2 34 3 21 5 20 6 18 7 19 8 17 10 16 11 14 12 15 13
REMARK SMILES IDX 12 15 13 16 11 17 9 18 10 19 109 20 104 21 108 22 105 23
REMARK SMILES IDX 107 24 106 25 6 26 7 27 8 28 5 29 1 30 2 31 3 32 111 33 4 34
REMARK SMILES IDX 110 35 22 36 23 37 24 38 31 39 25 40 26 41 30 42 27 44 29 45
REMARK SMILES IDX 28 46 35 47 36 48 37 49 38 50 39 51 40 53 41 54 42 55 103 56
REMARK SMILES IDX 43 57 102 58 44 59 45 60 46 61 96 62 47 63 101 64 95 65
REMARK SMILES IDX 97 66 48 67 100 68 94 69 93 70 49 72 81 73 61 74 80 75 62 76
REMARK SMILES IDX 65 77 79 78 98 79 63 80 64 81 78 83 99 84 66 85 50 86 51 87
REMARK SMILES IDX 59 88 52 89 54 90 60 91 53 92 55 93 56 94 57 95 58 96 82 97
REMARK SMILES IDX 83 98 91 99 84 100 86 101 92 102 85 103 87 104 88 105 89 106
REMARK SMILES IDX 90 107 67 108 68 109 76 110 69 111 71 112 77 113 70 114
REMARK SMILES IDX 72 115 73 116 74 117 75 118
REMARK H PARENT 34 4 20 9 16 14 25 43 38 52 97 71 65 82
REMARK Flexibility Score: inf
ROOT
ATOM      1  C   UNL A   1      30.903  27.514  26.059  1.00  0.00     0.242 C 
ATOM      2  O   UNL A   1      30.651  27.096  27.192  1.00  0.00    -0.273 OA
ATOM      3  N   UNL A   1      31.670  28.644  25.930  1.00  0.00    -0.354 N 
ATOM      4  H   UNL A   1      31.582  29.326  26.634  1.00  0.00     0.163 HD
ENDROOT
BRANCH   1   5
ATOM      5  C   UNL A   1      30.398  26.736  24.825  1.00  0.00     0.175 C 
BRANCH   5   6
ATOM      6  N   UNL A   1      30.310  25.292  25.088  1.00  0.00    -0.342 N 
ATOM      7  C   UNL A   1      30.572  24.276  24.206  1.00  0.00     0.240 C 
ATOM      8  O   UNL A   1      30.900  23.178  24.660  1.00  0.00    -0.273 OA
ATOM      9  H   UNL A   1      30.034  25.027  25.996  1.00  0.00     0.164 HD
BRANCH   7  10
ATOM     10  C   UNL A   1      30.521  24.544  22.690  1.00  0.00     0.216 C 
BRANCH  10  11
ATOM     11  N   UNL A   1      31.342  25.715  22.356  1.00  0.00    -0.340 N 
ATOM     12  C   UNL A   1      32.674  25.769  21.973  1.00  0.00     0.292 C 
ATOM     13  O   UNL A   1      33.263  26.842  21.912  1.00  0.00    -0.265 OA
ATOM     14  H   UNL A   1      30.883  26.584  22.410  1.00  0.00     0.164 HD
BRANCH  12  15
ATOM     15  C   UNL A   1      33.408  24.471  21.616  1.00  0.00     0.252 C 
ATOM     16  O   UNL A   1      33.278  24.096  20.448  1.00  0.00    -0.283 OA
BRANCH  15  17
ATOM     17  C   UNL A   1      34.114  23.654  22.620  1.00  0.00     0.054 A 
ATOM     18  N   UNL A   1      35.237  22.070  23.796  1.00  0.00    -0.240 N 
ATOM     19  C   UNL A   1      34.555  22.321  22.602  1.00  0.00     0.117 A 
ATOM     20  C   UNL A   1      35.402  23.313  24.442  1.00  0.00     0.065 A 
ATOM     21  C   UNL A   1      34.389  24.125  23.939  1.00  0.00     0.012 A 
ATOM     22  C   UNL A   1      36.082  23.635  25.634  1.00  0.00     0.028 A 
ATOM     23  C   UNL A   1      33.910  25.176  24.749  1.00  0.00     0.011 A 
ATOM     24  C   UNL A   1      35.506  24.591  26.467  1.00  0.00     0.002 A 
ATOM     25  C   UNL A   1      34.410  25.328  26.046  1.00  0.00     0.001 A 
BRANCH  18  26
ATOM     26  S   UNL A   1      34.894  20.845  24.995  1.00  0.00     0.268 S 
ATOM     27  O   UNL A   1      33.789  21.437  25.736  1.00  0.00    -0.201 OA
ATOM     28  O   UNL A   1      36.211  20.677  25.600  1.00  0.00    -0.201 OA
BRANCH  26  29
ATOM     29  C   UNL A   1      34.433  19.159  24.865  1.00  0.00     0.088 A 
ATOM     30  C   UNL A   1      32.506  15.347  25.544  1.00  0.00     0.044 C 
ATOM     31  C   UNL A   1      33.181  16.649  25.227  1.00  0.00    -0.051 A 
ATOM     32  C   UNL A   1      32.505  17.801  25.588  1.00  0.00     0.005 A 
ATOM     33  C   UNL A   1      34.469  16.766  24.647  1.00  0.00     0.005 A 
ATOM     34  C   UNL A   1      33.117  19.021  25.392  1.00  0.00     0.022 A 
ATOM     35  C   UNL A   1      35.113  18.024  24.467  1.00  0.00     0.022 A 
ENDBRANCH  26  29
ENDBRANCH  18  26
ENDBRANCH  15  17
ENDBRANCH  12  15
ENDBRANCH  10  11
ENDBRANCH   7  10
ENDBRANCH   5   6
BRANCH   5  36
ATOM     36  C   UNL A   1      29.197  27.344  24.062  1.00  0.00     0.072 C 
BRANCH  36  37
ATOM     37  C   UNL A   1      29.459  28.511  23.155  1.00  0.00    -0.020 A 
ATOM     38  C   UNL A   1      30.416  28.562  22.155  1.00  0.00     0.087 A 
ATOM     39  C   UNL A   1      28.781  29.777  23.120  1.00  0.00     0.003 A 
ATOM     40  N   UNL A   1      30.502  29.853  21.702  1.00  0.00    -0.361 N 
ATOM     41  C   UNL A   1      29.510  30.615  22.274  1.00  0.00     0.046 A 
ATOM     42  C   UNL A   1      27.634  30.307  23.749  1.00  0.00     0.010 A 
ATOM     43  H   UNL A   1      31.172  30.185  21.062  1.00  0.00     0.166 HD
ATOM     44  C   UNL A   1      29.212  31.970  22.097  1.00  0.00     0.026 A 
ATOM     45  C   UNL A   1      27.272  31.642  23.517  1.00  0.00     0.001 A 
ATOM     46  C   UNL A   1      28.067  32.467  22.724  1.00  0.00     0.002 A 
ENDBRANCH  36  37
ENDBRANCH   5  36
ENDBRANCH   1   5
BRANCH   3  47
ATOM     47  C   UNL A   1      32.598  28.925  24.853  1.00  0.00     0.117 C 
BRANCH  47  48
ATOM     48  C   UNL A   1      34.073  29.027  25.211  1.00  0.00     0.042 C 
BRANCH  48  49
ATOM     49  C   UNL A   1      34.277  29.280  26.693  1.00  0.00     0.118 C 
BRANCH  49  50
ATOM     50  N   UNL A   1      34.819  30.633  26.948  1.00  0.00    -0.352 N 
ATOM     51  C   UNL A   1      35.681  31.066  27.943  1.00  0.00     0.251 C 
ATOM     52  H   UNL A   1      34.521  31.329  26.319  1.00  0.00     0.163 HD
ATOM     53  O   UNL A   1      35.602  32.239  28.327  1.00  0.00    -0.269 OA
BRANCH  51  54
ATOM     54  C   UNL A   1      36.707  30.140  28.445  1.00  0.00     0.039 A 
ATOM     55  C   UNL A   1      36.714  29.511  29.694  1.00  0.00     0.014 A 
ATOM     56  C   UNL A   1      37.808  30.011  27.621  1.00  0.00     0.014 A 
ATOM     57  C   UNL A   1      37.880  28.849  30.092  1.00  0.00     0.010 A 
ATOM     58  C   UNL A   1      38.697  29.024  27.817  1.00  0.00     0.010 A 
ATOM     59  C   UNL A   1      38.879  28.676  29.140  1.00  0.00    -0.014 A 
BRANCH  59  60
ATOM     60  C   UNL A   1      40.238  28.227  29.326  1.00  0.00     0.031 A 
ATOM     61  C   UNL A   1      40.546  26.844  28.991  1.00  0.00     0.074 A 
ATOM     62  C   UNL A   1      41.160  29.225  29.323  1.00  0.00     0.049 A 
ATOM     63  N   UNL A   1      41.651  26.267  29.287  1.00  0.00    -0.248 NA
ATOM     64  C   UNL A   1      39.603  25.994  28.271  1.00  0.00     0.031 C 
ATOM     65  C   UNL A   1      42.505  29.218  28.765  1.00  0.00     0.029 A 
ATOM     66  N   UNL A   1      41.015  30.553  29.701  1.00  0.00    -0.354 N 
ATOM     67  C   UNL A   1      41.703  25.126  28.520  1.00  0.00     0.074 A 
ATOM     68  C   UNL A   1      40.359  24.919  28.036  1.00  0.00     0.031 C 
ATOM     69  C   UNL A   1      43.120  30.376  29.086  1.00  0.00     0.029 A 
ATOM     70  C   UNL A   1      42.253  31.100  30.003  1.00  0.00     0.049 A 
ATOM     71  H   UNL A   1      40.158  31.035  29.747  1.00  0.00     0.167 HD
ATOM     72  C   UNL A   1      42.923  24.619  28.192  1.00  0.00     0.034 A 
ATOM     73  C   UNL A   1      42.561  31.375  31.311  1.00  0.00     0.034 A 
ATOM     74  C   UNL A   1      43.989  25.507  28.702  1.00  0.00     0.049 A 
ATOM     75  C   UNL A   1      43.522  30.353  31.901  1.00  0.00     0.074 A 
ATOM     76  C   UNL A   1      44.747  26.502  28.100  1.00  0.00     0.029 A 
ATOM     77  N   UNL A   1      44.118  25.708  30.073  1.00  0.00    -0.354 N 
ATOM     78  N   UNL A   1      43.946  29.289  31.273  1.00  0.00    -0.248 NA
ATOM     79  C   UNL A   1      44.108  30.461  33.233  1.00  0.00     0.031 C 
ATOM     80  C   UNL A   1      45.274  27.340  29.126  1.00  0.00     0.029 A 
ATOM     81  C   UNL A   1      44.862  26.848  30.353  1.00  0.00     0.049 A 
ATOM     82  H   UNL A   1      43.731  25.117  30.759  1.00  0.00     0.167 HD
ATOM     83  C   UNL A   1      44.711  28.512  32.097  1.00  0.00     0.074 A 
ATOM     84  C   UNL A   1      44.857  29.343  33.284  1.00  0.00     0.031 C 
ATOM     85  C   UNL A   1      45.108  27.245  31.743  1.00  0.00     0.034 A 
BRANCH  72  86
ATOM     86  C   UNL A   1      43.143  23.558  27.130  1.00  0.00     0.023 A 
ATOM     87  C   UNL A   1      43.782  23.960  25.938  1.00  0.00     0.012 A 
ATOM     88  C   UNL A   1      42.763  22.195  27.202  1.00  0.00     0.148 A 
ATOM     89  C   UNL A   1      43.953  23.100  24.849  1.00  0.00     0.002 A 
ATOM     90  C   UNL A   1      42.864  21.354  26.088  1.00  0.00     0.091 A 
ATOM     91  F   UNL A   1      42.384  21.669  28.372  1.00  0.00    -0.205 F 
ATOM     92  C   UNL A   1      43.462  21.805  24.909  1.00  0.00     0.022 A 
BRANCH  90  93
ATOM     93  S   UNL A   1      42.176  19.688  26.065  1.00  0.00     0.127 S 
ATOM     94  O   UNL A   1      42.637  19.141  27.344  1.00  0.00    -0.237 OA
ATOM     95  O   UNL A   1      40.738  19.940  25.998  1.00  0.00    -0.237 OA
ATOM     96  O   UNL A   1      42.759  19.030  24.901  1.00  0.00    -0.744 OA
ENDBRANCH  90  93
ENDBRANCH  72  86
BRANCH  73  97
ATOM     97  C   UNL A   1      41.410  32.034  32.019  1.00  0.00     0.023 A 
ATOM     98  C   UNL A   1      40.926  33.229  31.427  1.00  0.00     0.012 A 
ATOM     99  C   UNL A   1      40.542  31.287  32.838  1.00  0.00     0.148 A 
ATOM    100  C   UNL A   1      39.571  33.563  31.486  1.00  0.00     0.002 A 
ATOM    101  C   UNL A   1      39.187  31.616  32.875  1.00  0.00     0.091 A 
ATOM    102  F   UNL A   1      41.032  30.226  33.490  1.00  0.00    -0.205 F 
ATOM    103  C   UNL A   1      38.694  32.725  32.164  1.00  0.00     0.022 A 
BRANCH 101 104
ATOM    104  S   UNL A   1      37.971  30.554  33.669  1.00  0.00     0.127 S 
ATOM    105  O   UNL A   1      38.433  29.228  33.268  1.00  0.00    -0.237 OA
ATOM    106  O   UNL A   1      38.173  30.863  35.084  1.00  0.00    -0.237 OA
ATOM    107  O   UNL A   1      36.683  30.972  33.137  1.00  0.00    -0.744 OA
ENDBRANCH 101 104
ENDBRANCH  73  97
BRANCH  85 108
ATOM    108  C   UNL A   1      45.771  26.233  32.671  1.00  0.00     0.023 A 
ATOM    109  C   UNL A   1      47.164  26.144  32.830  1.00  0.00     0.012 A 
ATOM    110  C   UNL A   1      44.991  25.402  33.524  1.00  0.00     0.148 A 
ATOM    111  C   UNL A   1      47.758  25.242  33.720  1.00  0.00     0.002 A 
ATOM    112  C   UNL A   1      45.582  24.617  34.508  1.00  0.00     0.091 A 
ATOM    113  F   UNL A   1      43.662  25.331  33.370  1.00  0.00    -0.205 F 
ATOM    114  C   UNL A   1      46.967  24.499  34.582  1.00  0.00     0.022 A 
BRANCH 112 115
ATOM    115  S   UNL A   1      44.602  23.864  35.816  1.00  0.00     0.127 S 
ATOM    116  O   UNL A   1      45.627  23.195  36.612  1.00  0.00    -0.237 OA
ATOM    117  O   UNL A   1      43.996  25.032  36.459  1.00  0.00    -0.237 OA
ATOM    118  O   UNL A   1      43.649  22.998  35.135  1.00  0.00    -0.744 OA
ENDBRANCH 112 115
ENDBRANCH  85 108
ENDBRANCH  59  60
ENDBRANCH  51  54
ENDBRANCH  49  50
ENDBRANCH  48  49
ENDBRANCH  47  48
ENDBRANCH   3  47
TORSDOF 22
ENDMDL
MODEL 3
REMARK VINA RESULT:     -13.3      1.359      2.044
REMARK SMILES Cc1ccc(S(=O)(=O)n2cc(C(=O)C(=O)NCC(=O)N[C@@H](Cc3c[nH]c4ccccc34)C(=O)NCCCNC(=O)c3ccc(-c4c5nc(c(-c6cccc(S(=O)(=O)[O-])c6F)c6ccc([nH]6)c(-c6cccc(S(=O)(=O)[O-])c6F)c6nc(c(-c7cccc(S(=O)(=O)[O-])c7F)c7ccc4[nH]7)C=C6)C=C5)cc3)c3ccccc32)cc1
REMARK SMILES IDX 32 1 33 2 34 3 21 5 20 6 18 7 19 8 17 10 16 11 14 12 15 13
REMARK SMILES IDX 12 15 13 16 11 17 9 18 10 19 109 20 104 21 108 22 105 23
REMARK SMILES IDX 107 24 106 25 6 26 7 27 8 28 5 29 1 30 2 31 3 32 111 33 4 34
REMARK SMILES IDX 110 35 22 36 23 37 24 38 31 39 25 40 26 41 30 42 27 44 29 45
REMARK SMILES IDX 28 46 35 47 36 48 37 49 38 50 39 51 40 53 41 54 42 55 103 56
REMARK SMILES IDX 43 57 102 58 44 59 45 60 46 61 96 62 47 63 101 64 95 65
REMARK SMILES IDX 97 66 48 67 100 68 94 69 93 70 49 72 81 73 61 74 80 75 62 76
REMARK SMILES IDX 65 77 79 78 98 79 63 80 64 81 78 83 99 84 66 85 50 86 51 87
REMARK SMILES IDX 59 88 52 89 54 90 60 91 53 92 55 93 56 94 57 95 58 96 82 97
REMARK SMILES IDX 83 98 91 99 84 100 86 101 92 102 85 103 87 104 88 105 89 106
REMARK SMILES IDX 90 107 67 108 68 109 76 110 69 111 71 112 77 113 70 114
REMARK SMILES IDX 72 115 73 116 74 117 75 118
REMARK H PARENT 34 4 20 9 16 14 25 43 38 52 97 71 65 82
REMARK Flexibility Score: inf
ROOT
ATOM      1  C   UNL A   1      33.866  28.969  26.816  1.00  0.00     0.242 C 
ATOM      2  O   UNL A   1      34.042  27.750  26.882  1.00  0.00    -0.273 OA
ATOM      3  N   UNL A   1      34.395  29.764  27.800  1.00  0.00    -0.354 N 
ATOM      4  H   UNL A   1      34.442  29.383  28.706  1.00  0.00     0.163 HD
ENDROOT
BRANCH   1   5
ATOM      5  C   UNL A   1      33.107  29.570  25.612  1.00  0.00     0.175 C 
BRANCH   5   6
ATOM      6  N   UNL A   1      33.829  29.355  24.350  1.00  0.00    -0.342 N 
ATOM      7  C   UNL A   1      33.731  28.270  23.517  1.00  0.00     0.240 C 
ATOM      8  O   UNL A   1      34.015  28.417  22.328  1.00  0.00    -0.273 OA
ATOM      9  H   UNL A   1      34.450  30.068  24.071  1.00  0.00     0.164 HD
BRANCH   7  10
ATOM     10  C   UNL A   1      33.207  26.928  24.066  1.00  0.00     0.216 C 
BRANCH  10  11
ATOM     11  N   UNL A   1      31.800  26.743  23.688  1.00  0.00    -0.340 N 
ATOM     12  C   UNL A   1      30.873  25.842  24.189  1.00  0.00     0.292 C 
ATOM     13  O   UNL A   1      29.790  25.688  23.635  1.00  0.00    -0.265 OA
ATOM     14  H   UNL A   1      31.468  27.342  22.982  1.00  0.00     0.164 HD
BRANCH  12  15
ATOM     15  C   UNL A   1      31.206  25.041  25.454  1.00  0.00     0.252 C 
ATOM     16  O   UNL A   1      30.649  25.426  26.484  1.00  0.00    -0.283 OA
BRANCH  15  17
ATOM     17  C   UNL A   1      32.219  23.969  25.472  1.00  0.00     0.054 A 
ATOM     18  N   UNL A   1      33.941  22.555  25.903  1.00  0.00    -0.240 N 
ATOM     19  C   UNL A   1      33.379  23.789  26.242  1.00  0.00     0.117 A 
ATOM     20  C   UNL A   1      33.003  21.888  25.088  1.00  0.00     0.065 A 
ATOM     21  C   UNL A   1      32.219  22.895  24.533  1.00  0.00     0.012 A 
ATOM     22  C   UNL A   1      33.036  20.590  24.539  1.00  0.00     0.028 A 
ATOM     23  C   UNL A   1      31.608  22.655  23.283  1.00  0.00     0.011 A 
ATOM     24  C   UNL A   1      32.535  20.423  23.249  1.00  0.00     0.002 A 
ATOM     25  C   UNL A   1      31.862  21.454  22.613  1.00  0.00     0.001 A 
BRANCH  18  26
ATOM     26  S   UNL A   1      35.550  22.234  25.301  1.00  0.00     0.268 S 
ATOM     27  O   UNL A   1      35.444  22.631  23.904  1.00  0.00    -0.201 OA
ATOM     28  O   UNL A   1      35.712  20.835  25.682  1.00  0.00    -0.201 OA
BRANCH  26  29
ATOM     29  C   UNL A   1      37.130  22.832  25.768  1.00  0.00     0.088 A 
ATOM     30  C   UNL A   1      41.192  23.038  27.237  1.00  0.00     0.044 C 
ATOM     31  C   UNL A   1      39.801  23.030  26.675  1.00  0.00    -0.051 A 
ATOM     32  C   UNL A   1      39.346  21.826  26.168  1.00  0.00     0.005 A 
ATOM     33  C   UNL A   1      38.924  24.142  26.686  1.00  0.00     0.005 A 
ATOM     34  C   UNL A   1      38.047  21.744  25.712  1.00  0.00     0.022 A 
ATOM     35  C   UNL A   1      37.574  24.053  26.239  1.00  0.00     0.022 A 
ENDBRANCH  26  29
ENDBRANCH  18  26
ENDBRANCH  15  17
ENDBRANCH  12  15
ENDBRANCH  10  11
ENDBRANCH   7  10
ENDBRANCH   5   6
BRANCH   5  36
ATOM     36  C   UNL A   1      31.582  29.317  25.555  1.00  0.00     0.072 C 
BRANCH  36  37
ATOM     37  C   UNL A   1      30.719  30.368  24.922  1.00  0.00    -0.020 A 
ATOM     38  C   UNL A   1      30.694  31.711  25.263  1.00  0.00     0.087 A 
ATOM     39  C   UNL A   1      29.778  30.215  23.848  1.00  0.00     0.003 A 
ATOM     40  N   UNL A   1      29.633  32.301  24.626  1.00  0.00    -0.361 N 
ATOM     41  C   UNL A   1      29.058  31.408  23.753  1.00  0.00     0.046 A 
ATOM     42  C   UNL A   1      29.441  29.167  22.964  1.00  0.00     0.010 A 
ATOM     43  H   UNL A   1      29.328  33.226  24.772  1.00  0.00     0.166 HD
ATOM     44  C   UNL A   1      27.967  31.576  22.894  1.00  0.00     0.026 A 
ATOM     45  C   UNL A   1      28.404  29.349  22.039  1.00  0.00     0.001 A 
ATOM     46  C   UNL A   1      27.661  30.527  22.025  1.00  0.00     0.002 A 
ENDBRANCH  36  37
ENDBRANCH   5  36
ENDBRANCH   1   5
BRANCH   3  47
ATOM     47  C   UNL A   1      34.890  31.115  27.628  1.00  0.00     0.117 C 
BRANCH  47  48
ATOM     48  C   UNL A   1      33.962  32.254  28.026  1.00  0.00     0.042 C 
BRANCH  48  49
ATOM     49  C   UNL A   1      34.671  33.596  27.997  1.00  0.00     0.118 C 
BRANCH  49  50
ATOM     50  N   UNL A   1      34.622  34.270  29.313  1.00  0.00    -0.352 N 
ATOM     51  C   UNL A   1      34.799  33.744  30.582  1.00  0.00     0.251 C 
ATOM     52  H   UNL A   1      34.434  35.236  29.282  1.00  0.00     0.163 HD
ATOM     53  O   UNL A   1      34.218  34.281  31.533  1.00  0.00    -0.269 OA
BRANCH  51  54
ATOM     54  C   UNL A   1      35.731  32.620  30.761  1.00  0.00     0.039 A 
ATOM     55  C   UNL A   1      35.527  31.495  31.566  1.00  0.00     0.014 A 
ATOM     56  C   UNL A   1      36.960  32.801  30.156  1.00  0.00     0.014 A 
ATOM     57  C   UNL A   1      36.612  30.644  31.796  1.00  0.00     0.010 A 
ATOM     58  C   UNL A   1      37.811  31.771  30.017  1.00  0.00     0.010 A 
ATOM     59  C   UNL A   1      37.763  30.850  31.043  1.00  0.00    -0.014 A 
BRANCH  59  60
ATOM     60  C   UNL A   1      39.073  30.270  31.217  1.00  0.00     0.031 A 
ATOM     61  C   UNL A   1      39.438  29.153  30.357  1.00  0.00     0.074 A 
ATOM     62  C   UNL A   1      39.978  31.101  31.796  1.00  0.00     0.049 A 
ATOM     63  N   UNL A   1      40.480  28.429  30.532  1.00  0.00    -0.248 NA
ATOM     64  C   UNL A   1      38.634  28.772  29.201  1.00  0.00     0.031 C 
ATOM     65  C   UNL A   1      41.398  31.243  31.505  1.00  0.00     0.029 A 
ATOM     66  N   UNL A   1      39.767  32.137  32.695  1.00  0.00    -0.354 N 
ATOM     67  C   UNL A   1      40.666  27.736  29.358  1.00  0.00     0.074 A 
ATOM     68  C   UNL A   1      39.423  27.857  28.634  1.00  0.00     0.031 C 
ATOM     69  C   UNL A   1      41.945  32.098  32.395  1.00  0.00     0.029 A 
ATOM     70  C   UNL A   1      40.934  32.408  33.394  1.00  0.00     0.049 A 
ATOM     71  H   UNL A   1      38.912  32.610  32.818  1.00  0.00     0.167 HD
ATOM     72  C   UNL A   1      41.925  27.338  29.031  1.00  0.00     0.034 A 
ATOM     73  C   UNL A   1      41.015  32.063  34.718  1.00  0.00     0.034 A 
ATOM     74  C   UNL A   1      42.886  27.837  30.036  1.00  0.00     0.049 A 
ATOM     75  C   UNL A   1      41.868  30.820  34.935  1.00  0.00     0.074 A 
ATOM     76  C   UNL A   1      43.731  28.937  30.060  1.00  0.00     0.029 A 
ATOM     77  N   UNL A   1      42.782  27.409  31.357  1.00  0.00    -0.354 N 
ATOM     78  N   UNL A   1      42.396  30.110  33.974  1.00  0.00    -0.248 NA
ATOM     79  C   UNL A   1      42.221  30.295  36.249  1.00  0.00     0.031 C 
ATOM     80  C   UNL A   1      44.074  29.205  31.418  1.00  0.00     0.029 A 
ATOM     81  C   UNL A   1      43.463  28.257  32.222  1.00  0.00     0.049 A 
ATOM     82  H   UNL A   1      42.288  26.607  31.643  1.00  0.00     0.167 HD
ATOM     83  C   UNL A   1      43.014  28.999  34.476  1.00  0.00     0.074 A 
ATOM     84  C   UNL A   1      42.955  29.217  35.915  1.00  0.00     0.031 C 
ATOM     85  C   UNL A   1      43.470  27.989  33.664  1.00  0.00     0.034 A 
BRANCH  72  86
ATOM     86  C   UNL A   1      42.325  26.834  27.657  1.00  0.00     0.023 A 
ATOM     87  C   UNL A   1      41.328  26.820  26.658  1.00  0.00     0.012 A 
ATOM     88  C   UNL A   1      43.602  26.360  27.265  1.00  0.00     0.148 A 
ATOM     89  C   UNL A   1      41.547  26.289  25.384  1.00  0.00     0.002 A 
ATOM     90  C   UNL A   1      43.803  25.759  26.017  1.00  0.00     0.091 A 
ATOM     91  F   UNL A   1      44.661  26.566  28.057  1.00  0.00    -0.205 F 
ATOM     92  C   UNL A   1      42.775  25.724  25.073  1.00  0.00     0.022 A 
BRANCH  90  93
ATOM     93  S   UNL A   1      45.343  24.934  25.574  1.00  0.00     0.127 S 
ATOM     94  O   UNL A   1      45.661  24.190  26.796  1.00  0.00    -0.237 OA
ATOM     95  O   UNL A   1      44.941  24.099  24.444  1.00  0.00    -0.237 OA
ATOM     96  O   UNL A   1      46.293  25.998  25.270  1.00  0.00    -0.744 OA
ENDBRANCH  90  93
ENDBRANCH  72  86
BRANCH  73  97
ATOM     97  C   UNL A   1      39.759  32.427  35.459  1.00  0.00     0.023 A 
ATOM     98  C   UNL A   1      38.755  31.426  35.500  1.00  0.00     0.012 A 
ATOM     99  C   UNL A   1      39.776  33.408  36.469  1.00  0.00     0.148 A 
ATOM    100  C   UNL A   1      37.922  31.288  36.612  1.00  0.00     0.002 A 
ATOM    101  C   UNL A   1      38.955  33.251  37.586  1.00  0.00     0.091 A 
ATOM    102  F   UNL A   1      40.648  34.418  36.367  1.00  0.00    -0.205 F 
ATOM    103  C   UNL A   1      38.061  32.168  37.678  1.00  0.00     0.022 A 
BRANCH 101 104
ATOM    104  S   UNL A   1      39.113  34.299  39.039  1.00  0.00     0.127 S 
ATOM    105  O   UNL A   1      38.062  33.766  39.902  1.00  0.00    -0.237 OA
ATOM    106  O   UNL A   1      40.473  33.998  39.486  1.00  0.00    -0.237 OA
ATOM    107  O   UNL A   1      38.922  35.659  38.561  1.00  0.00    -0.744 OA
ENDBRANCH 101 104
ENDBRANCH  73  97
BRANCH  85 108
ATOM    108  C   UNL A   1      43.972  26.630  34.138  1.00  0.00     0.023 A 
ATOM    109  C   UNL A   1      43.119  25.531  34.339  1.00  0.00     0.012 A 
ATOM    110  C   UNL A   1      45.365  26.373  34.280  1.00  0.00     0.148 A 
ATOM    111  C   UNL A   1      43.598  24.276  34.729  1.00  0.00     0.002 A 
ATOM    112  C   UNL A   1      45.844  25.090  34.522  1.00  0.00     0.091 A 
ATOM    113  F   UNL A   1      46.248  27.378  34.221  1.00  0.00    -0.205 F 
ATOM    114  C   UNL A   1      44.963  24.045  34.792  1.00  0.00     0.022 A 
BRANCH 112 115
ATOM    115  S   UNL A   1      47.589  24.693  34.334  1.00  0.00     0.127 S 
ATOM    116  O   UNL A   1      48.178  25.380  35.480  1.00  0.00    -0.237 OA
ATOM    117  O   UNL A   1      47.585  23.232  34.434  1.00  0.00    -0.237 OA
ATOM    118  O   UNL A   1      47.961  25.200  33.020  1.00  0.00    -0.744 OA
ENDBRANCH 112 115
ENDBRANCH  85 108
ENDBRANCH  59  60
ENDBRANCH  51  54
ENDBRANCH  49  50
ENDBRANCH  48  49
ENDBRANCH  47  48
ENDBRANCH   3  47
TORSDOF 22
ENDMDL
