MODEL 1
REMARK VINA RESULT:     -12.5      0.000      0.000
REMARK SMILES C[C@H]1[C@@H](C(=O)NCCCNC(=O)c2ccc(-c3c4nc(c(-c5cccc(S(=O)(=O)[O-])c5F)c5ccc([nH]5)c(-c5cccc(S(=O)(=O)[O-])c5F)c5nc(c(-c6cccc(S(=O)(=O)[O-])c6F)c6ccc3[nH]6)C=C5)C=C4)cc2)CCN1C(=O)N[C@@H]1CC[N@H+]2CCCC[C@H]12
REMARK SMILES IDX 8 1 7 2 6 3 4 4 5 5 3 7 1 8 2 9 78 10 76 11 77 12 79 13
REMARK SMILES IDX 80 14 81 15 82 17 83 18 90 19 84 20 85 21 89 22 86 23 88 25
REMARK SMILES IDX 87 26 9 27 10 28 11 29 12 31 13 32 14 33 75 34 15 35 74 36
REMARK SMILES IDX 16 37 17 38 18 39 68 40 19 41 73 42 67 43 69 44 20 45 72 46
REMARK SMILES IDX 66 47 65 48 21 50 53 51 33 52 52 53 34 54 37 55 51 56 70 57
REMARK SMILES IDX 35 58 36 59 50 61 71 62 38 63 22 64 23 65 31 66 24 67 26 68
REMARK SMILES IDX 32 69 25 70 27 71 28 72 29 73 30 74 54 75 55 76 63 77 56 78
REMARK SMILES IDX 58 79 64 80 57 81 59 82 60 83 61 84 62 85 39 86 40 87 48 88
REMARK SMILES IDX 41 89 43 90 49 91 42 92 44 93 45 94 46 95 47 96
REMARK H PARENT 6 6 81 16 85 24 10 30 69 49 37 60
REMARK Flexibility Score: inf
ROOT
ATOM      1  C   UNL A   1      32.511  29.335  24.839  1.00  0.00     0.042 C 
ENDROOT
BRANCH   1   2
ATOM      2  C   UNL A   1      31.313  29.164  23.897  1.00  0.00     0.117 C 
BRANCH   2   3
ATOM      3  N   UNL A   1      31.590  28.231  22.813  1.00  0.00    -0.356 N 
ATOM      4  C   UNL A   1      31.483  26.874  22.705  1.00  0.00     0.225 C 
ATOM      5  O   UNL A   1      31.782  26.394  21.607  1.00  0.00    -0.275 OA
ATOM      6  H   UNL A   1      31.921  28.666  21.993  1.00  0.00     0.163 HD
BRANCH   4   7
ATOM      7  C   UNL A   1      30.924  26.001  23.829  1.00  0.00     0.102 C 
ATOM      8  C   UNL A   1      33.357  25.539  24.633  1.00  0.00     0.032 C 
ATOM      9  C   UNL A   1      31.873  25.582  24.967  1.00  0.00     0.096 C 
ATOM     10  N   UNL A   1      31.468  24.238  25.344  1.00  0.00    -0.321 N 
ATOM     11  C   UNL A   1      30.303  24.670  23.340  1.00  0.00     0.037 C 
ATOM     12  C   UNL A   1      30.963  23.573  24.159  1.00  0.00     0.122 C 
BRANCH  10  13
ATOM     13  C   UNL A   1      31.928  23.478  26.385  1.00  0.00     0.318 C 
ATOM     14  O   UNL A   1      31.777  23.844  27.554  1.00  0.00    -0.249 OA
ATOM     15  N   UNL A   1      32.510  22.271  26.195  1.00  0.00    -0.329 N 
ATOM     16  H   UNL A   1      32.484  21.714  27.007  1.00  0.00     0.165 HD
BRANCH  15  17
ATOM     17  C   UNL A   1      33.167  21.594  25.080  1.00  0.00     0.147 C 
ATOM     18  C   UNL A   1      33.037  20.060  25.144  1.00  0.00     0.092 C 
ATOM     19  C   UNL A   1      34.693  21.817  24.990  1.00  0.00     0.207 C 
ATOM     20  C   UNL A   1      34.410  19.518  24.768  1.00  0.00     0.264 C 
ATOM     21  N   UNL A   1      35.274  20.521  25.357  1.00  0.00    -0.331 N 
ATOM     22  C   UNL A   1      35.333  22.903  25.844  1.00  0.00     0.067 C 
ATOM     23  C   UNL A   1      36.678  20.432  24.982  1.00  0.00     0.262 C 
ATOM     24  H   UNL A   1      35.307  20.377  26.365  1.00  0.00     0.348 HD
ATOM     25  C   UNL A   1      36.845  22.910  25.589  1.00  0.00     0.012 C 
ATOM     26  C   UNL A   1      37.456  21.511  25.746  1.00  0.00     0.062 C 
ENDBRANCH  15  17
ENDBRANCH  10  13
ENDBRANCH   4   7
ENDBRANCH   2   3
ENDBRANCH   1   2
BRANCH   1  27
ATOM     27  C   UNL A   1      32.187  29.728  26.273  1.00  0.00     0.118 C 
BRANCH  27  28
ATOM     28  N   UNL A   1      32.221  31.163  26.471  1.00  0.00    -0.352 N 
ATOM     29  C   UNL A   1      33.058  31.975  27.199  1.00  0.00     0.251 C 
ATOM     30  H   UNL A   1      31.510  31.648  25.993  1.00  0.00     0.163 HD
ATOM     31  O   UNL A   1      32.696  33.142  27.365  1.00  0.00    -0.269 OA
BRANCH  29  32
ATOM     32  C   UNL A   1      34.351  31.529  27.797  1.00  0.00     0.039 A 
ATOM     33  C   UNL A   1      34.421  30.216  28.290  1.00  0.00     0.014 A 
ATOM     34  C   UNL A   1      35.449  32.367  28.002  1.00  0.00     0.014 A 
ATOM     35  C   UNL A   1      35.565  29.757  28.960  1.00  0.00     0.010 A 
ATOM     36  C   UNL A   1      36.628  31.879  28.583  1.00  0.00     0.010 A 
ATOM     37  C   UNL A   1      36.692  30.580  29.104  1.00  0.00    -0.014 A 
BRANCH  37  38
ATOM     38  C   UNL A   1      37.908  30.109  29.831  1.00  0.00     0.031 A 
ATOM     39  C   UNL A   1      38.211  30.595  31.231  1.00  0.00     0.074 A 
ATOM     40  C   UNL A   1      38.778  29.275  29.225  1.00  0.00     0.049 A 
ATOM     41  N   UNL A   1      39.228  30.310  32.005  1.00  0.00    -0.248 NA
ATOM     42  C   UNL A   1      37.260  31.547  31.829  1.00  0.00     0.031 C 
ATOM     43  C   UNL A   1      38.660  28.786  27.850  1.00  0.00     0.029 A 
ATOM     44  N   UNL A   1      39.946  28.707  29.678  1.00  0.00    -0.354 N 
ATOM     45  C   UNL A   1      39.061  31.072  33.158  1.00  0.00     0.074 A 
ATOM     46  C   UNL A   1      37.864  31.861  32.966  1.00  0.00     0.031 C 
ATOM     47  C   UNL A   1      39.706  27.991  27.574  1.00  0.00     0.029 A 
ATOM     48  C   UNL A   1      40.583  27.930  28.739  1.00  0.00     0.049 A 
ATOM     49  H   UNL A   1      40.292  28.846  30.589  1.00  0.00     0.167 HD
ATOM     50  C   UNL A   1      39.808  31.091  34.289  1.00  0.00     0.034 A 
ATOM     51  C   UNL A   1      41.743  27.245  28.802  1.00  0.00     0.034 A 
ATOM     52  C   UNL A   1      40.969  30.269  34.508  1.00  0.00     0.049 A 
ATOM     53  C   UNL A   1      42.524  27.234  30.089  1.00  0.00     0.074 A 
ATOM     54  C   UNL A   1      41.739  30.154  35.652  1.00  0.00     0.029 A 
ATOM     55  N   UNL A   1      41.528  29.421  33.564  1.00  0.00    -0.354 N 
ATOM     56  N   UNL A   1      42.258  27.840  31.220  1.00  0.00    -0.248 NA
ATOM     57  C   UNL A   1      43.744  26.412  30.119  1.00  0.00     0.031 C 
ATOM     58  C   UNL A   1      42.775  29.248  35.394  1.00  0.00     0.029 A 
ATOM     59  C   UNL A   1      42.635  28.782  34.097  1.00  0.00     0.049 A 
ATOM     60  H   UNL A   1      41.187  29.292  32.650  1.00  0.00     0.167 HD
ATOM     61  C   UNL A   1      43.259  27.451  32.105  1.00  0.00     0.074 A 
ATOM     62  C   UNL A   1      44.119  26.534  31.386  1.00  0.00     0.031 C 
ATOM     63  C   UNL A   1      43.459  27.834  33.390  1.00  0.00     0.034 A 
BRANCH  50  64
ATOM     64  C   UNL A   1      39.353  31.990  35.413  1.00  0.00     0.023 A 
ATOM     65  C   UNL A   1      38.445  31.494  36.371  1.00  0.00     0.012 A 
ATOM     66  C   UNL A   1      39.860  33.296  35.558  1.00  0.00     0.148 A 
ATOM     67  C   UNL A   1      38.016  32.293  37.430  1.00  0.00     0.002 A 
ATOM     68  C   UNL A   1      39.462  34.074  36.642  1.00  0.00     0.091 A 
ATOM     69  F   UNL A   1      40.710  33.760  34.632  1.00  0.00    -0.205 F 
ATOM     70  C   UNL A   1      38.531  33.579  37.570  1.00  0.00     0.022 A 
BRANCH  68  71
ATOM     71  S   UNL A   1      40.127  35.713  36.957  1.00  0.00     0.127 S 
ATOM     72  O   UNL A   1      39.648  36.454  35.793  1.00  0.00    -0.237 OA
ATOM     73  O   UNL A   1      39.476  36.073  38.218  1.00  0.00    -0.237 OA
ATOM     74  O   UNL A   1      41.571  35.549  37.046  1.00  0.00    -0.744 OA
ENDBRANCH  68  71
ENDBRANCH  50  64
BRANCH  51  75
ATOM     75  C   UNL A   1      42.201  26.455  27.624  1.00  0.00     0.023 A 
ATOM     76  C   UNL A   1      42.985  27.077  26.633  1.00  0.00     0.012 A 
ATOM     77  C   UNL A   1      41.898  25.086  27.501  1.00  0.00     0.148 A 
ATOM     78  C   UNL A   1      43.436  26.357  25.526  1.00  0.00     0.002 A 
ATOM     79  C   UNL A   1      42.398  24.360  26.425  1.00  0.00     0.091 A 
ATOM     80  F   UNL A   1      41.138  24.516  28.446  1.00  0.00    -0.205 F 
ATOM     81  C   UNL A   1      43.153  24.998  25.428  1.00  0.00     0.022 A 
BRANCH  79  82
ATOM     82  S   UNL A   1      42.202  22.580  26.291  1.00  0.00     0.127 S 
ATOM     83  O   UNL A   1      42.933  22.109  27.462  1.00  0.00    -0.237 OA
ATOM     84  O   UNL A   1      40.749  22.432  26.366  1.00  0.00    -0.237 OA
ATOM     85  O   UNL A   1      42.774  22.224  24.997  1.00  0.00    -0.744 OA
ENDBRANCH  79  82
ENDBRANCH  51  75
BRANCH  63  86
ATOM     86  C   UNL A   1      44.639  27.246  34.119  1.00  0.00     0.023 A 
ATOM     87  C   UNL A   1      45.884  27.906  34.080  1.00  0.00     0.012 A 
ATOM     88  C   UNL A   1      44.504  26.073  34.888  1.00  0.00     0.148 A 
ATOM     89  C   UNL A   1      46.984  27.389  34.764  1.00  0.00     0.002 A 
ATOM     90  C   UNL A   1      45.592  25.589  35.606  1.00  0.00     0.091 A 
ATOM     91  F   UNL A   1      43.318  25.447  34.897  1.00  0.00    -0.205 F 
ATOM     92  C   UNL A   1      46.835  26.238  35.535  1.00  0.00     0.022 A 
BRANCH  90  93
ATOM     93  S   UNL A   1      45.465  24.168  36.697  1.00  0.00     0.127 S 
ATOM     94  O   UNL A   1      44.452  24.612  37.651  1.00  0.00    -0.237 OA
ATOM     95  O   UNL A   1      45.022  23.113  35.784  1.00  0.00    -0.237 OA
ATOM     96  O   UNL A   1      46.799  23.967  37.245  1.00  0.00    -0.744 OA
ENDBRANCH  90  93
ENDBRANCH  63  86
ENDBRANCH  37  38
ENDBRANCH  29  32
ENDBRANCH  27  28
ENDBRANCH   1  27
TORSDOF 15
ENDMDL
MODEL 2
REMARK VINA RESULT:     -12.4      4.592     10.173
REMARK SMILES C[C@H]1[C@@H](C(=O)NCCCNC(=O)c2ccc(-c3c4nc(c(-c5cccc(S(=O)(=O)[O-])c5F)c5ccc([nH]5)c(-c5cccc(S(=O)(=O)[O-])c5F)c5nc(c(-c6cccc(S(=O)(=O)[O-])c6F)c6ccc3[nH]6)C=C5)C=C4)cc2)CCN1C(=O)N[C@@H]1CC[N@H+]2CCCC[C@H]12
REMARK SMILES IDX 8 1 7 2 6 3 4 4 5 5 3 7 1 8 2 9 78 10 76 11 77 12 79 13
REMARK SMILES IDX 80 14 81 15 82 17 83 18 90 19 84 20 85 21 89 22 86 23 88 25
REMARK SMILES IDX 87 26 9 27 10 28 11 29 12 31 13 32 14 33 75 34 15 35 74 36
REMARK SMILES IDX 16 37 17 38 18 39 68 40 19 41 73 42 67 43 69 44 20 45 72 46
REMARK SMILES IDX 66 47 65 48 21 50 53 51 33 52 52 53 34 54 37 55 51 56 70 57
REMARK SMILES IDX 35 58 36 59 50 61 71 62 38 63 22 64 23 65 31 66 24 67 26 68
REMARK SMILES IDX 32 69 25 70 27 71 28 72 29 73 30 74 54 75 55 76 63 77 56 78
REMARK SMILES IDX 58 79 64 80 57 81 59 82 60 83 61 84 62 85 39 86 40 87 48 88
REMARK SMILES IDX 41 89 43 90 49 91 42 92 44 93 45 94 46 95 47 96
REMARK H PARENT 6 6 81 16 85 24 10 30 69 49 37 60
REMARK Flexibility Score: inf
ROOT
ATOM      1  C   UNL A   1      35.222  21.612  25.873  1.00  0.00     0.042 C 
ENDROOT
BRANCH   1   2
ATOM      2  C   UNL A   1      34.075  20.686  25.446  1.00  0.00     0.117 C 
BRANCH   2   3
ATOM      3  N   UNL A   1      32.779  21.159  25.915  1.00  0.00    -0.356 N 
ATOM      4  C   UNL A   1      31.887  22.067  25.420  1.00  0.00     0.225 C 
ATOM      5  O   UNL A   1      30.846  22.211  26.069  1.00  0.00    -0.275 OA
ATOM      6  H   UNL A   1      32.487  20.739  26.756  1.00  0.00     0.163 HD
BRANCH   4   7
ATOM      7  C   UNL A   1      32.100  22.787  24.088  1.00  0.00     0.102 C 
ATOM      8  C   UNL A   1      33.206  24.763  25.374  1.00  0.00     0.032 C 
ATOM      9  C   UNL A   1      33.035  24.010  24.062  1.00  0.00     0.096 C 
ATOM     10  N   UNL A   1      32.456  24.931  23.099  1.00  0.00    -0.321 N 
ATOM     11  C   UNL A   1      30.792  23.293  23.433  1.00  0.00     0.037 C 
ATOM     12  C   UNL A   1      31.016  24.767  23.133  1.00  0.00     0.122 C 
BRANCH  10  13
ATOM     13  C   UNL A   1      32.978  26.108  22.635  1.00  0.00     0.318 C 
ATOM     14  O   UNL A   1      34.023  26.124  21.978  1.00  0.00    -0.249 OA
ATOM     15  N   UNL A   1      32.355  27.295  22.817  1.00  0.00    -0.329 N 
ATOM     16  H   UNL A   1      32.654  27.975  22.171  1.00  0.00     0.165 HD
BRANCH  15  17
ATOM     17  C   UNL A   1      31.346  27.812  23.738  1.00  0.00     0.147 C 
ATOM     18  C   UNL A   1      30.486  28.934  23.123  1.00  0.00     0.092 C 
ATOM     19  C   UNL A   1      31.908  28.461  25.023  1.00  0.00     0.207 C 
ATOM     20  C   UNL A   1      30.350  29.988  24.214  1.00  0.00     0.264 C 
ATOM     21  N   UNL A   1      31.647  29.894  24.854  1.00  0.00    -0.331 N 
ATOM     22  C   UNL A   1      33.378  28.266  25.367  1.00  0.00     0.067 C 
ATOM     23  C   UNL A   1      31.777  30.619  26.109  1.00  0.00     0.262 C 
ATOM     24  H   UNL A   1      32.340  30.352  24.263  1.00  0.00     0.348 HD
ATOM     25  C   UNL A   1      33.689  29.017  26.667  1.00  0.00     0.012 C 
ATOM     26  C   UNL A   1      33.221  30.477  26.608  1.00  0.00     0.062 C 
ENDBRANCH  15  17
ENDBRANCH  10  13
ENDBRANCH   4   7
ENDBRANCH   2   3
ENDBRANCH   1   2
BRANCH   1  27
ATOM     27  C   UNL A   1      36.429  21.657  24.947  1.00  0.00     0.118 C 
BRANCH  27  28
ATOM     28  N   UNL A   1      37.425  20.665  25.294  1.00  0.00    -0.352 N 
ATOM     29  C   UNL A   1      38.712  20.775  25.769  1.00  0.00     0.251 C 
ATOM     30  H   UNL A   1      37.125  19.735  25.168  1.00  0.00     0.163 HD
ATOM     31  O   UNL A   1      39.401  19.754  25.751  1.00  0.00    -0.269 OA
BRANCH  29  32
ATOM     32  C   UNL A   1      39.310  22.041  26.285  1.00  0.00     0.039 A 
ATOM     33  C   UNL A   1      38.818  23.251  25.771  1.00  0.00     0.014 A 
ATOM     34  C   UNL A   1      40.404  22.093  27.154  1.00  0.00     0.014 A 
ATOM     35  C   UNL A   1      39.400  24.477  26.126  1.00  0.00     0.010 A 
ATOM     36  C   UNL A   1      40.921  23.322  27.586  1.00  0.00     0.010 A 
ATOM     37  C   UNL A   1      40.454  24.530  27.052  1.00  0.00    -0.014 A 
BRANCH  37  38
ATOM     38  C   UNL A   1      41.094  25.827  27.424  1.00  0.00     0.031 A 
ATOM     39  C   UNL A   1      42.519  26.131  27.020  1.00  0.00     0.074 A 
ATOM     40  C   UNL A   1      40.418  26.725  28.170  1.00  0.00     0.049 A 
ATOM     41  N   UNL A   1      43.242  27.194  27.273  1.00  0.00    -0.248 NA
ATOM     42  C   UNL A   1      43.233  25.096  26.255  1.00  0.00     0.031 C 
ATOM     43  C   UNL A   1      39.067  26.536  28.700  1.00  0.00     0.029 A 
ATOM     44  N   UNL A   1      40.781  27.969  28.629  1.00  0.00    -0.354 N 
ATOM     45  C   UNL A   1      44.501  26.941  26.734  1.00  0.00     0.074 A 
ATOM     46  C   UNL A   1      44.454  25.607  26.174  1.00  0.00     0.031 C 
ATOM     47  C   UNL A   1      38.714  27.622  29.406  1.00  0.00     0.029 A 
ATOM     48  C   UNL A   1      39.819  28.577  29.401  1.00  0.00     0.049 A 
ATOM     49  H   UNL A   1      41.650  28.385  28.424  1.00  0.00     0.167 HD
ATOM     50  C   UNL A   1      45.587  27.750  26.674  1.00  0.00     0.034 A 
ATOM     51  C   UNL A   1      39.820  29.765  30.038  1.00  0.00     0.034 A 
ATOM     52  C   UNL A   1      45.623  29.097  27.180  1.00  0.00     0.049 A 
ATOM     53  C   UNL A   1      41.015  30.671  29.907  1.00  0.00     0.074 A 
ATOM     54  C   UNL A   1      46.647  30.023  27.089  1.00  0.00     0.029 A 
ATOM     55  N   UNL A   1      44.591  29.710  27.873  1.00  0.00    -0.354 N 
ATOM     56  N   UNL A   1      42.134  30.470  29.257  1.00  0.00    -0.248 NA
ATOM     57  C   UNL A   1      40.929  31.984  30.565  1.00  0.00     0.031 C 
ATOM     58  C   UNL A   1      46.240  31.192  27.742  1.00  0.00     0.029 A 
ATOM     59  C   UNL A   1      44.954  31.001  28.220  1.00  0.00     0.049 A 
ATOM     60  H   UNL A   1      43.728  29.289  28.087  1.00  0.00     0.167 HD
ATOM     61  C   UNL A   1      42.874  31.639  29.402  1.00  0.00     0.074 A 
ATOM     62  C   UNL A   1      42.062  32.555  30.176  1.00  0.00     0.031 C 
ATOM     63  C   UNL A   1      44.121  31.922  28.950  1.00  0.00     0.034 A 
BRANCH  50  64
ATOM     64  C   UNL A   1      46.815  27.221  25.975  1.00  0.00     0.023 A 
ATOM     65  C   UNL A   1      46.925  27.352  24.574  1.00  0.00     0.012 A 
ATOM     66  C   UNL A   1      47.882  26.650  26.697  1.00  0.00     0.148 A 
ATOM     67  C   UNL A   1      48.053  26.887  23.900  1.00  0.00     0.002 A 
ATOM     68  C   UNL A   1      49.024  26.229  26.023  1.00  0.00     0.091 A 
ATOM     69  F   UNL A   1      47.757  26.518  28.025  1.00  0.00    -0.205 F 
ATOM     70  C   UNL A   1      49.105  26.334  24.624  1.00  0.00     0.022 A 
BRANCH  68  71
ATOM     71  S   UNL A   1      50.468  25.576  26.871  1.00  0.00     0.127 S 
ATOM     72  O   UNL A   1      50.863  26.714  27.697  1.00  0.00    -0.237 OA
ATOM     73  O   UNL A   1      49.905  24.449  27.615  1.00  0.00    -0.237 OA
ATOM     74  O   UNL A   1      51.410  25.202  25.825  1.00  0.00    -0.744 OA
ENDBRANCH  68  71
ENDBRANCH  50  64
BRANCH  51  75
ATOM     75  C   UNL A   1      38.615  30.195  30.804  1.00  0.00     0.023 A 
ATOM     76  C   UNL A   1      38.490  29.837  32.161  1.00  0.00     0.012 A 
ATOM     77  C   UNL A   1      37.616  30.988  30.209  1.00  0.00     0.148 A 
ATOM     78  C   UNL A   1      37.379  30.237  32.903  1.00  0.00     0.002 A 
ATOM     79  C   UNL A   1      36.539  31.431  30.969  1.00  0.00     0.091 A 
ATOM     80  F   UNL A   1      37.745  31.305  28.913  1.00  0.00    -0.205 F 
ATOM     81  C   UNL A   1      36.410  31.042  32.311  1.00  0.00     0.022 A 
BRANCH  79  82
ATOM     82  S   UNL A   1      35.320  32.584  30.330  1.00  0.00     0.127 S 
ATOM     83  O   UNL A   1      34.797  31.859  29.178  1.00  0.00    -0.237 OA
ATOM     84  O   UNL A   1      34.397  32.702  31.459  1.00  0.00    -0.237 OA
ATOM     85  O   UNL A   1      36.060  33.806  30.031  1.00  0.00    -0.744 OA
ENDBRANCH  79  82
ENDBRANCH  51  75
BRANCH  63  86
ATOM     86  C   UNL A   1      44.682  33.287  29.258  1.00  0.00     0.023 A 
ATOM     87  C   UNL A   1      45.313  33.519  30.496  1.00  0.00     0.012 A 
ATOM     88  C   UNL A   1      44.637  34.320  28.302  1.00  0.00     0.148 A 
ATOM     89  C   UNL A   1      45.856  34.769  30.793  1.00  0.00     0.002 A 
ATOM     90  C   UNL A   1      45.224  35.549  28.585  1.00  0.00     0.091 A 
ATOM     91  F   UNL A   1      44.016  34.087  27.136  1.00  0.00    -0.205 F 
ATOM     92  C   UNL A   1      45.822  35.779  29.834  1.00  0.00     0.022 A 
BRANCH  90  93
ATOM     93  S   UNL A   1      45.306  36.874  27.375  1.00  0.00     0.127 S 
ATOM     94  O   UNL A   1      43.892  37.188  27.179  1.00  0.00    -0.237 OA
ATOM     95  O   UNL A   1      46.065  37.902  28.088  1.00  0.00    -0.237 OA
ATOM     96  O   UNL A   1      45.991  36.315  26.218  1.00  0.00    -0.744 OA
ENDBRANCH  90  93
ENDBRANCH  63  86
ENDBRANCH  37  38
ENDBRANCH  29  32
ENDBRANCH  27  28
ENDBRANCH   1  27
TORSDOF 15
ENDMDL
MODEL 3
REMARK VINA RESULT:     -12.3      4.867     10.263
REMARK SMILES C[C@H]1[C@@H](C(=O)NCCCNC(=O)c2ccc(-c3c4nc(c(-c5cccc(S(=O)(=O)[O-])c5F)c5ccc([nH]5)c(-c5cccc(S(=O)(=O)[O-])c5F)c5nc(c(-c6cccc(S(=O)(=O)[O-])c6F)c6ccc3[nH]6)C=C5)C=C4)cc2)CCN1C(=O)N[C@@H]1CC[N@H+]2CCCC[C@H]12
REMARK SMILES IDX 8 1 7 2 6 3 4 4 5 5 3 7 1 8 2 9 78 10 76 11 77 12 79 13
REMARK SMILES IDX 80 14 81 15 82 17 83 18 90 19 84 20 85 21 89 22 86 23 88 25
REMARK SMILES IDX 87 26 9 27 10 28 11 29 12 31 13 32 14 33 75 34 15 35 74 36
REMARK SMILES IDX 16 37 17 38 18 39 68 40 19 41 73 42 67 43 69 44 20 45 72 46
REMARK SMILES IDX 66 47 65 48 21 50 53 51 33 52 52 53 34 54 37 55 51 56 70 57
REMARK SMILES IDX 35 58 36 59 50 61 71 62 38 63 22 64 23 65 31 66 24 67 26 68
REMARK SMILES IDX 32 69 25 70 27 71 28 72 29 73 30 74 54 75 55 76 63 77 56 78
REMARK SMILES IDX 58 79 64 80 57 81 59 82 60 83 61 84 62 85 39 86 40 87 48 88
REMARK SMILES IDX 41 89 43 90 49 91 42 92 44 93 45 94 46 95 47 96
REMARK H PARENT 6 6 81 16 85 24 10 30 69 49 37 60
REMARK Flexibility Score: inf
ROOT
ATOM      1  C   UNL A   1      35.801  22.020  25.575  1.00  0.00     0.042 C 
ENDROOT
BRANCH   1   2
ATOM      2  C   UNL A   1      34.732  20.992  25.184  1.00  0.00     0.117 C 
BRANCH   2   3
ATOM      3  N   UNL A   1      33.419  21.326  25.722  1.00  0.00    -0.356 N 
ATOM      4  C   UNL A   1      32.404  22.119  25.270  1.00  0.00     0.225 C 
ATOM      5  O   UNL A   1      31.393  22.159  25.978  1.00  0.00    -0.275 OA
ATOM      6  H   UNL A   1      33.225  20.892  26.585  1.00  0.00     0.163 HD
BRANCH   4   7
ATOM      7  C   UNL A   1      32.458  22.833  23.919  1.00  0.00     0.102 C 
ATOM      8  C   UNL A   1      33.514  24.903  25.093  1.00  0.00     0.032 C 
ATOM      9  C   UNL A   1      33.296  24.120  23.807  1.00  0.00     0.096 C 
ATOM     10  N   UNL A   1      32.576  24.982  22.885  1.00  0.00    -0.321 N 
ATOM     11  C   UNL A   1      31.068  23.233  23.366  1.00  0.00     0.037 C 
ATOM     12  C   UNL A   1      31.159  24.714  23.035  1.00  0.00     0.122 C 
BRANCH  10  13
ATOM     13  C   UNL A   1      32.972  26.187  22.369  1.00  0.00     0.318 C 
ATOM     14  O   UNL A   1      33.969  26.271  21.646  1.00  0.00    -0.249 OA
ATOM     15  N   UNL A   1      32.268  27.324  22.572  1.00  0.00    -0.329 N 
ATOM     16  H   UNL A   1      32.471  28.012  21.898  1.00  0.00     0.165 HD
BRANCH  15  17
ATOM     17  C   UNL A   1      31.281  27.779  23.548  1.00  0.00     0.147 C 
ATOM     18  C   UNL A   1      30.361  28.889  23.002  1.00  0.00     0.092 C 
ATOM     19  C   UNL A   1      31.873  28.409  24.829  1.00  0.00     0.207 C 
ATOM     20  C   UNL A   1      30.234  29.905  24.129  1.00  0.00     0.264 C 
ATOM     21  N   UNL A   1      31.558  29.837  24.715  1.00  0.00    -0.331 N 
ATOM     22  C   UNL A   1      33.361  28.254  25.108  1.00  0.00     0.067 C 
ATOM     23  C   UNL A   1      31.715  30.529  25.985  1.00  0.00     0.262 C 
ATOM     24  H   UNL A   1      32.211  30.335  24.111  1.00  0.00     0.348 HD
ATOM     25  C   UNL A   1      33.699  28.976  26.417  1.00  0.00     0.012 C 
ATOM     26  C   UNL A   1      33.181  30.421  26.422  1.00  0.00     0.062 C 
ENDBRANCH  15  17
ENDBRANCH  10  13
ENDBRANCH   4   7
ENDBRANCH   2   3
ENDBRANCH   1   2
BRANCH   1  27
ATOM     27  C   UNL A   1      37.126  21.927  24.832  1.00  0.00     0.118 C 
BRANCH  27  28
ATOM     28  N   UNL A   1      38.018  20.950  25.420  1.00  0.00    -0.352 N 
ATOM     29  C   UNL A   1      39.207  21.077  26.101  1.00  0.00     0.251 C 
ATOM     30  H   UNL A   1      37.717  20.018  25.313  1.00  0.00     0.163 HD
ATOM     31  O   UNL A   1      39.859  20.046  26.279  1.00  0.00    -0.269 OA
BRANCH  29  32
ATOM     32  C   UNL A   1      39.745  22.370  26.618  1.00  0.00     0.039 A 
ATOM     33  C   UNL A   1      39.204  23.555  26.095  1.00  0.00     0.014 A 
ATOM     34  C   UNL A   1      40.827  22.472  27.496  1.00  0.00     0.014 A 
ATOM     35  C   UNL A   1      39.728  24.806  26.451  1.00  0.00     0.010 A 
ATOM     36  C   UNL A   1      41.285  23.725  27.928  1.00  0.00     0.010 A 
ATOM     37  C   UNL A   1      40.770  24.909  27.385  1.00  0.00    -0.014 A 
BRANCH  37  38
ATOM     38  C   UNL A   1      41.349  26.234  27.759  1.00  0.00     0.031 A 
ATOM     39  C   UNL A   1      42.767  26.594  27.378  1.00  0.00     0.074 A 
ATOM     40  C   UNL A   1      40.622  27.109  28.484  1.00  0.00     0.049 A 
ATOM     41  N   UNL A   1      43.441  27.688  27.635  1.00  0.00    -0.248 NA
ATOM     42  C   UNL A   1      43.538  25.584  26.635  1.00  0.00     0.031 C 
ATOM     43  C   UNL A   1      39.271  26.868  28.991  1.00  0.00     0.029 A 
ATOM     44  N   UNL A   1      40.925  28.371  28.940  1.00  0.00    -0.354 N 
ATOM     45  C   UNL A   1      44.719  27.483  27.122  1.00  0.00     0.074 A 
ATOM     46  C   UNL A   1      44.738  26.145  26.573  1.00  0.00     0.031 C 
ATOM     47  C   UNL A   1      38.860  27.944  29.681  1.00  0.00     0.029 A 
ATOM     48  C   UNL A   1      39.924  28.944  29.689  1.00  0.00     0.049 A 
ATOM     49  H   UNL A   1      41.780  28.821  28.748  1.00  0.00     0.167 HD
ATOM     50  C   UNL A   1      45.772  28.336  27.075  1.00  0.00     0.034 A 
ATOM     51  C   UNL A   1      39.865  30.136  30.316  1.00  0.00     0.034 A 
ATOM     52  C   UNL A   1      45.743  29.687  27.571  1.00  0.00     0.049 A 
ATOM     53  C   UNL A   1      41.023  31.089  30.199  1.00  0.00     0.074 A 
ATOM     54  C   UNL A   1      46.729  30.655  27.490  1.00  0.00     0.029 A 
ATOM     55  N   UNL A   1      44.674  30.262  28.239  1.00  0.00    -0.354 N 
ATOM     56  N   UNL A   1      42.162  30.931  29.571  1.00  0.00    -0.248 NA
ATOM     57  C   UNL A   1      40.871  32.403  30.844  1.00  0.00     0.031 C 
ATOM     58  C   UNL A   1      46.262  31.811  28.126  1.00  0.00     0.029 A 
ATOM     59  C   UNL A   1      44.976  31.570  28.582  1.00  0.00     0.049 A 
ATOM     60  H   UNL A   1      43.825  29.808  28.441  1.00  0.00     0.167 HD
ATOM     61  C   UNL A   1      42.850  32.130  29.720  1.00  0.00     0.074 A 
ATOM     62  C   UNL A   1      41.987  33.017  30.472  1.00  0.00     0.031 C 
ATOM     63  C   UNL A   1      44.092  32.461  29.289  1.00  0.00     0.034 A 
BRANCH  50  64
ATOM     64  C   UNL A   1      47.034  27.854  26.403  1.00  0.00     0.023 A 
ATOM     65  C   UNL A   1      48.028  27.213  27.173  1.00  0.00     0.012 A 
ATOM     66  C   UNL A   1      47.218  27.980  25.012  1.00  0.00     0.148 A 
ATOM     67  C   UNL A   1      49.199  26.743  26.579  1.00  0.00     0.002 A 
ATOM     68  C   UNL A   1      48.369  27.470  24.419  1.00  0.00     0.091 A 
ATOM     69  F   UNL A   1      46.274  28.606  24.295  1.00  0.00    -0.205 F 
ATOM     70  C   UNL A   1      49.365  26.864  25.203  1.00  0.00     0.022 A 
BRANCH  68  71
ATOM     71  S   UNL A   1      48.644  27.502  22.644  1.00  0.00     0.127 S 
ATOM     72  O   UNL A   1      49.943  28.167  22.559  1.00  0.00    -0.237 OA
ATOM     73  O   UNL A   1      48.666  26.078  22.308  1.00  0.00    -0.237 OA
ATOM     74  O   UNL A   1      47.523  28.241  22.079  1.00  0.00    -0.744 OA
ENDBRANCH  68  71
ENDBRANCH  50  64
BRANCH  51  75
ATOM     75  C   UNL A   1      38.629  30.522  31.056  1.00  0.00     0.023 A 
ATOM     76  C   UNL A   1      38.522  30.228  32.429  1.00  0.00     0.012 A 
ATOM     77  C   UNL A   1      37.581  31.210  30.417  1.00  0.00     0.148 A 
ATOM     78  C   UNL A   1      37.382  30.589  33.148  1.00  0.00     0.002 A 
ATOM     79  C   UNL A   1      36.472  31.618  31.151  1.00  0.00     0.091 A 
ATOM     80  F   UNL A   1      37.694  31.466  29.106  1.00  0.00    -0.205 F 
ATOM     81  C   UNL A   1      36.362  31.292  32.513  1.00  0.00     0.022 A 
BRANCH  79  82
ATOM     82  S   UNL A   1      35.179  32.647  30.450  1.00  0.00     0.127 S 
ATOM     83  O   UNL A   1      34.230  32.731  31.555  1.00  0.00    -0.237 OA
ATOM     84  O   UNL A   1      35.903  33.885  30.160  1.00  0.00    -0.237 OA
ATOM     85  O   UNL A   1      34.715  31.934  29.265  1.00  0.00    -0.744 OA
ENDBRANCH  79  82
ENDBRANCH  51  75
BRANCH  63  86
ATOM     86  C   UNL A   1      44.591  33.850  29.595  1.00  0.00     0.023 A 
ATOM     87  C   UNL A   1      45.349  34.078  30.761  1.00  0.00     0.012 A 
ATOM     88  C   UNL A   1      44.359  34.915  28.703  1.00  0.00     0.148 A 
ATOM     89  C   UNL A   1      45.836  35.352  31.053  1.00  0.00     0.002 A 
ATOM     90  C   UNL A   1      44.889  36.172  28.976  1.00  0.00     0.091 A 
ATOM     91  F   UNL A   1      43.619  34.684  27.609  1.00  0.00    -0.205 F 
ATOM     92  C   UNL A   1      45.617  36.395  30.156  1.00  0.00     0.022 A 
BRANCH  90  93
ATOM     93  S   UNL A   1      44.733  37.547  27.832  1.00  0.00     0.127 S 
ATOM     94  O   UNL A   1      45.279  38.653  28.616  1.00  0.00    -0.237 OA
ATOM     95  O   UNL A   1      45.575  37.120  26.713  1.00  0.00    -0.237 OA
ATOM     96  O   UNL A   1      43.315  37.642  27.515  1.00  0.00    -0.744 OA
ENDBRANCH  90  93
ENDBRANCH  63  86
ENDBRANCH  37  38
ENDBRANCH  29  32
ENDBRANCH  27  28
ENDBRANCH   1  27
TORSDOF 15
ENDMDL
