MODEL 1
REMARK VINA RESULT:     -10.8      0.000      0.000
REMARK SMILES O=C(CCCc1nc2cc(Cl)ccc2[nH]1)NCCCNC(=O)c1ccc(-c2c3nc(c(-c4cccc(S(=O)(=O)[O-])c4F)c4ccc([nH]4)c(-c4cccc(S(=O)(=O)[O-])c4F)c4nc(c(-c5cccc(S(=O)(=O)[O-])c5F)c5ccc2[nH]5)C=C4)C=C3)cc1
REMARK SMILES IDX 18 1 17 2 16 3 1 4 2 5 3 7 4 8 5 9 6 10 7 11 15 12 8 13
REMARK SMILES IDX 14 14 9 16 13 17 10 18 12 19 11 20 19 21 20 22 21 23 22 25
REMARK SMILES IDX 23 26 24 27 85 28 25 29 84 30 26 31 27 32 28 33 78 34 29 35
REMARK SMILES IDX 83 36 77 37 79 38 30 39 82 40 76 41 75 42 31 44 63 45 43 46
REMARK SMILES IDX 62 47 44 48 47 49 61 50 80 51 45 52 46 53 60 55 81 56 48 57
REMARK SMILES IDX 32 58 33 59 41 60 34 61 36 62 42 63 35 64 37 65 38 66 39 67
REMARK SMILES IDX 40 68 64 69 65 70 73 71 66 72 68 73 74 74 67 75 69 76 70 77
REMARK SMILES IDX 71 78 72 79 49 80 50 81 58 82 51 83 53 84 59 85 52 86 54 87
REMARK SMILES IDX 55 88 56 89 57 90
REMARK H PARENT 16 6 15 15 20 24 79 43 47 54
REMARK Flexibility Score: inf
ROOT
ATOM      1  C   UNL A   1      41.459  20.184  26.972  1.00  0.00     0.042 C 
ENDROOT
BRANCH   1   2
ATOM      2  C   UNL A   1      42.006  19.046  26.120  1.00  0.00     0.117 C 
BRANCH   2   3
ATOM      3  N   UNL A   1      43.037  19.486  25.203  1.00  0.00    -0.356 N 
ATOM      4  O   UNL A   1      44.562  17.855  25.759  1.00  0.00    -0.275 OA
ATOM      5  C   UNL A   1      44.244  18.838  25.099  1.00  0.00     0.220 C 
ATOM      6  H   UNL A   1      42.868  20.274  24.636  1.00  0.00     0.163 HD
BRANCH   5   7
ATOM      7  C   UNL A   1      45.162  19.426  24.053  1.00  0.00     0.100 C 
BRANCH   7   8
ATOM      8  C   UNL A   1      46.258  20.298  24.670  1.00  0.00     0.018 C 
BRANCH   8   9
ATOM      9  C   UNL A   1      46.049  21.811  24.560  1.00  0.00     0.076 C 
BRANCH   9  10
ATOM     10  C   UNL A   1      45.652  22.493  25.829  1.00  0.00     0.107 A 
ATOM     11  N   UNL A   1      46.405  23.327  26.515  1.00  0.00    -0.233 NA
ATOM     12  N   UNL A   1      44.437  22.320  26.449  1.00  0.00    -0.342 N 
ATOM     13  C   UNL A   1      45.658  23.704  27.607  1.00  0.00     0.090 A 
ATOM     14  C   UNL A   1      44.397  23.122  27.559  1.00  0.00     0.066 A 
ATOM     15  H   UNL A   1      43.717  21.720  26.147  1.00  0.00     0.168 HD
ATOM     16  C   UNL A   1      45.987  24.547  28.674  1.00  0.00     0.051 A 
ATOM     17  C   UNL A   1      43.396  23.372  28.499  1.00  0.00     0.030 A 
ATOM     18  C   UNL A   1      45.008  24.796  29.641  1.00  0.00     0.043 A 
ATOM     19  C   UNL A   1      43.732  24.233  29.549  1.00  0.00     0.023 A 
ATOM     20  Cl  UNL A   1      45.382  25.817  30.974  1.00  0.00    -0.084 Cl
ENDBRANCH   9  10
ENDBRANCH   8   9
ENDBRANCH   7   8
ENDBRANCH   5   7
ENDBRANCH   2   3
ENDBRANCH   1   2
BRANCH   1  21
ATOM     21  C   UNL A   1      41.134  21.459  26.201  1.00  0.00     0.118 C 
BRANCH  21  22
ATOM     22  N   UNL A   1      39.706  21.652  25.981  1.00  0.00    -0.352 N 
ATOM     23  C   UNL A   1      38.927  22.757  26.232  1.00  0.00     0.251 C 
ATOM     24  H   UNL A   1      39.231  20.879  25.598  1.00  0.00     0.163 HD
ATOM     25  O   UNL A   1      37.707  22.692  26.097  1.00  0.00    -0.269 OA
BRANCH  23  26
ATOM     26  C   UNL A   1      39.554  24.014  26.697  1.00  0.00     0.039 A 
ATOM     27  C   UNL A   1      40.093  24.891  25.751  1.00  0.00     0.014 A 
ATOM     28  C   UNL A   1      39.592  24.337  28.056  1.00  0.00     0.014 A 
ATOM     29  C   UNL A   1      40.592  26.130  26.161  1.00  0.00     0.010 A 
ATOM     30  C   UNL A   1      40.024  25.599  28.453  1.00  0.00     0.010 A 
ATOM     31  C   UNL A   1      40.521  26.513  27.510  1.00  0.00    -0.014 A 
BRANCH  31  32
ATOM     32  C   UNL A   1      40.924  27.872  27.959  1.00  0.00     0.031 A 
ATOM     33  C   UNL A   1      42.379  28.255  28.003  1.00  0.00     0.074 A 
ATOM     34  C   UNL A   1      39.992  28.721  28.438  1.00  0.00     0.049 A 
ATOM     35  N   UNL A   1      42.933  29.341  28.477  1.00  0.00    -0.248 NA
ATOM     36  C   UNL A   1      43.340  27.275  27.470  1.00  0.00     0.031 C 
ATOM     37  C   UNL A   1      38.556  28.444  28.517  1.00  0.00     0.029 A 
ATOM     38  N   UNL A   1      40.117  29.973  28.989  1.00  0.00    -0.354 N 
ATOM     39  C   UNL A   1      44.303  29.158  28.341  1.00  0.00     0.074 A 
ATOM     40  C   UNL A   1      44.500  27.848  27.760  1.00  0.00     0.031 C 
ATOM     41  C   UNL A   1      37.936  29.489  29.087  1.00  0.00     0.029 A 
ATOM     42  C   UNL A   1      38.929  30.495  29.448  1.00  0.00     0.049 A 
ATOM     43  H   UNL A   1      40.975  30.452  29.049  1.00  0.00     0.167 HD
ATOM     44  C   UNL A   1      45.308  30.014  28.647  1.00  0.00     0.034 A 
ATOM     45  C   UNL A   1      38.669  31.645  30.100  1.00  0.00     0.034 A 
ATOM     46  C   UNL A   1      45.108  31.337  29.174  1.00  0.00     0.049 A 
ATOM     47  C   UNL A   1      39.800  32.594  30.395  1.00  0.00     0.074 A 
ATOM     48  C   UNL A   1      46.055  32.312  29.428  1.00  0.00     0.029 A 
ATOM     49  N   UNL A   1      43.879  31.869  29.534  1.00  0.00    -0.354 N 
ATOM     50  N   UNL A   1      41.073  32.470  30.114  1.00  0.00    -0.248 NA
ATOM     51  C   UNL A   1      39.454  33.857  31.067  1.00  0.00     0.031 C 
ATOM     52  C   UNL A   1      45.403  33.430  29.957  1.00  0.00     0.029 A 
ATOM     53  C   UNL A   1      44.045  33.157  30.014  1.00  0.00     0.049 A 
ATOM     54  H   UNL A   1      43.018  31.400  29.459  1.00  0.00     0.167 HD
ATOM     55  C   UNL A   1      41.674  33.650  30.538  1.00  0.00     0.074 A 
ATOM     56  C   UNL A   1      40.624  34.484  31.082  1.00  0.00     0.031 C 
ATOM     57  C   UNL A   1      42.982  34.003  30.493  1.00  0.00     0.034 A 
BRANCH  44  58
ATOM     58  C   UNL A   1      46.718  29.572  28.361  1.00  0.00     0.023 A 
ATOM     59  C   UNL A   1      47.305  29.889  27.119  1.00  0.00     0.012 A 
ATOM     60  C   UNL A   1      47.485  28.905  29.337  1.00  0.00     0.148 A 
ATOM     61  C   UNL A   1      48.620  29.523  26.839  1.00  0.00     0.002 A 
ATOM     62  C   UNL A   1      48.809  28.580  29.067  1.00  0.00     0.091 A 
ATOM     63  F   UNL A   1      46.904  28.594  30.505  1.00  0.00    -0.205 F 
ATOM     64  C   UNL A   1      49.375  28.879  27.816  1.00  0.00     0.022 A 
BRANCH  62  65
ATOM     65  S   UNL A   1      49.889  27.825  30.287  1.00  0.00     0.127 S 
ATOM     66  O   UNL A   1      49.061  26.721  30.771  1.00  0.00    -0.237 OA
ATOM     67  O   UNL A   1      51.036  27.416  29.476  1.00  0.00    -0.237 OA
ATOM     68  O   UNL A   1      50.180  28.865  31.264  1.00  0.00    -0.744 OA
ENDBRANCH  62  65
ENDBRANCH  44  58
BRANCH  45  69
ATOM     69  C   UNL A   1      37.266  31.993  30.463  1.00  0.00     0.023 A 
ATOM     70  C   UNL A   1      36.781  31.654  31.741  1.00  0.00     0.012 A 
ATOM     71  C   UNL A   1      36.422  32.683  29.570  1.00  0.00     0.148 A 
ATOM     72  C   UNL A   1      35.475  31.968  32.115  1.00  0.00     0.002 A 
ATOM     73  C   UNL A   1      35.138  33.040  29.967  1.00  0.00     0.091 A 
ATOM     74  F   UNL A   1      36.895  32.984  28.353  1.00  0.00    -0.205 F 
ATOM     75  C   UNL A   1      34.657  32.671  31.233  1.00  0.00     0.022 A 
BRANCH  73  76
ATOM     76  S   UNL A   1      34.063  34.055  28.947  1.00  0.00     0.127 S 
ATOM     77  O   UNL A   1      35.003  35.032  28.402  1.00  0.00    -0.237 OA
ATOM     78  O   UNL A   1      33.554  33.082  27.979  1.00  0.00    -0.237 OA
ATOM     79  O   UNL A   1      33.051  34.585  29.851  1.00  0.00    -0.744 OA
ENDBRANCH  73  76
ENDBRANCH  45  69
BRANCH  57  80
ATOM     80  C   UNL A   1      43.363  35.367  31.004  1.00  0.00     0.023 A 
ATOM     81  C   UNL A   1      43.751  35.526  32.348  1.00  0.00     0.012 A 
ATOM     82  C   UNL A   1      43.436  36.467  30.127  1.00  0.00     0.148 A 
ATOM     83  C   UNL A   1      44.187  36.764  32.818  1.00  0.00     0.002 A 
ATOM     84  C   UNL A   1      43.914  37.687  30.591  1.00  0.00     0.091 A 
ATOM     85  F   UNL A   1      43.044  36.298  28.855  1.00  0.00    -0.205 F 
ATOM     86  C   UNL A   1      44.281  37.840  31.938  1.00  0.00     0.022 A 
BRANCH  84  87
ATOM     87  S   UNL A   1      44.160  39.102  29.510  1.00  0.00     0.127 S 
ATOM     88  O   UNL A   1      42.783  39.475  29.189  1.00  0.00    -0.237 OA
ATOM     89  O   UNL A   1      44.859  40.043  30.385  1.00  0.00    -0.237 OA
ATOM     90  O   UNL A   1      44.952  38.618  28.387  1.00  0.00    -0.744 OA
ENDBRANCH  84  87
ENDBRANCH  57  80
ENDBRANCH  31  32
ENDBRANCH  23  26
ENDBRANCH  21  22
ENDBRANCH   1  21
TORSDOF 16
ENDMDL
MODEL 2
REMARK VINA RESULT:     -10.7      1.763      2.271
REMARK SMILES O=C(CCCc1nc2cc(Cl)ccc2[nH]1)NCCCNC(=O)c1ccc(-c2c3nc(c(-c4cccc(S(=O)(=O)[O-])c4F)c4ccc([nH]4)c(-c4cccc(S(=O)(=O)[O-])c4F)c4nc(c(-c5cccc(S(=O)(=O)[O-])c5F)c5ccc2[nH]5)C=C4)C=C3)cc1
REMARK SMILES IDX 18 1 17 2 16 3 1 4 2 5 3 7 4 8 5 9 6 10 7 11 15 12 8 13
REMARK SMILES IDX 14 14 9 16 13 17 10 18 12 19 11 20 19 21 20 22 21 23 22 25
REMARK SMILES IDX 23 26 24 27 85 28 25 29 84 30 26 31 27 32 28 33 78 34 29 35
REMARK SMILES IDX 83 36 77 37 79 38 30 39 82 40 76 41 75 42 31 44 63 45 43 46
REMARK SMILES IDX 62 47 44 48 47 49 61 50 80 51 45 52 46 53 60 55 81 56 48 57
REMARK SMILES IDX 32 58 33 59 41 60 34 61 36 62 42 63 35 64 37 65 38 66 39 67
REMARK SMILES IDX 40 68 64 69 65 70 73 71 66 72 68 73 74 74 67 75 69 76 70 77
REMARK SMILES IDX 71 78 72 79 49 80 50 81 58 82 51 83 53 84 59 85 52 86 54 87
REMARK SMILES IDX 55 88 56 89 57 90
REMARK H PARENT 16 6 15 15 20 24 79 43 47 54
REMARK Flexibility Score: inf
ROOT
ATOM      1  C   UNL A   1      41.751  19.318  27.073  1.00  0.00     0.042 C 
ENDROOT
BRANCH   1   2
ATOM      2  C   UNL A   1      42.698  18.358  26.366  1.00  0.00     0.117 C 
BRANCH   2   3
ATOM      3  N   UNL A   1      43.500  19.014  25.354  1.00  0.00    -0.356 N 
ATOM      4  O   UNL A   1      45.379  17.724  25.668  1.00  0.00    -0.275 OA
ATOM      5  C   UNL A   1      44.792  18.630  25.088  1.00  0.00     0.220 C 
ATOM      6  H   UNL A   1      43.108  19.759  24.842  1.00  0.00     0.163 HD
BRANCH   5   7
ATOM      7  C   UNL A   1      45.440  19.410  23.968  1.00  0.00     0.100 C 
BRANCH   7   8
ATOM      8  C   UNL A   1      46.463  20.423  24.484  1.00  0.00     0.018 C 
BRANCH   8   9
ATOM      9  C   UNL A   1      46.052  21.895  24.392  1.00  0.00     0.076 C 
BRANCH   9  10
ATOM     10  C   UNL A   1      45.820  22.575  25.702  1.00  0.00     0.107 A 
ATOM     11  N   UNL A   1      46.552  23.553  26.195  1.00  0.00    -0.233 NA
ATOM     12  N   UNL A   1      44.805  22.250  26.570  1.00  0.00    -0.342 N 
ATOM     13  C   UNL A   1      45.995  23.867  27.412  1.00  0.00     0.090 A 
ATOM     14  C   UNL A   1      44.865  23.095  27.646  1.00  0.00     0.066 A 
ATOM     15  H   UNL A   1      44.146  21.529  26.440  1.00  0.00     0.168 HD
ATOM     16  C   UNL A   1      46.396  24.809  28.367  1.00  0.00     0.051 A 
ATOM     17  C   UNL A   1      44.053  23.237  28.773  1.00  0.00     0.030 A 
ATOM     18  C   UNL A   1      45.611  24.955  29.515  1.00  0.00     0.043 A 
ATOM     19  C   UNL A   1      44.453  24.196  29.709  1.00  0.00     0.023 A 
ATOM     20  Cl  UNL A   1      46.080  26.094  30.717  1.00  0.00    -0.084 Cl
ENDBRANCH   9  10
ENDBRANCH   8   9
ENDBRANCH   7   8
ENDBRANCH   5   7
ENDBRANCH   2   3
ENDBRANCH   1   2
BRANCH   1  21
ATOM     21  C   UNL A   1      41.277  20.491  26.220  1.00  0.00     0.118 C 
BRANCH  21  22
ATOM     22  N   UNL A   1      39.847  20.461  25.943  1.00  0.00    -0.352 N 
ATOM     23  C   UNL A   1      38.902  21.443  26.130  1.00  0.00     0.251 C 
ATOM     24  H   UNL A   1      39.508  19.616  25.567  1.00  0.00     0.163 HD
ATOM     25  O   UNL A   1      37.712  21.192  25.954  1.00  0.00    -0.269 OA
BRANCH  23  26
ATOM     26  C   UNL A   1      39.315  22.790  26.579  1.00  0.00     0.039 A 
ATOM     27  C   UNL A   1      40.279  22.902  27.584  1.00  0.00     0.014 A 
ATOM     28  C   UNL A   1      38.772  23.939  25.997  1.00  0.00     0.014 A 
ATOM     29  C   UNL A   1      40.761  24.164  27.946  1.00  0.00     0.010 A 
ATOM     30  C   UNL A   1      39.302  25.188  26.308  1.00  0.00     0.010 A 
ATOM     31  C   UNL A   1      40.309  25.314  27.279  1.00  0.00    -0.014 A 
BRANCH  31  32
ATOM     32  C   UNL A   1      40.892  26.655  27.549  1.00  0.00     0.031 A 
ATOM     33  C   UNL A   1      42.272  26.994  27.055  1.00  0.00     0.074 A 
ATOM     34  C   UNL A   1      40.229  27.524  28.338  1.00  0.00     0.049 A 
ATOM     35  N   UNL A   1      42.996  28.057  27.292  1.00  0.00    -0.248 NA
ATOM     36  C   UNL A   1      42.938  25.993  26.203  1.00  0.00     0.031 C 
ATOM     37  C   UNL A   1      38.915  27.289  28.940  1.00  0.00     0.029 A 
ATOM     38  N   UNL A   1      40.587  28.765  28.805  1.00  0.00    -0.354 N 
ATOM     39  C   UNL A   1      44.213  27.836  26.660  1.00  0.00     0.074 A 
ATOM     40  C   UNL A   1      44.141  26.528  26.047  1.00  0.00     0.031 C 
ATOM     41  C   UNL A   1      38.582  28.344  29.699  1.00  0.00     0.029 A 
ATOM     42  C   UNL A   1      39.669  29.316  29.670  1.00  0.00     0.049 A 
ATOM     43  H   UNL A   1      41.422  29.218  28.545  1.00  0.00     0.167 HD
ATOM     44  C   UNL A   1      45.287  28.659  26.575  1.00  0.00     0.034 A 
ATOM     45  C   UNL A   1      39.705  30.465  30.373  1.00  0.00     0.034 A 
ATOM     46  C   UNL A   1      45.337  29.980  27.141  1.00  0.00     0.049 A 
ATOM     47  C   UNL A   1      40.894  31.377  30.232  1.00  0.00     0.074 A 
ATOM     48  C   UNL A   1      46.342  30.924  27.028  1.00  0.00     0.029 A 
ATOM     49  N   UNL A   1      44.345  30.543  27.928  1.00  0.00    -0.354 N 
ATOM     50  N   UNL A   1      41.970  31.219  29.501  1.00  0.00    -0.248 NA
ATOM     51  C   UNL A   1      40.860  32.640  30.984  1.00  0.00     0.031 C 
ATOM     52  C   UNL A   1      45.966  32.054  27.761  1.00  0.00     0.029 A 
ATOM     53  C   UNL A   1      44.717  31.819  28.314  1.00  0.00     0.049 A 
ATOM     54  H   UNL A   1      43.502  30.101  28.175  1.00  0.00     0.167 HD
ATOM     55  C   UNL A   1      42.722  32.375  29.675  1.00  0.00     0.074 A 
ATOM     56  C   UNL A   1      41.973  33.233  30.569  1.00  0.00     0.031 C 
ATOM     57  C   UNL A   1      43.932  32.691  29.151  1.00  0.00     0.034 A 
BRANCH  44  58
ATOM     58  C   UNL A   1      46.478  28.179  25.790  1.00  0.00     0.023 A 
ATOM     59  C   UNL A   1      46.445  28.232  24.381  1.00  0.00     0.012 A 
ATOM     60  C   UNL A   1      47.650  27.740  26.438  1.00  0.00     0.148 A 
ATOM     61  C   UNL A   1      47.546  27.827  23.628  1.00  0.00     0.002 A 
ATOM     62  C   UNL A   1      48.759  27.377  25.681  1.00  0.00     0.091 A 
ATOM     63  F   UNL A   1      47.655  27.677  27.777  1.00  0.00    -0.205 F 
ATOM     64  C   UNL A   1      48.705  27.411  24.278  1.00  0.00     0.022 A 
BRANCH  62  65
ATOM     65  S   UNL A   1      50.325  26.907  26.424  1.00  0.00     0.127 S 
ATOM     66  O   UNL A   1      49.933  25.754  27.234  1.00  0.00    -0.237 OA
ATOM     67  O   UNL A   1      51.139  26.581  25.253  1.00  0.00    -0.237 OA
ATOM     68  O   UNL A   1      50.780  28.072  27.171  1.00  0.00    -0.744 OA
ENDBRANCH  62  65
ENDBRANCH  44  58
BRANCH  45  69
ATOM     69  C   UNL A   1      38.545  30.850  31.228  1.00  0.00     0.023 A 
ATOM     70  C   UNL A   1      38.592  30.585  32.610  1.00  0.00     0.012 A 
ATOM     71  C   UNL A   1      37.417  31.500  30.691  1.00  0.00     0.148 A 
ATOM     72  C   UNL A   1      37.527  30.935  33.439  1.00  0.00     0.002 A 
ATOM     73  C   UNL A   1      36.381  31.895  31.531  1.00  0.00     0.091 A 
ATOM     74  F   UNL A   1      37.384  31.731  29.371  1.00  0.00    -0.205 F 
ATOM     75  C   UNL A   1      36.426  31.599  32.903  1.00  0.00     0.022 A 
BRANCH  73  76
ATOM     76  S   UNL A   1      34.988  32.867  30.948  1.00  0.00     0.127 S 
ATOM     77  O   UNL A   1      34.032  32.706  32.042  1.00  0.00    -0.237 OA
ATOM     78  O   UNL A   1      35.575  34.203  30.835  1.00  0.00    -0.237 OA
ATOM     79  O   UNL A   1      34.602  32.273  29.675  1.00  0.00    -0.744 OA
ENDBRANCH  73  76
ENDBRANCH  45  69
BRANCH  57  80
ATOM     80  C   UNL A   1      44.518  34.036  29.488  1.00  0.00     0.023 A 
ATOM     81  C   UNL A   1      45.380  34.167  30.593  1.00  0.00     0.012 A 
ATOM     82  C   UNL A   1      44.296  35.145  28.648  1.00  0.00     0.148 A 
ATOM     83  C   UNL A   1      45.997  35.385  30.871  1.00  0.00     0.002 A 
ATOM     84  C   UNL A   1      44.949  36.345  28.903  1.00  0.00     0.091 A 
ATOM     85  F   UNL A   1      43.457  35.004  27.611  1.00  0.00    -0.205 F 
ATOM     86  C   UNL A   1      45.793  36.469  30.019  1.00  0.00     0.022 A 
BRANCH  84  87
ATOM     87  S   UNL A   1      44.823  37.766  27.810  1.00  0.00     0.127 S 
ATOM     88  O   UNL A   1      45.250  37.198  26.532  1.00  0.00    -0.237 OA
ATOM     89  O   UNL A   1      43.398  38.091  27.888  1.00  0.00    -0.237 OA
ATOM     90  O   UNL A   1      45.706  38.782  28.367  1.00  0.00    -0.744 OA
ENDBRANCH  84  87
ENDBRANCH  57  80
ENDBRANCH  31  32
ENDBRANCH  23  26
ENDBRANCH  21  22
ENDBRANCH   1  21
TORSDOF 16
ENDMDL
MODEL 3
REMARK VINA RESULT:     -10.7      4.667     11.991
REMARK SMILES O=C(CCCc1nc2cc(Cl)ccc2[nH]1)NCCCNC(=O)c1ccc(-c2c3nc(c(-c4cccc(S(=O)(=O)[O-])c4F)c4ccc([nH]4)c(-c4cccc(S(=O)(=O)[O-])c4F)c4nc(c(-c5cccc(S(=O)(=O)[O-])c5F)c5ccc2[nH]5)C=C4)C=C3)cc1
REMARK SMILES IDX 18 1 17 2 16 3 1 4 2 5 3 7 4 8 5 9 6 10 7 11 15 12 8 13
REMARK SMILES IDX 14 14 9 16 13 17 10 18 12 19 11 20 19 21 20 22 21 23 22 25
REMARK SMILES IDX 23 26 24 27 85 28 25 29 84 30 26 31 27 32 28 33 78 34 29 35
REMARK SMILES IDX 83 36 77 37 79 38 30 39 82 40 76 41 75 42 31 44 63 45 43 46
REMARK SMILES IDX 62 47 44 48 47 49 61 50 80 51 45 52 46 53 60 55 81 56 48 57
REMARK SMILES IDX 32 58 33 59 41 60 34 61 36 62 42 63 35 64 37 65 38 66 39 67
REMARK SMILES IDX 40 68 64 69 65 70 73 71 66 72 68 73 74 74 67 75 69 76 70 77
REMARK SMILES IDX 71 78 72 79 49 80 50 81 58 82 51 83 53 84 59 85 52 86 54 87
REMARK SMILES IDX 55 88 56 89 57 90
REMARK H PARENT 16 6 15 15 20 24 79 43 47 54
REMARK Flexibility Score: inf
ROOT
ATOM      1  C   UNL A   1      34.412  34.174  28.110  1.00  0.00     0.042 C 
ENDROOT
BRANCH   1   2
ATOM      2  C   UNL A   1      33.604  35.261  28.807  1.00  0.00     0.117 C 
BRANCH   2   3
ATOM      3  N   UNL A   1      33.434  35.003  30.222  1.00  0.00    -0.356 N 
ATOM      4  O   UNL A   1      32.764  37.134  30.772  1.00  0.00    -0.275 OA
ATOM      5  C   UNL A   1      33.018  35.979  31.094  1.00  0.00     0.220 C 
ATOM      6  H   UNL A   1      33.623  34.101  30.570  1.00  0.00     0.163 HD
BRANCH   5   7
ATOM      7  C   UNL A   1      32.860  35.497  32.517  1.00  0.00     0.100 C 
BRANCH   7   8
ATOM      8  C   UNL A   1      33.822  34.355  32.851  1.00  0.00     0.018 C 
BRANCH   8   9
ATOM      9  C   UNL A   1      35.111  34.757  33.575  1.00  0.00     0.076 C 
BRANCH   9  10
ATOM     10  C   UNL A   1      36.365  34.602  32.776  1.00  0.00     0.107 A 
ATOM     11  N   UNL A   1      37.589  34.721  33.247  1.00  0.00    -0.233 NA
ATOM     12  N   UNL A   1      36.391  34.324  31.430  1.00  0.00    -0.342 N 
ATOM     13  C   UNL A   1      38.428  34.513  32.178  1.00  0.00     0.090 A 
ATOM     14  C   UNL A   1      37.699  34.211  31.035  1.00  0.00     0.066 A 
ATOM     15  H   UNL A   1      35.603  34.223  30.848  1.00  0.00     0.168 HD
ATOM     16  C   UNL A   1      39.826  34.557  32.111  1.00  0.00     0.051 A 
ATOM     17  C   UNL A   1      38.282  33.889  29.809  1.00  0.00     0.030 A 
ATOM     18  C   UNL A   1      40.434  34.258  30.887  1.00  0.00     0.043 A 
ATOM     19  C   UNL A   1      39.680  33.915  29.762  1.00  0.00     0.023 A 
ATOM     20  Cl  UNL A   1      42.150  34.315  30.764  1.00  0.00    -0.084 Cl
ENDBRANCH   9  10
ENDBRANCH   8   9
ENDBRANCH   7   8
ENDBRANCH   5   7
ENDBRANCH   2   3
ENDBRANCH   1   2
BRANCH   1  21
ATOM     21  C   UNL A   1      34.397  32.819  28.810  1.00  0.00     0.118 C 
BRANCH  21  22
ATOM     22  N   UNL A   1      33.927  31.734  27.958  1.00  0.00    -0.352 N 
ATOM     23  C   UNL A   1      34.562  30.567  27.602  1.00  0.00     0.251 C 
ATOM     24  H   UNL A   1      33.025  31.855  27.581  1.00  0.00     0.163 HD
ATOM     25  O   UNL A   1      34.056  29.822  26.767  1.00  0.00    -0.269 OA
BRANCH  23  26
ATOM     26  C   UNL A   1      35.872  30.226  28.200  1.00  0.00     0.039 A 
ATOM     27  C   UNL A   1      35.904  29.649  29.473  1.00  0.00     0.014 A 
ATOM     28  C   UNL A   1      37.061  30.454  27.503  1.00  0.00     0.014 A 
ATOM     29  C   UNL A   1      37.122  29.221  30.009  1.00  0.00     0.010 A 
ATOM     30  C   UNL A   1      38.262  29.964  28.008  1.00  0.00     0.010 A 
ATOM     31  C   UNL A   1      38.305  29.335  29.262  1.00  0.00    -0.014 A 
BRANCH  31  32
ATOM     32  C   UNL A   1      39.594  28.775  29.749  1.00  0.00     0.031 A 
ATOM     33  C   UNL A   1      40.353  29.466  30.849  1.00  0.00     0.074 A 
ATOM     34  C   UNL A   1      40.139  27.712  29.122  1.00  0.00     0.049 A 
ATOM     35  N   UNL A   1      41.543  29.203  31.323  1.00  0.00    -0.248 NA
ATOM     36  C   UNL A   1      39.698  30.624  31.482  1.00  0.00     0.031 C 
ATOM     37  C   UNL A   1      39.538  26.994  27.996  1.00  0.00     0.029 A 
ATOM     38  N   UNL A   1      41.340  27.075  29.317  1.00  0.00    -0.354 N 
ATOM     39  C   UNL A   1      41.799  30.183  32.273  1.00  0.00     0.074 A 
ATOM     40  C   UNL A   1      40.650  31.061  32.295  1.00  0.00     0.031 C 
ATOM     41  C   UNL A   1      40.374  26.023  27.596  1.00  0.00     0.029 A 
ATOM     42  C   UNL A   1      41.584  26.069  28.410  1.00  0.00     0.049 A 
ATOM     43  H   UNL A   1      41.967  27.315  30.037  1.00  0.00     0.167 HD
ATOM     44  C   UNL A   1      42.882  30.326  33.075  1.00  0.00     0.034 A 
ATOM     45  C   UNL A   1      42.665  25.283  28.241  1.00  0.00     0.034 A 
ATOM     46  C   UNL A   1      44.000  29.421  33.089  1.00  0.00     0.049 A 
ATOM     47  C   UNL A   1      43.840  25.439  29.169  1.00  0.00     0.074 A 
ATOM     48  C   UNL A   1      45.099  29.427  33.929  1.00  0.00     0.029 A 
ATOM     49  N   UNL A   1      44.165  28.353  32.221  1.00  0.00    -0.354 N 
ATOM     50  N   UNL A   1      43.995  26.273  30.167  1.00  0.00    -0.248 NA
ATOM     51  C   UNL A   1      44.975  24.523  28.970  1.00  0.00     0.031 C 
ATOM     52  C   UNL A   1      45.938  28.372  33.559  1.00  0.00     0.029 A 
ATOM     53  C   UNL A   1      45.352  27.697  32.501  1.00  0.00     0.049 A 
ATOM     54  H   UNL A   1      43.533  28.098  31.512  1.00  0.00     0.167 HD
ATOM     55  C   UNL A   1      45.223  25.960  30.739  1.00  0.00     0.074 A 
ATOM     56  C   UNL A   1      45.766  24.850  29.985  1.00  0.00     0.031 C 
ATOM     57  C   UNL A   1      45.851  26.550  31.785  1.00  0.00     0.034 A 
BRANCH  44  58
ATOM     58  C   UNL A   1      42.886  31.471  34.052  1.00  0.00     0.023 A 
ATOM     59  C   UNL A   1      43.501  32.687  33.691  1.00  0.00     0.012 A 
ATOM     60  C   UNL A   1      42.228  31.371  35.294  1.00  0.00     0.148 A 
ATOM     61  C   UNL A   1      43.490  33.775  34.561  1.00  0.00     0.002 A 
ATOM     62  C   UNL A   1      42.185  32.474  36.140  1.00  0.00     0.091 A 
ATOM     63  F   UNL A   1      41.666  30.200  35.629  1.00  0.00    -0.205 F 
ATOM     64  C   UNL A   1      42.824  33.672  35.779  1.00  0.00     0.022 A 
BRANCH  62  65
ATOM     65  S   UNL A   1      41.282  32.469  37.692  1.00  0.00     0.127 S 
ATOM     66  O   UNL A   1      42.111  31.587  38.513  1.00  0.00    -0.237 OA
ATOM     67  O   UNL A   1      41.323  33.879  38.080  1.00  0.00    -0.237 OA
ATOM     68  O   UNL A   1      39.951  31.966  37.380  1.00  0.00    -0.744 OA
ENDBRANCH  62  65
ENDBRANCH  44  58
BRANCH  45  69
ATOM     69  C   UNL A   1      42.662  24.230  27.185  1.00  0.00     0.023 A 
ATOM     70  C   UNL A   1      43.312  24.481  25.961  1.00  0.00     0.012 A 
ATOM     71  C   UNL A   1      42.051  22.978  27.393  1.00  0.00     0.148 A 
ATOM     72  C   UNL A   1      43.331  23.518  24.953  1.00  0.00     0.002 A 
ATOM     73  C   UNL A   1      42.119  22.002  26.404  1.00  0.00     0.091 A 
ATOM     74  F   UNL A   1      41.424  22.763  28.558  1.00  0.00    -0.205 F 
ATOM     75  C   UNL A   1      42.745  22.275  25.178  1.00  0.00     0.022 A 
BRANCH  73  76
ATOM     76  S   UNL A   1      41.504  20.333  26.658  1.00  0.00     0.127 S 
ATOM     77  O   UNL A   1      42.218  19.932  27.868  1.00  0.00    -0.237 OA
ATOM     78  O   UNL A   1      40.070  20.560  26.835  1.00  0.00    -0.237 OA
ATOM     79  O   UNL A   1      41.849  19.602  25.446  1.00  0.00    -0.744 OA
ENDBRANCH  73  76
ENDBRANCH  45  69
BRANCH  57  80
ATOM     80  C   UNL A   1      47.179  25.991  32.219  1.00  0.00     0.023 A 
ATOM     81  C   UNL A   1      48.367  26.486  31.647  1.00  0.00     0.012 A 
ATOM     82  C   UNL A   1      47.254  25.050  33.265  1.00  0.00     0.148 A 
ATOM     83  C   UNL A   1      49.609  26.039  32.096  1.00  0.00     0.002 A 
ATOM     84  C   UNL A   1      48.496  24.643  33.738  1.00  0.00     0.091 A 
ATOM     85  F   UNL A   1      46.110  24.577  33.783  1.00  0.00    -0.205 F 
ATOM     86  C   UNL A   1      49.674  25.130  33.149  1.00  0.00     0.022 A 
BRANCH  84  87
ATOM     87  S   UNL A   1      48.679  23.548  35.152  1.00  0.00     0.127 S 
ATOM     88  O   UNL A   1      50.034  23.865  35.600  1.00  0.00    -0.237 OA
ATOM     89  O   UNL A   1      47.617  24.012  36.044  1.00  0.00    -0.237 OA
ATOM     90  O   UNL A   1      48.493  22.196  34.641  1.00  0.00    -0.744 OA
ENDBRANCH  84  87
ENDBRANCH  57  80
ENDBRANCH  31  32
ENDBRANCH  23  26
ENDBRANCH  21  22
ENDBRANCH   1  21
TORSDOF 16
ENDMDL
