MODEL 1
REMARK VINA RESULT:     -11.2      0.000      0.000
REMARK SMILES CC(C)C[C@H](NC(=O)CNC(=O)[C@@H]([NH3+])C(C)C)C(=O)NCCCNC(=O)c1ccc(-c2c3nc(c(-c4cccc(S(=O)(=O)[O-])c4F)c4ccc([nH]4)c(-c4cccc(S(=O)(=O)[O-])c4F)c4nc(c(-c5cccc(S(=O)(=O)[O-])c5F)c5ccc2[nH]5)C=C4)C=C3)cc1
REMARK SMILES IDX 21 1 20 2 18 3 19 4 5 6 4 7 2 8 1 9 3 10 6 11 7 12 8 14 9 15
REMARK SMILES IDX 10 16 11 17 12 19 13 20 14 21 15 25 16 26 17 27 22 28 23 29
REMARK SMILES IDX 24 30 25 31 26 33 27 34 28 35 89 36 29 37 88 38 30 39 31 40
REMARK SMILES IDX 32 41 82 42 33 43 87 44 81 45 83 46 34 47 86 48 80 49 79 50
REMARK SMILES IDX 35 52 67 53 47 54 66 55 48 56 51 57 65 58 84 59 49 60 50 61
REMARK SMILES IDX 64 63 85 64 52 65 36 66 37 67 45 68 38 69 40 70 46 71 39 72
REMARK SMILES IDX 41 73 42 74 43 75 44 76 68 77 69 78 77 79 70 80 72 81 78 82
REMARK SMILES IDX 71 83 73 84 74 85 75 86 76 87 53 88 54 89 62 90 55 91 57 92
REMARK SMILES IDX 63 93 56 94 58 95 59 96 60 97 61 98
REMARK H PARENT 20 5 6 13 10 18 14 22 14 23 14 24 24 32 83 51 51 62
REMARK Flexibility Score: inf
ROOT
ATOM      1  C   UNL A   1      34.950  22.989  24.709  1.00  0.00     0.117 C 
ENDROOT
BRANCH   1   2
ATOM      2  N   UNL A   1      33.795  22.790  23.848  1.00  0.00    -0.354 N 
ATOM      3  C   UNL A   1      32.665  22.058  24.049  1.00  0.00     0.242 C 
ATOM      4  O   UNL A   1      31.771  22.127  23.204  1.00  0.00    -0.273 OA
ATOM      5  H   UNL A   1      33.836  23.260  22.984  1.00  0.00     0.163 HD
BRANCH   3   6
ATOM      6  C   UNL A   1      32.468  21.291  25.364  1.00  0.00     0.171 C 
BRANCH   6   7
ATOM      7  C   UNL A   1      32.384  19.776  25.080  1.00  0.00     0.038 C 
BRANCH   7   8
ATOM      8  C   UNL A   1      33.277  19.187  23.967  1.00  0.00    -0.015 C 
ATOM      9  C   UNL A   1      34.416  18.319  24.501  1.00  0.00     0.007 C 
ATOM     10  C   UNL A   1      32.401  18.347  23.030  1.00  0.00     0.007 C 
ENDBRANCH   7   8
ENDBRANCH   6   7
BRANCH   6  11
ATOM     11  N   UNL A   1      31.285  21.817  26.060  1.00  0.00    -0.343 N 
ATOM     12  C   UNL A   1      31.060  22.968  26.746  1.00  0.00     0.240 C 
ATOM     13  H   UNL A   1      30.505  21.219  26.023  1.00  0.00     0.164 HD
ATOM     14  O   UNL A   1      29.931  23.127  27.217  1.00  0.00    -0.273 OA
BRANCH  12  15
ATOM     15  C   UNL A   1      32.122  24.057  26.905  1.00  0.00     0.216 C 
BRANCH  15  16
ATOM     16  N   UNL A   1      31.590  25.401  26.754  1.00  0.00    -0.342 N 
ATOM     17  C   UNL A   1      31.212  26.083  25.637  1.00  0.00     0.278 C 
ATOM     18  H   UNL A   1      31.485  25.899  27.596  1.00  0.00     0.164 HD
ATOM     19  O   UNL A   1      30.831  27.250  25.784  1.00  0.00    -0.268 OA
BRANCH  17  20
ATOM     20  C   UNL A   1      31.230  25.450  24.223  1.00  0.00     0.273 C 
BRANCH  20  21
ATOM     21  N   UNL A   1      29.868  25.160  23.740  1.00  0.00    -0.347 N 
ATOM     22  H   UNL A   1      29.264  25.963  23.922  1.00  0.00     0.345 HD
ATOM     23  H   UNL A   1      29.501  24.342  24.229  1.00  0.00     0.345 HD
ATOM     24  H   UNL A   1      29.894  24.974  22.738  1.00  0.00     0.345 HD
ENDBRANCH  20  21
BRANCH  20  25
ATOM     25  C   UNL A   1      32.047  26.315  23.245  1.00  0.00     0.051 C 
ATOM     26  C   UNL A   1      33.498  26.413  23.737  1.00  0.00     0.014 C 
ATOM     27  C   UNL A   1      32.043  25.743  21.823  1.00  0.00     0.014 C 
ENDBRANCH  20  25
ENDBRANCH  17  20
ENDBRANCH  15  16
ENDBRANCH  12  15
ENDBRANCH   6  11
ENDBRANCH   3   6
ENDBRANCH   1   2
BRANCH   1  28
ATOM     28  C   UNL A   1      35.967  21.882  24.524  1.00  0.00     0.042 C 
BRANCH  28  29
ATOM     29  C   UNL A   1      37.380  22.334  24.843  1.00  0.00     0.118 C 
BRANCH  29  30
ATOM     30  N   UNL A   1      38.199  21.253  25.383  1.00  0.00    -0.352 N 
ATOM     31  C   UNL A   1      39.342  21.336  26.147  1.00  0.00     0.251 C 
ATOM     32  H   UNL A   1      37.894  20.341  25.171  1.00  0.00     0.163 HD
ATOM     33  O   UNL A   1      40.039  20.353  26.338  1.00  0.00    -0.269 OA
BRANCH  31  34
ATOM     34  C   UNL A   1      39.707  22.651  26.708  1.00  0.00     0.039 A 
ATOM     35  C   UNL A   1      40.722  22.732  27.662  1.00  0.00     0.014 A 
ATOM     36  C   UNL A   1      39.098  23.803  26.208  1.00  0.00     0.014 A 
ATOM     37  C   UNL A   1      41.187  23.989  28.051  1.00  0.00     0.010 A 
ATOM     38  C   UNL A   1      39.640  25.042  26.509  1.00  0.00     0.010 A 
ATOM     39  C   UNL A   1      40.684  25.150  27.440  1.00  0.00    -0.014 A 
BRANCH  39  40
ATOM     40  C   UNL A   1      41.227  26.495  27.746  1.00  0.00     0.031 A 
ATOM     41  C   UNL A   1      42.651  26.821  27.386  1.00  0.00     0.074 A 
ATOM     42  C   UNL A   1      40.484  27.373  28.448  1.00  0.00     0.049 A 
ATOM     43  N   UNL A   1      43.346  27.893  27.661  1.00  0.00    -0.248 NA
ATOM     44  C   UNL A   1      43.409  25.788  26.656  1.00  0.00     0.031 C 
ATOM     45  C   UNL A   1      39.123  27.136  28.936  1.00  0.00     0.029 A 
ATOM     46  N   UNL A   1      40.781  28.634  28.903  1.00  0.00    -0.354 N 
ATOM     47  C   UNL A   1      44.627  27.647  27.182  1.00  0.00     0.074 A 
ATOM     48  C   UNL A   1      44.627  26.307  26.638  1.00  0.00     0.031 C 
ATOM     49  C   UNL A   1      38.702  28.216  29.613  1.00  0.00     0.029 A 
ATOM     50  C   UNL A   1      39.771  29.208  29.639  1.00  0.00     0.049 A 
ATOM     51  H   UNL A   1      41.637  29.083  28.720  1.00  0.00     0.167 HD
ATOM     52  C   UNL A   1      45.698  28.473  27.161  1.00  0.00     0.034 A 
ATOM     53  C   UNL A   1      39.718  30.396  30.270  1.00  0.00     0.034 A 
ATOM     54  C   UNL A   1      45.673  29.825  27.648  1.00  0.00     0.049 A 
ATOM     55  C   UNL A   1      40.905  31.317  30.190  1.00  0.00     0.074 A 
ATOM     56  C   UNL A   1      46.668  30.782  27.577  1.00  0.00     0.029 A 
ATOM     57  N   UNL A   1      44.599  30.409  28.302  1.00  0.00    -0.354 N 
ATOM     58  N   UNL A   1      42.051  31.132  29.580  1.00  0.00    -0.248 NA
ATOM     59  C   UNL A   1      40.782  32.622  30.855  1.00  0.00     0.031 C 
ATOM     60  C   UNL A   1      46.203  31.940  28.208  1.00  0.00     0.029 A 
ATOM     61  C   UNL A   1      44.910  31.710  28.651  1.00  0.00     0.049 A 
ATOM     62  H   UNL A   1      43.742  29.962  28.490  1.00  0.00     0.167 HD
ATOM     63  C   UNL A   1      42.773  32.306  29.762  1.00  0.00     0.074 A 
ATOM     64  C   UNL A   1      41.924  33.204  30.517  1.00  0.00     0.031 C 
ATOM     65  C   UNL A   1      44.032  32.607  29.358  1.00  0.00     0.034 A 
BRANCH  52  66
ATOM     66  C   UNL A   1      46.966  27.958  26.535  1.00  0.00     0.023 A 
ATOM     67  C   UNL A   1      47.945  27.350  27.348  1.00  0.00     0.012 A 
ATOM     68  C   UNL A   1      47.171  28.031  25.144  1.00  0.00     0.148 A 
ATOM     69  C   UNL A   1      49.124  26.855  26.792  1.00  0.00     0.002 A 
ATOM     70  C   UNL A   1      48.329  27.494  24.591  1.00  0.00     0.091 A 
ATOM     71  F   UNL A   1      46.241  28.635  24.390  1.00  0.00    -0.205 F 
ATOM     72  C   UNL A   1      49.310  26.917  25.415  1.00  0.00     0.022 A 
BRANCH  70  73
ATOM     73  S   UNL A   1      48.628  27.454  22.821  1.00  0.00     0.127 S 
ATOM     74  O   UNL A   1      47.430  28.115  22.305  1.00  0.00    -0.237 OA
ATOM     75  O   UNL A   1      49.857  28.239  22.699  1.00  0.00    -0.237 OA
ATOM     76  O   UNL A   1      48.768  26.049  22.469  1.00  0.00    -0.744 OA
ENDBRANCH  70  73
ENDBRANCH  52  66
BRANCH  53  77
ATOM     77  C   UNL A   1      38.474  30.812  30.978  1.00  0.00     0.023 A 
ATOM     78  C   UNL A   1      38.319  30.499  32.343  1.00  0.00     0.012 A 
ATOM     79  C   UNL A   1      37.459  31.536  30.322  1.00  0.00     0.148 A 
ATOM     80  C   UNL A   1      37.165  30.869  33.033  1.00  0.00     0.002 A 
ATOM     81  C   UNL A   1      36.335  31.948  31.028  1.00  0.00     0.091 A 
ATOM     82  F   UNL A   1      37.619  31.815  29.020  1.00  0.00    -0.205 F 
ATOM     83  C   UNL A   1      36.179  31.602  32.379  1.00  0.00     0.022 A 
BRANCH  81  84
ATOM     84  S   UNL A   1      35.075  33.003  30.304  1.00  0.00     0.127 S 
ATOM     85  O   UNL A   1      34.393  32.080  29.402  1.00  0.00    -0.237 OA
ATOM     86  O   UNL A   1      34.301  33.400  31.481  1.00  0.00    -0.237 OA
ATOM     87  O   UNL A   1      35.799  34.095  29.666  1.00  0.00    -0.744 OA
ENDBRANCH  81  84
ENDBRANCH  53  77
BRANCH  65  88
ATOM     88  C   UNL A   1      44.566  33.973  29.699  1.00  0.00     0.023 A 
ATOM     89  C   UNL A   1      45.272  34.166  30.903  1.00  0.00     0.012 A 
ATOM     90  C   UNL A   1      44.441  35.041  28.790  1.00  0.00     0.148 A 
ATOM     91  C   UNL A   1      45.819  35.410  31.210  1.00  0.00     0.002 A 
ATOM     92  C   UNL A   1      45.031  36.266  29.079  1.00  0.00     0.091 A 
ATOM     93  F   UNL A   1      43.750  34.841  27.658  1.00  0.00    -0.205 F 
ATOM     94  C   UNL A   1      45.710  36.454  30.294  1.00  0.00     0.022 A 
BRANCH  92  95
ATOM     95  S   UNL A   1      45.026  37.636  27.919  1.00  0.00     0.127 S 
ATOM     96  O   UNL A   1      43.601  37.953  27.838  1.00  0.00    -0.237 OA
ATOM     97  O   UNL A   1      45.834  38.636  28.618  1.00  0.00    -0.237 OA
ATOM     98  O   UNL A   1      45.623  37.127  26.692  1.00  0.00    -0.744 OA
ENDBRANCH  92  95
ENDBRANCH  65  88
ENDBRANCH  39  40
ENDBRANCH  31  34
ENDBRANCH  29  30
ENDBRANCH  28  29
ENDBRANCH   1  28
TORSDOF 21
ENDMDL
MODEL 2
REMARK VINA RESULT:     -11.1      5.074      7.841
REMARK SMILES CC(C)C[C@H](NC(=O)CNC(=O)[C@@H]([NH3+])C(C)C)C(=O)NCCCNC(=O)c1ccc(-c2c3nc(c(-c4cccc(S(=O)(=O)[O-])c4F)c4ccc([nH]4)c(-c4cccc(S(=O)(=O)[O-])c4F)c4nc(c(-c5cccc(S(=O)(=O)[O-])c5F)c5ccc2[nH]5)C=C4)C=C3)cc1
REMARK SMILES IDX 21 1 20 2 18 3 19 4 5 6 4 7 2 8 1 9 3 10 6 11 7 12 8 14 9 15
REMARK SMILES IDX 10 16 11 17 12 19 13 20 14 21 15 25 16 26 17 27 22 28 23 29
REMARK SMILES IDX 24 30 25 31 26 33 27 34 28 35 89 36 29 37 88 38 30 39 31 40
REMARK SMILES IDX 32 41 82 42 33 43 87 44 81 45 83 46 34 47 86 48 80 49 79 50
REMARK SMILES IDX 35 52 67 53 47 54 66 55 48 56 51 57 65 58 84 59 49 60 50 61
REMARK SMILES IDX 64 63 85 64 52 65 36 66 37 67 45 68 38 69 40 70 46 71 39 72
REMARK SMILES IDX 41 73 42 74 43 75 44 76 68 77 69 78 77 79 70 80 72 81 78 82
REMARK SMILES IDX 71 83 73 84 74 85 75 86 76 87 53 88 54 89 62 90 55 91 57 92
REMARK SMILES IDX 63 93 56 94 58 95 59 96 60 97 61 98
REMARK H PARENT 20 5 6 13 10 18 14 22 14 23 14 24 24 32 83 51 51 62
REMARK Flexibility Score: inf
ROOT
ATOM      1  C   UNL A   1      32.336  27.349  26.808  1.00  0.00     0.117 C 
ENDROOT
BRANCH   1   2
ATOM      2  N   UNL A   1      31.318  26.317  26.924  1.00  0.00    -0.354 N 
ATOM      3  C   UNL A   1      30.641  25.639  25.957  1.00  0.00     0.242 C 
ATOM      4  O   UNL A   1      29.890  24.726  26.306  1.00  0.00    -0.273 OA
ATOM      5  H   UNL A   1      31.083  26.069  27.847  1.00  0.00     0.163 HD
BRANCH   3   6
ATOM      6  C   UNL A   1      30.927  25.919  24.476  1.00  0.00     0.171 C 
BRANCH   6   7
ATOM      7  C   UNL A   1      29.751  26.699  23.852  1.00  0.00     0.038 C 
BRANCH   7   8
ATOM      8  C   UNL A   1      30.069  27.860  22.886  1.00  0.00    -0.015 C 
ATOM      9  C   UNL A   1      29.637  29.226  23.419  1.00  0.00     0.007 C 
ATOM     10  C   UNL A   1      31.579  27.877  22.622  1.00  0.00     0.007 C 
ENDBRANCH   7   8
ENDBRANCH   6   7
BRANCH   6  11
ATOM     11  N   UNL A   1      31.213  24.651  23.789  1.00  0.00    -0.343 N 
ATOM     12  C   UNL A   1      32.341  23.902  23.676  1.00  0.00     0.240 C 
ATOM     13  H   UNL A   1      30.436  24.272  23.318  1.00  0.00     0.164 HD
ATOM     14  O   UNL A   1      32.254  22.857  23.024  1.00  0.00    -0.273 OA
BRANCH  12  15
ATOM     15  C   UNL A   1      33.658  24.283  24.352  1.00  0.00     0.216 C 
BRANCH  15  16
ATOM     16  N   UNL A   1      33.736  23.848  25.737  1.00  0.00    -0.342 N 
ATOM     17  C   UNL A   1      34.719  23.179  26.400  1.00  0.00     0.278 C 
ATOM     18  H   UNL A   1      32.950  24.075  26.284  1.00  0.00     0.164 HD
ATOM     19  O   UNL A   1      34.509  22.885  27.583  1.00  0.00    -0.268 OA
BRANCH  17  20
ATOM     20  C   UNL A   1      36.066  22.797  25.738  1.00  0.00     0.273 C 
BRANCH  20  21
ATOM     21  N   UNL A   1      37.205  23.446  26.410  1.00  0.00    -0.347 N 
ATOM     22  H   UNL A   1      37.994  22.799  26.445  1.00  0.00     0.345 HD
ATOM     23  H   UNL A   1      36.936  23.706  27.360  1.00  0.00     0.345 HD
ATOM     24  H   UNL A   1      37.475  24.282  25.892  1.00  0.00     0.345 HD
ENDBRANCH  20  21
BRANCH  20  25
ATOM     25  C   UNL A   1      36.214  21.267  25.638  1.00  0.00     0.051 C 
ATOM     26  C   UNL A   1      34.971  20.675  24.958  1.00  0.00     0.014 C 
ATOM     27  C   UNL A   1      37.458  20.856  24.842  1.00  0.00     0.014 C 
ENDBRANCH  20  25
ENDBRANCH  17  20
ENDBRANCH  15  16
ENDBRANCH  12  15
ENDBRANCH   6  11
ENDBRANCH   3   6
ENDBRANCH   1   2
BRANCH   1  28
ATOM     28  C   UNL A   1      31.719  28.690  26.469  1.00  0.00     0.042 C 
BRANCH  28  29
ATOM     29  C   UNL A   1      32.747  29.695  25.982  1.00  0.00     0.118 C 
BRANCH  29  30
ATOM     30  N   UNL A   1      32.397  31.065  26.344  1.00  0.00    -0.352 N 
ATOM     31  C   UNL A   1      33.048  31.921  27.204  1.00  0.00     0.251 C 
ATOM     32  H   UNL A   1      31.586  31.424  25.918  1.00  0.00     0.163 HD
ATOM     33  O   UNL A   1      32.517  32.956  27.576  1.00  0.00    -0.269 OA
BRANCH  31  34
ATOM     34  C   UNL A   1      34.394  31.542  27.675  1.00  0.00     0.039 A 
ATOM     35  C   UNL A   1      35.372  32.525  27.821  1.00  0.00     0.014 A 
ATOM     36  C   UNL A   1      34.639  30.223  28.058  1.00  0.00     0.014 A 
ATOM     37  C   UNL A   1      36.579  32.194  28.439  1.00  0.00     0.010 A 
ATOM     38  C   UNL A   1      35.789  29.926  28.773  1.00  0.00     0.010 A 
ATOM     39  C   UNL A   1      36.775  30.905  28.964  1.00  0.00    -0.014 A 
BRANCH  39  40
ATOM     40  C   UNL A   1      37.997  30.545  29.722  1.00  0.00     0.031 A 
ATOM     41  C   UNL A   1      38.974  29.563  29.134  1.00  0.00     0.074 A 
ATOM     42  C   UNL A   1      38.165  31.004  30.977  1.00  0.00     0.049 A 
ATOM     43  N   UNL A   1      40.040  29.038  29.675  1.00  0.00    -0.248 NA
ATOM     44  C   UNL A   1      38.693  29.075  27.771  1.00  0.00     0.031 C 
ATOM     45  C   UNL A   1      37.238  31.886  31.692  1.00  0.00     0.029 A 
ATOM     46  N   UNL A   1      39.161  30.766  31.891  1.00  0.00    -0.354 N 
ATOM     47  C   UNL A   1      40.529  28.129  28.744  1.00  0.00     0.074 A 
ATOM     48  C   UNL A   1      39.619  28.141  27.620  1.00  0.00     0.031 C 
ATOM     49  C   UNL A   1      37.713  32.120  32.925  1.00  0.00     0.029 A 
ATOM     50  C   UNL A   1      38.957  31.380  33.104  1.00  0.00     0.049 A 
ATOM     51  H   UNL A   1      39.948  30.208  31.695  1.00  0.00     0.167 HD
ATOM     52  C   UNL A   1      41.654  27.379  28.800  1.00  0.00     0.034 A 
ATOM     53  C   UNL A   1      39.687  31.343  34.236  1.00  0.00     0.034 A 
ATOM     54  C   UNL A   1      42.585  27.418  29.893  1.00  0.00     0.049 A 
ATOM     55  C   UNL A   1      40.959  30.540  34.255  1.00  0.00     0.074 A 
ATOM     56  C   UNL A   1      43.807  26.782  30.003  1.00  0.00     0.029 A 
ATOM     57  N   UNL A   1      42.395  28.128  31.068  1.00  0.00    -0.354 N 
ATOM     58  N   UNL A   1      41.495  29.821  33.298  1.00  0.00    -0.248 NA
ATOM     59  C   UNL A   1      41.745  30.568  35.497  1.00  0.00     0.031 C 
ATOM     60  C   UNL A   1      44.348  27.091  31.255  1.00  0.00     0.029 A 
ATOM     61  C   UNL A   1      43.471  27.937  31.915  1.00  0.00     0.049 A 
ATOM     62  H   UNL A   1      41.609  28.686  31.269  1.00  0.00     0.167 HD
ATOM     63  C   UNL A   1      42.692  29.337  33.810  1.00  0.00     0.074 A 
ATOM     64  C   UNL A   1      42.815  29.865  35.153  1.00  0.00     0.031 C 
ATOM     65  C   UNL A   1      43.600  28.513  33.229  1.00  0.00     0.034 A 
BRANCH  52  66
ATOM     66  C   UNL A   1      41.968  26.502  27.618  1.00  0.00     0.023 A 
ATOM     67  C   UNL A   1      42.663  27.044  26.516  1.00  0.00     0.012 A 
ATOM     68  C   UNL A   1      41.621  25.138  27.612  1.00  0.00     0.148 A 
ATOM     69  C   UNL A   1      42.976  26.251  25.413  1.00  0.00     0.002 A 
ATOM     70  C   UNL A   1      41.977  24.343  26.529  1.00  0.00     0.091 A 
ATOM     71  F   UNL A   1      40.939  24.647  28.657  1.00  0.00    -0.205 F 
ATOM     72  C   UNL A   1      42.643  24.901  25.424  1.00  0.00     0.022 A 
BRANCH  70  73
ATOM     73  S   UNL A   1      41.664  22.575  26.480  1.00  0.00     0.127 S 
ATOM     74  O   UNL A   1      42.287  22.131  27.726  1.00  0.00    -0.237 OA
ATOM     75  O   UNL A   1      40.201  22.522  26.479  1.00  0.00    -0.237 OA
ATOM     76  O   UNL A   1      42.290  22.089  25.259  1.00  0.00    -0.744 OA
ENDBRANCH  70  73
ENDBRANCH  52  66
BRANCH  53  77
ATOM     77  C   UNL A   1      39.267  32.141  35.423  1.00  0.00     0.023 A 
ATOM     78  C   UNL A   1      38.372  31.577  36.352  1.00  0.00     0.012 A 
ATOM     79  C   UNL A   1      39.767  33.437  35.653  1.00  0.00     0.148 A 
ATOM     80  C   UNL A   1      37.955  32.298  37.470  1.00  0.00     0.002 A 
ATOM     81  C   UNL A   1      39.390  34.132  36.797  1.00  0.00     0.091 A 
ATOM     82  F   UNL A   1      40.610  33.962  34.752  1.00  0.00    -0.205 F 
ATOM     83  C   UNL A   1      38.472  33.571  37.699  1.00  0.00     0.022 A 
BRANCH  81  84
ATOM     84  S   UNL A   1      40.101  35.721  37.239  1.00  0.00     0.127 S 
ATOM     85  O   UNL A   1      39.641  36.569  36.144  1.00  0.00    -0.237 OA
ATOM     86  O   UNL A   1      39.469  35.985  38.532  1.00  0.00    -0.237 OA
ATOM     87  O   UNL A   1      41.540  35.499  37.308  1.00  0.00    -0.744 OA
ENDBRANCH  81  84
ENDBRANCH  53  77
BRANCH  65  88
ATOM     88  C   UNL A   1      44.823  28.148  34.029  1.00  0.00     0.023 A 
ATOM     89  C   UNL A   1      45.958  28.981  33.986  1.00  0.00     0.012 A 
ATOM     90  C   UNL A   1      44.815  27.029  34.883  1.00  0.00     0.148 A 
ATOM     91  C   UNL A   1      47.079  28.688  34.760  1.00  0.00     0.002 A 
ATOM     92  C   UNL A   1      45.917  26.771  35.689  1.00  0.00     0.091 A 
ATOM     93  F   UNL A   1      43.731  26.240  34.895  1.00  0.00    -0.205 F 
ATOM     94  C   UNL A   1      47.054  27.592  35.619  1.00  0.00     0.022 A 
BRANCH  92  95
ATOM     95  S   UNL A   1      45.937  25.441  36.896  1.00  0.00     0.127 S 
ATOM     96  O   UNL A   1      44.756  25.752  37.701  1.00  0.00    -0.237 OA
ATOM     97  O   UNL A   1      45.803  24.254  36.051  1.00  0.00    -0.237 OA
ATOM     98  O   UNL A   1      47.212  25.547  37.591  1.00  0.00    -0.744 OA
ENDBRANCH  92  95
ENDBRANCH  65  88
ENDBRANCH  39  40
ENDBRANCH  31  34
ENDBRANCH  29  30
ENDBRANCH  28  29
ENDBRANCH   1  28
TORSDOF 21
ENDMDL
MODEL 3
REMARK VINA RESULT:     -11.0      1.399      7.733
REMARK SMILES CC(C)C[C@H](NC(=O)CNC(=O)[C@@H]([NH3+])C(C)C)C(=O)NCCCNC(=O)c1ccc(-c2c3nc(c(-c4cccc(S(=O)(=O)[O-])c4F)c4ccc([nH]4)c(-c4cccc(S(=O)(=O)[O-])c4F)c4nc(c(-c5cccc(S(=O)(=O)[O-])c5F)c5ccc2[nH]5)C=C4)C=C3)cc1
REMARK SMILES IDX 21 1 20 2 18 3 19 4 5 6 4 7 2 8 1 9 3 10 6 11 7 12 8 14 9 15
REMARK SMILES IDX 10 16 11 17 12 19 13 20 14 21 15 25 16 26 17 27 22 28 23 29
REMARK SMILES IDX 24 30 25 31 26 33 27 34 28 35 89 36 29 37 88 38 30 39 31 40
REMARK SMILES IDX 32 41 82 42 33 43 87 44 81 45 83 46 34 47 86 48 80 49 79 50
REMARK SMILES IDX 35 52 67 53 47 54 66 55 48 56 51 57 65 58 84 59 49 60 50 61
REMARK SMILES IDX 64 63 85 64 52 65 36 66 37 67 45 68 38 69 40 70 46 71 39 72
REMARK SMILES IDX 41 73 42 74 43 75 44 76 68 77 69 78 77 79 70 80 72 81 78 82
REMARK SMILES IDX 71 83 73 84 74 85 75 86 76 87 53 88 54 89 62 90 55 91 57 92
REMARK SMILES IDX 63 93 56 94 58 95 59 96 60 97 61 98
REMARK H PARENT 20 5 6 13 10 18 14 22 14 23 14 24 24 32 83 51 51 62
REMARK Flexibility Score: inf
ROOT
ATOM      1  C   UNL A   1      35.518  23.339  24.168  1.00  0.00     0.117 C 
ENDROOT
BRANCH   1   2
ATOM      2  N   UNL A   1      34.908  23.456  22.852  1.00  0.00    -0.354 N 
ATOM      3  C   UNL A   1      33.639  23.177  22.445  1.00  0.00     0.242 C 
ATOM      4  O   UNL A   1      33.327  23.457  21.286  1.00  0.00    -0.273 OA
ATOM      5  H   UNL A   1      35.506  23.790  22.146  1.00  0.00     0.163 HD
BRANCH   3   6
ATOM      6  C   UNL A   1      32.601  22.667  23.453  1.00  0.00     0.171 C 
BRANCH   6   7
ATOM      7  C   UNL A   1      32.518  21.127  23.386  1.00  0.00     0.038 C 
BRANCH   7   8
ATOM      8  C   UNL A   1      32.749  20.322  24.682  1.00  0.00    -0.015 C 
ATOM      9  C   UNL A   1      33.996  19.441  24.633  1.00  0.00     0.007 C 
ATOM     10  C   UNL A   1      32.872  21.303  25.854  1.00  0.00     0.007 C 
ENDBRANCH   7   8
ENDBRANCH   6   7
BRANCH   6  11
ATOM     11  N   UNL A   1      31.313  23.329  23.202  1.00  0.00    -0.343 N 
ATOM     12  C   UNL A   1      30.874  24.597  23.421  1.00  0.00     0.240 C 
ATOM     13  H   UNL A   1      30.637  22.740  22.797  1.00  0.00     0.164 HD
ATOM     14  O   UNL A   1      29.716  24.853  23.084  1.00  0.00    -0.273 OA
BRANCH  12  15
ATOM     15  C   UNL A   1      31.766  25.689  24.013  1.00  0.00     0.216 C 
BRANCH  15  16
ATOM     16  N   UNL A   1      31.118  26.989  24.066  1.00  0.00    -0.342 N 
ATOM     17  C   UNL A   1      31.570  28.185  24.534  1.00  0.00     0.278 C 
ATOM     18  H   UNL A   1      30.202  27.007  23.705  1.00  0.00     0.164 HD
ATOM     19  O   UNL A   1      30.786  29.141  24.506  1.00  0.00    -0.268 OA
BRANCH  17  20
ATOM     20  C   UNL A   1      33.008  28.384  25.074  1.00  0.00     0.273 C 
BRANCH  20  21
ATOM     21  N   UNL A   1      33.513  29.739  24.790  1.00  0.00    -0.347 N 
ATOM     22  H   UNL A   1      33.662  29.843  23.786  1.00  0.00     0.345 HD
ATOM     23  H   UNL A   1      34.396  29.883  25.281  1.00  0.00     0.345 HD
ATOM     24  H   UNL A   1      32.832  30.429  25.105  1.00  0.00     0.345 HD
ENDBRANCH  20  21
BRANCH  20  25
ATOM     25  C   UNL A   1      33.091  28.007  26.565  1.00  0.00     0.051 C 
ATOM     26  C   UNL A   1      34.165  28.862  27.251  1.00  0.00     0.014 C 
ATOM     27  C   UNL A   1      31.756  28.212  27.289  1.00  0.00     0.014 C 
ENDBRANCH  20  25
ENDBRANCH  17  20
ENDBRANCH  15  16
ENDBRANCH  12  15
ENDBRANCH   6  11
ENDBRANCH   3   6
ENDBRANCH   1   2
BRANCH   1  28
ATOM     28  C   UNL A   1      36.458  22.154  24.231  1.00  0.00     0.042 C 
BRANCH  28  29
ATOM     29  C   UNL A   1      36.819  21.775  25.656  1.00  0.00     0.118 C 
BRANCH  29  30
ATOM     30  N   UNL A   1      37.813  20.708  25.711  1.00  0.00    -0.352 N 
ATOM     31  C   UNL A   1      39.148  20.789  26.035  1.00  0.00     0.251 C 
ATOM     32  H   UNL A   1      37.483  19.808  25.484  1.00  0.00     0.163 HD
ATOM     33  O   UNL A   1      39.901  19.852  25.824  1.00  0.00    -0.269 OA
BRANCH  31  34
ATOM     34  C   UNL A   1      39.644  22.047  26.625  1.00  0.00     0.039 A 
ATOM     35  C   UNL A   1      40.638  22.003  27.602  1.00  0.00     0.014 A 
ATOM     36  C   UNL A   1      39.179  23.266  26.129  1.00  0.00     0.014 A 
ATOM     37  C   UNL A   1      41.231  23.195  28.021  1.00  0.00     0.010 A 
ATOM     38  C   UNL A   1      39.848  24.434  26.461  1.00  0.00     0.010 A 
ATOM     39  C   UNL A   1      40.875  24.412  27.417  1.00  0.00    -0.014 A 
BRANCH  39  40
ATOM     40  C   UNL A   1      41.557  25.684  27.756  1.00  0.00     0.031 A 
ATOM     41  C   UNL A   1      40.809  26.752  28.507  1.00  0.00     0.074 A 
ATOM     42  C   UNL A   1      42.798  25.923  27.288  1.00  0.00     0.049 A 
ATOM     43  N   UNL A   1      41.185  27.967  28.805  1.00  0.00    -0.248 NA
ATOM     44  C   UNL A   1      39.439  26.425  28.945  1.00  0.00     0.031 C 
ATOM     45  C   UNL A   1      43.589  25.003  26.467  1.00  0.00     0.029 A 
ATOM     46  N   UNL A   1      43.601  27.030  27.408  1.00  0.00    -0.354 N 
ATOM     47  C   UNL A   1      40.090  28.562  29.421  1.00  0.00     0.074 A 
ATOM     48  C   UNL A   1      39.019  27.590  29.416  1.00  0.00     0.031 C 
ATOM     49  C   UNL A   1      44.764  25.578  26.167  1.00  0.00     0.029 A 
ATOM     50  C   UNL A   1      44.798  26.918  26.740  1.00  0.00     0.049 A 
ATOM     51  H   UNL A   1      43.344  27.827  27.924  1.00  0.00     0.167 HD
ATOM     52  C   UNL A   1      39.994  29.792  29.976  1.00  0.00     0.034 A 
ATOM     53  C   UNL A   1      45.805  27.802  26.600  1.00  0.00     0.034 A 
ATOM     54  C   UNL A   1      41.081  30.729  30.032  1.00  0.00     0.049 A 
ATOM     55  C   UNL A   1      45.693  29.146  27.269  1.00  0.00     0.074 A 
ATOM     56  C   UNL A   1      41.124  31.957  30.664  1.00  0.00     0.029 A 
ATOM     57  N   UNL A   1      42.315  30.544  29.428  1.00  0.00    -0.354 N 
ATOM     58  N   UNL A   1      44.713  29.625  27.996  1.00  0.00    -0.248 NA
ATOM     59  C   UNL A   1      46.837  30.057  27.126  1.00  0.00     0.031 C 
ATOM     60  C   UNL A   1      42.379  32.526  30.425  1.00  0.00     0.029 A 
ATOM     61  C   UNL A   1      43.124  31.641  29.662  1.00  0.00     0.049 A 
ATOM     62  H   UNL A   1      42.576  29.750  28.909  1.00  0.00     0.167 HD
ATOM     63  C   UNL A   1      45.133  30.879  28.422  1.00  0.00     0.074 A 
ATOM     64  C   UNL A   1      46.467  31.074  27.892  1.00  0.00     0.031 C 
ATOM     65  C   UNL A   1      44.468  31.796  29.169  1.00  0.00     0.034 A 
BRANCH  52  66
ATOM     66  C   UNL A   1      38.687  30.166  30.622  1.00  0.00     0.023 A 
ATOM     67  C   UNL A   1      38.399  29.708  31.924  1.00  0.00     0.012 A 
ATOM     68  C   UNL A   1      37.766  31.006  29.966  1.00  0.00     0.148 A 
ATOM     69  C   UNL A   1      37.201  30.049  32.550  1.00  0.00     0.002 A 
ATOM     70  C   UNL A   1      36.594  31.378  30.613  1.00  0.00     0.091 A 
ATOM     71  F   UNL A   1      38.046  31.411  28.718  1.00  0.00    -0.205 F 
ATOM     72  C   UNL A   1      36.305  30.892  31.900  1.00  0.00     0.022 A 
BRANCH  70  73
ATOM     73  S   UNL A   1      35.412  32.522  29.893  1.00  0.00     0.127 S 
ATOM     74  O   UNL A   1      34.395  32.594  30.942  1.00  0.00    -0.237 OA
ATOM     75  O   UNL A   1      36.214  33.737  29.739  1.00  0.00    -0.237 OA
ATOM     76  O   UNL A   1      34.979  31.919  28.642  1.00  0.00    -0.744 OA
ENDBRANCH  70  73
ENDBRANCH  52  66
BRANCH  53  77
ATOM     77  C   UNL A   1      47.035  27.422  25.848  1.00  0.00     0.023 A 
ATOM     78  C   UNL A   1      48.044  26.687  26.502  1.00  0.00     0.012 A 
ATOM     79  C   UNL A   1      47.200  27.755  24.490  1.00  0.00     0.148 A 
ATOM     80  C   UNL A   1      49.208  26.319  25.829  1.00  0.00     0.002 A 
ATOM     81  C   UNL A   1      48.340  27.339  23.809  1.00  0.00     0.091 A 
ATOM     82  F   UNL A   1      46.235  28.463  23.888  1.00  0.00    -0.205 F 
ATOM     83  C   UNL A   1      49.352  26.636  24.480  1.00  0.00     0.022 A 
BRANCH  81  84
ATOM     84  S   UNL A   1      48.553  27.590  22.044  1.00  0.00     0.127 S 
ATOM     85  O   UNL A   1      49.696  28.498  22.006  1.00  0.00    -0.237 OA
ATOM     86  O   UNL A   1      48.829  26.231  21.577  1.00  0.00    -0.237 OA
ATOM     87  O   UNL A   1      47.289  28.141  21.572  1.00  0.00    -0.744 OA
ENDBRANCH  81  84
ENDBRANCH  53  77
BRANCH  65  88
ATOM     88  C   UNL A   1      45.178  33.087  29.482  1.00  0.00     0.023 A 
ATOM     89  C   UNL A   1      45.989  33.175  30.630  1.00  0.00     0.012 A 
ATOM     90  C   UNL A   1      45.106  34.180  28.597  1.00  0.00     0.148 A 
ATOM     91  C   UNL A   1      46.695  34.344  30.908  1.00  0.00     0.002 A 
ATOM     92  C   UNL A   1      45.851  35.324  28.854  1.00  0.00     0.091 A 
ATOM     93  F   UNL A   1      44.313  34.080  27.520  1.00  0.00    -0.205 F 
ATOM     94  C   UNL A   1      46.636  35.412  30.015  1.00  0.00     0.022 A 
BRANCH  92  95
ATOM     95  S   UNL A   1      45.914  36.709  27.713  1.00  0.00     0.127 S 
ATOM     96  O   UNL A   1      46.447  36.077  26.507  1.00  0.00    -0.237 OA
ATOM     97  O   UNL A   1      44.506  37.101  27.624  1.00  0.00    -0.237 OA
ATOM     98  O   UNL A   1      46.779  37.703  28.332  1.00  0.00    -0.744 OA
ENDBRANCH  92  95
ENDBRANCH  65  88
ENDBRANCH  39  40
ENDBRANCH  31  34
ENDBRANCH  29  30
ENDBRANCH  28  29
ENDBRANCH   1  28
TORSDOF 21
ENDMDL
