MODEL 1
REMARK VINA RESULT:     -12.7      0.000      0.000
REMARK SMILES O=C(Cc1ccn[nH]1)Nc1sc2c(c1C(=O)NCCCNC(=O)c1ccc(-c3c4nc(c(-c5cccc(S(=O)(=O)[O-])c5F)c5ccc([nH]5)c(-c5cccc(S(=O)(=O)[O-])c5F)c5nc(c(-c6cccc(S(=O)(=O)[O-])c6F)c6ccc3[nH]6)C=C5)C=C4)cc1)CCC2
REMARK SMILES IDX 19 1 18 2 17 3 15 4 16 5 14 7 10 8 11 9 12 10 13 11 89 12
REMARK SMILES IDX 87 13 88 14 9 15 1 16 2 17 3 19 4 20 5 21 8 22 6 23 7 24
REMARK SMILES IDX 20 26 21 27 22 28 23 30 24 31 25 32 86 33 26 34 85 35 27 36
REMARK SMILES IDX 28 37 29 38 79 39 30 40 84 41 78 42 80 43 31 44 83 45 77 46
REMARK SMILES IDX 76 47 32 49 64 50 44 51 63 52 45 53 48 54 62 55 81 56 46 57
REMARK SMILES IDX 47 58 61 60 82 61 49 62 33 63 34 64 42 65 35 66 37 67 43 68
REMARK SMILES IDX 36 69 38 70 39 71 40 72 41 73 65 74 66 75 74 76 67 77 69 78
REMARK SMILES IDX 75 79 68 80 70 81 71 82 72 83 73 84 50 85 51 86 59 87 52 88
REMARK SMILES IDX 54 89 60 90 53 91 55 92 56 93 57 94 58 95
REMARK H PARENT 17 6 9 18 8 25 21 29 80 48 48 59
REMARK Flexibility Score: inf
ROOT
ATOM      1  C   UNL A   1      33.360  30.150  27.071  1.00  0.00     0.042 C 
ENDROOT
BRANCH   1   2
ATOM      2  C   UNL A   1      33.606  28.795  26.408  1.00  0.00     0.118 C 
BRANCH   2   3
ATOM      3  N   UNL A   1      34.193  28.907  25.097  1.00  0.00    -0.352 N 
ATOM      4  C   UNL A   1      33.924  28.288  23.905  1.00  0.00     0.254 C 
ATOM      5  O   UNL A   1      34.217  28.982  22.924  1.00  0.00    -0.269 OA
ATOM      6  H   UNL A   1      34.932  29.556  25.049  1.00  0.00     0.163 HD
BRANCH   4   7
ATOM      7  C   UNL A   1      33.259  26.973  23.753  1.00  0.00     0.078 A 
ATOM      8  C   UNL A   1      32.037  26.892  23.064  1.00  0.00     0.108 A 
ATOM      9  S   UNL A   1      31.198  25.415  23.244  1.00  0.00    -0.122 S 
ATOM     10  C   UNL A   1      32.542  24.749  23.964  1.00  0.00     0.011 A 
ATOM     11  C   UNL A   1      33.569  25.632  24.196  1.00  0.00    -0.019 A 
ATOM     12  C   UNL A   1      32.779  23.359  24.419  1.00  0.00     0.047 C 
ATOM     13  C   UNL A   1      34.671  24.892  24.874  1.00  0.00     0.038 C 
ATOM     14  C   UNL A   1      34.295  23.395  24.712  1.00  0.00     0.010 C 
BRANCH   8  15
ATOM     15  N   UNL A   1      31.345  27.770  22.258  1.00  0.00    -0.317 N 
ATOM     16  O   UNL A   1      30.449  29.002  24.005  1.00  0.00    -0.274 OA
ATOM     17  C   UNL A   1      30.500  28.725  22.808  1.00  0.00     0.230 C 
ATOM     18  H   UNL A   1      31.451  27.719  21.280  1.00  0.00     0.170 HD
BRANCH  17  19
ATOM     19  C   UNL A   1      29.756  29.536  21.758  1.00  0.00     0.155 C 
BRANCH  19  20
ATOM     20  C   UNL A   1      29.032  30.708  22.349  1.00  0.00     0.044 A 
ATOM     21  C   UNL A   1      27.893  30.756  23.127  1.00  0.00     0.045 A 
ATOM     22  N   UNL A   1      29.449  32.011  22.242  1.00  0.00    -0.282 N 
ATOM     23  C   UNL A   1      27.661  32.125  23.348  1.00  0.00     0.135 A 
ATOM     24  N   UNL A   1      28.572  32.895  22.752  1.00  0.00    -0.184 NA
ATOM     25  H   UNL A   1      30.304  32.273  21.832  1.00  0.00     0.190 HD
ENDBRANCH  19  20
ENDBRANCH  17  19
ENDBRANCH   8  15
ENDBRANCH   4   7
ENDBRANCH   2   3
ENDBRANCH   1   2
BRANCH   1  26
ATOM     26  C   UNL A   1      34.639  30.842  27.497  1.00  0.00     0.118 C 
BRANCH  26  27
ATOM     27  N   UNL A   1      34.383  31.916  28.455  1.00  0.00    -0.352 N 
ATOM     28  C   UNL A   1      34.980  32.134  29.680  1.00  0.00     0.251 C 
ATOM     29  H   UNL A   1      33.694  32.569  28.192  1.00  0.00     0.163 HD
ATOM     30  O   UNL A   1      34.436  32.848  30.507  1.00  0.00    -0.269 OA
BRANCH  28  31
ATOM     31  C   UNL A   1      36.263  31.470  29.975  1.00  0.00     0.039 A 
ATOM     32  C   UNL A   1      36.274  30.159  30.450  1.00  0.00     0.014 A 
ATOM     33  C   UNL A   1      37.457  32.147  29.730  1.00  0.00     0.014 A 
ATOM     34  C   UNL A   1      37.497  29.510  30.576  1.00  0.00     0.010 A 
ATOM     35  C   UNL A   1      38.647  31.456  29.700  1.00  0.00     0.010 A 
ATOM     36  C   UNL A   1      38.682  30.146  30.152  1.00  0.00    -0.014 A 
BRANCH  36  37
ATOM     37  C   UNL A   1      39.913  29.367  30.039  1.00  0.00     0.031 A 
ATOM     38  C   UNL A   1      40.568  29.117  31.349  1.00  0.00     0.074 A 
ATOM     39  C   UNL A   1      40.398  28.809  28.909  1.00  0.00     0.049 A 
ATOM     40  N   UNL A   1      41.579  29.764  31.823  1.00  0.00    -0.248 NA
ATOM     41  C   UNL A   1      39.924  28.221  32.319  1.00  0.00     0.031 C 
ATOM     42  C   UNL A   1      39.758  28.706  27.595  1.00  0.00     0.029 A 
ATOM     43  N   UNL A   1      41.556  28.109  28.732  1.00  0.00    -0.354 N 
ATOM     44  C   UNL A   1      41.877  29.152  33.033  1.00  0.00     0.074 A 
ATOM     45  C   UNL A   1      40.705  28.397  33.389  1.00  0.00     0.031 C 
ATOM     46  C   UNL A   1      40.412  27.790  26.844  1.00  0.00     0.029 A 
ATOM     47  C   UNL A   1      41.609  27.376  27.550  1.00  0.00     0.049 A 
ATOM     48  H   UNL A   1      42.293  28.122  29.385  1.00  0.00     0.167 HD
ATOM     49  C   UNL A   1      43.168  29.088  33.461  1.00  0.00     0.034 A 
ATOM     50  C   UNL A   1      42.557  26.475  27.188  1.00  0.00     0.034 A 
ATOM     51  C   UNL A   1      44.004  30.013  32.724  1.00  0.00     0.049 A 
ATOM     52  C   UNL A   1      43.781  26.804  27.951  1.00  0.00     0.074 A 
ATOM     53  C   UNL A   1      43.959  31.366  32.444  1.00  0.00     0.029 A 
ATOM     54  N   UNL A   1      44.857  29.470  31.791  1.00  0.00    -0.354 N 
ATOM     55  N   UNL A   1      44.477  27.888  27.753  1.00  0.00    -0.248 NA
ATOM     56  C   UNL A   1      43.993  26.144  29.228  1.00  0.00     0.031 C 
ATOM     57  C   UNL A   1      44.381  31.474  31.085  1.00  0.00     0.029 A 
ATOM     58  C   UNL A   1      44.748  30.203  30.643  1.00  0.00     0.049 A 
ATOM     59  H   UNL A   1      45.443  28.691  31.928  1.00  0.00     0.167 HD
ATOM     60  C   UNL A   1      44.805  28.311  29.033  1.00  0.00     0.074 A 
ATOM     61  C   UNL A   1      44.592  27.141  29.884  1.00  0.00     0.031 C 
ATOM     62  C   UNL A   1      44.926  29.642  29.322  1.00  0.00     0.034 A 
BRANCH  49  63
ATOM     63  C   UNL A   1      43.773  27.912  34.205  1.00  0.00     0.023 A 
ATOM     64  C   UNL A   1      44.144  26.792  33.425  1.00  0.00     0.012 A 
ATOM     65  C   UNL A   1      43.715  27.722  35.605  1.00  0.00     0.148 A 
ATOM     66  C   UNL A   1      44.342  25.531  33.997  1.00  0.00     0.002 A 
ATOM     67  C   UNL A   1      43.991  26.486  36.176  1.00  0.00     0.091 A 
ATOM     68  F   UNL A   1      43.269  28.693  36.401  1.00  0.00    -0.205 F 
ATOM     69  C   UNL A   1      44.264  25.377  35.375  1.00  0.00     0.022 A 
BRANCH  67  70
ATOM     70  S   UNL A   1      43.955  26.240  37.957  1.00  0.00     0.127 S 
ATOM     71  O   UNL A   1      42.520  26.151  38.208  1.00  0.00    -0.237 OA
ATOM     72  O   UNL A   1      44.691  24.984  38.095  1.00  0.00    -0.237 OA
ATOM     73  O   UNL A   1      44.633  27.397  38.530  1.00  0.00    -0.744 OA
ENDBRANCH  67  70
ENDBRANCH  49  63
BRANCH  50  74
ATOM     74  C   UNL A   1      42.457  25.234  26.383  1.00  0.00     0.023 A 
ATOM     75  C   UNL A   1      43.447  24.949  25.419  1.00  0.00     0.012 A 
ATOM     76  C   UNL A   1      41.583  24.194  26.765  1.00  0.00     0.148 A 
ATOM     77  C   UNL A   1      43.597  23.659  24.896  1.00  0.00     0.002 A 
ATOM     78  C   UNL A   1      41.734  22.914  26.239  1.00  0.00     0.091 A 
ATOM     79  F   UNL A   1      40.670  24.434  27.716  1.00  0.00    -0.205 F 
ATOM     80  C   UNL A   1      42.750  22.639  25.315  1.00  0.00     0.022 A 
BRANCH  78  81
ATOM     81  S   UNL A   1      40.696  21.540  26.755  1.00  0.00     0.127 S 
ATOM     82  O   UNL A   1      39.377  21.960  26.281  1.00  0.00    -0.237 OA
ATOM     83  O   UNL A   1      41.284  20.424  26.019  1.00  0.00    -0.237 OA
ATOM     84  O   UNL A   1      40.817  21.476  28.206  1.00  0.00    -0.744 OA
ENDBRANCH  78  81
ENDBRANCH  50  74
BRANCH  62  85
ATOM     85  C   UNL A   1      45.018  30.621  28.177  1.00  0.00     0.023 A 
ATOM     86  C   UNL A   1      43.899  31.043  27.429  1.00  0.00     0.012 A 
ATOM     87  C   UNL A   1      46.259  31.239  27.941  1.00  0.00     0.148 A 
ATOM     88  C   UNL A   1      44.025  32.030  26.447  1.00  0.00     0.002 A 
ATOM     89  C   UNL A   1      46.370  32.254  27.000  1.00  0.00     0.091 A 
ATOM     90  F   UNL A   1      47.319  30.828  28.656  1.00  0.00    -0.205 F 
ATOM     91  C   UNL A   1      45.257  32.645  26.241  1.00  0.00     0.022 A 
BRANCH  89  92
ATOM     92  S   UNL A   1      47.906  33.155  26.781  1.00  0.00     0.127 S 
ATOM     93  O   UNL A   1      48.841  32.086  26.437  1.00  0.00    -0.237 OA
ATOM     94  O   UNL A   1      47.585  34.064  25.678  1.00  0.00    -0.237 OA
ATOM     95  O   UNL A   1      48.157  33.828  28.049  1.00  0.00    -0.744 OA
ENDBRANCH  89  92
ENDBRANCH  62  85
ENDBRANCH  36  37
ENDBRANCH  28  31
ENDBRANCH  26  27
ENDBRANCH   1  26
TORSDOF 16
ENDMDL
MODEL 2
REMARK VINA RESULT:     -12.6      4.004      8.676
REMARK SMILES O=C(Cc1ccn[nH]1)Nc1sc2c(c1C(=O)NCCCNC(=O)c1ccc(-c3c4nc(c(-c5cccc(S(=O)(=O)[O-])c5F)c5ccc([nH]5)c(-c5cccc(S(=O)(=O)[O-])c5F)c5nc(c(-c6cccc(S(=O)(=O)[O-])c6F)c6ccc3[nH]6)C=C5)C=C4)cc1)CCC2
REMARK SMILES IDX 19 1 18 2 17 3 15 4 16 5 14 7 10 8 11 9 12 10 13 11 89 12
REMARK SMILES IDX 87 13 88 14 9 15 1 16 2 17 3 19 4 20 5 21 8 22 6 23 7 24
REMARK SMILES IDX 20 26 21 27 22 28 23 30 24 31 25 32 86 33 26 34 85 35 27 36
REMARK SMILES IDX 28 37 29 38 79 39 30 40 84 41 78 42 80 43 31 44 83 45 77 46
REMARK SMILES IDX 76 47 32 49 64 50 44 51 63 52 45 53 48 54 62 55 81 56 46 57
REMARK SMILES IDX 47 58 61 60 82 61 49 62 33 63 34 64 42 65 35 66 37 67 43 68
REMARK SMILES IDX 36 69 38 70 39 71 40 72 41 73 65 74 66 75 74 76 67 77 69 78
REMARK SMILES IDX 75 79 68 80 70 81 71 82 72 83 73 84 50 85 51 86 59 87 52 88
REMARK SMILES IDX 54 89 60 90 53 91 55 92 56 93 57 94 58 95
REMARK H PARENT 17 6 9 18 8 25 21 29 80 48 48 59
REMARK Flexibility Score: inf
ROOT
ATOM      1  C   UNL A   1      38.020  19.940  25.032  1.00  0.00     0.042 C 
ENDROOT
BRANCH   1   2
ATOM      2  C   UNL A   1      37.029  21.089  24.856  1.00  0.00     0.118 C 
BRANCH   2   3
ATOM      3  N   UNL A   1      36.121  21.226  25.967  1.00  0.00    -0.352 N 
ATOM      4  C   UNL A   1      34.845  21.715  26.067  1.00  0.00     0.254 C 
ATOM      5  O   UNL A   1      34.200  21.197  26.986  1.00  0.00    -0.269 OA
ATOM      6  H   UNL A   1      36.490  20.905  26.821  1.00  0.00     0.163 HD
BRANCH   4   7
ATOM      7  C   UNL A   1      34.223  22.683  25.134  1.00  0.00     0.078 A 
ATOM      8  C   UNL A   1      33.713  22.231  23.906  1.00  0.00     0.108 A 
ATOM      9  S   UNL A   1      33.339  23.458  22.778  1.00  0.00    -0.122 S 
ATOM     10  C   UNL A   1      33.542  24.602  23.968  1.00  0.00     0.011 A 
ATOM     11  C   UNL A   1      34.009  24.113  25.165  1.00  0.00    -0.019 A 
ATOM     12  C   UNL A   1      33.327  26.067  23.917  1.00  0.00     0.047 C 
ATOM     13  C   UNL A   1      34.172  25.260  26.102  1.00  0.00     0.038 C 
ATOM     14  C   UNL A   1      33.428  26.436  25.413  1.00  0.00     0.010 C 
BRANCH   8  15
ATOM     15  N   UNL A   1      33.447  20.978  23.395  1.00  0.00    -0.317 N 
ATOM     16  O   UNL A   1      31.787  20.469  24.930  1.00  0.00    -0.274 OA
ATOM     17  C   UNL A   1      32.547  20.129  24.026  1.00  0.00     0.230 C 
ATOM     18  H   UNL A   1      33.902  20.682  22.573  1.00  0.00     0.170 HD
BRANCH  17  19
ATOM     19  C   UNL A   1      32.459  18.761  23.366  1.00  0.00     0.155 C 
BRANCH  19  20
ATOM     20  C   UNL A   1      32.942  17.663  24.264  1.00  0.00     0.044 A 
ATOM     21  C   UNL A   1      34.177  17.054  24.348  1.00  0.00     0.045 A 
ATOM     22  N   UNL A   1      32.187  17.081  25.252  1.00  0.00    -0.282 N 
ATOM     23  C   UNL A   1      34.030  16.067  25.339  1.00  0.00     0.135 A 
ATOM     24  N   UNL A   1      32.796  16.039  25.845  1.00  0.00    -0.184 NA
ATOM     25  H   UNL A   1      31.289  17.397  25.502  1.00  0.00     0.190 HD
ENDBRANCH  19  20
ENDBRANCH  17  19
ENDBRANCH   8  15
ENDBRANCH   4   7
ENDBRANCH   2   3
ENDBRANCH   1   2
BRANCH   1  26
ATOM     26  C   UNL A   1      39.192  20.299  25.923  1.00  0.00     0.118 C 
BRANCH  26  27
ATOM     27  N   UNL A   1      40.348  19.439  25.674  1.00  0.00    -0.352 N 
ATOM     28  C   UNL A   1      41.688  19.767  25.722  1.00  0.00     0.251 C 
ATOM     29  H   UNL A   1      40.144  18.505  25.442  1.00  0.00     0.163 HD
ATOM     30  O   UNL A   1      42.511  19.060  25.163  1.00  0.00    -0.269 OA
BRANCH  28  31
ATOM     31  C   UNL A   1      42.097  20.994  26.431  1.00  0.00     0.039 A 
ATOM     32  C   UNL A   1      42.226  22.192  25.730  1.00  0.00     0.014 A 
ATOM     33  C   UNL A   1      42.302  20.952  27.809  1.00  0.00     0.014 A 
ATOM     34  C   UNL A   1      42.465  23.358  26.448  1.00  0.00     0.010 A 
ATOM     35  C   UNL A   1      42.376  22.122  28.531  1.00  0.00     0.010 A 
ATOM     36  C   UNL A   1      42.490  23.328  27.857  1.00  0.00    -0.014 A 
BRANCH  36  37
ATOM     37  C   UNL A   1      42.474  24.585  28.601  1.00  0.00     0.031 A 
ATOM     38  C   UNL A   1      41.228  25.368  28.401  1.00  0.00     0.074 A 
ATOM     39  C   UNL A   1      43.411  24.998  29.482  1.00  0.00     0.049 A 
ATOM     40  N   UNL A   1      41.091  26.379  27.611  1.00  0.00    -0.248 NA
ATOM     41  C   UNL A   1      39.962  24.863  28.950  1.00  0.00     0.031 C 
ATOM     42  C   UNL A   1      44.551  24.250  30.018  1.00  0.00     0.029 A 
ATOM     43  N   UNL A   1      43.474  26.172  30.174  1.00  0.00    -0.354 N 
ATOM     44  C   UNL A   1      39.786  26.818  27.794  1.00  0.00     0.074 A 
ATOM     45  C   UNL A   1      39.090  25.726  28.421  1.00  0.00     0.031 C 
ATOM     46  C   UNL A   1      45.034  24.883  31.112  1.00  0.00     0.029 A 
ATOM     47  C   UNL A   1      44.360  26.159  31.248  1.00  0.00     0.049 A 
ATOM     48  H   UNL A   1      42.938  26.962  29.935  1.00  0.00     0.167 HD
ATOM     49  C   UNL A   1      39.494  28.143  27.686  1.00  0.00     0.034 A 
ATOM     50  C   UNL A   1      44.511  27.119  32.195  1.00  0.00     0.034 A 
ATOM     51  C   UNL A   1      40.569  28.859  27.029  1.00  0.00     0.049 A 
ATOM     52  C   UNL A   1      44.022  28.386  31.609  1.00  0.00     0.074 A 
ATOM     53  C   UNL A   1      41.259  28.714  25.840  1.00  0.00     0.029 A 
ATOM     54  N   UNL A   1      41.362  29.653  27.823  1.00  0.00    -0.354 N 
ATOM     55  N   UNL A   1      44.625  29.001  30.631  1.00  0.00    -0.248 NA
ATOM     56  C   UNL A   1      42.630  28.748  31.817  1.00  0.00     0.031 C 
ATOM     57  C   UNL A   1      42.618  29.006  26.166  1.00  0.00     0.029 A 
ATOM     58  C   UNL A   1      42.667  29.401  27.502  1.00  0.00     0.049 A 
ATOM     59  H   UNL A   1      41.046  30.291  28.503  1.00  0.00     0.167 HD
ATOM     60  C   UNL A   1      43.588  29.418  29.810  1.00  0.00     0.074 A 
ATOM     61  C   UNL A   1      42.391  29.347  30.648  1.00  0.00     0.031 C 
ATOM     62  C   UNL A   1      43.751  29.491  28.455  1.00  0.00     0.034 A 
BRANCH  49  63
ATOM     63  C   UNL A   1      38.481  28.876  28.545  1.00  0.00     0.023 A 
ATOM     64  C   UNL A   1      37.688  29.852  27.897  1.00  0.00     0.012 A 
ATOM     65  C   UNL A   1      38.473  28.888  29.959  1.00  0.00     0.148 A 
ATOM     66  C   UNL A   1      37.013  30.846  28.613  1.00  0.00     0.002 A 
ATOM     67  C   UNL A   1      37.736  29.828  30.668  1.00  0.00     0.091 A 
ATOM     68  F   UNL A   1      39.276  28.075  30.646  1.00  0.00    -0.205 F 
ATOM     69  C   UNL A   1      37.038  30.835  30.001  1.00  0.00     0.022 A 
BRANCH  67  70
ATOM     70  S   UNL A   1      37.690  29.831  32.466  1.00  0.00     0.127 S 
ATOM     71  O   UNL A   1      39.053  30.243  32.790  1.00  0.00    -0.237 OA
ATOM     72  O   UNL A   1      36.657  30.831  32.731  1.00  0.00    -0.237 OA
ATOM     73  O   UNL A   1      37.324  28.474  32.855  1.00  0.00    -0.744 OA
ENDBRANCH  67  70
ENDBRANCH  49  63
BRANCH  50  74
ATOM     74  C   UNL A   1      44.864  27.016  33.631  1.00  0.00     0.023 A 
ATOM     75  C   UNL A   1      46.050  27.621  34.101  1.00  0.00     0.012 A 
ATOM     76  C   UNL A   1      43.907  26.604  34.582  1.00  0.00     0.148 A 
ATOM     77  C   UNL A   1      46.249  27.858  35.466  1.00  0.00     0.002 A 
ATOM     78  C   UNL A   1      44.112  26.838  35.940  1.00  0.00     0.091 A 
ATOM     79  F   UNL A   1      42.755  26.073  34.151  1.00  0.00    -0.205 F 
ATOM     80  C   UNL A   1      45.275  27.478  36.384  1.00  0.00     0.022 A 
BRANCH  78  81
ATOM     81  S   UNL A   1      42.886  26.403  37.180  1.00  0.00     0.127 S 
ATOM     82  O   UNL A   1      43.608  26.666  38.426  1.00  0.00    -0.237 OA
ATOM     83  O   UNL A   1      41.810  27.345  36.886  1.00  0.00    -0.237 OA
ATOM     84  O   UNL A   1      42.576  24.997  36.955  1.00  0.00    -0.744 OA
ENDBRANCH  78  81
ENDBRANCH  50  74
BRANCH  62  85
ATOM     85  C   UNL A   1      45.151  29.427  27.895  1.00  0.00     0.023 A 
ATOM     86  C   UNL A   1      45.990  30.555  27.782  1.00  0.00     0.012 A 
ATOM     87  C   UNL A   1      45.683  28.159  27.602  1.00  0.00     0.148 A 
ATOM     88  C   UNL A   1      47.314  30.424  27.353  1.00  0.00     0.002 A 
ATOM     89  C   UNL A   1      47.013  28.026  27.225  1.00  0.00     0.091 A 
ATOM     90  F   UNL A   1      44.876  27.092  27.711  1.00  0.00    -0.205 F 
ATOM     91  C   UNL A   1      47.831  29.157  27.087  1.00  0.00     0.022 A 
BRANCH  89  92
ATOM     92  S   UNL A   1      47.754  26.410  26.986  1.00  0.00     0.127 S 
ATOM     93  O   UNL A   1      47.040  25.917  25.810  1.00  0.00    -0.237 OA
ATOM     94  O   UNL A   1      49.162  26.738  26.752  1.00  0.00    -0.237 OA
ATOM     95  O   UNL A   1      47.516  25.675  28.222  1.00  0.00    -0.744 OA
ENDBRANCH  89  92
ENDBRANCH  62  85
ENDBRANCH  36  37
ENDBRANCH  28  31
ENDBRANCH  26  27
ENDBRANCH   1  26
TORSDOF 16
ENDMDL
MODEL 3
REMARK VINA RESULT:     -12.6      1.638      3.737
REMARK SMILES O=C(Cc1ccn[nH]1)Nc1sc2c(c1C(=O)NCCCNC(=O)c1ccc(-c3c4nc(c(-c5cccc(S(=O)(=O)[O-])c5F)c5ccc([nH]5)c(-c5cccc(S(=O)(=O)[O-])c5F)c5nc(c(-c6cccc(S(=O)(=O)[O-])c6F)c6ccc3[nH]6)C=C5)C=C4)cc1)CCC2
REMARK SMILES IDX 19 1 18 2 17 3 15 4 16 5 14 7 10 8 11 9 12 10 13 11 89 12
REMARK SMILES IDX 87 13 88 14 9 15 1 16 2 17 3 19 4 20 5 21 8 22 6 23 7 24
REMARK SMILES IDX 20 26 21 27 22 28 23 30 24 31 25 32 86 33 26 34 85 35 27 36
REMARK SMILES IDX 28 37 29 38 79 39 30 40 84 41 78 42 80 43 31 44 83 45 77 46
REMARK SMILES IDX 76 47 32 49 64 50 44 51 63 52 45 53 48 54 62 55 81 56 46 57
REMARK SMILES IDX 47 58 61 60 82 61 49 62 33 63 34 64 42 65 35 66 37 67 43 68
REMARK SMILES IDX 36 69 38 70 39 71 40 72 41 73 65 74 66 75 74 76 67 77 69 78
REMARK SMILES IDX 75 79 68 80 70 81 71 82 72 83 73 84 50 85 51 86 59 87 52 88
REMARK SMILES IDX 54 89 60 90 53 91 55 92 56 93 57 94 58 95
REMARK H PARENT 17 6 9 18 8 25 21 29 80 48 48 59
REMARK Flexibility Score: inf
ROOT
ATOM      1  C   UNL A   1      33.091  31.767  27.455  1.00  0.00     0.042 C 
ENDROOT
BRANCH   1   2
ATOM      2  C   UNL A   1      33.330  30.317  27.038  1.00  0.00     0.118 C 
BRANCH   2   3
ATOM      3  N   UNL A   1      32.405  29.395  27.647  1.00  0.00    -0.352 N 
ATOM      4  C   UNL A   1      31.762  28.281  27.178  1.00  0.00     0.254 C 
ATOM      5  O   UNL A   1      31.503  27.461  28.068  1.00  0.00    -0.269 OA
ATOM      6  H   UNL A   1      32.193  29.610  28.585  1.00  0.00     0.163 HD
BRANCH   4   7
ATOM      7  C   UNL A   1      31.477  27.991  25.753  1.00  0.00     0.078 A 
ATOM      8  C   UNL A   1      31.751  26.714  25.238  1.00  0.00     0.108 A 
ATOM      9  S   UNL A   1      31.713  26.593  23.535  1.00  0.00    -0.122 S 
ATOM     10  C   UNL A   1      31.043  28.113  23.450  1.00  0.00     0.011 A 
ATOM     11  C   UNL A   1      30.960  28.774  24.652  1.00  0.00    -0.019 A 
ATOM     12  C   UNL A   1      30.557  28.868  22.271  1.00  0.00     0.047 C 
ATOM     13  C   UNL A   1      30.379  30.124  24.399  1.00  0.00     0.038 C 
ATOM     14  C   UNL A   1      29.826  30.046  22.951  1.00  0.00     0.010 C 
BRANCH   8  15
ATOM     15  N   UNL A   1      32.060  25.504  25.823  1.00  0.00    -0.317 N 
ATOM     16  O   UNL A   1      34.355  25.818  25.761  1.00  0.00    -0.274 OA
ATOM     17  C   UNL A   1      33.381  25.094  25.953  1.00  0.00     0.230 C 
ATOM     18  H   UNL A   1      31.335  24.924  26.151  1.00  0.00     0.170 HD
BRANCH  17  19
ATOM     19  C   UNL A   1      33.514  23.695  26.536  1.00  0.00     0.155 C 
BRANCH  19  20
ATOM     20  C   UNL A   1      34.603  22.904  25.877  1.00  0.00     0.044 A 
ATOM     21  C   UNL A   1      34.720  22.450  24.580  1.00  0.00     0.045 A 
ATOM     22  N   UNL A   1      35.766  22.522  26.498  1.00  0.00    -0.282 N 
ATOM     23  C   UNL A   1      35.929  21.732  24.553  1.00  0.00     0.135 A 
ATOM     24  N   UNL A   1      36.536  21.720  25.741  1.00  0.00    -0.184 NA
ATOM     25  H   UNL A   1      36.012  22.807  27.407  1.00  0.00     0.190 HD
ENDBRANCH  19  20
ENDBRANCH  17  19
ENDBRANCH   8  15
ENDBRANCH   4   7
ENDBRANCH   2   3
ENDBRANCH   1   2
BRANCH   1  26
ATOM     26  C   UNL A   1      34.355  32.468  27.913  1.00  0.00     0.118 C 
BRANCH  26  27
ATOM     27  N   UNL A   1      34.361  32.689  29.358  1.00  0.00    -0.352 N 
ATOM     28  C   UNL A   1      35.151  32.087  30.315  1.00  0.00     0.251 C 
ATOM     29  H   UNL A   1      33.716  33.354  29.692  1.00  0.00     0.163 HD
ATOM     30  O   UNL A   1      34.815  32.109  31.489  1.00  0.00    -0.269 OA
BRANCH  28  31
ATOM     31  C   UNL A   1      36.384  31.397  29.891  1.00  0.00     0.039 A 
ATOM     32  C   UNL A   1      37.579  32.106  29.792  1.00  0.00     0.014 A 
ATOM     33  C   UNL A   1      36.348  30.026  29.640  1.00  0.00     0.014 A 
ATOM     34  C   UNL A   1      38.749  31.401  29.537  1.00  0.00     0.010 A 
ATOM     35  C   UNL A   1      37.521  29.311  29.548  1.00  0.00     0.010 A 
ATOM     36  C   UNL A   1      38.726  29.993  29.465  1.00  0.00    -0.014 A 
BRANCH  36  37
ATOM     37  C   UNL A   1      39.985  29.253  29.464  1.00  0.00     0.031 A 
ATOM     38  C   UNL A   1      40.526  29.018  30.827  1.00  0.00     0.074 A 
ATOM     39  C   UNL A   1      40.589  28.715  28.382  1.00  0.00     0.049 A 
ATOM     40  N   UNL A   1      41.469  29.695  31.392  1.00  0.00    -0.248 NA
ATOM     41  C   UNL A   1      39.824  28.099  31.733  1.00  0.00     0.031 C 
ATOM     42  C   UNL A   1      40.075  28.598  27.015  1.00  0.00     0.029 A 
ATOM     43  N   UNL A   1      41.780  28.053  28.310  1.00  0.00    -0.354 N 
ATOM     44  C   UNL A   1      41.675  29.087  32.623  1.00  0.00     0.074 A 
ATOM     45  C   UNL A   1      40.499  28.294  32.871  1.00  0.00     0.031 C 
ATOM     46  C   UNL A   1      40.822  27.706  26.325  1.00  0.00     0.029 A 
ATOM     47  C   UNL A   1      41.962  27.326  27.137  1.00  0.00     0.049 A 
ATOM     48  H   UNL A   1      42.453  28.085  29.027  1.00  0.00     0.167 HD
ATOM     49  C   UNL A   1      42.922  29.061  33.167  1.00  0.00     0.034 A 
ATOM     50  C   UNL A   1      42.967  26.457  26.861  1.00  0.00     0.034 A 
ATOM     51  C   UNL A   1      43.793  30.014  32.511  1.00  0.00     0.049 A 
ATOM     52  C   UNL A   1      44.105  26.820  27.734  1.00  0.00     0.074 A 
ATOM     53  C   UNL A   1      43.732  31.367  32.230  1.00  0.00     0.029 A 
ATOM     54  N   UNL A   1      44.744  29.502  31.659  1.00  0.00    -0.354 N 
ATOM     55  N   UNL A   1      44.783  27.925  27.601  1.00  0.00    -0.248 NA
ATOM     56  C   UNL A   1      44.221  26.162  29.023  1.00  0.00     0.031 C 
ATOM     57  C   UNL A   1      44.272  31.493  30.915  1.00  0.00     0.029 A 
ATOM     58  C   UNL A   1      44.717  30.236  30.506  1.00  0.00     0.049 A 
ATOM     59  H   UNL A   1      45.339  28.741  31.847  1.00  0.00     0.167 HD
ATOM     60  C   UNL A   1      44.979  28.353  28.906  1.00  0.00     0.074 A 
ATOM     61  C   UNL A   1      44.726  27.174  29.733  1.00  0.00     0.031 C 
ATOM     62  C   UNL A   1      45.032  29.686  29.206  1.00  0.00     0.034 A 
BRANCH  49  63
ATOM     63  C   UNL A   1      43.493  27.902  33.962  1.00  0.00     0.023 A 
ATOM     64  C   UNL A   1      43.937  26.782  33.220  1.00  0.00     0.012 A 
ATOM     65  C   UNL A   1      43.341  27.721  35.356  1.00  0.00     0.148 A 
ATOM     66  C   UNL A   1      44.115  25.528  33.815  1.00  0.00     0.002 A 
ATOM     67  C   UNL A   1      43.597  26.495  35.956  1.00  0.00     0.091 A 
ATOM     68  F   UNL A   1      42.825  28.691  36.111  1.00  0.00    -0.205 F 
ATOM     69  C   UNL A   1      43.944  25.384  35.185  1.00  0.00     0.022 A 
BRANCH  67  70
ATOM     70  S   UNL A   1      43.442  26.261  37.732  1.00  0.00     0.127 S 
ATOM     71  O   UNL A   1      41.993  26.327  37.907  1.00  0.00    -0.237 OA
ATOM     72  O   UNL A   1      44.031  24.935  37.907  1.00  0.00    -0.237 OA
ATOM     73  O   UNL A   1      44.207  27.342  38.342  1.00  0.00    -0.744 OA
ENDBRANCH  67  70
ENDBRANCH  49  63
BRANCH  50  74
ATOM     74  C   UNL A   1      42.979  25.217  26.049  1.00  0.00     0.023 A 
ATOM     75  C   UNL A   1      44.000  25.021  25.094  1.00  0.00     0.012 A 
ATOM     76  C   UNL A   1      42.192  24.105  26.417  1.00  0.00     0.148 A 
ATOM     77  C   UNL A   1      44.262  23.751  24.566  1.00  0.00     0.002 A 
ATOM     78  C   UNL A   1      42.454  22.845  25.885  1.00  0.00     0.091 A 
ATOM     79  F   UNL A   1      41.252  24.262  27.358  1.00  0.00    -0.205 F 
ATOM     80  C   UNL A   1      43.499  22.662  24.971  1.00  0.00     0.022 A 
BRANCH  78  81
ATOM     81  S   UNL A   1      41.530  21.386  26.383  1.00  0.00     0.127 S 
ATOM     82  O   UNL A   1      41.799  21.331  27.820  1.00  0.00    -0.237 OA
ATOM     83  O   UNL A   1      40.163  21.758  26.030  1.00  0.00    -0.237 OA
ATOM     84  O   UNL A   1      42.101  20.279  25.626  1.00  0.00    -0.744 OA
ENDBRANCH  78  81
ENDBRANCH  50  74
BRANCH  62  85
ATOM     85  C   UNL A   1      45.198  30.673  28.076  1.00  0.00     0.023 A 
ATOM     86  C   UNL A   1      44.121  31.140  27.295  1.00  0.00     0.012 A 
ATOM     87  C   UNL A   1      46.467  31.249  27.889  1.00  0.00     0.148 A 
ATOM     88  C   UNL A   1      44.314  32.131  26.328  1.00  0.00     0.002 A 
ATOM     89  C   UNL A   1      46.645  32.268  26.964  1.00  0.00     0.091 A 
ATOM     90  F   UNL A   1      47.486  30.794  28.636  1.00  0.00    -0.205 F 
ATOM     91  C   UNL A   1      45.573  32.706  26.171  1.00  0.00     0.022 A 
BRANCH  89  92
ATOM     92  S   UNL A   1      48.217  33.118  26.808  1.00  0.00     0.127 S 
ATOM     93  O   UNL A   1      48.389  33.690  28.141  1.00  0.00    -0.237 OA
ATOM     94  O   UNL A   1      49.138  32.025  26.489  1.00  0.00    -0.237 OA
ATOM     95  O   UNL A   1      48.045  34.080  25.727  1.00  0.00    -0.744 OA
ENDBRANCH  89  92
ENDBRANCH  62  85
ENDBRANCH  36  37
ENDBRANCH  28  31
ENDBRANCH  26  27
ENDBRANCH   1  26
TORSDOF 16
ENDMDL
