MODEL 1
REMARK VINA RESULT:     -11.2      0.000      0.000
REMARK SMILES C[C@H](CNC(=O)Cc1ccc(F)c(F)c1)C(=O)NCCCNC(=O)c1ccc(-c2c3nc(c(-c4cccc(S(=O)(=O)[O-])c4F)c4ccc([nH]4)c(-c4cccc(S(=O)(=O)[O-])c4F)c4nc(c(-c5cccc(S(=O)(=O)[O-])c5F)c5ccc2[nH]5)C=C4)C=C3)cc1
REMARK SMILES IDX 19 1 18 2 16 3 17 4 2 6 1 7 3 8 4 9 5 10 6 12 7 13 8 14 9 15
REMARK SMILES IDX 15 16 10 17 13 18 11 19 14 20 12 21 20 22 21 23 22 24 23 25
REMARK SMILES IDX 24 27 25 28 26 29 87 30 27 31 86 32 28 33 29 34 30 35 80 36
REMARK SMILES IDX 31 37 85 38 79 39 81 40 32 41 84 42 78 43 77 44 33 46 65 47
REMARK SMILES IDX 45 48 64 49 46 50 49 51 63 52 82 53 47 54 48 55 62 57 83 58
REMARK SMILES IDX 50 59 34 60 35 61 43 62 36 63 38 64 44 65 37 66 39 67 40 68
REMARK SMILES IDX 41 69 42 70 66 71 67 72 75 73 68 74 70 75 76 76 69 77 71 78
REMARK SMILES IDX 72 79 73 80 74 81 51 82 52 83 60 84 53 85 55 86 61 87 54 88
REMARK SMILES IDX 56 89 57 90 58 91 59 92
REMARK H PARENT 18 5 4 11 22 26 81 45 49 56
REMARK Flexibility Score: inf
ROOT
ATOM      1  C   UNL A   1      31.729  28.154  26.435  1.00  0.00     0.117 C 
ENDROOT
BRANCH   1   2
ATOM      2  N   UNL A   1      31.016  27.374  25.440  1.00  0.00    -0.356 N 
ATOM      3  C   UNL A   1      30.735  27.637  24.139  1.00  0.00     0.224 C 
ATOM      4  O   UNL A   1      30.075  26.803  23.516  1.00  0.00    -0.275 OA
ATOM      5  H   UNL A   1      30.679  26.508  25.764  1.00  0.00     0.163 HD
BRANCH   3   6
ATOM      6  C   UNL A   1      31.227  28.901  23.458  1.00  0.00     0.094 C 
ATOM      7  C   UNL A   1      30.171  29.481  22.510  1.00  0.00     0.020 C 
BRANCH   6   8
ATOM      8  C   UNL A   1      32.622  28.723  22.840  1.00  0.00     0.129 C 
BRANCH   8   9
ATOM      9  N   UNL A   1      32.642  27.539  21.988  1.00  0.00    -0.355 N 
ATOM     10  C   UNL A   1      33.323  26.368  22.118  1.00  0.00     0.224 C 
ATOM     11  H   UNL A   1      32.068  27.596  21.189  1.00  0.00     0.163 HD
ATOM     12  O   UNL A   1      33.394  25.637  21.126  1.00  0.00    -0.275 OA
BRANCH  10  13
ATOM     13  C   UNL A   1      33.871  25.923  23.458  1.00  0.00     0.135 C 
BRANCH  13  14
ATOM     14  C   UNL A   1      33.831  24.453  23.805  1.00  0.00    -0.036 A 
ATOM     15  C   UNL A   1      35.006  23.697  23.631  1.00  0.00     0.007 A 
ATOM     16  C   UNL A   1      32.699  23.820  24.335  1.00  0.00     0.046 A 
ATOM     17  C   UNL A   1      35.029  22.330  23.914  1.00  0.00     0.043 A 
ATOM     18  C   UNL A   1      32.723  22.451  24.599  1.00  0.00     0.159 A 
ATOM     19  C   UNL A   1      33.879  21.710  24.383  1.00  0.00     0.158 A 
ATOM     20  F   UNL A   1      31.620  21.856  25.073  1.00  0.00    -0.204 F 
ATOM     21  F   UNL A   1      33.901  20.395  24.645  1.00  0.00    -0.204 F 
ENDBRANCH  13  14
ENDBRANCH  10  13
ENDBRANCH   8   9
ENDBRANCH   6   8
ENDBRANCH   3   6
ENDBRANCH   1   2
BRANCH   1  22
ATOM     22  C   UNL A   1      33.176  27.707  26.558  1.00  0.00     0.042 C 
BRANCH  22  23
ATOM     23  C   UNL A   1      34.173  28.769  26.116  1.00  0.00     0.118 C 
BRANCH  23  24
ATOM     24  N   UNL A   1      33.879  30.076  26.690  1.00  0.00    -0.352 N 
ATOM     25  C   UNL A   1      34.504  30.744  27.714  1.00  0.00     0.251 C 
ATOM     26  H   UNL A   1      33.119  30.551  26.282  1.00  0.00     0.163 HD
ATOM     27  O   UNL A   1      33.969  31.728  28.212  1.00  0.00    -0.269 OA
BRANCH  25  28
ATOM     28  C   UNL A   1      35.811  30.271  28.211  1.00  0.00     0.039 A 
ATOM     29  C   UNL A   1      35.881  29.651  29.461  1.00  0.00     0.014 A 
ATOM     30  C   UNL A   1      36.970  30.456  27.453  1.00  0.00     0.014 A 
ATOM     31  C   UNL A   1      37.110  29.178  29.928  1.00  0.00     0.010 A 
ATOM     32  C   UNL A   1      38.169  29.896  27.871  1.00  0.00     0.010 A 
ATOM     33  C   UNL A   1      38.258  29.276  29.125  1.00  0.00    -0.014 A 
BRANCH  33  34
ATOM     34  C   UNL A   1      39.572  28.768  29.592  1.00  0.00     0.031 A 
ATOM     35  C   UNL A   1      40.303  29.483  30.699  1.00  0.00     0.074 A 
ATOM     36  C   UNL A   1      40.141  27.716  28.971  1.00  0.00     0.049 A 
ATOM     37  N   UNL A   1      41.479  29.225  31.210  1.00  0.00    -0.248 NA
ATOM     38  C   UNL A   1      39.641  30.659  31.288  1.00  0.00     0.031 C 
ATOM     39  C   UNL A   1      39.569  26.993  27.834  1.00  0.00     0.029 A 
ATOM     40  N   UNL A   1      41.340  27.087  29.196  1.00  0.00    -0.354 N 
ATOM     41  C   UNL A   1      41.712  30.227  32.145  1.00  0.00     0.074 A 
ATOM     42  C   UNL A   1      40.578  31.122  32.101  1.00  0.00     0.031 C 
ATOM     43  C   UNL A   1      40.411  26.012  27.468  1.00  0.00     0.029 A 
ATOM     44  C   UNL A   1      41.594  26.057  28.320  1.00  0.00     0.049 A 
ATOM     45  H   UNL A   1      41.959  27.348  29.914  1.00  0.00     0.167 HD
ATOM     46  C   UNL A   1      42.760  30.372  32.990  1.00  0.00     0.034 A 
ATOM     47  C   UNL A   1      42.663  25.245  28.215  1.00  0.00     0.034 A 
ATOM     48  C   UNL A   1      43.862  29.453  33.062  1.00  0.00     0.049 A 
ATOM     49  C   UNL A   1      43.793  25.398  29.196  1.00  0.00     0.074 A 
ATOM     50  C   UNL A   1      44.929  29.457  33.943  1.00  0.00     0.029 A 
ATOM     51  N   UNL A   1      44.043  28.369  32.218  1.00  0.00    -0.354 N 
ATOM     52  N   UNL A   1      43.924  26.258  30.178  1.00  0.00    -0.248 NA
ATOM     53  C   UNL A   1      44.908  24.446  29.081  1.00  0.00     0.031 C 
ATOM     54  C   UNL A   1      45.771  28.390  33.611  1.00  0.00     0.029 A 
ATOM     55  C   UNL A   1      45.208  27.700  32.549  1.00  0.00     0.049 A 
ATOM     56  H   UNL A   1      43.431  28.111  31.490  1.00  0.00     0.167 HD
ATOM     57  C   UNL A   1      45.110  25.925  30.823  1.00  0.00     0.074 A 
ATOM     58  C   UNL A   1      45.650  24.772  30.130  1.00  0.00     0.031 C 
ATOM     59  C   UNL A   1      45.704  26.523  31.884  1.00  0.00     0.034 A 
BRANCH  46  60
ATOM     60  C   UNL A   1      42.737  31.543  33.939  1.00  0.00     0.023 A 
ATOM     61  C   UNL A   1      43.272  32.783  33.533  1.00  0.00     0.012 A 
ATOM     62  C   UNL A   1      42.144  31.431  35.212  1.00  0.00     0.148 A 
ATOM     63  C   UNL A   1      43.255  33.881  34.391  1.00  0.00     0.002 A 
ATOM     64  C   UNL A   1      42.084  32.544  36.043  1.00  0.00     0.091 A 
ATOM     65  F   UNL A   1      41.660  30.239  35.590  1.00  0.00    -0.205 F 
ATOM     66  C   UNL A   1      42.652  33.764  35.641  1.00  0.00     0.022 A 
BRANCH  64  67
ATOM     67  S   UNL A   1      41.256  32.520  37.636  1.00  0.00     0.127 S 
ATOM     68  O   UNL A   1      41.265  33.938  37.994  1.00  0.00    -0.237 OA
ATOM     69  O   UNL A   1      39.939  31.987  37.289  1.00  0.00    -0.237 OA
ATOM     70  O   UNL A   1      42.055  31.656  38.493  1.00  0.00    -0.744 OA
ENDBRANCH  64  67
ENDBRANCH  46  60
BRANCH  47  71
ATOM     71  C   UNL A   1      42.685  24.170  27.183  1.00  0.00     0.023 A 
ATOM     72  C   UNL A   1      43.366  24.387  25.970  1.00  0.00     0.012 A 
ATOM     73  C   UNL A   1      42.057  22.929  27.404  1.00  0.00     0.148 A 
ATOM     74  C   UNL A   1      43.389  23.405  24.979  1.00  0.00     0.002 A 
ATOM     75  C   UNL A   1      42.132  21.933  26.438  1.00  0.00     0.091 A 
ATOM     76  F   UNL A   1      41.409  22.744  28.563  1.00  0.00    -0.205 F 
ATOM     77  C   UNL A   1      42.781  22.176  25.216  1.00  0.00     0.022 A 
BRANCH  75  78
ATOM     78  S   UNL A   1      41.493  20.277  26.709  1.00  0.00     0.127 S 
ATOM     79  O   UNL A   1      41.846  19.611  25.459  1.00  0.00    -0.237 OA
ATOM     80  O   UNL A   1      42.260  19.846  27.878  1.00  0.00    -0.237 OA
ATOM     81  O   UNL A   1      40.067  20.441  26.957  1.00  0.00    -0.744 OA
ENDBRANCH  75  78
ENDBRANCH  47  71
BRANCH  59  82
ATOM     82  C   UNL A   1      46.983  25.920  32.402  1.00  0.00     0.023 A 
ATOM     83  C   UNL A   1      48.225  26.366  31.908  1.00  0.00     0.012 A 
ATOM     84  C   UNL A   1      46.951  24.963  33.436  1.00  0.00     0.148 A 
ATOM     85  C   UNL A   1      49.416  25.840  32.410  1.00  0.00     0.002 A 
ATOM     86  C   UNL A   1      48.142  24.484  33.967  1.00  0.00     0.091 A 
ATOM     87  F   UNL A   1      45.759  24.540  33.879  1.00  0.00    -0.205 F 
ATOM     88  C   UNL A   1      49.374  24.911  33.447  1.00  0.00     0.022 A 
BRANCH  86  89
ATOM     89  S   UNL A   1      48.187  23.364  35.371  1.00  0.00     0.127 S 
ATOM     90  O   UNL A   1      47.575  22.160  34.811  1.00  0.00    -0.237 OA
ATOM     91  O   UNL A   1      49.622  23.254  35.633  1.00  0.00    -0.237 OA
ATOM     92  O   UNL A   1      47.427  24.015  36.430  1.00  0.00    -0.744 OA
ENDBRANCH  86  89
ENDBRANCH  59  82
ENDBRANCH  33  34
ENDBRANCH  25  28
ENDBRANCH  23  24
ENDBRANCH  22  23
ENDBRANCH   1  22
TORSDOF 17
ENDMDL
MODEL 2
REMARK VINA RESULT:     -11.0      3.826      5.646
REMARK SMILES C[C@H](CNC(=O)Cc1ccc(F)c(F)c1)C(=O)NCCCNC(=O)c1ccc(-c2c3nc(c(-c4cccc(S(=O)(=O)[O-])c4F)c4ccc([nH]4)c(-c4cccc(S(=O)(=O)[O-])c4F)c4nc(c(-c5cccc(S(=O)(=O)[O-])c5F)c5ccc2[nH]5)C=C4)C=C3)cc1
REMARK SMILES IDX 19 1 18 2 16 3 17 4 2 6 1 7 3 8 4 9 5 10 6 12 7 13 8 14 9 15
REMARK SMILES IDX 15 16 10 17 13 18 11 19 14 20 12 21 20 22 21 23 22 24 23 25
REMARK SMILES IDX 24 27 25 28 26 29 87 30 27 31 86 32 28 33 29 34 30 35 80 36
REMARK SMILES IDX 31 37 85 38 79 39 81 40 32 41 84 42 78 43 77 44 33 46 65 47
REMARK SMILES IDX 45 48 64 49 46 50 49 51 63 52 82 53 47 54 48 55 62 57 83 58
REMARK SMILES IDX 50 59 34 60 35 61 43 62 36 63 38 64 44 65 37 66 39 67 40 68
REMARK SMILES IDX 41 69 42 70 66 71 67 72 75 73 68 74 70 75 76 76 69 77 71 78
REMARK SMILES IDX 72 79 73 80 74 81 51 82 52 83 60 84 53 85 55 86 61 87 54 88
REMARK SMILES IDX 56 89 57 90 58 91 59 92
REMARK H PARENT 18 5 4 11 22 26 81 45 49 56
REMARK Flexibility Score: inf
ROOT
ATOM      1  C   UNL A   1      31.520  30.860  26.476  1.00  0.00     0.117 C 
ENDROOT
BRANCH   1   2
ATOM      2  N   UNL A   1      32.728  30.254  27.004  1.00  0.00    -0.356 N 
ATOM      3  C   UNL A   1      33.425  29.163  26.599  1.00  0.00     0.224 C 
ATOM      4  O   UNL A   1      34.418  28.843  27.254  1.00  0.00    -0.275 OA
ATOM      5  H   UNL A   1      33.107  30.713  27.788  1.00  0.00     0.163 HD
BRANCH   3   6
ATOM      6  C   UNL A   1      33.018  28.368  25.372  1.00  0.00     0.094 C 
ATOM      7  C   UNL A   1      33.842  27.084  25.229  1.00  0.00     0.020 C 
BRANCH   6   8
ATOM      8  C   UNL A   1      32.954  29.240  24.109  1.00  0.00     0.129 C 
BRANCH   8   9
ATOM      9  N   UNL A   1      32.250  28.528  23.047  1.00  0.00    -0.355 N 
ATOM     10  C   UNL A   1      30.925  28.262  22.892  1.00  0.00     0.224 C 
ATOM     11  H   UNL A   1      32.828  28.185  22.328  1.00  0.00     0.163 HD
ATOM     12  O   UNL A   1      30.610  27.403  22.063  1.00  0.00    -0.275 OA
BRANCH  10  13
ATOM     13  C   UNL A   1      29.870  29.072  23.618  1.00  0.00     0.135 C 
BRANCH  13  14
ATOM     14  C   UNL A   1      29.258  30.260  22.915  1.00  0.00    -0.036 A 
ATOM     15  C   UNL A   1      28.618  30.043  21.679  1.00  0.00     0.007 A 
ATOM     16  C   UNL A   1      29.253  31.552  23.454  1.00  0.00     0.046 A 
ATOM     17  C   UNL A   1      28.050  31.103  20.969  1.00  0.00     0.043 A 
ATOM     18  C   UNL A   1      28.699  32.610  22.732  1.00  0.00     0.159 A 
ATOM     19  C   UNL A   1      28.108  32.387  21.495  1.00  0.00     0.158 A 
ATOM     20  F   UNL A   1      28.736  33.845  23.249  1.00  0.00    -0.204 F 
ATOM     21  F   UNL A   1      27.570  33.404  20.807  1.00  0.00    -0.204 F 
ENDBRANCH  13  14
ENDBRANCH  10  13
ENDBRANCH   8   9
ENDBRANCH   6   8
ENDBRANCH   3   6
ENDBRANCH   1   2
BRANCH   1  22
ATOM     22  C   UNL A   1      31.439  32.336  26.826  1.00  0.00     0.042 C 
BRANCH  22  23
ATOM     23  C   UNL A   1      32.765  32.915  27.301  1.00  0.00     0.118 C 
BRANCH  23  24
ATOM     24  N   UNL A   1      32.605  34.222  27.925  1.00  0.00    -0.352 N 
ATOM     25  C   UNL A   1      33.216  34.743  29.038  1.00  0.00     0.251 C 
ATOM     26  H   UNL A   1      31.962  34.822  27.481  1.00  0.00     0.163 HD
ATOM     27  O   UNL A   1      32.780  35.770  29.546  1.00  0.00    -0.269 OA
BRANCH  25  28
ATOM     28  C   UNL A   1      34.390  34.061  29.620  1.00  0.00     0.039 A 
ATOM     29  C   UNL A   1      35.663  34.364  29.134  1.00  0.00     0.014 A 
ATOM     30  C   UNL A   1      34.231  33.109  30.631  1.00  0.00     0.014 A 
ATOM     31  C   UNL A   1      36.781  33.742  29.696  1.00  0.00     0.010 A 
ATOM     32  C   UNL A   1      35.347  32.570  31.256  1.00  0.00     0.010 A 
ATOM     33  C   UNL A   1      36.632  32.859  30.778  1.00  0.00    -0.014 A 
BRANCH  33  34
ATOM     34  C   UNL A   1      37.804  32.196  31.401  1.00  0.00     0.031 A 
ATOM     35  C   UNL A   1      38.364  32.724  32.696  1.00  0.00     0.074 A 
ATOM     36  C   UNL A   1      38.410  31.173  30.766  1.00  0.00     0.049 A 
ATOM     37  N   UNL A   1      39.408  32.316  33.369  1.00  0.00    -0.248 NA
ATOM     38  C   UNL A   1      37.680  33.881  33.299  1.00  0.00     0.031 C 
ATOM     39  C   UNL A   1      38.011  30.627  29.467  1.00  0.00     0.029 A 
ATOM     40  N   UNL A   1      39.506  30.427  31.118  1.00  0.00    -0.354 N 
ATOM     41  C   UNL A   1      39.530  33.187  34.445  1.00  0.00     0.074 A 
ATOM     42  C   UNL A   1      38.481  34.173  34.313  1.00  0.00     0.031 C 
ATOM     43  C   UNL A   1      38.842  29.625  29.138  1.00  0.00     0.029 A 
ATOM     44  C   UNL A   1      39.850  29.479  30.182  1.00  0.00     0.049 A 
ATOM     45  H   UNL A   1      39.998  30.556  31.959  1.00  0.00     0.167 HD
ATOM     46  C   UNL A   1      40.412  33.153  35.470  1.00  0.00     0.034 A 
ATOM     47  C   UNL A   1      40.868  28.597  30.167  1.00  0.00     0.034 A 
ATOM     48  C   UNL A   1      41.424  32.143  35.621  1.00  0.00     0.049 A 
ATOM     49  C   UNL A   1      41.808  28.549  31.340  1.00  0.00     0.074 A 
ATOM     50  C   UNL A   1      42.310  31.963  36.668  1.00  0.00     0.029 A 
ATOM     51  N   UNL A   1      41.687  31.145  34.696  1.00  0.00    -0.354 N 
ATOM     52  N   UNL A   1      41.811  29.284  32.427  1.00  0.00    -0.248 NA
ATOM     53  C   UNL A   1      42.862  27.525  31.306  1.00  0.00     0.031 C 
ATOM     54  C   UNL A   1      43.130  30.872  36.361  1.00  0.00     0.029 A 
ATOM     55  C   UNL A   1      42.728  30.350  35.142  1.00  0.00     0.049 A 
ATOM     56  H   UNL A   1      41.204  31.019  33.848  1.00  0.00     0.167 HD
ATOM     57  C   UNL A   1      42.836  28.786  33.222  1.00  0.00     0.074 A 
ATOM     58  C   UNL A   1      43.420  27.674  32.500  1.00  0.00     0.031 C 
ATOM     59  C   UNL A   1      43.262  29.215  34.435  1.00  0.00     0.034 A 
BRANCH  46  60
ATOM     60  C   UNL A   1      40.291  34.212  36.536  1.00  0.00     0.023 A 
ATOM     61  C   UNL A   1      40.648  35.545  36.242  1.00  0.00     0.012 A 
ATOM     62  C   UNL A   1      39.776  33.901  37.810  1.00  0.00     0.148 A 
ATOM     63  C   UNL A   1      40.536  36.542  37.209  1.00  0.00     0.002 A 
ATOM     64  C   UNL A   1      39.620  34.910  38.753  1.00  0.00     0.091 A 
ATOM     65  F   UNL A   1      39.462  32.626  38.079  1.00  0.00    -0.205 F 
ATOM     66  C   UNL A   1      40.012  36.226  38.460  1.00  0.00     0.022 A 
BRANCH  64  67
ATOM     67  S   UNL A   1      38.877  34.625  40.363  1.00  0.00     0.127 S 
ATOM     68  O   UNL A   1      37.729  33.789  40.014  1.00  0.00    -0.237 OA
ATOM     69  O   UNL A   1      39.947  33.925  41.075  1.00  0.00    -0.237 OA
ATOM     70  O   UNL A   1      38.552  35.941  40.896  1.00  0.00    -0.744 OA
ENDBRANCH  64  67
ENDBRANCH  46  60
BRANCH  47  71
ATOM     71  C   UNL A   1      41.010  27.641  29.031  1.00  0.00     0.023 A 
ATOM     72  C   UNL A   1      40.263  26.447  29.032  1.00  0.00     0.012 A 
ATOM     73  C   UNL A   1      41.860  27.917  27.943  1.00  0.00     0.148 A 
ATOM     74  C   UNL A   1      40.389  25.527  27.991  1.00  0.00     0.002 A 
ATOM     75  C   UNL A   1      41.938  27.025  26.882  1.00  0.00     0.091 A 
ATOM     76  F   UNL A   1      42.567  29.057  27.965  1.00  0.00    -0.205 F 
ATOM     77  C   UNL A   1      41.218  25.820  26.912  1.00  0.00     0.022 A 
BRANCH  75  78
ATOM     78  S   UNL A   1      42.876  27.379  25.392  1.00  0.00     0.127 S 
ATOM     79  O   UNL A   1      42.692  26.151  24.623  1.00  0.00    -0.237 OA
ATOM     80  O   UNL A   1      42.174  28.550  24.864  1.00  0.00    -0.237 OA
ATOM     81  O   UNL A   1      44.237  27.648  25.837  1.00  0.00    -0.744 OA
ENDBRANCH  75  78
ENDBRANCH  47  71
BRANCH  59  82
ATOM     82  C   UNL A   1      44.385  28.455  35.091  1.00  0.00     0.023 A 
ATOM     83  C   UNL A   1      45.724  28.764  34.780  1.00  0.00     0.012 A 
ATOM     84  C   UNL A   1      44.109  27.484  36.074  1.00  0.00     0.148 A 
ATOM     85  C   UNL A   1      46.771  28.092  35.411  1.00  0.00     0.002 A 
ATOM     86  C   UNL A   1      45.157  26.857  36.737  1.00  0.00     0.091 A 
ATOM     87  F   UNL A   1      42.829  27.192  36.343  1.00  0.00    -0.205 F 
ATOM     88  C   UNL A   1      46.488  27.150  36.398  1.00  0.00     0.022 A 
BRANCH  86  89
ATOM     89  S   UNL A   1      44.888  25.707  38.090  1.00  0.00     0.127 S 
ATOM     90  O   UNL A   1      46.258  25.359  38.462  1.00  0.00    -0.237 OA
ATOM     91  O   UNL A   1      44.183  26.537  39.067  1.00  0.00    -0.237 OA
ATOM     92  O   UNL A   1      44.095  24.616  37.539  1.00  0.00    -0.744 OA
ENDBRANCH  86  89
ENDBRANCH  59  82
ENDBRANCH  33  34
ENDBRANCH  25  28
ENDBRANCH  23  24
ENDBRANCH  22  23
ENDBRANCH   1  22
TORSDOF 17
ENDMDL
MODEL 3
REMARK VINA RESULT:     -10.9      5.451      8.509
REMARK SMILES C[C@H](CNC(=O)Cc1ccc(F)c(F)c1)C(=O)NCCCNC(=O)c1ccc(-c2c3nc(c(-c4cccc(S(=O)(=O)[O-])c4F)c4ccc([nH]4)c(-c4cccc(S(=O)(=O)[O-])c4F)c4nc(c(-c5cccc(S(=O)(=O)[O-])c5F)c5ccc2[nH]5)C=C4)C=C3)cc1
REMARK SMILES IDX 19 1 18 2 16 3 17 4 2 6 1 7 3 8 4 9 5 10 6 12 7 13 8 14 9 15
REMARK SMILES IDX 15 16 10 17 13 18 11 19 14 20 12 21 20 22 21 23 22 24 23 25
REMARK SMILES IDX 24 27 25 28 26 29 87 30 27 31 86 32 28 33 29 34 30 35 80 36
REMARK SMILES IDX 31 37 85 38 79 39 81 40 32 41 84 42 78 43 77 44 33 46 65 47
REMARK SMILES IDX 45 48 64 49 46 50 49 51 63 52 82 53 47 54 48 55 62 57 83 58
REMARK SMILES IDX 50 59 34 60 35 61 43 62 36 63 38 64 44 65 37 66 39 67 40 68
REMARK SMILES IDX 41 69 42 70 66 71 67 72 75 73 68 74 70 75 76 76 69 77 71 78
REMARK SMILES IDX 72 79 73 80 74 81 51 82 52 83 60 84 53 85 55 86 61 87 54 88
REMARK SMILES IDX 56 89 57 90 58 91 59 92
REMARK H PARENT 18 5 4 11 22 26 81 45 49 56
REMARK Flexibility Score: inf
ROOT
ATOM      1  C   UNL A   1      36.519  20.149  24.965  1.00  0.00     0.117 C 
ENDROOT
BRANCH   1   2
ATOM      2  N   UNL A   1      36.595  21.330  25.804  1.00  0.00    -0.356 N 
ATOM      3  C   UNL A   1      36.254  22.619  25.556  1.00  0.00     0.224 C 
ATOM      4  O   UNL A   1      36.453  23.446  26.448  1.00  0.00    -0.275 OA
ATOM      5  H   UNL A   1      36.955  21.169  26.706  1.00  0.00     0.163 HD
BRANCH   3   6
ATOM      6  C   UNL A   1      35.630  23.039  24.238  1.00  0.00     0.094 C 
ATOM      7  C   UNL A   1      36.657  23.043  23.100  1.00  0.00     0.020 C 
BRANCH   6   8
ATOM      8  C   UNL A   1      34.805  24.328  24.369  1.00  0.00     0.129 C 
BRANCH   8   9
ATOM      9  N   UNL A   1      34.241  24.692  23.073  1.00  0.00    -0.355 N 
ATOM     10  C   UNL A   1      33.155  24.204  22.415  1.00  0.00     0.224 C 
ATOM     11  H   UNL A   1      34.725  25.407  22.600  1.00  0.00     0.163 HD
ATOM     12  O   UNL A   1      33.048  24.473  21.216  1.00  0.00    -0.275 OA
BRANCH  10  13
ATOM     13  C   UNL A   1      32.058  23.462  23.150  1.00  0.00     0.135 C 
BRANCH  13  14
ATOM     14  C   UNL A   1      32.204  21.973  23.359  1.00  0.00    -0.036 A 
ATOM     15  C   UNL A   1      32.028  21.126  22.248  1.00  0.00     0.007 A 
ATOM     16  C   UNL A   1      32.554  21.401  24.589  1.00  0.00     0.046 A 
ATOM     17  C   UNL A   1      32.131  19.740  22.378  1.00  0.00     0.043 A 
ATOM     18  C   UNL A   1      32.637  20.014  24.717  1.00  0.00     0.159 A 
ATOM     19  C   UNL A   1      32.420  19.190  23.620  1.00  0.00     0.158 A 
ATOM     20  F   UNL A   1      32.938  19.484  25.910  1.00  0.00    -0.204 F 
ATOM     21  F   UNL A   1      32.508  17.858  23.745  1.00  0.00    -0.204 F 
ENDBRANCH  13  14
ENDBRANCH  10  13
ENDBRANCH   8   9
ENDBRANCH   6   8
ENDBRANCH   3   6
ENDBRANCH   1   2
BRANCH   1  22
ATOM     22  C   UNL A   1      37.843  19.404  24.932  1.00  0.00     0.042 C 
BRANCH  22  23
ATOM     23  C   UNL A   1      38.947  20.106  25.711  1.00  0.00     0.118 C 
BRANCH  23  24
ATOM     24  N   UNL A   1      40.055  19.212  26.024  1.00  0.00    -0.352 N 
ATOM     25  C   UNL A   1      41.368  19.506  26.296  1.00  0.00     0.251 C 
ATOM     26  H   UNL A   1      39.828  18.255  26.043  1.00  0.00     0.163 HD
ATOM     27  O   UNL A   1      42.202  18.608  26.304  1.00  0.00    -0.269 OA
BRANCH  25  28
ATOM     28  C   UNL A   1      41.768  20.901  26.572  1.00  0.00     0.039 A 
ATOM     29  C   UNL A   1      42.167  21.252  27.863  1.00  0.00     0.014 A 
ATOM     30  C   UNL A   1      41.730  21.865  25.561  1.00  0.00     0.014 A 
ATOM     31  C   UNL A   1      42.571  22.563  28.127  1.00  0.00     0.010 A 
ATOM     32  C   UNL A   1      42.227  23.139  25.800  1.00  0.00     0.010 A 
ATOM     33  C   UNL A   1      42.627  23.510  27.091  1.00  0.00    -0.014 A 
BRANCH  33  34
ATOM     34  C   UNL A   1      43.065  24.905  27.342  1.00  0.00     0.031 A 
ATOM     35  C   UNL A   1      42.125  25.881  28.000  1.00  0.00     0.074 A 
ATOM     36  C   UNL A   1      44.276  25.313  26.912  1.00  0.00     0.049 A 
ATOM     37  N   UNL A   1      42.304  27.150  28.258  1.00  0.00    -0.248 NA
ATOM     38  C   UNL A   1      40.799  25.373  28.390  1.00  0.00     0.031 C 
ATOM     39  C   UNL A   1      45.242  24.482  26.189  1.00  0.00     0.029 A 
ATOM     40  N   UNL A   1      44.889  26.537  26.998  1.00  0.00    -0.354 N 
ATOM     41  C   UNL A   1      41.105  27.599  28.799  1.00  0.00     0.074 A 
ATOM     42  C   UNL A   1      40.190  26.479  28.792  1.00  0.00     0.031 C 
ATOM     43  C   UNL A   1      46.330  25.217  25.910  1.00  0.00     0.029 A 
ATOM     44  C   UNL A   1      46.128  26.576  26.402  1.00  0.00     0.049 A 
ATOM     45  H   UNL A   1      44.482  27.313  27.445  1.00  0.00     0.167 HD
ATOM     46  C   UNL A   1      40.799  28.823  29.290  1.00  0.00     0.034 A 
ATOM     47  C   UNL A   1      46.998  27.595  26.263  1.00  0.00     0.034 A 
ATOM     48  C   UNL A   1      41.727  29.919  29.338  1.00  0.00     0.049 A 
ATOM     49  C   UNL A   1      46.654  28.933  26.858  1.00  0.00     0.074 A 
ATOM     50  C   UNL A   1      41.549  31.172  29.896  1.00  0.00     0.029 A 
ATOM     51  N   UNL A   1      43.006  29.895  28.802  1.00  0.00    -0.354 N 
ATOM     52  N   UNL A   1      45.573  29.295  27.506  1.00  0.00    -0.248 NA
ATOM     53  C   UNL A   1      47.664  29.994  26.737  1.00  0.00     0.031 C 
ATOM     54  C   UNL A   1      42.712  31.917  29.670  1.00  0.00     0.029 A 
ATOM     55  C   UNL A   1      43.627  31.115  29.007  1.00  0.00     0.049 A 
ATOM     56  H   UNL A   1      43.412  29.124  28.344  1.00  0.00     0.167 HD
ATOM     57  C   UNL A   1      45.789  30.608  27.907  1.00  0.00     0.074 A 
ATOM     58  C   UNL A   1      47.113  30.971  27.443  1.00  0.00     0.031 C 
ATOM     59  C   UNL A   1      44.965  31.442  28.587  1.00  0.00     0.034 A 
BRANCH  46  60
ATOM     60  C   UNL A   1      39.419  29.025  29.861  1.00  0.00     0.023 A 
ATOM     61  C   UNL A   1      39.107  28.512  31.137  1.00  0.00     0.012 A 
ATOM     62  C   UNL A   1      38.447  29.764  29.159  1.00  0.00     0.148 A 
ATOM     63  C   UNL A   1      37.840  28.693  31.687  1.00  0.00     0.002 A 
ATOM     64  C   UNL A   1      37.202  29.985  29.736  1.00  0.00     0.091 A 
ATOM     65  F   UNL A   1      38.753  30.227  27.938  1.00  0.00    -0.205 F 
ATOM     66  C   UNL A   1      36.892  29.439  30.992  1.00  0.00     0.022 A 
BRANCH  64  67
ATOM     67  S   UNL A   1      35.941  31.002  28.960  1.00  0.00     0.127 S 
ATOM     68  O   UNL A   1      35.140  31.410  30.113  1.00  0.00    -0.237 OA
ATOM     69  O   UNL A   1      36.737  32.073  28.360  1.00  0.00    -0.237 OA
ATOM     70  O   UNL A   1      35.261  30.140  28.002  1.00  0.00    -0.744 OA
ENDBRANCH  64  67
ENDBRANCH  46  60
BRANCH  47  71
ATOM     71  C   UNL A   1      48.309  27.370  25.589  1.00  0.00     0.023 A 
ATOM     72  C   UNL A   1      49.422  26.971  26.354  1.00  0.00     0.012 A 
ATOM     73  C   UNL A   1      48.453  27.526  24.197  1.00  0.00     0.148 A 
ATOM     74  C   UNL A   1      50.665  26.769  25.752  1.00  0.00     0.002 A 
ATOM     75  C   UNL A   1      49.678  27.268  23.595  1.00  0.00     0.091 A 
ATOM     76  F   UNL A   1      47.382  27.912  23.488  1.00  0.00    -0.205 F 
ATOM     77  C   UNL A   1      50.791  26.909  24.373  1.00  0.00     0.022 A 
BRANCH  75  78
ATOM     78  S   UNL A   1      49.900  27.293  21.813  1.00  0.00     0.127 S 
ATOM     79  O   UNL A   1      49.626  28.693  21.496  1.00  0.00    -0.237 OA
ATOM     80  O   UNL A   1      51.301  26.892  21.678  1.00  0.00    -0.237 OA
ATOM     81  O   UNL A   1      48.947  26.327  21.283  1.00  0.00    -0.744 OA
ENDBRANCH  75  78
ENDBRANCH  47  71
BRANCH  59  82
ATOM     82  C   UNL A   1      45.480  32.817  28.920  1.00  0.00     0.023 A 
ATOM     83  C   UNL A   1      46.199  33.033  30.112  1.00  0.00     0.012 A 
ATOM     84  C   UNL A   1      45.314  33.880  28.010  1.00  0.00     0.148 A 
ATOM     85  C   UNL A   1      46.713  34.295  30.411  1.00  0.00     0.002 A 
ATOM     86  C   UNL A   1      45.875  35.120  28.288  1.00  0.00     0.091 A 
ATOM     87  F   UNL A   1      44.612  33.658  26.889  1.00  0.00    -0.205 F 
ATOM     88  C   UNL A   1      46.563  35.333  29.494  1.00  0.00     0.022 A 
BRANCH  86  89
ATOM     89  S   UNL A   1      45.819  36.484  27.122  1.00  0.00     0.127 S 
ATOM     90  O   UNL A   1      44.382  36.714  27.000  1.00  0.00    -0.237 OA
ATOM     91  O   UNL A   1      46.547  37.533  27.837  1.00  0.00    -0.237 OA
ATOM     92  O   UNL A   1      46.480  36.008  25.914  1.00  0.00    -0.744 OA
ENDBRANCH  86  89
ENDBRANCH  59  82
ENDBRANCH  33  34
ENDBRANCH  25  28
ENDBRANCH  23  24
ENDBRANCH  22  23
ENDBRANCH   1  22
TORSDOF 17
ENDMDL
