MODEL 1
REMARK VINA RESULT:     -12.0      0.000      0.000
REMARK SMILES COC(=O)CNC(=O)N1[C@@H](C(=O)NCCCNC(=O)c2ccc(-c3c4nc(c(-c5cccc(S(=O)(=O)[O-])c5F)c5ccc([nH]5)c(-c5cccc(S(=O)(=O)[O-])c5F)c5nc(c(-c6cccc(S(=O)(=O)[O-])c6F)c6ccc3[nH]6)C=C5)C=C4)cc2)CC[C@@H]2CCCC[C@H]21
REMARK SMILES IDX 14 1 13 2 11 3 12 4 10 6 9 7 90 8 83 9 85 10 89 11 84 12
REMARK SMILES IDX 86 13 88 14 87 15 7 16 6 17 8 19 5 20 3 21 4 22 2 23 1 24
REMARK SMILES IDX 15 25 16 26 17 27 18 28 19 30 20 31 21 32 82 33 22 34 81 35
REMARK SMILES IDX 23 36 24 37 25 38 75 39 26 40 80 41 74 42 76 43 27 44 79 45
REMARK SMILES IDX 73 46 72 47 28 49 60 50 40 51 59 52 41 53 44 54 58 55 77 56
REMARK SMILES IDX 42 57 43 58 57 60 78 61 45 62 29 63 30 64 38 65 31 66 33 67
REMARK SMILES IDX 39 68 32 69 34 70 35 71 36 72 37 73 61 74 62 75 70 76 63 77
REMARK SMILES IDX 65 78 71 79 64 80 66 81 67 82 68 83 69 84 46 85 47 86 55 87
REMARK SMILES IDX 48 88 50 89 56 90 49 91 51 92 52 93 53 94 54 95
REMARK H PARENT 13 5 6 18 17 29 76 48 44 59
REMARK Flexibility Score: inf
ROOT
ATOM      1  C   UNL A   1      32.281  30.375  26.094  1.00  0.00     0.117 C 
ENDROOT
BRANCH   1   2
ATOM      2  N   UNL A   1      31.750  29.296  26.909  1.00  0.00    -0.354 N 
ATOM      3  C   UNL A   1      31.822  27.952  26.727  1.00  0.00     0.242 C 
ATOM      4  O   UNL A   1      31.154  27.237  27.483  1.00  0.00    -0.273 OA
ATOM      5  H   UNL A   1      31.264  29.582  27.716  1.00  0.00     0.163 HD
BRANCH   3   6
ATOM      6  C   UNL A   1      32.615  27.320  25.560  1.00  0.00     0.176 C 
ATOM      7  N   UNL A   1      31.850  26.488  24.594  1.00  0.00    -0.310 N 
ATOM      8  C   UNL A   1      32.675  25.632  23.687  1.00  0.00     0.091 C 
ATOM      9  C   UNL A   1      33.763  26.554  26.251  1.00  0.00     0.036 C 
ATOM     10  C   UNL A   1      33.720  24.805  24.472  1.00  0.00     0.012 C 
ATOM     11  C   UNL A   1      31.912  24.721  22.701  1.00  0.00     0.025 C 
ATOM     12  C   UNL A   1      34.607  25.734  25.299  1.00  0.00     0.008 C 
ATOM     13  C   UNL A   1      34.613  23.953  23.556  1.00  0.00     0.006 C 
ATOM     14  C   UNL A   1      32.843  23.928  21.789  1.00  0.00     0.002 C 
ATOM     15  C   UNL A   1      33.809  23.082  22.603  1.00  0.00     0.000 C 
BRANCH   7  16
ATOM     16  C   UNL A   1      30.508  26.635  24.342  1.00  0.00     0.318 C 
ATOM     17  N   UNL A   1      29.999  27.664  23.648  1.00  0.00    -0.327 N 
ATOM     18  H   UNL A   1      29.047  27.817  23.848  1.00  0.00     0.166 HD
ATOM     19  O   UNL A   1      29.658  25.861  24.791  1.00  0.00    -0.249 OA
BRANCH  17  20
ATOM     20  C   UNL A   1      30.521  28.610  22.669  1.00  0.00     0.240 C 
BRANCH  20  21
ATOM     21  C   UNL A   1      29.518  29.668  22.228  1.00  0.00     0.325 C 
ATOM     22  O   UNL A   1      29.521  30.176  21.112  1.00  0.00    -0.250 OA
BRANCH  21  23
ATOM     23  O   UNL A   1      28.538  29.849  23.155  1.00  0.00    -0.468 OA
ATOM     24  C   UNL A   1      27.751  31.021  22.949  1.00  0.00     0.282 C 
ENDBRANCH  21  23
ENDBRANCH  20  21
ENDBRANCH  17  20
ENDBRANCH   7  16
ENDBRANCH   3   6
ENDBRANCH   1   2
BRANCH   1  25
ATOM     25  C   UNL A   1      31.830  31.728  26.621  1.00  0.00     0.042 C 
BRANCH  25  26
ATOM     26  C   UNL A   1      32.907  32.463  27.407  1.00  0.00     0.118 C 
BRANCH  26  27
ATOM     27  N   UNL A   1      32.579  33.865  27.632  1.00  0.00    -0.352 N 
ATOM     28  C   UNL A   1      33.092  34.731  28.566  1.00  0.00     0.251 C 
ATOM     29  H   UNL A   1      31.896  34.243  27.032  1.00  0.00     0.163 HD
ATOM     30  O   UNL A   1      32.579  35.832  28.739  1.00  0.00    -0.269 OA
BRANCH  28  31
ATOM     31  C   UNL A   1      34.252  34.312  29.379  1.00  0.00     0.039 A 
ATOM     32  C   UNL A   1      34.035  33.597  30.557  1.00  0.00     0.014 A 
ATOM     33  C   UNL A   1      35.552  34.590  28.947  1.00  0.00     0.014 A 
ATOM     34  C   UNL A   1      35.128  33.096  31.268  1.00  0.00     0.010 A 
ATOM     35  C   UNL A   1      36.632  34.017  29.606  1.00  0.00     0.010 A 
ATOM     36  C   UNL A   1      36.432  33.268  30.775  1.00  0.00    -0.014 A 
BRANCH  36  37
ATOM     37  C   UNL A   1      37.604  32.658  31.453  1.00  0.00     0.031 A 
ATOM     38  C   UNL A   1      38.329  31.506  30.812  1.00  0.00     0.074 A 
ATOM     39  C   UNL A   1      37.945  33.070  32.691  1.00  0.00     0.049 A 
ATOM     40  N   UNL A   1      39.313  30.788  31.284  1.00  0.00    -0.248 NA
ATOM     41  C   UNL A   1      37.867  31.086  29.478  1.00  0.00     0.031 C 
ATOM     42  C   UNL A   1      37.263  34.118  33.452  1.00  0.00     0.029 A 
ATOM     43  N   UNL A   1      38.930  32.631  33.540  1.00  0.00    -0.354 N 
ATOM     44  C   UNL A   1      39.560  29.809  30.329  1.00  0.00     0.074 A 
ATOM     45  C   UNL A   1      38.600  30.004  29.265  1.00  0.00     0.031 C 
ATOM     46  C   UNL A   1      37.849  34.242  34.654  1.00  0.00     0.029 A 
ATOM     47  C   UNL A   1      38.924  33.262  34.763  1.00  0.00     0.049 A 
ATOM     48  H   UNL A   1      39.579  31.931  33.298  1.00  0.00     0.167 HD
ATOM     49  C   UNL A   1      40.518  28.852  30.325  1.00  0.00     0.034 A 
ATOM     50  C   UNL A   1      39.691  33.064  35.854  1.00  0.00     0.034 A 
ATOM     51  C   UNL A   1      41.501  28.695  31.361  1.00  0.00     0.049 A 
ATOM     52  C   UNL A   1      40.777  32.024  35.804  1.00  0.00     0.074 A 
ATOM     53  C   UNL A   1      42.577  27.827  31.400  1.00  0.00     0.029 A 
ATOM     54  N   UNL A   1      41.525  29.417  32.544  1.00  0.00    -0.354 N 
ATOM     55  N   UNL A   1      41.105  31.221  34.820  1.00  0.00    -0.248 NA
ATOM     56  C   UNL A   1      41.620  31.884  36.999  1.00  0.00     0.031 C 
ATOM     57  C   UNL A   1      43.238  28.007  32.619  1.00  0.00     0.029 A 
ATOM     58  C   UNL A   1      42.588  29.004  33.328  1.00  0.00     0.049 A 
ATOM     59  H   UNL A   1      40.881  30.119  32.791  1.00  0.00     0.167 HD
ATOM     60  C   UNL A   1      42.210  30.506  35.264  1.00  0.00     0.074 A 
ATOM     61  C   UNL A   1      42.510  30.985  36.598  1.00  0.00     0.031 C 
ATOM     62  C   UNL A   1      42.905  29.528  34.632  1.00  0.00     0.034 A 
BRANCH  49  63
ATOM     63  C   UNL A   1      40.585  27.933  29.134  1.00  0.00     0.023 A 
ATOM     64  C   UNL A   1      39.687  26.849  29.039  1.00  0.00     0.012 A 
ATOM     65  C   UNL A   1      41.491  28.173  28.082  1.00  0.00     0.148 A 
ATOM     66  C   UNL A   1      39.712  25.999  27.935  1.00  0.00     0.002 A 
ATOM     67  C   UNL A   1      41.479  27.347  26.963  1.00  0.00     0.091 A 
ATOM     68  F   UNL A   1      42.352  29.194  28.199  1.00  0.00    -0.205 F 
ATOM     69  C   UNL A   1      40.599  26.255  26.893  1.00  0.00     0.022 A 
BRANCH  67  70
ATOM     70  S   UNL A   1      42.526  27.640  25.533  1.00  0.00     0.127 S 
ATOM     71  O   UNL A   1      41.983  28.897  25.022  1.00  0.00    -0.237 OA
ATOM     72  O   UNL A   1      43.853  27.752  26.141  1.00  0.00    -0.237 OA
ATOM     73  O   UNL A   1      42.352  26.485  24.665  1.00  0.00    -0.744 OA
ENDBRANCH  67  70
ENDBRANCH  49  63
BRANCH  50  74
ATOM     74  C   UNL A   1      39.496  33.912  37.064  1.00  0.00     0.023 A 
ATOM     75  C   UNL A   1      39.931  35.252  37.045  1.00  0.00     0.012 A 
ATOM     76  C   UNL A   1      38.858  33.413  38.215  1.00  0.00     0.148 A 
ATOM     77  C   UNL A   1      39.763  36.070  38.164  1.00  0.00     0.002 A 
ATOM     78  C   UNL A   1      38.643  34.250  39.305  1.00  0.00     0.091 A 
ATOM     79  F   UNL A   1      38.461  32.133  38.218  1.00  0.00    -0.205 F 
ATOM     80  C   UNL A   1      39.110  35.572  39.288  1.00  0.00     0.022 A 
BRANCH  78  81
ATOM     81  S   UNL A   1      37.694  33.734  40.742  1.00  0.00     0.127 S 
ATOM     82  O   UNL A   1      38.611  32.798  41.386  1.00  0.00    -0.237 OA
ATOM     83  O   UNL A   1      37.507  35.000  41.451  1.00  0.00    -0.237 OA
ATOM     84  O   UNL A   1      36.465  33.157  40.214  1.00  0.00    -0.744 OA
ENDBRANCH  78  81
ENDBRANCH  50  74
BRANCH  62  85
ATOM     85  C   UNL A   1      44.080  28.924  35.354  1.00  0.00     0.023 A 
ATOM     86  C   UNL A   1      45.353  29.514  35.233  1.00  0.00     0.012 A 
ATOM     87  C   UNL A   1      43.904  27.828  36.222  1.00  0.00     0.148 A 
ATOM     88  C   UNL A   1      46.441  29.005  35.944  1.00  0.00     0.002 A 
ATOM     89  C   UNL A   1      44.981  27.357  36.964  1.00  0.00     0.091 A 
ATOM     90  F   UNL A   1      42.687  27.271  36.309  1.00  0.00    -0.205 F 
ATOM     91  C   UNL A   1      46.251  27.936  36.817  1.00  0.00     0.022 A 
BRANCH  89  92
ATOM     92  S   UNL A   1      44.812  26.050  38.185  1.00  0.00     0.127 S 
ATOM     93  O   UNL A   1      43.708  26.549  39.003  1.00  0.00    -0.237 OA
ATOM     94  O   UNL A   1      44.482  24.891  37.355  1.00  0.00    -0.237 OA
ATOM     95  O   UNL A   1      46.099  25.962  38.862  1.00  0.00    -0.744 OA
ENDBRANCH  89  92
ENDBRANCH  62  85
ENDBRANCH  36  37
ENDBRANCH  28  31
ENDBRANCH  26  27
ENDBRANCH  25  26
ENDBRANCH   1  25
TORSDOF 17
ENDMDL
MODEL 2
REMARK VINA RESULT:     -11.6      3.964      9.052
REMARK SMILES COC(=O)CNC(=O)N1[C@@H](C(=O)NCCCNC(=O)c2ccc(-c3c4nc(c(-c5cccc(S(=O)(=O)[O-])c5F)c5ccc([nH]5)c(-c5cccc(S(=O)(=O)[O-])c5F)c5nc(c(-c6cccc(S(=O)(=O)[O-])c6F)c6ccc3[nH]6)C=C5)C=C4)cc2)CC[C@@H]2CCCC[C@H]21
REMARK SMILES IDX 14 1 13 2 11 3 12 4 10 6 9 7 90 8 83 9 85 10 89 11 84 12
REMARK SMILES IDX 86 13 88 14 87 15 7 16 6 17 8 19 5 20 3 21 4 22 2 23 1 24
REMARK SMILES IDX 15 25 16 26 17 27 18 28 19 30 20 31 21 32 82 33 22 34 81 35
REMARK SMILES IDX 23 36 24 37 25 38 75 39 26 40 80 41 74 42 76 43 27 44 79 45
REMARK SMILES IDX 73 46 72 47 28 49 60 50 40 51 59 52 41 53 44 54 58 55 77 56
REMARK SMILES IDX 42 57 43 58 57 60 78 61 45 62 29 63 30 64 38 65 31 66 33 67
REMARK SMILES IDX 39 68 32 69 34 70 35 71 36 72 37 73 61 74 62 75 70 76 63 77
REMARK SMILES IDX 65 78 71 79 64 80 66 81 67 82 68 83 69 84 46 85 47 86 55 87
REMARK SMILES IDX 48 88 50 89 56 90 49 91 51 92 52 93 53 94 54 95
REMARK H PARENT 13 5 6 18 17 29 76 48 44 59
REMARK Flexibility Score: inf
ROOT
ATOM      1  C   UNL A   1      33.755  27.041  25.355  1.00  0.00     0.117 C 
ENDROOT
BRANCH   1   2
ATOM      2  N   UNL A   1      32.930  26.375  26.349  1.00  0.00    -0.354 N 
ATOM      3  C   UNL A   1      32.636  25.058  26.495  1.00  0.00     0.242 C 
ATOM      4  O   UNL A   1      31.781  24.753  27.334  1.00  0.00    -0.273 OA
ATOM      5  H   UNL A   1      32.522  26.971  27.019  1.00  0.00     0.163 HD
BRANCH   3   6
ATOM      6  C   UNL A   1      33.253  23.971  25.585  1.00  0.00     0.176 C 
ATOM      7  N   UNL A   1      32.407  22.788  25.275  1.00  0.00    -0.310 N 
ATOM      8  C   UNL A   1      33.128  21.619  24.683  1.00  0.00     0.091 C 
ATOM      9  C   UNL A   1      34.583  23.605  26.278  1.00  0.00     0.036 C 
ATOM     10  C   UNL A   1      34.381  21.241  25.506  1.00  0.00     0.012 C 
ATOM     11  C   UNL A   1      32.288  20.357  24.390  1.00  0.00     0.025 C 
ATOM     12  C   UNL A   1      35.310  22.448  25.628  1.00  0.00     0.008 C 
ATOM     13  C   UNL A   1      35.166  20.071  24.891  1.00  0.00     0.006 C 
ATOM     14  C   UNL A   1      33.104  19.242  23.743  1.00  0.00     0.002 C 
ATOM     15  C   UNL A   1      34.288  18.860  24.617  1.00  0.00     0.000 C 
BRANCH   7  16
ATOM     16  C   UNL A   1      31.034  22.799  25.280  1.00  0.00     0.318 C 
ATOM     17  N   UNL A   1      30.303  23.597  24.488  1.00  0.00    -0.327 N 
ATOM     18  H   UNL A   1      29.395  23.746  24.839  1.00  0.00     0.166 HD
ATOM     19  O   UNL A   1      30.366  22.117  26.061  1.00  0.00    -0.249 OA
BRANCH  17  20
ATOM     20  C   UNL A   1      30.533  24.298  23.230  1.00  0.00     0.240 C 
BRANCH  20  21
ATOM     21  C   UNL A   1      30.696  25.805  23.377  1.00  0.00     0.325 C 
ATOM     22  O   UNL A   1      30.387  26.421  24.391  1.00  0.00    -0.250 OA
BRANCH  21  23
ATOM     23  O   UNL A   1      31.371  26.344  22.324  1.00  0.00    -0.468 OA
ATOM     24  C   UNL A   1      32.624  25.717  22.053  1.00  0.00     0.282 C 
ENDBRANCH  21  23
ENDBRANCH  20  21
ENDBRANCH  17  20
ENDBRANCH   7  16
ENDBRANCH   3   6
ENDBRANCH   1   2
BRANCH   1  25
ATOM     25  C   UNL A   1      33.864  28.529  25.645  1.00  0.00     0.042 C 
BRANCH  25  26
ATOM     26  C   UNL A   1      33.496  28.898  27.075  1.00  0.00     0.118 C 
BRANCH  26  27
ATOM     27  N   UNL A   1      33.605  30.328  27.332  1.00  0.00    -0.352 N 
ATOM     28  C   UNL A   1      34.604  31.014  27.979  1.00  0.00     0.251 C 
ATOM     29  H   UNL A   1      32.861  30.878  26.995  1.00  0.00     0.163 HD
ATOM     30  O   UNL A   1      34.457  32.198  28.267  1.00  0.00    -0.269 OA
BRANCH  28  31
ATOM     31  C   UNL A   1      35.846  30.305  28.347  1.00  0.00     0.039 A 
ATOM     32  C   UNL A   1      36.925  30.320  27.463  1.00  0.00     0.014 A 
ATOM     33  C   UNL A   1      35.951  29.665  29.586  1.00  0.00     0.014 A 
ATOM     34  C   UNL A   1      38.140  29.754  27.854  1.00  0.00     0.010 A 
ATOM     35  C   UNL A   1      37.183  29.182  30.006  1.00  0.00     0.010 A 
ATOM     36  C   UNL A   1      38.289  29.217  29.144  1.00  0.00    -0.014 A 
BRANCH  36  37
ATOM     37  C   UNL A   1      39.597  28.702  29.624  1.00  0.00     0.031 A 
ATOM     38  C   UNL A   1      40.330  29.421  30.724  1.00  0.00     0.074 A 
ATOM     39  C   UNL A   1      40.172  27.657  28.996  1.00  0.00     0.049 A 
ATOM     40  N   UNL A   1      41.516  29.178  31.217  1.00  0.00    -0.248 NA
ATOM     41  C   UNL A   1      39.656  30.582  31.329  1.00  0.00     0.031 C 
ATOM     42  C   UNL A   1      39.599  26.933  27.859  1.00  0.00     0.029 A 
ATOM     43  N   UNL A   1      41.382  27.043  29.203  1.00  0.00    -0.354 N 
ATOM     44  C   UNL A   1      41.747  30.177  32.156  1.00  0.00     0.074 A 
ATOM     45  C   UNL A   1      40.592  31.048  32.141  1.00  0.00     0.031 C 
ATOM     46  C   UNL A   1      40.455  25.974  27.470  1.00  0.00     0.029 A 
ATOM     47  C   UNL A   1      41.651  26.036  28.304  1.00  0.00     0.049 A 
ATOM     48  H   UNL A   1      42.000  27.299  29.926  1.00  0.00     0.167 HD
ATOM     49  C   UNL A   1      42.811  30.338  32.977  1.00  0.00     0.034 A 
ATOM     50  C   UNL A   1      42.742  25.259  28.161  1.00  0.00     0.034 A 
ATOM     51  C   UNL A   1      43.932  29.440  33.024  1.00  0.00     0.049 A 
ATOM     52  C   UNL A   1      43.891  25.431  29.117  1.00  0.00     0.074 A 
ATOM     53  C   UNL A   1      45.009  29.455  33.892  1.00  0.00     0.029 A 
ATOM     54  N   UNL A   1      44.126  28.372  32.162  1.00  0.00    -0.354 N 
ATOM     55  N   UNL A   1      44.016  26.275  30.113  1.00  0.00    -0.248 NA
ATOM     56  C   UNL A   1      45.035  24.523  28.953  1.00  0.00     0.031 C 
ATOM     57  C   UNL A   1      45.868  28.409  33.539  1.00  0.00     0.029 A 
ATOM     58  C   UNL A   1      45.313  27.729  32.467  1.00  0.00     0.049 A 
ATOM     59  H   UNL A   1      43.512  28.110  31.440  1.00  0.00     0.167 HD
ATOM     60  C   UNL A   1      45.234  25.978  30.713  1.00  0.00     0.074 A 
ATOM     61  C   UNL A   1      45.800  24.863  29.982  1.00  0.00     0.031 C 
ATOM     62  C   UNL A   1      45.838  26.586  31.764  1.00  0.00     0.034 A 
BRANCH  49  63
ATOM     63  C   UNL A   1      42.788  31.500  33.934  1.00  0.00     0.023 A 
ATOM     64  C   UNL A   1      43.344  32.736  33.543  1.00  0.00     0.012 A 
ATOM     65  C   UNL A   1      42.167  31.390  35.194  1.00  0.00     0.148 A 
ATOM     66  C   UNL A   1      43.313  33.834  34.401  1.00  0.00     0.002 A 
ATOM     67  C   UNL A   1      42.099  32.502  36.025  1.00  0.00     0.091 A 
ATOM     68  F   UNL A   1      41.664  30.202  35.558  1.00  0.00    -0.205 F 
ATOM     69  C   UNL A   1      42.681  33.720  35.637  1.00  0.00     0.022 A 
BRANCH  67  70
ATOM     70  S   UNL A   1      41.237  32.482  37.602  1.00  0.00     0.127 S 
ATOM     71  O   UNL A   1      39.937  31.934  37.220  1.00  0.00    -0.237 OA
ATOM     72  O   UNL A   1      42.070  31.577  38.396  1.00  0.00    -0.237 OA
ATOM     73  O   UNL A   1      41.222  33.860  38.069  1.00  0.00    -0.744 OA
ENDBRANCH  67  70
ENDBRANCH  49  63
BRANCH  50  74
ATOM     74  C   UNL A   1      42.773  24.207  27.105  1.00  0.00     0.023 A 
ATOM     75  C   UNL A   1      43.482  24.447  25.912  1.00  0.00     0.012 A 
ATOM     76  C   UNL A   1      42.136  22.965  27.288  1.00  0.00     0.148 A 
ATOM     77  C   UNL A   1      43.528  23.481  24.905  1.00  0.00     0.002 A 
ATOM     78  C   UNL A   1      42.233  21.986  26.305  1.00  0.00     0.091 A 
ATOM     79  F   UNL A   1      41.457  22.759  28.425  1.00  0.00    -0.205 F 
ATOM     80  C   UNL A   1      42.913  22.249  25.106  1.00  0.00     0.022 A 
BRANCH  78  81
ATOM     81  S   UNL A   1      41.587  20.325  26.534  1.00  0.00     0.127 S 
ATOM     82  O   UNL A   1      40.146  20.557  26.507  1.00  0.00    -0.237 OA
ATOM     83  O   UNL A   1      42.122  19.628  25.363  1.00  0.00    -0.237 OA
ATOM     84  O   UNL A   1      42.132  19.863  27.804  1.00  0.00    -0.744 OA
ENDBRANCH  78  81
ENDBRANCH  50  74
BRANCH  62  85
ATOM     85  C   UNL A   1      47.169  26.045  32.216  1.00  0.00     0.023 A 
ATOM     86  C   UNL A   1      47.230  25.169  33.316  1.00  0.00     0.012 A 
ATOM     87  C   UNL A   1      48.344  26.334  31.494  1.00  0.00     0.148 A 
ATOM     88  C   UNL A   1      48.446  24.610  33.711  1.00  0.00     0.002 A 
ATOM     89  C   UNL A   1      49.543  25.736  31.862  1.00  0.00     0.091 A 
ATOM     90  F   UNL A   1      48.266  27.184  30.459  1.00  0.00    -0.205 F 
ATOM     91  C   UNL A   1      49.597  24.883  32.977  1.00  0.00     0.022 A 
BRANCH  89  92
ATOM     92  S   UNL A   1      51.057  25.950  30.919  1.00  0.00     0.127 S 
ATOM     93  O   UNL A   1      51.309  27.381  31.083  1.00  0.00    -0.237 OA
ATOM     94  O   UNL A   1      51.992  25.080  31.633  1.00  0.00    -0.237 OA
ATOM     95  O   UNL A   1      50.750  25.522  29.561  1.00  0.00    -0.744 OA
ENDBRANCH  89  92
ENDBRANCH  62  85
ENDBRANCH  36  37
ENDBRANCH  28  31
ENDBRANCH  26  27
ENDBRANCH  25  26
ENDBRANCH   1  25
TORSDOF 17
ENDMDL
MODEL 3
REMARK VINA RESULT:     -11.6      6.119      9.652
REMARK SMILES COC(=O)CNC(=O)N1[C@@H](C(=O)NCCCNC(=O)c2ccc(-c3c4nc(c(-c5cccc(S(=O)(=O)[O-])c5F)c5ccc([nH]5)c(-c5cccc(S(=O)(=O)[O-])c5F)c5nc(c(-c6cccc(S(=O)(=O)[O-])c6F)c6ccc3[nH]6)C=C5)C=C4)cc2)CC[C@@H]2CCCC[C@H]21
REMARK SMILES IDX 14 1 13 2 11 3 12 4 10 6 9 7 90 8 83 9 85 10 89 11 84 12
REMARK SMILES IDX 86 13 88 14 87 15 7 16 6 17 8 19 5 20 3 21 4 22 2 23 1 24
REMARK SMILES IDX 15 25 16 26 17 27 18 28 19 30 20 31 21 32 82 33 22 34 81 35
REMARK SMILES IDX 23 36 24 37 25 38 75 39 26 40 80 41 74 42 76 43 27 44 79 45
REMARK SMILES IDX 73 46 72 47 28 49 60 50 40 51 59 52 41 53 44 54 58 55 77 56
REMARK SMILES IDX 42 57 43 58 57 60 78 61 45 62 29 63 30 64 38 65 31 66 33 67
REMARK SMILES IDX 39 68 32 69 34 70 35 71 36 72 37 73 61 74 62 75 70 76 63 77
REMARK SMILES IDX 65 78 71 79 64 80 66 81 67 82 68 83 69 84 46 85 47 86 55 87
REMARK SMILES IDX 48 88 50 89 56 90 49 91 51 92 52 93 53 94 54 95
REMARK H PARENT 13 5 6 18 17 29 76 48 44 59
REMARK Flexibility Score: inf
ROOT
ATOM      1  C   UNL A   1      36.577  20.698  25.105  1.00  0.00     0.117 C 
ENDROOT
BRANCH   1   2
ATOM      2  N   UNL A   1      36.614  21.652  24.009  1.00  0.00    -0.354 N 
ATOM      3  C   UNL A   1      35.858  22.759  23.793  1.00  0.00     0.242 C 
ATOM      4  O   UNL A   1      35.977  23.328  22.702  1.00  0.00    -0.273 OA
ATOM      5  H   UNL A   1      37.292  21.468  23.319  1.00  0.00     0.163 HD
BRANCH   3   6
ATOM      6  C   UNL A   1      34.802  23.247  24.812  1.00  0.00     0.176 C 
ATOM      7  N   UNL A   1      33.374  23.133  24.413  1.00  0.00    -0.310 N 
ATOM      8  C   UNL A   1      32.408  23.904  25.256  1.00  0.00     0.091 C 
ATOM      9  C   UNL A   1      35.232  24.693  25.141  1.00  0.00     0.036 C 
ATOM     10  C   UNL A   1      32.849  25.375  25.436  1.00  0.00     0.012 C 
ATOM     11  C   UNL A   1      30.921  23.845  24.843  1.00  0.00     0.025 C 
ATOM     12  C   UNL A   1      34.255  25.429  26.032  1.00  0.00     0.008 C 
ATOM     13  C   UNL A   1      31.896  26.175  26.338  1.00  0.00     0.006 C 
ATOM     14  C   UNL A   1      30.014  24.621  25.793  1.00  0.00     0.002 C 
ATOM     15  C   UNL A   1      30.446  26.075  25.889  1.00  0.00     0.000 C 
BRANCH   7  16
ATOM     16  C   UNL A   1      32.896  22.218  23.509  1.00  0.00     0.318 C 
ATOM     17  N   UNL A   1      32.832  20.901  23.759  1.00  0.00    -0.327 N 
ATOM     18  H   UNL A   1      32.809  20.363  22.935  1.00  0.00     0.166 HD
ATOM     19  O   UNL A   1      32.545  22.530  22.368  1.00  0.00    -0.249 OA
BRANCH  17  20
ATOM     20  C   UNL A   1      32.790  20.079  24.963  1.00  0.00     0.240 C 
BRANCH  20  21
ATOM     21  C   UNL A   1      33.035  18.597  24.713  1.00  0.00     0.325 C 
ATOM     22  O   UNL A   1      34.050  18.162  24.179  1.00  0.00    -0.250 OA
BRANCH  21  23
ATOM     23  O   UNL A   1      32.081  17.823  25.299  1.00  0.00    -0.468 OA
ATOM     24  C   UNL A   1      32.567  16.580  25.803  1.00  0.00     0.282 C 
ENDBRANCH  21  23
ENDBRANCH  20  21
ENDBRANCH  17  20
ENDBRANCH   7  16
ENDBRANCH   3   6
ENDBRANCH   1   2
BRANCH   1  25
ATOM     25  C   UNL A   1      37.815  19.817  25.102  1.00  0.00     0.042 C 
BRANCH  25  26
ATOM     26  C   UNL A   1      39.100  20.574  25.404  1.00  0.00     0.118 C 
BRANCH  26  27
ATOM     27  N   UNL A   1      40.065  19.772  26.146  1.00  0.00    -0.352 N 
ATOM     28  C   UNL A   1      41.121  20.189  26.916  1.00  0.00     0.251 C 
ATOM     29  H   UNL A   1      39.941  18.797  26.086  1.00  0.00     0.163 HD
ATOM     30  O   UNL A   1      41.945  19.379  27.330  1.00  0.00    -0.269 OA
BRANCH  28  31
ATOM     31  C   UNL A   1      41.270  21.626  27.220  1.00  0.00     0.039 A 
ATOM     32  C   UNL A   1      41.790  22.010  28.457  1.00  0.00     0.014 A 
ATOM     33  C   UNL A   1      40.937  22.588  26.261  1.00  0.00     0.014 A 
ATOM     34  C   UNL A   1      42.044  23.361  28.706  1.00  0.00     0.010 A 
ATOM     35  C   UNL A   1      41.272  23.918  26.478  1.00  0.00     0.010 A 
ATOM     36  C   UNL A   1      41.825  24.319  27.703  1.00  0.00    -0.014 A 
BRANCH  36  37
ATOM     37  C   UNL A   1      42.182  25.747  27.902  1.00  0.00     0.031 A 
ATOM     38  C   UNL A   1      43.557  26.236  27.534  1.00  0.00     0.074 A 
ATOM     39  C   UNL A   1      41.310  26.572  28.513  1.00  0.00     0.049 A 
ATOM     40  N   UNL A   1      44.085  27.418  27.713  1.00  0.00    -0.248 NA
ATOM     41  C   UNL A   1      44.469  25.261  26.912  1.00  0.00     0.031 C 
ATOM     42  C   UNL A   1      39.980  26.192  28.995  1.00  0.00     0.029 A 
ATOM     43  N   UNL A   1      41.424  27.894  28.865  1.00  0.00    -0.354 N 
ATOM     44  C   UNL A   1      45.397  27.319  27.266  1.00  0.00     0.074 A 
ATOM     45  C   UNL A   1      45.596  25.952  26.839  1.00  0.00     0.031 C 
ATOM     46  C   UNL A   1      39.402  27.255  29.579  1.00  0.00     0.029 A 
ATOM     47  C   UNL A   1      40.330  28.381  29.543  1.00  0.00     0.049 A 
ATOM     48  H   UNL A   1      42.213  28.443  28.652  1.00  0.00     0.167 HD
ATOM     49  C   UNL A   1      46.342  28.286  27.192  1.00  0.00     0.034 A 
ATOM     50  C   UNL A   1      40.104  29.593  30.086  1.00  0.00     0.034 A 
ATOM     51  C   UNL A   1      46.122  29.654  27.570  1.00  0.00     0.049 A 
ATOM     52  C   UNL A   1      41.155  30.661  29.949  1.00  0.00     0.074 A 
ATOM     53  C   UNL A   1      46.979  30.732  27.434  1.00  0.00     0.029 A 
ATOM     54  N   UNL A   1      44.966  30.134  28.166  1.00  0.00    -0.354 N 
ATOM     55  N   UNL A   1      42.328  30.593  29.367  1.00  0.00    -0.248 NA
ATOM     56  C   UNL A   1      40.839  31.982  30.510  1.00  0.00     0.031 C 
ATOM     57  C   UNL A   1      46.350  31.860  27.971  1.00  0.00     0.029 A 
ATOM     58  C   UNL A   1      45.092  31.489  28.419  1.00  0.00     0.049 A 
ATOM     59  H   UNL A   1      44.173  29.592  28.379  1.00  0.00     0.167 HD
ATOM     60  C   UNL A   1      42.876  31.867  29.464  1.00  0.00     0.074 A 
ATOM     61  C   UNL A   1      41.897  32.692  30.141  1.00  0.00     0.031 C 
ATOM     62  C   UNL A   1      44.088  32.309  29.045  1.00  0.00     0.034 A 
BRANCH  49  63
ATOM     63  C   UNL A   1      47.686  27.909  26.628  1.00  0.00     0.023 A 
ATOM     64  C   UNL A   1      48.742  27.581  27.504  1.00  0.00     0.012 A 
ATOM     65  C   UNL A   1      47.891  27.822  25.237  1.00  0.00     0.148 A 
ATOM     66  C   UNL A   1      49.989  27.205  27.006  1.00  0.00     0.002 A 
ATOM     67  C   UNL A   1      49.123  27.402  24.749  1.00  0.00     0.091 A 
ATOM     68  F   UNL A   1      46.884  28.159  24.419  1.00  0.00    -0.205 F 
ATOM     69  C   UNL A   1      50.176  27.104  25.631  1.00  0.00     0.022 A 
BRANCH  67  70
ATOM     70  S   UNL A   1      49.440  27.163  22.997  1.00  0.00     0.127 S 
ATOM     71  O   UNL A   1      50.853  26.785  23.002  1.00  0.00    -0.237 OA
ATOM     72  O   UNL A   1      48.520  26.074  22.663  1.00  0.00    -0.237 OA
ATOM     73  O   UNL A   1      49.136  28.434  22.356  1.00  0.00    -0.744 OA
ENDBRANCH  67  70
ENDBRANCH  49  63
BRANCH  50  74
ATOM     74  C   UNL A   1      38.804  29.878  30.757  1.00  0.00     0.023 A 
ATOM     75  C   UNL A   1      38.555  29.341  32.035  1.00  0.00     0.012 A 
ATOM     76  C   UNL A   1      37.831  30.699  30.155  1.00  0.00     0.148 A 
ATOM     77  C   UNL A   1      37.346  29.590  32.688  1.00  0.00     0.002 A 
ATOM     78  C   UNL A   1      36.653  30.989  30.835  1.00  0.00     0.091 A 
ATOM     79  F   UNL A   1      38.082  31.192  28.934  1.00  0.00    -0.205 F 
ATOM     80  C   UNL A   1      36.402  30.421  32.093  1.00  0.00     0.022 A 
BRANCH  78  81
ATOM     81  S   UNL A   1      35.440  32.155  30.205  1.00  0.00     0.127 S 
ATOM     82  O   UNL A   1      34.518  32.268  31.332  1.00  0.00    -0.237 OA
ATOM     83  O   UNL A   1      36.261  33.342  29.959  1.00  0.00    -0.237 OA
ATOM     84  O   UNL A   1      34.897  31.543  29.000  1.00  0.00    -0.744 OA
ENDBRANCH  78  81
ENDBRANCH  50  74
BRANCH  62  85
ATOM     85  C   UNL A   1      44.421  33.760  29.275  1.00  0.00     0.023 A 
ATOM     86  C   UNL A   1      45.012  34.157  30.490  1.00  0.00     0.012 A 
ATOM     87  C   UNL A   1      44.230  34.712  28.253  1.00  0.00     0.148 A 
ATOM     88  C   UNL A   1      45.383  35.486  30.696  1.00  0.00     0.002 A 
ATOM     89  C   UNL A   1      44.647  36.023  28.446  1.00  0.00     0.091 A 
ATOM     90  F   UNL A   1      43.650  34.314  27.111  1.00  0.00    -0.205 F 
ATOM     91  C   UNL A   1      45.213  36.414  29.671  1.00  0.00     0.022 A 
BRANCH  89  92
ATOM     92  S   UNL A   1      44.558  37.264  27.150  1.00  0.00     0.127 S 
ATOM     93  O   UNL A   1      45.691  36.891  26.305  1.00  0.00    -0.237 OA
ATOM     94  O   UNL A   1      43.244  37.002  26.561  1.00  0.00    -0.237 OA
ATOM     95  O   UNL A   1      44.676  38.553  27.818  1.00  0.00    -0.744 OA
ENDBRANCH  89  92
ENDBRANCH  62  85
ENDBRANCH  36  37
ENDBRANCH  28  31
ENDBRANCH  26  27
ENDBRANCH  25  26
ENDBRANCH   1  25
TORSDOF 17
ENDMDL
