MODEL 1
REMARK VINA RESULT:     -12.8      0.000      0.000
REMARK SMILES CC(=O)N1CCC2(CC1)C[C@H](C(=O)NCCCNC(=O)c1ccc(-c3c4nc(c(-c5cccc(S(=O)(=O)[O-])c5F)c5ccc([nH]5)c(-c5cccc(S(=O)(=O)[O-])c5F)c5nc(c(-c6cccc(S(=O)(=O)[O-])c6F)c6ccc3[nH]6)C=C5)C=C4)cc1)[N@H+](Cc1ncc[nH]1)C2
REMARK SMILES IDX 16 1 15 2 14 3 12 4 13 5 11 7 1 8 2 9 3 10 4 11 5 12 9 13
REMARK SMILES IDX 6 14 8 15 7 16 10 17 91 18 84 19 85 21 86 22 87 23 90 24
REMARK SMILES IDX 88 25 89 26 17 28 18 29 19 30 20 32 21 33 22 34 83 35 23 36
REMARK SMILES IDX 82 37 24 38 25 39 26 40 76 41 27 42 81 43 75 44 77 45 28 46
REMARK SMILES IDX 80 47 74 48 73 49 29 51 61 52 41 53 60 54 42 55 45 56 59 57
REMARK SMILES IDX 78 58 43 59 44 60 58 62 79 63 46 64 30 65 31 66 39 67 32 68
REMARK SMILES IDX 34 69 40 70 33 71 35 72 36 73 37 74 38 75 62 76 63 77 71 78
REMARK SMILES IDX 64 79 66 80 72 81 65 82 67 83 68 84 69 85 70 86 47 87 48 88
REMARK SMILES IDX 56 89 49 90 51 91 57 92 50 93 52 94 53 95 54 96 55 97
REMARK H PARENT 14 6 84 20 90 27 18 31 77 50 45 61
REMARK Flexibility Score: inf
ROOT
ATOM      1  C   UNL A   1      31.852  28.129  26.018  1.00  0.00     0.042 C 
ENDROOT
BRANCH   1   2
ATOM      2  C   UNL A   1      32.422  26.718  26.137  1.00  0.00     0.118 C 
BRANCH   2   3
ATOM      3  N   UNL A   1      31.534  25.842  26.875  1.00  0.00    -0.351 N 
ATOM      4  C   UNL A   1      31.337  24.494  26.746  1.00  0.00     0.278 C 
ATOM      5  O   UNL A   1      30.247  24.079  27.145  1.00  0.00    -0.268 OA
ATOM      6  H   UNL A   1      30.994  26.281  27.572  1.00  0.00     0.163 HD
BRANCH   4   7
ATOM      7  C   UNL A   1      32.425  23.640  26.053  1.00  0.00     0.275 C 
ATOM      8  C   UNL A   1      34.870  16.717  24.962  1.00  0.00     0.114 C 
ATOM      9  C   UNL A   1      33.949  17.440  24.019  1.00  0.00     0.219 C 
ATOM     10  O   UNL A   1      33.182  16.795  23.303  1.00  0.00    -0.275 OA
ATOM     11  N   UNL A   1      33.936  18.823  24.076  1.00  0.00    -0.343 N 
ATOM     12  C   UNL A   1      32.768  19.505  23.565  1.00  0.00     0.120 C 
ATOM     13  C   UNL A   1      34.969  19.703  24.628  1.00  0.00     0.120 C 
ATOM     14  C   UNL A   1      32.152  20.295  24.712  1.00  0.00     0.034 C 
ATOM     15  C   UNL A   1      34.406  20.677  25.673  1.00  0.00     0.034 C 
ATOM     16  C   UNL A   1      33.095  21.395  25.244  1.00  0.00     0.029 C 
ATOM     17  C   UNL A   1      32.476  22.155  26.449  1.00  0.00     0.088 C 
ATOM     18  C   UNL A   1      33.316  22.517  24.206  1.00  0.00     0.270 C 
ATOM     19  N   UNL A   1      32.445  23.638  24.572  1.00  0.00    -0.318 N 
ATOM     20  H   UNL A   1      32.812  24.532  24.245  1.00  0.00     0.349 HD
BRANCH  19  21
ATOM     21  C   UNL A   1      31.172  23.750  23.838  1.00  0.00     0.339 C 
BRANCH  21  22
ATOM     22  C   UNL A   1      30.646  25.114  23.477  1.00  0.00     0.161 A 
ATOM     23  N   UNL A   1      31.200  26.039  22.713  1.00  0.00    -0.236 NA
ATOM     24  N   UNL A   1      29.443  25.578  23.967  1.00  0.00    -0.344 N 
ATOM     25  C   UNL A   1      30.376  27.133  22.766  1.00  0.00     0.131 A 
ATOM     26  C   UNL A   1      29.291  26.878  23.566  1.00  0.00     0.104 A 
ATOM     27  H   UNL A   1      28.804  25.063  24.510  1.00  0.00     0.167 HD
ENDBRANCH  21  22
ENDBRANCH  19  21
ENDBRANCH   4   7
ENDBRANCH   2   3
ENDBRANCH   1   2
BRANCH   1  28
ATOM     28  C   UNL A   1      32.877  29.202  25.654  1.00  0.00     0.118 C 
BRANCH  28  29
ATOM     29  N   UNL A   1      32.523  30.524  26.161  1.00  0.00    -0.352 N 
ATOM     30  C   UNL A   1      33.167  31.324  27.072  1.00  0.00     0.251 C 
ATOM     31  H   UNL A   1      31.691  30.900  25.793  1.00  0.00     0.163 HD
ATOM     32  O   UNL A   1      32.616  32.340  27.489  1.00  0.00    -0.269 OA
BRANCH  30  33
ATOM     33  C   UNL A   1      34.509  30.954  27.575  1.00  0.00     0.039 A 
ATOM     34  C   UNL A   1      35.465  31.958  27.748  1.00  0.00     0.014 A 
ATOM     35  C   UNL A   1      34.821  29.627  27.881  1.00  0.00     0.014 A 
ATOM     36  C   UNL A   1      36.702  31.646  28.320  1.00  0.00     0.010 A 
ATOM     37  C   UNL A   1      36.025  29.330  28.513  1.00  0.00     0.010 A 
ATOM     38  C   UNL A   1      36.971  30.339  28.756  1.00  0.00    -0.014 A 
BRANCH  38  39
ATOM     39  C   UNL A   1      38.196  30.013  29.532  1.00  0.00     0.031 A 
ATOM     40  C   UNL A   1      39.212  29.048  28.989  1.00  0.00     0.074 A 
ATOM     41  C   UNL A   1      38.326  30.495  30.786  1.00  0.00     0.049 A 
ATOM     42  N   UNL A   1      40.275  28.557  29.572  1.00  0.00    -0.248 NA
ATOM     43  C   UNL A   1      38.996  28.555  27.619  1.00  0.00     0.031 C 
ATOM     44  C   UNL A   1      37.373  31.385  31.452  1.00  0.00     0.029 A 
ATOM     45  N   UNL A   1      39.290  30.271  31.738  1.00  0.00    -0.354 N 
ATOM     46  C   UNL A   1      40.834  27.671  28.661  1.00  0.00     0.074 A 
ATOM     47  C   UNL A   1      39.981  27.676  27.492  1.00  0.00     0.031 C 
ATOM     48  C   UNL A   1      37.793  31.622  32.704  1.00  0.00     0.029 A 
ATOM     49  C   UNL A   1      39.019  30.871  32.946  1.00  0.00     0.049 A 
ATOM     50  H   UNL A   1      40.098  29.734  31.572  1.00  0.00     0.167 HD
ATOM     51  C   UNL A   1      41.966  26.936  28.777  1.00  0.00     0.034 A 
ATOM     52  C   UNL A   1      39.669  30.806  34.126  1.00  0.00     0.034 A 
ATOM     53  C   UNL A   1      42.829  26.959  29.928  1.00  0.00     0.049 A 
ATOM     54  C   UNL A   1      40.925  29.984  34.227  1.00  0.00     0.074 A 
ATOM     55  C   UNL A   1      44.047  26.324  30.102  1.00  0.00     0.029 A 
ATOM     56  N   UNL A   1      42.559  27.635  31.108  1.00  0.00    -0.354 N 
ATOM     57  N   UNL A   1      41.527  29.283  33.297  1.00  0.00    -0.248 NA
ATOM     58  C   UNL A   1      41.605  29.963  35.530  1.00  0.00     0.031 C 
ATOM     59  C   UNL A   1      44.498  26.592  31.397  1.00  0.00     0.029 A 
ATOM     60  C   UNL A   1      43.576  27.415  32.022  1.00  0.00     0.049 A 
ATOM     61  H   UNL A   1      41.764  28.191  31.271  1.00  0.00     0.167 HD
ATOM     62  C   UNL A   1      42.669  28.762  33.894  1.00  0.00     0.074 A 
ATOM     63  C   UNL A   1      42.688  29.247  35.258  1.00  0.00     0.031 C 
ATOM     64  C   UNL A   1      43.609  27.940  33.364  1.00  0.00     0.034 A 
BRANCH  51  65
ATOM     65  C   UNL A   1      42.368  26.074  27.608  1.00  0.00     0.023 A 
ATOM     66  C   UNL A   1      43.227  26.599  26.621  1.00  0.00     0.012 A 
ATOM     67  C   UNL A   1      41.957  24.730  27.523  1.00  0.00     0.148 A 
ATOM     68  C   UNL A   1      43.644  25.810  25.550  1.00  0.00     0.002 A 
ATOM     69  C   UNL A   1      42.412  23.937  26.475  1.00  0.00     0.091 A 
ATOM     70  F   UNL A   1      41.125  24.254  28.461  1.00  0.00    -0.205 F 
ATOM     71  C   UNL A   1      43.246  24.478  25.483  1.00  0.00     0.022 A 
BRANCH  69  72
ATOM     72  S   UNL A   1      42.021  22.189  26.341  1.00  0.00     0.127 S 
ATOM     73  O   UNL A   1      40.569  22.224  26.173  1.00  0.00    -0.237 OA
ATOM     74  O   UNL A   1      42.764  21.798  25.143  1.00  0.00    -0.237 OA
ATOM     75  O   UNL A   1      42.492  21.575  27.575  1.00  0.00    -0.744 OA
ENDBRANCH  69  72
ENDBRANCH  51  65
BRANCH  52  76
ATOM     76  C   UNL A   1      39.161  31.575  35.298  1.00  0.00     0.023 A 
ATOM     77  C   UNL A   1      38.266  30.959  36.193  1.00  0.00     0.012 A 
ATOM     78  C   UNL A   1      39.581  32.897  35.548  1.00  0.00     0.148 A 
ATOM     79  C   UNL A   1      37.776  31.654  37.300  1.00  0.00     0.002 A 
ATOM     80  C   UNL A   1      39.133  33.563  36.682  1.00  0.00     0.091 A 
ATOM     81  F   UNL A   1      40.423  33.472  34.677  1.00  0.00    -0.205 F 
ATOM     82  C   UNL A   1      38.217  32.951  37.550  1.00  0.00     0.022 A 
BRANCH  80  83
ATOM     83  S   UNL A   1      39.754  35.181  37.158  1.00  0.00     0.127 S 
ATOM     84  O   UNL A   1      41.197  34.954  37.177  1.00  0.00    -0.237 OA
ATOM     85  O   UNL A   1      39.277  36.023  36.060  1.00  0.00    -0.237 OA
ATOM     86  O   UNL A   1      39.141  35.475  38.446  1.00  0.00    -0.744 OA
ENDBRANCH  80  83
ENDBRANCH  52  76
BRANCH  64  87
ATOM     87  C   UNL A   1      44.754  27.521  34.247  1.00  0.00     0.023 A 
ATOM     88  C   UNL A   1      45.900  28.335  34.339  1.00  0.00     0.012 A 
ATOM     89  C   UNL A   1      44.657  26.369  35.055  1.00  0.00     0.148 A 
ATOM     90  C   UNL A   1      46.942  28.000  35.201  1.00  0.00     0.002 A 
ATOM     91  C   UNL A   1      45.679  26.067  35.947  1.00  0.00     0.091 A 
ATOM     92  F   UNL A   1      43.565  25.600  34.941  1.00  0.00    -0.205 F 
ATOM     93  C   UNL A   1      46.826  26.875  36.013  1.00  0.00     0.022 A 
BRANCH  91  94
ATOM     94  S   UNL A   1      45.582  24.693  37.100  1.00  0.00     0.127 S 
ATOM     95  O   UNL A   1      46.791  24.888  37.900  1.00  0.00    -0.237 OA
ATOM     96  O   UNL A   1      44.331  24.970  37.806  1.00  0.00    -0.237 OA
ATOM     97  O   UNL A   1      45.565  23.483  36.288  1.00  0.00    -0.744 OA
ENDBRANCH  91  94
ENDBRANCH  64  87
ENDBRANCH  38  39
ENDBRANCH  30  33
ENDBRANCH  28  29
ENDBRANCH   1  28
TORSDOF 15
ENDMDL
MODEL 2
REMARK VINA RESULT:     -12.3      4.812     10.198
REMARK SMILES CC(=O)N1CCC2(CC1)C[C@H](C(=O)NCCCNC(=O)c1ccc(-c3c4nc(c(-c5cccc(S(=O)(=O)[O-])c5F)c5ccc([nH]5)c(-c5cccc(S(=O)(=O)[O-])c5F)c5nc(c(-c6cccc(S(=O)(=O)[O-])c6F)c6ccc3[nH]6)C=C5)C=C4)cc1)[N@H+](Cc1ncc[nH]1)C2
REMARK SMILES IDX 16 1 15 2 14 3 12 4 13 5 11 7 1 8 2 9 3 10 4 11 5 12 9 13
REMARK SMILES IDX 6 14 8 15 7 16 10 17 91 18 84 19 85 21 86 22 87 23 90 24
REMARK SMILES IDX 88 25 89 26 17 28 18 29 19 30 20 32 21 33 22 34 83 35 23 36
REMARK SMILES IDX 82 37 24 38 25 39 26 40 76 41 27 42 81 43 75 44 77 45 28 46
REMARK SMILES IDX 80 47 74 48 73 49 29 51 61 52 41 53 60 54 42 55 45 56 59 57
REMARK SMILES IDX 78 58 43 59 44 60 58 62 79 63 46 64 30 65 31 66 39 67 32 68
REMARK SMILES IDX 34 69 40 70 33 71 35 72 36 73 37 74 38 75 62 76 63 77 71 78
REMARK SMILES IDX 64 79 66 80 72 81 65 82 67 83 68 84 69 85 70 86 47 87 48 88
REMARK SMILES IDX 56 89 49 90 51 91 57 92 50 93 52 94 53 95 54 96 55 97
REMARK H PARENT 14 6 84 20 90 27 18 31 77 50 45 61
REMARK Flexibility Score: inf
ROOT
ATOM      1  C   UNL A   1      35.021  21.487  25.728  1.00  0.00     0.042 C 
ENDROOT
BRANCH   1   2
ATOM      2  C   UNL A   1      33.910  22.353  25.141  1.00  0.00     0.118 C 
BRANCH   2   3
ATOM      3  N   UNL A   1      32.853  22.594  26.102  1.00  0.00    -0.351 N 
ATOM      4  C   UNL A   1      32.065  23.701  26.270  1.00  0.00     0.278 C 
ATOM      5  O   UNL A   1      31.583  23.839  27.396  1.00  0.00    -0.268 OA
ATOM      6  H   UNL A   1      32.674  21.852  26.724  1.00  0.00     0.163 HD
BRANCH   4   7
ATOM      7  C   UNL A   1      31.919  24.702  25.100  1.00  0.00     0.275 C 
ATOM      8  C   UNL A   1      27.815  30.268  22.404  1.00  0.00     0.114 C 
ATOM      9  C   UNL A   1      29.047  30.463  23.242  1.00  0.00     0.219 C 
ATOM     10  O   UNL A   1      29.166  31.486  23.921  1.00  0.00    -0.275 OA
ATOM     11  N   UNL A   1      29.956  29.422  23.292  1.00  0.00    -0.343 N 
ATOM     12  C   UNL A   1      30.861  29.374  24.419  1.00  0.00     0.120 C 
ATOM     13  C   UNL A   1      30.103  28.319  22.339  1.00  0.00     0.120 C 
ATOM     14  C   UNL A   1      30.608  28.069  25.164  1.00  0.00     0.034 C 
ATOM     15  C   UNL A   1      30.046  26.946  23.025  1.00  0.00     0.034 C 
ATOM     16  C   UNL A   1      30.925  26.828  24.303  1.00  0.00     0.029 C 
ATOM     17  C   UNL A   1      30.610  25.506  25.054  1.00  0.00     0.088 C 
ATOM     18  C   UNL A   1      32.435  26.702  24.005  1.00  0.00     0.270 C 
ATOM     19  N   UNL A   1      32.990  25.712  24.933  1.00  0.00    -0.318 N 
ATOM     20  H   UNL A   1      33.820  25.254  24.555  1.00  0.00     0.349 HD
BRANCH  19  21
ATOM     21  C   UNL A   1      33.671  26.239  26.129  1.00  0.00     0.339 C 
BRANCH  21  22
ATOM     22  C   UNL A   1      33.630  27.717  26.410  1.00  0.00     0.161 A 
ATOM     23  N   UNL A   1      34.225  28.700  25.758  1.00  0.00    -0.236 NA
ATOM     24  N   UNL A   1      32.927  28.230  27.480  1.00  0.00    -0.344 N 
ATOM     25  C   UNL A   1      33.954  29.849  26.453  1.00  0.00     0.131 A 
ATOM     26  C   UNL A   1      33.173  29.576  27.547  1.00  0.00     0.104 A 
ATOM     27  H   UNL A   1      32.348  27.719  28.090  1.00  0.00     0.167 HD
ENDBRANCH  21  22
ENDBRANCH  19  21
ENDBRANCH   4   7
ENDBRANCH   2   3
ENDBRANCH   1   2
BRANCH   1  28
ATOM     28  C   UNL A   1      36.419  22.098  25.643  1.00  0.00     0.118 C 
BRANCH  28  29
ATOM     29  N   UNL A   1      37.477  21.094  25.602  1.00  0.00    -0.352 N 
ATOM     30  C   UNL A   1      38.812  21.202  25.908  1.00  0.00     0.251 C 
ATOM     31  H   UNL A   1      37.189  20.199  25.310  1.00  0.00     0.163 HD
ATOM     32  O   UNL A   1      39.573  20.273  25.651  1.00  0.00    -0.269 OA
BRANCH  30  33
ATOM     33  C   UNL A   1      39.341  22.443  26.517  1.00  0.00     0.039 A 
ATOM     34  C   UNL A   1      40.344  22.344  27.484  1.00  0.00     0.014 A 
ATOM     35  C   UNL A   1      38.857  23.695  26.133  1.00  0.00     0.014 A 
ATOM     36  C   UNL A   1      40.931  23.505  27.996  1.00  0.00     0.010 A 
ATOM     37  C   UNL A   1      39.487  24.848  26.592  1.00  0.00     0.010 A 
ATOM     38  C   UNL A   1      40.543  24.765  27.513  1.00  0.00    -0.014 A 
BRANCH  38  39
ATOM     39  C   UNL A   1      41.270  26.004  27.897  1.00  0.00     0.031 A 
ATOM     40  C   UNL A   1      40.580  27.086  28.679  1.00  0.00     0.074 A 
ATOM     41  C   UNL A   1      42.520  26.203  27.429  1.00  0.00     0.049 A 
ATOM     42  N   UNL A   1      41.016  28.277  28.998  1.00  0.00    -0.248 NA
ATOM     43  C   UNL A   1      39.213  26.802  29.144  1.00  0.00     0.031 C 
ATOM     44  C   UNL A   1      43.273  25.258  26.602  1.00  0.00     0.029 A 
ATOM     45  N   UNL A   1      43.361  27.282  27.545  1.00  0.00    -0.354 N 
ATOM     46  C   UNL A   1      39.970  28.899  29.668  1.00  0.00     0.074 A 
ATOM     47  C   UNL A   1      38.868  27.960  29.691  1.00  0.00     0.031 C 
ATOM     48  C   UNL A   1      44.456  25.801  26.278  1.00  0.00     0.029 A 
ATOM     49  C   UNL A   1      44.532  27.146  26.836  1.00  0.00     0.049 A 
ATOM     50  H   UNL A   1      43.147  28.077  28.087  1.00  0.00     0.167 HD
ATOM     51  C   UNL A   1      39.936  30.130  30.231  1.00  0.00     0.034 A 
ATOM     52  C   UNL A   1      45.544  28.014  26.633  1.00  0.00     0.034 A 
ATOM     53  C   UNL A   1      41.045  31.047  30.234  1.00  0.00     0.049 A 
ATOM     54  C   UNL A   1      45.482  29.374  27.272  1.00  0.00     0.074 A 
ATOM     55  C   UNL A   1      41.140  32.278  30.861  1.00  0.00     0.029 A 
ATOM     56  N   UNL A   1      42.242  30.846  29.565  1.00  0.00    -0.354 N 
ATOM     57  N   UNL A   1      44.550  29.881  28.043  1.00  0.00    -0.248 NA
ATOM     58  C   UNL A   1      46.619  30.275  27.036  1.00  0.00     0.031 C 
ATOM     59  C   UNL A   1      42.383  32.834  30.546  1.00  0.00     0.029 A 
ATOM     60  C   UNL A   1      43.074  31.939  29.745  1.00  0.00     0.049 A 
ATOM     61  H   UNL A   1      42.469  30.045  29.041  1.00  0.00     0.167 HD
ATOM     62  C   UNL A   1      45.000  31.144  28.406  1.00  0.00     0.074 A 
ATOM     63  C   UNL A   1      46.300  31.318  27.790  1.00  0.00     0.031 C 
ATOM     64  C   UNL A   1      44.385  32.084  29.166  1.00  0.00     0.034 A 
BRANCH  51  65
ATOM     65  C   UNL A   1      38.671  30.546  30.936  1.00  0.00     0.023 A 
ATOM     66  C   UNL A   1      38.507  30.245  32.304  1.00  0.00     0.012 A 
ATOM     67  C   UNL A   1      37.681  31.293  30.269  1.00  0.00     0.148 A 
ATOM     68  C   UNL A   1      37.363  30.652  32.988  1.00  0.00     0.002 A 
ATOM     69  C   UNL A   1      36.563  31.733  30.970  1.00  0.00     0.091 A 
ATOM     70  F   UNL A   1      37.846  31.554  28.964  1.00  0.00    -0.205 F 
ATOM     71  C   UNL A   1      36.398  31.405  32.325  1.00  0.00     0.022 A 
BRANCH  69  72
ATOM     72  S   UNL A   1      35.301  32.774  30.228  1.00  0.00     0.127 S 
ATOM     73  O   UNL A   1      34.324  32.870  31.311  1.00  0.00    -0.237 OA
ATOM     74  O   UNL A   1      36.039  34.009  29.961  1.00  0.00    -0.237 OA
ATOM     75  O   UNL A   1      34.847  32.069  29.037  1.00  0.00    -0.744 OA
ENDBRANCH  69  72
ENDBRANCH  51  65
BRANCH  52  76
ATOM     76  C   UNL A   1      46.723  27.604  25.817  1.00  0.00     0.023 A 
ATOM     77  C   UNL A   1      46.716  27.839  24.429  1.00  0.00     0.012 A 
ATOM     78  C   UNL A   1      47.858  27.015  26.409  1.00  0.00     0.148 A 
ATOM     79  C   UNL A   1      47.806  27.468  23.641  1.00  0.00     0.002 A 
ATOM     80  C   UNL A   1      48.962  26.701  25.626  1.00  0.00     0.091 A 
ATOM     81  F   UNL A   1      47.840  26.788  27.730  1.00  0.00    -0.205 F 
ATOM     82  C   UNL A   1      48.932  26.910  24.240  1.00  0.00     0.022 A 
BRANCH  80  83
ATOM     83  S   UNL A   1      50.505  26.108  26.331  1.00  0.00     0.127 S 
ATOM     84  O   UNL A   1      50.849  27.188  27.252  1.00  0.00    -0.237 OA
ATOM     85  O   UNL A   1      50.086  24.861  26.972  1.00  0.00    -0.237 OA
ATOM     86  O   UNL A   1      51.409  25.925  25.203  1.00  0.00    -0.744 OA
ENDBRANCH  80  83
ENDBRANCH  52  76
BRANCH  64  87
ATOM     87  C   UNL A   1      45.110  33.384  29.399  1.00  0.00     0.023 A 
ATOM     88  C   UNL A   1      45.945  33.525  30.523  1.00  0.00     0.012 A 
ATOM     89  C   UNL A   1      45.033  34.430  28.456  1.00  0.00     0.148 A 
ATOM     90  C   UNL A   1      46.676  34.696  30.721  1.00  0.00     0.002 A 
ATOM     91  C   UNL A   1      45.801  35.574  28.635  1.00  0.00     0.091 A 
ATOM     92  F   UNL A   1      44.220  34.280  27.400  1.00  0.00    -0.205 F 
ATOM     93  C   UNL A   1      46.614  35.713  29.772  1.00  0.00     0.022 A 
BRANCH  91  94
ATOM     94  S   UNL A   1      45.861  36.899  27.424  1.00  0.00     0.127 S 
ATOM     95  O   UNL A   1      44.490  37.408  27.472  1.00  0.00    -0.237 OA
ATOM     96  O   UNL A   1      46.865  37.795  27.995  1.00  0.00    -0.237 OA
ATOM     97  O   UNL A   1      46.248  36.278  26.164  1.00  0.00    -0.744 OA
ENDBRANCH  91  94
ENDBRANCH  64  87
ENDBRANCH  38  39
ENDBRANCH  30  33
ENDBRANCH  28  29
ENDBRANCH   1  28
TORSDOF 15
ENDMDL
MODEL 3
REMARK VINA RESULT:     -12.3      4.917     10.262
REMARK SMILES CC(=O)N1CCC2(CC1)C[C@H](C(=O)NCCCNC(=O)c1ccc(-c3c4nc(c(-c5cccc(S(=O)(=O)[O-])c5F)c5ccc([nH]5)c(-c5cccc(S(=O)(=O)[O-])c5F)c5nc(c(-c6cccc(S(=O)(=O)[O-])c6F)c6ccc3[nH]6)C=C5)C=C4)cc1)[N@H+](Cc1ncc[nH]1)C2
REMARK SMILES IDX 16 1 15 2 14 3 12 4 13 5 11 7 1 8 2 9 3 10 4 11 5 12 9 13
REMARK SMILES IDX 6 14 8 15 7 16 10 17 91 18 84 19 85 21 86 22 87 23 90 24
REMARK SMILES IDX 88 25 89 26 17 28 18 29 19 30 20 32 21 33 22 34 83 35 23 36
REMARK SMILES IDX 82 37 24 38 25 39 26 40 76 41 27 42 81 43 75 44 77 45 28 46
REMARK SMILES IDX 80 47 74 48 73 49 29 51 61 52 41 53 60 54 42 55 45 56 59 57
REMARK SMILES IDX 78 58 43 59 44 60 58 62 79 63 46 64 30 65 31 66 39 67 32 68
REMARK SMILES IDX 34 69 40 70 33 71 35 72 36 73 37 74 38 75 62 76 63 77 71 78
REMARK SMILES IDX 64 79 66 80 72 81 65 82 67 83 68 84 69 85 70 86 47 87 48 88
REMARK SMILES IDX 56 89 49 90 51 91 57 92 50 93 52 94 53 95 54 96 55 97
REMARK H PARENT 14 6 84 20 90 27 18 31 77 50 45 61
REMARK Flexibility Score: inf
ROOT
ATOM      1  C   UNL A   1      36.681  22.323  23.897  1.00  0.00     0.042 C 
ENDROOT
BRANCH   1   2
ATOM      2  C   UNL A   1      35.551  23.318  23.649  1.00  0.00     0.118 C 
BRANCH   2   3
ATOM      3  N   UNL A   1      34.550  22.780  22.751  1.00  0.00    -0.351 N 
ATOM      4  C   UNL A   1      33.272  23.208  22.515  1.00  0.00     0.278 C 
ATOM      5  O   UNL A   1      32.500  22.352  22.079  1.00  0.00    -0.268 OA
ATOM      6  H   UNL A   1      34.831  21.990  22.234  1.00  0.00     0.163 HD
BRANCH   4   7
ATOM      7  C   UNL A   1      32.888  24.661  22.883  1.00  0.00     0.275 C 
ATOM      8  C   UNL A   1      27.915  30.055  21.756  1.00  0.00     0.114 C 
ATOM      9  C   UNL A   1      27.855  29.084  22.901  1.00  0.00     0.219 C 
ATOM     10  O   UNL A   1      26.767  28.813  23.414  1.00  0.00    -0.275 OA
ATOM     11  N   UNL A   1      29.032  28.453  23.265  1.00  0.00    -0.343 N 
ATOM     12  C   UNL A   1      28.929  27.209  23.995  1.00  0.00     0.120 C 
ATOM     13  C   UNL A   1      30.402  28.882  22.971  1.00  0.00     0.120 C 
ATOM     14  C   UNL A   1      29.595  26.123  23.160  1.00  0.00     0.034 C 
ATOM     15  C   UNL A   1      31.223  27.779  22.287  1.00  0.00     0.034 C 
ATOM     16  C   UNL A   1      31.103  26.379  22.954  1.00  0.00     0.029 C 
ATOM     17  C   UNL A   1      31.758  25.295  22.056  1.00  0.00     0.088 C 
ATOM     18  C   UNL A   1      31.895  26.255  24.275  1.00  0.00     0.270 C 
ATOM     19  N   UNL A   1      32.524  24.930  24.293  1.00  0.00    -0.318 N 
ATOM     20  H   UNL A   1      33.370  24.915  24.862  1.00  0.00     0.349 HD
BRANCH  19  21
ATOM     21  C   UNL A   1      31.834  23.884  25.067  1.00  0.00     0.339 C 
BRANCH  21  22
ATOM     22  C   UNL A   1      32.641  22.951  25.930  1.00  0.00     0.161 A 
ATOM     23  N   UNL A   1      32.681  21.630  25.908  1.00  0.00    -0.236 NA
ATOM     24  N   UNL A   1      33.470  23.423  26.926  1.00  0.00    -0.344 N 
ATOM     25  C   UNL A   1      33.493  21.248  26.943  1.00  0.00     0.131 A 
ATOM     26  C   UNL A   1      33.971  22.347  27.610  1.00  0.00     0.104 A 
ATOM     27  H   UNL A   1      33.668  24.369  27.113  1.00  0.00     0.167 HD
ENDBRANCH  21  22
ENDBRANCH  19  21
ENDBRANCH   4   7
ENDBRANCH   2   3
ENDBRANCH   1   2
BRANCH   1  28
ATOM     28  C   UNL A   1      36.834  21.880  25.351  1.00  0.00     0.118 C 
BRANCH  28  29
ATOM     29  N   UNL A   1      37.853  20.850  25.529  1.00  0.00    -0.352 N 
ATOM     30  C   UNL A   1      39.139  20.950  26.001  1.00  0.00     0.251 C 
ATOM     31  H   UNL A   1      37.575  19.942  25.270  1.00  0.00     0.163 HD
ATOM     32  O   UNL A   1      39.895  19.985  25.920  1.00  0.00    -0.269 OA
BRANCH  30  33
ATOM     33  C   UNL A   1      39.626  22.222  26.579  1.00  0.00     0.039 A 
ATOM     34  C   UNL A   1      40.602  22.179  27.578  1.00  0.00     0.014 A 
ATOM     35  C   UNL A   1      39.130  23.450  26.135  1.00  0.00     0.014 A 
ATOM     36  C   UNL A   1      41.152  23.369  28.063  1.00  0.00     0.010 A 
ATOM     37  C   UNL A   1      39.725  24.631  26.569  1.00  0.00     0.010 A 
ATOM     38  C   UNL A   1      40.755  24.603  27.523  1.00  0.00    -0.014 A 
BRANCH  38  39
ATOM     39  C   UNL A   1      41.447  25.869  27.882  1.00  0.00     0.031 A 
ATOM     40  C   UNL A   1      40.721  26.953  28.627  1.00  0.00     0.074 A 
ATOM     41  C   UNL A   1      42.696  26.086  27.422  1.00  0.00     0.049 A 
ATOM     42  N   UNL A   1      41.124  28.163  28.920  1.00  0.00    -0.248 NA
ATOM     43  C   UNL A   1      39.356  26.647  29.085  1.00  0.00     0.031 C 
ATOM     44  C   UNL A   1      43.481  25.139  26.628  1.00  0.00     0.029 A 
ATOM     45  N   UNL A   1      43.510  27.189  27.519  1.00  0.00    -0.354 N 
ATOM     46  C   UNL A   1      40.056  28.776  29.561  1.00  0.00     0.074 A 
ATOM     47  C   UNL A   1      38.977  27.811  29.598  1.00  0.00     0.031 C 
ATOM     48  C   UNL A   1      44.655  25.703  26.302  1.00  0.00     0.029 A 
ATOM     49  C   UNL A   1      44.691  27.064  26.825  1.00  0.00     0.049 A 
ATOM     50  H   UNL A   1      43.270  27.992  28.036  1.00  0.00     0.167 HD
ATOM     51  C   UNL A   1      39.985  30.020  30.091  1.00  0.00     0.034 A 
ATOM     52  C   UNL A   1      45.683  27.951  26.610  1.00  0.00     0.034 A 
ATOM     53  C   UNL A   1      41.071  30.964  30.082  1.00  0.00     0.049 A 
ATOM     54  C   UNL A   1      45.581  29.325  27.213  1.00  0.00     0.074 A 
ATOM     55  C   UNL A   1      41.128  32.213  30.677  1.00  0.00     0.029 A 
ATOM     56  N   UNL A   1      42.280  30.776  29.431  1.00  0.00    -0.354 N 
ATOM     57  N   UNL A   1      44.628  29.828  27.960  1.00  0.00    -0.248 NA
ATOM     58  C   UNL A   1      46.698  30.247  26.965  1.00  0.00     0.031 C 
ATOM     59  C   UNL A   1      42.361  32.791  30.361  1.00  0.00     0.029 A 
ATOM     60  C   UNL A   1      43.082  31.893  29.591  1.00  0.00     0.049 A 
ATOM     61  H   UNL A   1      42.532  29.967  28.931  1.00  0.00     0.167 HD
ATOM     62  C   UNL A   1      45.043  31.112  28.294  1.00  0.00     0.074 A 
ATOM     63  C   UNL A   1      46.345  31.302  27.688  1.00  0.00     0.031 C 
ATOM     64  C   UNL A   1      44.397  32.055  29.023  1.00  0.00     0.034 A 
BRANCH  51  65
ATOM     65  C   UNL A   1      38.703  30.423  30.772  1.00  0.00     0.023 A 
ATOM     66  C   UNL A   1      38.528  30.148  32.143  1.00  0.00     0.012 A 
ATOM     67  C   UNL A   1      37.704  31.133  30.077  1.00  0.00     0.148 A 
ATOM     68  C   UNL A   1      37.367  30.544  32.805  1.00  0.00     0.002 A 
ATOM     69  C   UNL A   1      36.569  31.563  30.754  1.00  0.00     0.091 A 
ATOM     70  F   UNL A   1      37.880  31.370  28.769  1.00  0.00    -0.205 F 
ATOM     71  C   UNL A   1      36.394  31.260  32.114  1.00  0.00     0.022 A 
BRANCH  69  72
ATOM     72  S   UNL A   1      35.294  32.559  29.974  1.00  0.00     0.127 S 
ATOM     73  O   UNL A   1      34.820  31.661  28.923  1.00  0.00    -0.237 OA
ATOM     74  O   UNL A   1      34.348  32.764  31.072  1.00  0.00    -0.237 OA
ATOM     75  O   UNL A   1      35.956  33.770  29.509  1.00  0.00    -0.744 OA
ENDBRANCH  69  72
ENDBRANCH  51  65
BRANCH  52  76
ATOM     76  C   UNL A   1      46.881  27.550  25.819  1.00  0.00     0.023 A 
ATOM     77  C   UNL A   1      46.896  27.775  24.429  1.00  0.00     0.012 A 
ATOM     78  C   UNL A   1      48.012  26.978  26.434  1.00  0.00     0.148 A 
ATOM     79  C   UNL A   1      48.004  27.411  23.662  1.00  0.00     0.002 A 
ATOM     80  C   UNL A   1      49.134  26.671  25.673  1.00  0.00     0.091 A 
ATOM     81  F   UNL A   1      47.974  26.759  27.756  1.00  0.00    -0.205 F 
ATOM     82  C   UNL A   1      49.126  26.870  24.285  1.00  0.00     0.022 A 
BRANCH  80  83
ATOM     83  S   UNL A   1      50.671  26.100  26.408  1.00  0.00     0.127 S 
ATOM     84  O   UNL A   1      50.973  27.179  27.346  1.00  0.00    -0.237 OA
ATOM     85  O   UNL A   1      50.260  24.841  27.030  1.00  0.00    -0.237 OA
ATOM     86  O   UNL A   1      51.604  25.944  25.301  1.00  0.00    -0.744 OA
ENDBRANCH  80  83
ENDBRANCH  52  76
BRANCH  64  87
ATOM     87  C   UNL A   1      45.086  33.379  29.228  1.00  0.00     0.023 A 
ATOM     88  C   UNL A   1      45.982  33.539  30.303  1.00  0.00     0.012 A 
ATOM     89  C   UNL A   1      44.915  34.431  28.306  1.00  0.00     0.148 A 
ATOM     90  C   UNL A   1      46.680  34.733  30.473  1.00  0.00     0.002 A 
ATOM     91  C   UNL A   1      45.651  35.601  28.454  1.00  0.00     0.091 A 
ATOM     92  F   UNL A   1      44.047  34.263  27.298  1.00  0.00    -0.205 F 
ATOM     93  C   UNL A   1      46.525  35.758  29.542  1.00  0.00     0.022 A 
BRANCH  91  94
ATOM     94  S   UNL A   1      45.590  36.940  27.258  1.00  0.00     0.127 S 
ATOM     95  O   UNL A   1      46.427  36.415  26.180  1.00  0.00    -0.237 OA
ATOM     96  O   UNL A   1      44.163  37.009  26.943  1.00  0.00    -0.237 OA
ATOM     97  O   UNL A   1      46.119  38.115  27.937  1.00  0.00    -0.744 OA
ENDBRANCH  91  94
ENDBRANCH  64  87
ENDBRANCH  38  39
ENDBRANCH  30  33
ENDBRANCH  28  29
ENDBRANCH   1  28
TORSDOF 15
ENDMDL
