MODEL 1
REMARK VINA RESULT:     -13.9      0.000      0.000
REMARK SMILES O=C(NCCCNC(=O)c1ccc(-c2c3nc(c(-c4cccc(S(=O)(=O)[O-])c4F)c4ccc([nH]4)c(-c4cccc(S(=O)(=O)[O-])c4F)c4nc(c(-c5cccc(S(=O)(=O)[O-])c5F)c5ccc2[nH]5)C=C4)C=C3)cc1)C1=Cc2cc(Cl)cc(-c3ccc(Cl)cc3)c2O[C@@H]1C(F)(F)F
REMARK SMILES IDX 6 1 5 2 4 3 3 4 1 5 2 6 73 8 74 9 90 10 75 11 89 12 76 13
REMARK SMILES IDX 88 14 77 15 80 16 78 17 79 18 91 19 92 20 93 21 94 22 81 23
REMARK SMILES IDX 82 24 87 25 83 26 86 27 84 28 85 29 7 30 8 31 9 33 10 34
REMARK SMILES IDX 11 35 72 36 12 37 71 38 13 39 14 40 15 41 65 42 16 43 70 44
REMARK SMILES IDX 64 45 66 46 17 47 69 48 63 49 62 50 18 52 50 53 30 54 49 55
REMARK SMILES IDX 31 56 34 57 48 58 67 59 32 60 33 61 47 63 68 64 35 65 19 66
REMARK SMILES IDX 20 67 28 68 21 69 23 70 29 71 22 72 24 73 25 74 26 75 27 76
REMARK SMILES IDX 51 77 52 78 60 79 53 80 55 81 61 82 54 83 56 84 57 85 58 86
REMARK SMILES IDX 59 87 36 88 37 89 45 90 38 91 40 92 46 93 39 94 41 95 42 96
REMARK SMILES IDX 43 97 44 98
REMARK H PARENT 3 7 7 32 66 51 34 62
REMARK Flexibility Score: inf
ROOT
ATOM      1  C   UNL A   1      32.646  29.796  26.288  1.00  0.00     0.118 C 
ENDROOT
BRANCH   1   2
ATOM      2  C   UNL A   1      31.771  28.693  26.883  1.00  0.00     0.042 C 
BRANCH   2   3
ATOM      3  C   UNL A   1      31.682  27.456  25.989  1.00  0.00     0.118 C 
BRANCH   3   4
ATOM      4  N   UNL A   1      31.095  26.298  26.673  1.00  0.00    -0.352 N 
ATOM      5  O   UNL A   1      31.006  24.146  27.401  1.00  0.00    -0.270 OA
ATOM      6  C   UNL A   1      31.430  24.969  26.602  1.00  0.00     0.251 C 
ATOM      7  H   UNL A   1      30.344  26.506  27.274  1.00  0.00     0.163 HD
BRANCH   6   8
ATOM      8  C   UNL A   1      32.403  24.594  25.568  1.00  0.00     0.067 C 
ATOM      9  C   UNL A   1      33.683  24.925  25.768  1.00  0.00     0.025 C 
ATOM     10  C   UNL A   1      31.975  23.586  24.553  1.00  0.00     0.314 C 
ATOM     11  C   UNL A   1      34.646  23.913  25.324  1.00  0.00     0.019 A 
ATOM     12  O   UNL A   1      32.854  22.434  24.556  1.00  0.00    -0.475 OA
ATOM     13  C   UNL A   1      35.986  24.078  25.688  1.00  0.00     0.032 A 
ATOM     14  C   UNL A   1      34.166  22.648  24.919  1.00  0.00     0.135 A 
ATOM     15  C   UNL A   1      36.817  22.966  25.742  1.00  0.00     0.042 A 
ATOM     16  C   UNL A   1      34.988  21.513  25.038  1.00  0.00     0.026 A 
ATOM     17  Cl  UNL A   1      38.429  23.140  26.317  1.00  0.00    -0.084 Cl
ATOM     18  C   UNL A   1      36.321  21.695  25.451  1.00  0.00     0.033 A 
BRANCH  10  19
ATOM     19  C   UNL A   1      31.830  24.204  23.151  1.00  0.00     0.429 C 
ATOM     20  F   UNL A   1      30.523  24.391  22.834  1.00  0.00    -0.167 F 
ATOM     21  F   UNL A   1      32.421  25.419  23.069  1.00  0.00    -0.167 F 
ATOM     22  F   UNL A   1      32.365  23.430  22.178  1.00  0.00    -0.167 F 
ENDBRANCH  10  19
BRANCH  16  23
ATOM     23  C   UNL A   1      34.458  20.144  24.938  1.00  0.00    -0.015 A 
ATOM     24  C   UNL A   1      33.137  19.876  25.345  1.00  0.00     0.010 A 
ATOM     25  C   UNL A   1      35.241  19.074  24.494  1.00  0.00     0.010 A 
ATOM     26  C   UNL A   1      32.626  18.578  25.366  1.00  0.00     0.021 A 
ATOM     27  C   UNL A   1      34.729  17.770  24.504  1.00  0.00     0.021 A 
ATOM     28  C   UNL A   1      33.431  17.526  24.953  1.00  0.00     0.041 A 
ATOM     29  Cl  UNL A   1      32.825  15.918  25.012  1.00  0.00    -0.084 Cl
ENDBRANCH  16  23
ENDBRANCH   6   8
ENDBRANCH   3   4
ENDBRANCH   2   3
ENDBRANCH   1   2
BRANCH   1  30
ATOM     30  N   UNL A   1      32.569  31.085  26.963  1.00  0.00    -0.352 N 
ATOM     31  C   UNL A   1      33.590  31.800  27.566  1.00  0.00     0.251 C 
ATOM     32  H   UNL A   1      31.677  31.501  26.996  1.00  0.00     0.163 HD
ATOM     33  O   UNL A   1      33.358  32.877  28.111  1.00  0.00    -0.269 OA
BRANCH  31  34
ATOM     34  C   UNL A   1      34.941  31.202  27.658  1.00  0.00     0.039 A 
ATOM     35  C   UNL A   1      36.019  32.051  27.934  1.00  0.00     0.014 A 
ATOM     36  C   UNL A   1      35.120  29.821  27.658  1.00  0.00     0.014 A 
ATOM     37  C   UNL A   1      37.217  31.511  28.401  1.00  0.00     0.010 A 
ATOM     38  C   UNL A   1      36.269  29.291  28.228  1.00  0.00     0.010 A 
ATOM     39  C   UNL A   1      37.305  30.134  28.658  1.00  0.00    -0.014 A 
BRANCH  39  40
ATOM     40  C   UNL A   1      38.401  29.551  29.476  1.00  0.00     0.031 A 
ATOM     41  C   UNL A   1      38.580  29.983  30.903  1.00  0.00     0.074 A 
ATOM     42  C   UNL A   1      39.335  28.785  28.873  1.00  0.00     0.049 A 
ATOM     43  N   UNL A   1      39.592  29.781  31.705  1.00  0.00    -0.248 NA
ATOM     44  C   UNL A   1      37.501  30.796  31.486  1.00  0.00     0.031 C 
ATOM     45  C   UNL A   1      39.322  28.380  27.462  1.00  0.00     0.029 A 
ATOM     46  N   UNL A   1      40.498  28.238  29.355  1.00  0.00    -0.354 N 
ATOM     47  C   UNL A   1      39.305  30.499  32.859  1.00  0.00     0.074 A 
ATOM     48  C   UNL A   1      38.036  31.161  32.642  1.00  0.00     0.031 C 
ATOM     49  C   UNL A   1      40.410  27.638  27.201  1.00  0.00     0.029 A 
ATOM     50  C   UNL A   1      41.222  27.549  28.408  1.00  0.00     0.049 A 
ATOM     51  H   UNL A   1      40.787  28.329  30.292  1.00  0.00     0.167 HD
ATOM     52  C   UNL A   1      40.020  30.578  34.006  1.00  0.00     0.034 A 
ATOM     53  C   UNL A   1      42.411  26.922  28.499  1.00  0.00     0.034 A 
ATOM     54  C   UNL A   1      41.235  29.845  34.238  1.00  0.00     0.049 A 
ATOM     55  C   UNL A   1      43.128  26.927  29.821  1.00  0.00     0.074 A 
ATOM     56  C   UNL A   1      41.994  29.779  35.392  1.00  0.00     0.029 A 
ATOM     57  N   UNL A   1      41.855  29.033  33.301  1.00  0.00    -0.354 N 
ATOM     58  N   UNL A   1      42.778  27.512  30.942  1.00  0.00    -0.248 NA
ATOM     59  C   UNL A   1      44.383  26.168  29.905  1.00  0.00     0.031 C 
ATOM     60  C   UNL A   1      43.069  28.913  35.156  1.00  0.00     0.029 A 
ATOM     61  C   UNL A   1      42.976  28.442  33.854  1.00  0.00     0.049 A 
ATOM     62  H   UNL A   1      41.544  28.897  32.377  1.00  0.00     0.167 HD
ATOM     63  C   UNL A   1      43.746  27.159  31.873  1.00  0.00     0.074 A 
ATOM     64  C   UNL A   1      44.690  26.299  31.188  1.00  0.00     0.031 C 
ATOM     65  C   UNL A   1      43.855  27.528  33.173  1.00  0.00     0.034 A 
BRANCH  52  66
ATOM     66  C   UNL A   1      39.459  31.428  35.115  1.00  0.00     0.023 A 
ATOM     67  C   UNL A   1      38.507  30.873  35.994  1.00  0.00     0.012 A 
ATOM     68  C   UNL A   1      39.876  32.760  35.300  1.00  0.00     0.148 A 
ATOM     69  C   UNL A   1      37.941  31.643  37.009  1.00  0.00     0.002 A 
ATOM     70  C   UNL A   1      39.338  33.510  36.342  1.00  0.00     0.091 A 
ATOM     71  F   UNL A   1      40.763  33.282  34.441  1.00  0.00    -0.205 F 
ATOM     72  C   UNL A   1      38.362  32.957  37.188  1.00  0.00     0.022 A 
BRANCH  70  73
ATOM     73  S   UNL A   1      39.872  35.190  36.692  1.00  0.00     0.127 S 
ATOM     74  O   UNL A   1      41.324  35.031  36.756  1.00  0.00    -0.237 OA
ATOM     75  O   UNL A   1      39.390  35.921  35.519  1.00  0.00    -0.237 OA
ATOM     76  O   UNL A   1      39.219  35.558  37.940  1.00  0.00    -0.744 OA
ENDBRANCH  70  73
ENDBRANCH  52  66
BRANCH  53  77
ATOM     77  C   UNL A   1      42.941  26.151  27.337  1.00  0.00     0.023 A 
ATOM     78  C   UNL A   1      43.851  26.781  26.464  1.00  0.00     0.012 A 
ATOM     79  C   UNL A   1      42.599  24.803  27.111  1.00  0.00     0.148 A 
ATOM     80  C   UNL A   1      44.388  26.095  25.374  1.00  0.00     0.002 A 
ATOM     81  C   UNL A   1      43.176  24.110  26.052  1.00  0.00     0.091 A 
ATOM     82  F   UNL A   1      41.725  24.221  27.945  1.00  0.00    -0.205 F 
ATOM     83  C   UNL A   1      44.059  24.757  25.174  1.00  0.00     0.022 A 
BRANCH  81  84
ATOM     84  S   UNL A   1      42.907  22.351  25.799  1.00  0.00     0.127 S 
ATOM     85  O   UNL A   1      43.592  22.122  24.530  1.00  0.00    -0.237 OA
ATOM     86  O   UNL A   1      43.565  21.766  26.969  1.00  0.00    -0.237 OA
ATOM     87  O   UNL A   1      41.460  22.181  25.784  1.00  0.00    -0.744 OA
ENDBRANCH  81  84
ENDBRANCH  53  77
BRANCH  65  88
ATOM     88  C   UNL A   1      45.006  26.971  33.962  1.00  0.00     0.023 A 
ATOM     89  C   UNL A   1      46.234  27.659  33.981  1.00  0.00     0.012 A 
ATOM     90  C   UNL A   1      44.833  25.830  34.769  1.00  0.00     0.148 A 
ATOM     91  C   UNL A   1      47.280  27.211  34.786  1.00  0.00     0.002 A 
ATOM     92  C   UNL A   1      45.866  25.413  35.599  1.00  0.00     0.091 A 
ATOM     93  F   UNL A   1      43.661  25.179  34.715  1.00  0.00    -0.205 F 
ATOM     94  C   UNL A   1      47.092  26.098  35.603  1.00  0.00     0.022 A 
BRANCH  92  95
ATOM     95  S   UNL A   1      45.679  24.048  36.751  1.00  0.00     0.127 S 
ATOM     96  O   UNL A   1      46.983  24.033  37.410  1.00  0.00    -0.237 OA
ATOM     97  O   UNL A   1      44.572  24.501  37.595  1.00  0.00    -0.237 OA
ATOM     98  O   UNL A   1      45.374  22.879  35.937  1.00  0.00    -0.744 OA
ENDBRANCH  92  95
ENDBRANCH  65  88
ENDBRANCH  39  40
ENDBRANCH  31  34
ENDBRANCH   1  30
TORSDOF 15
ENDMDL
MODEL 2
REMARK VINA RESULT:     -13.8      0.623      7.610
REMARK SMILES O=C(NCCCNC(=O)c1ccc(-c2c3nc(c(-c4cccc(S(=O)(=O)[O-])c4F)c4ccc([nH]4)c(-c4cccc(S(=O)(=O)[O-])c4F)c4nc(c(-c5cccc(S(=O)(=O)[O-])c5F)c5ccc2[nH]5)C=C4)C=C3)cc1)C1=Cc2cc(Cl)cc(-c3ccc(Cl)cc3)c2O[C@@H]1C(F)(F)F
REMARK SMILES IDX 6 1 5 2 4 3 3 4 1 5 2 6 73 8 74 9 90 10 75 11 89 12 76 13
REMARK SMILES IDX 88 14 77 15 80 16 78 17 79 18 91 19 92 20 93 21 94 22 81 23
REMARK SMILES IDX 82 24 87 25 83 26 86 27 84 28 85 29 7 30 8 31 9 33 10 34
REMARK SMILES IDX 11 35 72 36 12 37 71 38 13 39 14 40 15 41 65 42 16 43 70 44
REMARK SMILES IDX 64 45 66 46 17 47 69 48 63 49 62 50 18 52 50 53 30 54 49 55
REMARK SMILES IDX 31 56 34 57 48 58 67 59 32 60 33 61 47 63 68 64 35 65 19 66
REMARK SMILES IDX 20 67 28 68 21 69 23 70 29 71 22 72 24 73 25 74 26 75 27 76
REMARK SMILES IDX 51 77 52 78 60 79 53 80 55 81 61 82 54 83 56 84 57 85 58 86
REMARK SMILES IDX 59 87 36 88 37 89 45 90 38 91 40 92 46 93 39 94 41 95 42 96
REMARK SMILES IDX 43 97 44 98
REMARK H PARENT 3 7 7 32 66 51 34 62
REMARK Flexibility Score: inf
ROOT
ATOM      1  C   UNL A   1      32.725  29.110  26.435  1.00  0.00     0.118 C 
ENDROOT
BRANCH   1   2
ATOM      2  C   UNL A   1      31.677  28.056  26.792  1.00  0.00     0.042 C 
BRANCH   2   3
ATOM      3  C   UNL A   1      31.943  26.704  26.129  1.00  0.00     0.118 C 
BRANCH   3   4
ATOM      4  N   UNL A   1      31.332  25.583  26.852  1.00  0.00    -0.352 N 
ATOM      5  O   UNL A   1      31.149  23.435  27.574  1.00  0.00    -0.270 OA
ATOM      6  C   UNL A   1      31.564  24.234  26.748  1.00  0.00     0.251 C 
ATOM      7  H   UNL A   1      30.649  25.837  27.513  1.00  0.00     0.163 HD
BRANCH   6   8
ATOM      8  C   UNL A   1      32.422  23.803  25.637  1.00  0.00     0.067 C 
ATOM      9  C   UNL A   1      33.728  24.082  25.712  1.00  0.00     0.025 C 
ATOM     10  C   UNL A   1      31.861  22.799  24.685  1.00  0.00     0.314 C 
ATOM     11  C   UNL A   1      34.603  23.024  25.201  1.00  0.00     0.019 A 
ATOM     12  O   UNL A   1      32.689  21.611  24.629  1.00  0.00    -0.475 OA
ATOM     13  C   UNL A   1      35.976  23.137  25.437  1.00  0.00     0.032 A 
ATOM     14  C   UNL A   1      34.036  21.774  24.866  1.00  0.00     0.135 A 
ATOM     15  C   UNL A   1      36.763  21.992  25.437  1.00  0.00     0.042 A 
ATOM     16  C   UNL A   1      34.818  20.607  24.931  1.00  0.00     0.026 A 
ATOM     17  Cl  UNL A   1      38.426  22.105  25.858  1.00  0.00    -0.084 Cl
ATOM     18  C   UNL A   1      36.191  20.739  25.217  1.00  0.00     0.033 A 
BRANCH  10  19
ATOM     19  C   UNL A   1      31.612  23.401  23.290  1.00  0.00     0.429 C 
ATOM     20  F   UNL A   1      32.169  24.634  23.186  1.00  0.00    -0.167 F 
ATOM     21  F   UNL A   1      32.161  22.648  22.308  1.00  0.00    -0.167 F 
ATOM     22  F   UNL A   1      30.296  23.537  23.005  1.00  0.00    -0.167 F 
ENDBRANCH  10  19
BRANCH  16  23
ATOM     23  C   UNL A   1      34.226  19.261  24.906  1.00  0.00    -0.015 A 
ATOM     24  C   UNL A   1      33.029  19.012  25.604  1.00  0.00     0.010 A 
ATOM     25  C   UNL A   1      34.839  18.190  24.247  1.00  0.00     0.010 A 
ATOM     26  C   UNL A   1      32.486  17.731  25.695  1.00  0.00     0.021 A 
ATOM     27  C   UNL A   1      34.292  16.902  24.327  1.00  0.00     0.021 A 
ATOM     28  C   UNL A   1      33.129  16.676  25.062  1.00  0.00     0.041 A 
ATOM     29  Cl  UNL A   1      32.490  15.085  25.200  1.00  0.00    -0.084 Cl
ENDBRANCH  16  23
ENDBRANCH   6   8
ENDBRANCH   3   4
ENDBRANCH   2   3
ENDBRANCH   1   2
BRANCH   1  30
ATOM     30  N   UNL A   1      32.475  30.443  26.968  1.00  0.00    -0.352 N 
ATOM     31  C   UNL A   1      33.395  31.365  27.438  1.00  0.00     0.251 C 
ATOM     32  H   UNL A   1      31.531  30.723  27.000  1.00  0.00     0.163 HD
ATOM     33  O   UNL A   1      33.020  32.452  27.874  1.00  0.00    -0.269 OA
BRANCH  31  34
ATOM     34  C   UNL A   1      34.824  30.986  27.529  1.00  0.00     0.039 A 
ATOM     35  C   UNL A   1      35.769  32.012  27.639  1.00  0.00     0.014 A 
ATOM     36  C   UNL A   1      35.209  29.659  27.687  1.00  0.00     0.014 A 
ATOM     37  C   UNL A   1      37.052  31.716  28.101  1.00  0.00     0.010 A 
ATOM     38  C   UNL A   1      36.444  29.379  28.253  1.00  0.00     0.010 A 
ATOM     39  C   UNL A   1      37.357  30.412  28.519  1.00  0.00    -0.014 A 
BRANCH  39  40
ATOM     40  C   UNL A   1      38.557  30.105  29.340  1.00  0.00     0.031 A 
ATOM     41  C   UNL A   1      39.627  29.205  28.793  1.00  0.00     0.074 A 
ATOM     42  C   UNL A   1      38.582  30.485  30.636  1.00  0.00     0.049 A 
ATOM     43  N   UNL A   1      40.620  28.630  29.418  1.00  0.00    -0.248 NA
ATOM     44  C   UNL A   1      39.534  28.861  27.365  1.00  0.00     0.031 C 
ATOM     45  C   UNL A   1      37.548  31.279  31.309  1.00  0.00     0.029 A 
ATOM     46  N   UNL A   1      39.489  30.226  31.632  1.00  0.00    -0.354 N 
ATOM     47  C   UNL A   1      41.227  27.805  28.480  1.00  0.00     0.074 A 
ATOM     48  C   UNL A   1      40.474  27.935  27.251  1.00  0.00     0.031 C 
ATOM     49  C   UNL A   1      37.888  31.455  32.596  1.00  0.00     0.029 A 
ATOM     50  C   UNL A   1      39.138  30.753  32.855  1.00  0.00     0.049 A 
ATOM     51  H   UNL A   1      40.316  29.710  31.486  1.00  0.00     0.167 HD
ATOM     52  C   UNL A   1      42.328  27.030  28.622  1.00  0.00     0.034 A 
ATOM     53  C   UNL A   1      39.751  30.673  34.052  1.00  0.00     0.034 A 
ATOM     54  C   UNL A   1      43.117  26.978  29.822  1.00  0.00     0.049 A 
ATOM     55  C   UNL A   1      41.037  29.900  34.152  1.00  0.00     0.074 A 
ATOM     56  C   UNL A   1      44.300  26.300  30.048  1.00  0.00     0.029 A 
ATOM     57  N   UNL A   1      42.809  27.653  30.994  1.00  0.00    -0.354 N 
ATOM     58  N   UNL A   1      41.664  29.224  33.218  1.00  0.00    -0.248 NA
ATOM     59  C   UNL A   1      41.718  29.900  35.455  1.00  0.00     0.031 C 
ATOM     60  C   UNL A   1      44.716  26.575  31.356  1.00  0.00     0.029 A 
ATOM     61  C   UNL A   1      43.790  27.426  31.942  1.00  0.00     0.049 A 
ATOM     62  H   UNL A   1      42.010  28.211  31.132  1.00  0.00     0.167 HD
ATOM     63  C   UNL A   1      42.829  28.753  33.808  1.00  0.00     0.074 A 
ATOM     64  C   UNL A   1      42.829  29.232  35.176  1.00  0.00     0.031 C 
ATOM     65  C   UNL A   1      43.804  27.978  33.272  1.00  0.00     0.034 A 
BRANCH  52  66
ATOM     66  C   UNL A   1      42.778  26.241  27.421  1.00  0.00     0.023 A 
ATOM     67  C   UNL A   1      43.487  26.895  26.393  1.00  0.00     0.012 A 
ATOM     68  C   UNL A   1      42.518  24.862  27.310  1.00  0.00     0.148 A 
ATOM     69  C   UNL A   1      43.888  26.202  25.252  1.00  0.00     0.002 A 
ATOM     70  C   UNL A   1      42.957  24.167  26.187  1.00  0.00     0.091 A 
ATOM     71  F   UNL A   1      41.821  24.258  28.283  1.00  0.00    -0.205 F 
ATOM     72  C   UNL A   1      43.631  24.838  25.152  1.00  0.00     0.022 A 
BRANCH  70  73
ATOM     73  S   UNL A   1      42.732  22.394  26.005  1.00  0.00     0.127 S 
ATOM     74  O   UNL A   1      43.459  22.129  24.764  1.00  0.00    -0.237 OA
ATOM     75  O   UNL A   1      43.374  21.871  27.211  1.00  0.00    -0.237 OA
ATOM     76  O   UNL A   1      41.291  22.184  25.951  1.00  0.00    -0.744 OA
ENDBRANCH  70  73
ENDBRANCH  52  66
BRANCH  53  77
ATOM     77  C   UNL A   1      39.212  31.430  35.220  1.00  0.00     0.023 A 
ATOM     78  C   UNL A   1      38.323  30.777  36.098  1.00  0.00     0.012 A 
ATOM     79  C   UNL A   1      39.597  32.755  35.498  1.00  0.00     0.148 A 
ATOM     80  C   UNL A   1      37.808  31.437  37.214  1.00  0.00     0.002 A 
ATOM     81  C   UNL A   1      39.118  33.391  36.639  1.00  0.00     0.091 A 
ATOM     82  F   UNL A   1      40.435  33.366  34.648  1.00  0.00    -0.205 F 
ATOM     83  C   UNL A   1      38.213  32.739  37.491  1.00  0.00     0.022 A 
BRANCH  81  84
ATOM     84  S   UNL A   1      39.688  35.021  37.138  1.00  0.00     0.127 S 
ATOM     85  O   UNL A   1      39.264  35.845  36.010  1.00  0.00    -0.237 OA
ATOM     86  O   UNL A   1      38.943  35.243  38.379  1.00  0.00    -0.237 OA
ATOM     87  O   UNL A   1      41.127  34.885  37.326  1.00  0.00    -0.744 OA
ENDBRANCH  81  84
ENDBRANCH  53  77
BRANCH  65  88
ATOM     88  C   UNL A   1      44.979  27.634  34.142  1.00  0.00     0.023 A 
ATOM     89  C   UNL A   1      46.083  28.506  34.197  1.00  0.00     0.012 A 
ATOM     90  C   UNL A   1      44.938  26.507  34.986  1.00  0.00     0.148 A 
ATOM     91  C   UNL A   1      47.138  28.253  35.073  1.00  0.00     0.002 A 
ATOM     92  C   UNL A   1      45.972  26.284  35.885  1.00  0.00     0.091 A 
ATOM     93  F   UNL A   1      43.886  25.680  34.898  1.00  0.00    -0.205 F 
ATOM     94  C   UNL A   1      47.076  27.152  35.925  1.00  0.00     0.022 A 
BRANCH  92  95
ATOM     95  S   UNL A   1      45.932  24.946  37.082  1.00  0.00     0.127 S 
ATOM     96  O   UNL A   1      45.860  23.772  36.214  1.00  0.00    -0.237 OA
ATOM     97  O   UNL A   1      47.207  25.112  37.780  1.00  0.00    -0.237 OA
ATOM     98  O   UNL A   1      44.756  25.187  37.909  1.00  0.00    -0.744 OA
ENDBRANCH  92  95
ENDBRANCH  65  88
ENDBRANCH  39  40
ENDBRANCH  31  34
ENDBRANCH   1  30
TORSDOF 15
ENDMDL
MODEL 3
REMARK VINA RESULT:     -13.7      4.869     10.229
REMARK SMILES O=C(NCCCNC(=O)c1ccc(-c2c3nc(c(-c4cccc(S(=O)(=O)[O-])c4F)c4ccc([nH]4)c(-c4cccc(S(=O)(=O)[O-])c4F)c4nc(c(-c5cccc(S(=O)(=O)[O-])c5F)c5ccc2[nH]5)C=C4)C=C3)cc1)C1=Cc2cc(Cl)cc(-c3ccc(Cl)cc3)c2O[C@@H]1C(F)(F)F
REMARK SMILES IDX 6 1 5 2 4 3 3 4 1 5 2 6 73 8 74 9 90 10 75 11 89 12 76 13
REMARK SMILES IDX 88 14 77 15 80 16 78 17 79 18 91 19 92 20 93 21 94 22 81 23
REMARK SMILES IDX 82 24 87 25 83 26 86 27 84 28 85 29 7 30 8 31 9 33 10 34
REMARK SMILES IDX 11 35 72 36 12 37 71 38 13 39 14 40 15 41 65 42 16 43 70 44
REMARK SMILES IDX 64 45 66 46 17 47 69 48 63 49 62 50 18 52 50 53 30 54 49 55
REMARK SMILES IDX 31 56 34 57 48 58 67 59 32 60 33 61 47 63 68 64 35 65 19 66
REMARK SMILES IDX 20 67 28 68 21 69 23 70 29 71 22 72 24 73 25 74 26 75 27 76
REMARK SMILES IDX 51 77 52 78 60 79 53 80 55 81 61 82 54 83 56 84 57 85 58 86
REMARK SMILES IDX 59 87 36 88 37 89 45 90 38 91 40 92 46 93 39 94 41 95 42 96
REMARK SMILES IDX 43 97 44 98
REMARK H PARENT 3 7 7 32 66 51 34 62
REMARK Flexibility Score: inf
ROOT
ATOM      1  C   UNL A   1      36.763  22.009  25.377  1.00  0.00     0.118 C 
ENDROOT
BRANCH   1   2
ATOM      2  C   UNL A   1      35.476  21.241  25.081  1.00  0.00     0.042 C 
BRANCH   2   3
ATOM      3  C   UNL A   1      34.260  22.154  24.923  1.00  0.00     0.118 C 
BRANCH   3   4
ATOM      4  N   UNL A   1      34.273  22.910  23.665  1.00  0.00    -0.352 N 
ATOM      5  O   UNL A   1      34.196  24.775  22.366  1.00  0.00    -0.270 OA
ATOM      6  C   UNL A   1      33.917  24.212  23.415  1.00  0.00     0.251 C 
ATOM      7  H   UNL A   1      34.584  22.406  22.879  1.00  0.00     0.163 HD
BRANCH   6   8
ATOM      8  C   UNL A   1      33.258  24.932  24.513  1.00  0.00     0.067 C 
ATOM      9  C   UNL A   1      34.030  25.629  25.353  1.00  0.00     0.025 C 
ATOM     10  C   UNL A   1      31.781  25.126  24.420  1.00  0.00     0.314 C 
ATOM     11  C   UNL A   1      33.455  26.904  25.788  1.00  0.00     0.019 A 
ATOM     12  O   UNL A   1      31.434  26.532  24.459  1.00  0.00    -0.475 OA
ATOM     13  C   UNL A   1      34.277  27.791  26.489  1.00  0.00     0.032 A 
ATOM     14  C   UNL A   1      32.274  27.365  25.166  1.00  0.00     0.135 A 
ATOM     15  C   UNL A   1      33.976  29.147  26.484  1.00  0.00     0.042 A 
ATOM     16  C   UNL A   1      32.004  28.744  25.103  1.00  0.00     0.026 A 
ATOM     17  Cl  UNL A   1      35.054  30.259  27.230  1.00  0.00    -0.084 Cl
ATOM     18  C   UNL A   1      32.872  29.624  25.777  1.00  0.00     0.033 A 
BRANCH  10  19
ATOM     19  C   UNL A   1      31.023  24.309  25.482  1.00  0.00     0.429 C 
ATOM     20  F   UNL A   1      31.791  24.110  26.583  1.00  0.00    -0.167 F 
ATOM     21  F   UNL A   1      29.904  24.942  25.904  1.00  0.00    -0.167 F 
ATOM     22  F   UNL A   1      30.649  23.087  25.036  1.00  0.00    -0.167 F 
ENDBRANCH  10  19
BRANCH  16  23
ATOM     23  C   UNL A   1      30.978  29.305  24.211  1.00  0.00    -0.015 A 
ATOM     24  C   UNL A   1      30.808  28.771  22.920  1.00  0.00     0.010 A 
ATOM     25  C   UNL A   1      30.185  30.397  24.582  1.00  0.00     0.010 A 
ATOM     26  C   UNL A   1      29.921  29.337  22.004  1.00  0.00     0.021 A 
ATOM     27  C   UNL A   1      29.286  30.962  23.669  1.00  0.00     0.021 A 
ATOM     28  C   UNL A   1      29.169  30.440  22.381  1.00  0.00     0.041 A 
ATOM     29  Cl  UNL A   1      28.101  31.169  21.247  1.00  0.00    -0.084 Cl
ENDBRANCH  16  23
ENDBRANCH   6   8
ENDBRANCH   3   4
ENDBRANCH   2   3
ENDBRANCH   1   2
BRANCH   1  30
ATOM     30  N   UNL A   1      37.986  21.218  25.332  1.00  0.00    -0.352 N 
ATOM     31  C   UNL A   1      39.182  21.449  25.991  1.00  0.00     0.251 C 
ATOM     32  H   UNL A   1      37.959  20.417  24.760  1.00  0.00     0.163 HD
ATOM     33  O   UNL A   1      40.136  20.688  25.835  1.00  0.00    -0.269 OA
BRANCH  31  34
ATOM     34  C   UNL A   1      39.348  22.687  26.786  1.00  0.00     0.039 A 
ATOM     35  C   UNL A   1      40.460  22.783  27.629  1.00  0.00     0.014 A 
ATOM     36  C   UNL A   1      38.535  23.796  26.571  1.00  0.00     0.014 A 
ATOM     37  C   UNL A   1      40.864  24.034  28.094  1.00  0.00     0.010 A 
ATOM     38  C   UNL A   1      38.998  25.051  26.937  1.00  0.00     0.010 A 
ATOM     39  C   UNL A   1      40.198  25.188  27.653  1.00  0.00    -0.014 A 
BRANCH  39  40
ATOM     40  C   UNL A   1      40.779  26.546  27.813  1.00  0.00     0.031 A 
ATOM     41  C   UNL A   1      42.153  26.839  27.283  1.00  0.00     0.074 A 
ATOM     42  C   UNL A   1      40.144  27.444  28.596  1.00  0.00     0.049 A 
ATOM     43  N   UNL A   1      42.926  27.866  27.518  1.00  0.00    -0.248 NA
ATOM     44  C   UNL A   1      42.759  25.814  26.418  1.00  0.00     0.031 C 
ATOM     45  C   UNL A   1      38.847  27.236  29.250  1.00  0.00     0.029 A 
ATOM     46  N   UNL A   1      40.516  28.699  29.009  1.00  0.00    -0.354 N 
ATOM     47  C   UNL A   1      44.132  27.580  26.891  1.00  0.00     0.074 A 
ATOM     48  C   UNL A   1      43.995  26.272  26.287  1.00  0.00     0.031 C 
ATOM     49  C   UNL A   1      38.526  28.328  29.964  1.00  0.00     0.029 A 
ATOM     50  C   UNL A   1      39.610  29.296  29.857  1.00  0.00     0.049 A 
ATOM     51  H   UNL A   1      41.354  29.133  28.725  1.00  0.00     0.167 HD
ATOM     52  C   UNL A   1      45.243  28.348  26.803  1.00  0.00     0.034 A 
ATOM     53  C   UNL A   1      39.650  30.488  30.485  1.00  0.00     0.034 A 
ATOM     54  C   UNL A   1      45.333  29.681  27.334  1.00  0.00     0.049 A 
ATOM     55  C   UNL A   1      40.849  31.372  30.273  1.00  0.00     0.074 A 
ATOM     56  C   UNL A   1      46.375  30.584  27.225  1.00  0.00     0.029 A 
ATOM     57  N   UNL A   1      44.330  30.309  28.056  1.00  0.00    -0.354 N 
ATOM     58  N   UNL A   1      41.932  31.133  29.573  1.00  0.00    -0.248 NA
ATOM     59  C   UNL A   1      40.823  32.697  30.910  1.00  0.00     0.031 C 
ATOM     60  C   UNL A   1      45.995  31.766  27.872  1.00  0.00     0.029 A 
ATOM     61  C   UNL A   1      44.716  31.596  28.382  1.00  0.00     0.049 A 
ATOM     62  H   UNL A   1      43.469  29.900  28.301  1.00  0.00     0.167 HD
ATOM     63  C   UNL A   1      42.697  32.289  29.651  1.00  0.00     0.074 A 
ATOM     64  C   UNL A   1      41.948  33.233  30.456  1.00  0.00     0.031 C 
ATOM     65  C   UNL A   1      43.918  32.541  29.119  1.00  0.00     0.034 A 
BRANCH  52  66
ATOM     66  C   UNL A   1      46.414  27.788  26.041  1.00  0.00     0.023 A 
ATOM     67  C   UNL A   1      46.490  27.991  24.648  1.00  0.00     0.012 A 
ATOM     68  C   UNL A   1      47.440  27.077  26.691  1.00  0.00     0.148 A 
ATOM     69  C   UNL A   1      47.542  27.456  23.906  1.00  0.00     0.002 A 
ATOM     70  C   UNL A   1      48.509  26.581  25.951  1.00  0.00     0.091 A 
ATOM     71  F   UNL A   1      47.341  26.870  28.012  1.00  0.00    -0.205 F 
ATOM     72  C   UNL A   1      48.555  26.758  24.558  1.00  0.00     0.022 A 
BRANCH  70  73
ATOM     73  S   UNL A   1      49.895  25.730  26.716  1.00  0.00     0.127 S 
ATOM     74  O   UNL A   1      50.812  25.586  25.587  1.00  0.00    -0.237 OA
ATOM     75  O   UNL A   1      50.327  26.688  27.734  1.00  0.00    -0.237 OA
ATOM     76  O   UNL A   1      49.348  24.490  27.250  1.00  0.00    -0.744 OA
ENDBRANCH  70  73
ENDBRANCH  52  66
BRANCH  53  77
ATOM     77  C   UNL A   1      38.478  30.954  31.280  1.00  0.00     0.023 A 
ATOM     78  C   UNL A   1      38.508  30.804  32.682  1.00  0.00     0.012 A 
ATOM     79  C   UNL A   1      37.367  31.580  30.684  1.00  0.00     0.148 A 
ATOM     80  C   UNL A   1      37.443  31.242  33.470  1.00  0.00     0.002 A 
ATOM     81  C   UNL A   1      36.330  32.059  31.480  1.00  0.00     0.091 A 
ATOM     82  F   UNL A   1      37.348  31.707  29.349  1.00  0.00    -0.205 F 
ATOM     83  C   UNL A   1      36.359  31.879  32.872  1.00  0.00     0.022 A 
BRANCH  81  84
ATOM     84  S   UNL A   1      34.960  33.004  30.802  1.00  0.00     0.127 S 
ATOM     85  O   UNL A   1      34.065  33.102  31.952  1.00  0.00    -0.237 OA
ATOM     86  O   UNL A   1      35.610  34.259  30.418  1.00  0.00    -0.237 OA
ATOM     87  O   UNL A   1      34.471  32.219  29.675  1.00  0.00    -0.744 OA
ENDBRANCH  81  84
ENDBRANCH  53  77
BRANCH  65  88
ATOM     88  C   UNL A   1      44.509  33.905  29.345  1.00  0.00     0.023 A 
ATOM     89  C   UNL A   1      45.345  34.124  30.457  1.00  0.00     0.012 A 
ATOM     90  C   UNL A   1      44.325  34.930  28.397  1.00  0.00     0.148 A 
ATOM     91  C   UNL A   1      45.981  35.353  30.628  1.00  0.00     0.002 A 
ATOM     92  C   UNL A   1      44.994  36.137  28.553  1.00  0.00     0.091 A 
ATOM     93  F   UNL A   1      43.506  34.702  27.360  1.00  0.00    -0.205 F 
ATOM     94  C   UNL A   1      45.817  36.352  29.671  1.00  0.00     0.022 A 
BRANCH  92  95
ATOM     95  S   UNL A   1      44.914  37.443  27.323  1.00  0.00     0.127 S 
ATOM     96  O   UNL A   1      45.355  38.605  28.092  1.00  0.00    -0.237 OA
ATOM     97  O   UNL A   1      45.867  36.980  26.313  1.00  0.00    -0.237 OA
ATOM     98  O   UNL A   1      43.529  37.479  26.871  1.00  0.00    -0.744 OA
ENDBRANCH  92  95
ENDBRANCH  65  88
ENDBRANCH  39  40
ENDBRANCH  31  34
ENDBRANCH   1  30
TORSDOF 15
ENDMDL
