MODEL 1
REMARK VINA RESULT:     -12.0      0.000      0.000
REMARK SMILES Cc1nc(CNC(=O)[C@H]2CCO[C@H]2C)sc1C(=O)NCCCNC(=O)c1ccc(-c2c3nc(c(-c4cccc(S(=O)(=O)[O-])c4F)c4ccc([nH]4)c(-c4cccc(S(=O)(=O)[O-])c4F)c4nc(c(-c5cccc(S(=O)(=O)[O-])c5F)c5ccc2[nH]5)C=C4)C=C3)cc1
REMARK SMILES IDX 21 1 20 2 19 3 17 4 18 5 16 7 1 8 2 9 3 10 4 11 15 12 5 13
REMARK SMILES IDX 6 14 7 15 8 17 9 18 10 19 13 20 11 21 12 22 14 23 22 24
REMARK SMILES IDX 23 25 24 26 25 28 26 29 27 30 88 31 28 32 87 33 29 34 30 35
REMARK SMILES IDX 31 36 81 37 32 38 86 39 80 40 82 41 33 42 85 43 79 44 78 45
REMARK SMILES IDX 34 47 66 48 46 49 65 50 47 51 50 52 64 53 83 54 48 55 49 56
REMARK SMILES IDX 63 58 84 59 51 60 35 61 36 62 44 63 37 64 39 65 45 66 38 67
REMARK SMILES IDX 40 68 41 69 42 70 43 71 67 72 68 73 76 74 69 75 71 76 77 77
REMARK SMILES IDX 70 78 72 79 73 80 74 81 75 82 52 83 53 84 61 85 54 86 56 87
REMARK SMILES IDX 62 88 55 89 57 90 58 91 59 92 60 93
REMARK H PARENT 19 6 6 16 23 27 82 46 50 57
REMARK Flexibility Score: inf
ROOT
ATOM      1  C   UNL A   1      31.366  31.820  26.502  1.00  0.00     0.042 C 
ENDROOT
BRANCH   1   2
ATOM      2  C   UNL A   1      31.549  30.480  25.793  1.00  0.00     0.118 C 
BRANCH   2   3
ATOM      3  N   UNL A   1      30.754  30.422  24.589  1.00  0.00    -0.351 N 
ATOM      4  C   UNL A   1      30.516  29.450  23.653  1.00  0.00     0.263 C 
ATOM      5  O   UNL A   1      29.714  29.813  22.782  1.00  0.00    -0.268 OA
ATOM      6  H   UNL A   1      30.279  31.264  24.399  1.00  0.00     0.163 HD
BRANCH   4   7
ATOM      7  C   UNL A   1      31.083  28.105  23.676  1.00  0.00     0.115 A 
ATOM      8  C   UNL A   1      33.613  28.021  22.956  1.00  0.00     0.068 C 
ATOM      9  C   UNL A   1      32.308  27.492  23.425  1.00  0.00     0.061 A 
ATOM     10  N   UNL A   1      32.316  26.112  23.585  1.00  0.00    -0.244 NA
ATOM     11  C   UNL A   1      31.114  25.648  23.807  1.00  0.00     0.113 A 
ATOM     12  S   UNL A   1      29.924  26.840  24.037  1.00  0.00    -0.111 S 
BRANCH  11  13
ATOM     13  C   UNL A   1      30.777  24.190  23.852  1.00  0.00     0.183 C 
BRANCH  13  14
ATOM     14  N   UNL A   1      30.405  23.829  25.211  1.00  0.00    -0.349 N 
ATOM     15  C   UNL A   1      31.166  23.308  26.213  1.00  0.00     0.226 C 
ATOM     16  H   UNL A   1      29.461  23.985  25.442  1.00  0.00     0.163 HD
ATOM     17  O   UNL A   1      30.619  23.057  27.287  1.00  0.00    -0.275 OA
BRANCH  15  18
ATOM     18  C   UNL A   1      32.651  23.109  26.000  1.00  0.00     0.109 C 
ATOM     19  C   UNL A   1      33.400  22.698  27.255  1.00  0.00     0.044 C 
ATOM     20  C   UNL A   1      33.040  21.991  25.039  1.00  0.00     0.127 C 
ATOM     21  C   UNL A   1      34.695  22.164  26.686  1.00  0.00     0.161 C 
ATOM     22  O   UNL A   1      34.415  21.678  25.365  1.00  0.00    -0.378 OA
ATOM     23  C   UNL A   1      32.241  20.696  25.164  1.00  0.00     0.039 C 
ENDBRANCH  15  18
ENDBRANCH  13  14
ENDBRANCH  11  13
ENDBRANCH   4   7
ENDBRANCH   2   3
ENDBRANCH   1   2
BRANCH   1  24
ATOM     24  C   UNL A   1      32.640  32.359  27.139  1.00  0.00     0.118 C 
BRANCH  24  25
ATOM     25  N   UNL A   1      32.500  33.755  27.527  1.00  0.00    -0.352 N 
ATOM     26  C   UNL A   1      33.115  34.456  28.536  1.00  0.00     0.251 C 
ATOM     27  H   UNL A   1      31.866  34.277  26.983  1.00  0.00     0.163 HD
ATOM     28  O   UNL A   1      32.669  35.557  28.852  1.00  0.00    -0.269 OA
BRANCH  26  29
ATOM     29  C   UNL A   1      34.296  33.905  29.239  1.00  0.00     0.039 A 
ATOM     30  C   UNL A   1      34.097  32.974  30.265  1.00  0.00     0.014 A 
ATOM     31  C   UNL A   1      35.591  34.336  28.939  1.00  0.00     0.014 A 
ATOM     32  C   UNL A   1      35.194  32.446  30.952  1.00  0.00     0.010 A 
ATOM     33  C   UNL A   1      36.686  33.751  29.569  1.00  0.00     0.010 A 
ATOM     34  C   UNL A   1      36.501  32.812  30.593  1.00  0.00    -0.014 A 
BRANCH  34  35
ATOM     35  C   UNL A   1      37.686  32.234  31.278  1.00  0.00     0.031 A 
ATOM     36  C   UNL A   1      38.441  31.092  30.650  1.00  0.00     0.074 A 
ATOM     37  C   UNL A   1      38.024  32.672  32.506  1.00  0.00     0.049 A 
ATOM     38  N   UNL A   1      39.442  30.400  31.132  1.00  0.00    -0.248 NA
ATOM     39  C   UNL A   1      37.996  30.649  29.318  1.00  0.00     0.031 C 
ATOM     40  C   UNL A   1      37.322  33.718  33.254  1.00  0.00     0.029 A 
ATOM     41  N   UNL A   1      39.023  32.270  33.358  1.00  0.00    -0.354 N 
ATOM     42  C   UNL A   1      39.716  29.419  30.187  1.00  0.00     0.074 A 
ATOM     43  C   UNL A   1      38.758  29.584  29.116  1.00  0.00     0.031 C 
ATOM     44  C   UNL A   1      37.908  33.871  34.452  1.00  0.00     0.029 A 
ATOM     45  C   UNL A   1      39.007  32.919  34.571  1.00  0.00     0.049 A 
ATOM     46  H   UNL A   1      39.686  31.582  33.123  1.00  0.00     0.167 HD
ATOM     47  C   UNL A   1      40.696  28.483  30.193  1.00  0.00     0.034 A 
ATOM     48  C   UNL A   1      39.781  32.756  35.662  1.00  0.00     0.034 A 
ATOM     49  C   UNL A   1      41.679  28.356  31.235  1.00  0.00     0.049 A 
ATOM     50  C   UNL A   1      40.896  31.746  35.622  1.00  0.00     0.074 A 
ATOM     51  C   UNL A   1      42.767  27.504  31.293  1.00  0.00     0.029 A 
ATOM     52  N   UNL A   1      41.694  29.102  32.403  1.00  0.00    -0.354 N 
ATOM     53  N   UNL A   1      41.237  30.932  34.652  1.00  0.00    -0.248 NA
ATOM     54  C   UNL A   1      41.757  31.657  36.810  1.00  0.00     0.031 C 
ATOM     55  C   UNL A   1      43.430  27.721  32.504  1.00  0.00     0.029 A 
ATOM     56  C   UNL A   1      42.767  28.726  33.192  1.00  0.00     0.049 A 
ATOM     57  H   UNL A   1      41.037  29.796  32.638  1.00  0.00     0.167 HD
ATOM     58  C   UNL A   1      42.368  30.259  35.098  1.00  0.00     0.074 A 
ATOM     59  C   UNL A   1      42.669  30.777  36.418  1.00  0.00     0.031 C 
ATOM     60  C   UNL A   1      43.085  29.290  34.478  1.00  0.00     0.034 A 
BRANCH  47  61
ATOM     61  C   UNL A   1      40.792  27.560  29.006  1.00  0.00     0.023 A 
ATOM     62  C   UNL A   1      39.912  26.462  28.907  1.00  0.00     0.012 A 
ATOM     63  C   UNL A   1      41.705  27.807  27.961  1.00  0.00     0.148 A 
ATOM     64  C   UNL A   1      39.962  25.605  27.809  1.00  0.00     0.002 A 
ATOM     65  C   UNL A   1      41.719  26.974  26.848  1.00  0.00     0.091 A 
ATOM     66  F   UNL A   1      42.548  28.843  28.079  1.00  0.00    -0.205 F 
ATOM     67  C   UNL A   1      40.857  25.867  26.776  1.00  0.00     0.022 A 
BRANCH  65  68
ATOM     68  S   UNL A   1      42.779  27.269  25.428  1.00  0.00     0.127 S 
ATOM     69  O   UNL A   1      44.072  27.506  26.070  1.00  0.00    -0.237 OA
ATOM     70  O   UNL A   1      42.684  26.002  24.702  1.00  0.00    -0.237 OA
ATOM     71  O   UNL A   1      42.207  28.413  24.732  1.00  0.00    -0.744 OA
ENDBRANCH  65  68
ENDBRANCH  47  61
BRANCH  48  72
ATOM     72  C   UNL A   1      39.569  33.620  36.857  1.00  0.00     0.023 A 
ATOM     73  C   UNL A   1      39.994  34.961  36.826  1.00  0.00     0.012 A 
ATOM     74  C   UNL A   1      38.917  33.133  38.007  1.00  0.00     0.148 A 
ATOM     75  C   UNL A   1      39.800  35.796  37.926  1.00  0.00     0.002 A 
ATOM     76  C   UNL A   1      38.677  33.984  39.079  1.00  0.00     0.091 A 
ATOM     77  F   UNL A   1      38.532  31.848  38.023  1.00  0.00    -0.205 F 
ATOM     78  C   UNL A   1      39.131  35.312  39.048  1.00  0.00     0.022 A 
BRANCH  76  79
ATOM     79  S   UNL A   1      37.707  33.483  40.506  1.00  0.00     0.127 S 
ATOM     80  O   UNL A   1      37.632  34.726  41.268  1.00  0.00    -0.237 OA
ATOM     81  O   UNL A   1      36.450  33.064  39.885  1.00  0.00    -0.237 OA
ATOM     82  O   UNL A   1      38.459  32.400  41.127  1.00  0.00    -0.744 OA
ENDBRANCH  76  79
ENDBRANCH  48  72
BRANCH  60  83
ATOM     83  C   UNL A   1      44.289  28.742  35.198  1.00  0.00     0.023 A 
ATOM     84  C   UNL A   1      45.560  29.303  34.963  1.00  0.00     0.012 A 
ATOM     85  C   UNL A   1      44.148  27.728  36.164  1.00  0.00     0.148 A 
ATOM     86  C   UNL A   1      46.676  28.844  35.661  1.00  0.00     0.002 A 
ATOM     87  C   UNL A   1      45.255  27.309  36.890  1.00  0.00     0.091 A 
ATOM     88  F   UNL A   1      42.932  27.194  36.359  1.00  0.00    -0.205 F 
ATOM     89  C   UNL A   1      46.522  27.857  36.632  1.00  0.00     0.022 A 
BRANCH  87  90
ATOM     90  S   UNL A   1      45.135  26.112  38.226  1.00  0.00     0.127 S 
ATOM     91  O   UNL A   1      46.443  26.245  38.863  1.00  0.00    -0.237 OA
ATOM     92  O   UNL A   1      44.017  26.636  39.012  1.00  0.00    -0.237 OA
ATOM     93  O   UNL A   1      44.876  24.828  37.590  1.00  0.00    -0.744 OA
ENDBRANCH  87  90
ENDBRANCH  60  83
ENDBRANCH  34  35
ENDBRANCH  26  29
ENDBRANCH  24  25
ENDBRANCH   1  24
TORSDOF 16
ENDMDL
MODEL 2
REMARK VINA RESULT:     -11.7      5.734      8.917
REMARK SMILES Cc1nc(CNC(=O)[C@H]2CCO[C@H]2C)sc1C(=O)NCCCNC(=O)c1ccc(-c2c3nc(c(-c4cccc(S(=O)(=O)[O-])c4F)c4ccc([nH]4)c(-c4cccc(S(=O)(=O)[O-])c4F)c4nc(c(-c5cccc(S(=O)(=O)[O-])c5F)c5ccc2[nH]5)C=C4)C=C3)cc1
REMARK SMILES IDX 21 1 20 2 19 3 17 4 18 5 16 7 1 8 2 9 3 10 4 11 15 12 5 13
REMARK SMILES IDX 6 14 7 15 8 17 9 18 10 19 13 20 11 21 12 22 14 23 22 24
REMARK SMILES IDX 23 25 24 26 25 28 26 29 27 30 88 31 28 32 87 33 29 34 30 35
REMARK SMILES IDX 31 36 81 37 32 38 86 39 80 40 82 41 33 42 85 43 79 44 78 45
REMARK SMILES IDX 34 47 66 48 46 49 65 50 47 51 50 52 64 53 83 54 48 55 49 56
REMARK SMILES IDX 63 58 84 59 51 60 35 61 36 62 44 63 37 64 39 65 45 66 38 67
REMARK SMILES IDX 40 68 41 69 42 70 43 71 67 72 68 73 76 74 69 75 71 76 77 77
REMARK SMILES IDX 70 78 72 79 73 80 74 81 75 82 52 83 53 84 61 85 54 86 56 87
REMARK SMILES IDX 62 88 55 89 57 90 58 91 59 92 60 93
REMARK H PARENT 19 6 6 16 23 27 82 46 50 57
REMARK Flexibility Score: inf
ROOT
ATOM      1  C   UNL A   1      35.903  21.428  25.814  1.00  0.00     0.042 C 
ENDROOT
BRANCH   1   2
ATOM      2  C   UNL A   1      35.599  20.352  24.772  1.00  0.00     0.118 C 
BRANCH   2   3
ATOM      3  N   UNL A   1      34.364  19.672  25.082  1.00  0.00    -0.351 N 
ATOM      4  C   UNL A   1      33.067  20.082  25.241  1.00  0.00     0.263 C 
ATOM      5  O   UNL A   1      32.292  19.142  25.462  1.00  0.00    -0.268 OA
ATOM      6  H   UNL A   1      34.478  18.701  25.204  1.00  0.00     0.163 HD
BRANCH   4   7
ATOM      7  C   UNL A   1      32.601  21.461  25.117  1.00  0.00     0.115 A 
ATOM      8  C   UNL A   1      32.496  22.743  27.413  1.00  0.00     0.068 C 
ATOM      9  C   UNL A   1      32.375  22.557  25.946  1.00  0.00     0.061 A 
ATOM     10  N   UNL A   1      31.889  23.689  25.302  1.00  0.00    -0.244 NA
ATOM     11  C   UNL A   1      31.606  23.442  24.049  1.00  0.00     0.113 A 
ATOM     12  S   UNL A   1      32.084  21.905  23.502  1.00  0.00    -0.111 S 
BRANCH  11  13
ATOM     13  C   UNL A   1      30.909  24.410  23.145  1.00  0.00     0.183 C 
BRANCH  13  14
ATOM     14  N   UNL A   1      31.829  24.832  22.099  1.00  0.00    -0.349 N 
ATOM     15  C   UNL A   1      32.641  25.923  22.041  1.00  0.00     0.226 C 
ATOM     16  H   UNL A   1      31.870  24.238  21.315  1.00  0.00     0.163 HD
ATOM     17  O   UNL A   1      33.322  26.086  21.029  1.00  0.00    -0.275 OA
BRANCH  15  18
ATOM     18  C   UNL A   1      32.725  26.859  23.228  1.00  0.00     0.109 C 
ATOM     19  C   UNL A   1      33.718  27.991  23.045  1.00  0.00     0.044 C 
ATOM     20  C   UNL A   1      31.450  27.627  23.560  1.00  0.00     0.127 C 
ATOM     21  C   UNL A   1      33.290  28.960  24.125  1.00  0.00     0.161 C 
ATOM     22  O   UNL A   1      31.889  28.754  24.355  1.00  0.00    -0.378 OA
ATOM     23  C   UNL A   1      30.681  28.188  22.366  1.00  0.00     0.039 C 
ENDBRANCH  15  18
ENDBRANCH  13  14
ENDBRANCH  11  13
ENDBRANCH   4   7
ENDBRANCH   2   3
ENDBRANCH   1   2
BRANCH   1  24
ATOM     24  C   UNL A   1      37.298  22.027  25.691  1.00  0.00     0.118 C 
BRANCH  24  25
ATOM     25  N   UNL A   1      38.327  21.083  26.099  1.00  0.00    -0.352 N 
ATOM     26  C   UNL A   1      39.626  21.307  26.487  1.00  0.00     0.251 C 
ATOM     27  H   UNL A   1      38.051  20.138  26.097  1.00  0.00     0.163 HD
ATOM     28  O   UNL A   1      40.401  20.355  26.548  1.00  0.00    -0.269 OA
BRANCH  26  29
ATOM     29  C   UNL A   1      40.098  22.670  26.827  1.00  0.00     0.039 A 
ATOM     30  C   UNL A   1      41.019  22.825  27.869  1.00  0.00     0.014 A 
ATOM     31  C   UNL A   1      39.601  23.799  26.171  1.00  0.00     0.014 A 
ATOM     32  C   UNL A   1      41.473  24.100  28.218  1.00  0.00     0.010 A 
ATOM     33  C   UNL A   1      40.113  25.060  26.465  1.00  0.00     0.010 A 
ATOM     34  C   UNL A   1      41.042  25.228  27.501  1.00  0.00    -0.014 A 
BRANCH  34  35
ATOM     35  C   UNL A   1      41.539  26.591  27.823  1.00  0.00     0.031 A 
ATOM     36  C   UNL A   1      42.965  26.968  27.514  1.00  0.00     0.074 A 
ATOM     37  C   UNL A   1      40.740  27.454  28.478  1.00  0.00     0.049 A 
ATOM     38  N   UNL A   1      43.607  28.072  27.798  1.00  0.00    -0.248 NA
ATOM     39  C   UNL A   1      43.787  25.961  26.820  1.00  0.00     0.031 C 
ATOM     40  C   UNL A   1      39.366  27.178  28.904  1.00  0.00     0.029 A 
ATOM     41  N   UNL A   1      40.978  28.728  28.933  1.00  0.00    -0.354 N 
ATOM     42  C   UNL A   1      44.910  27.878  27.359  1.00  0.00     0.074 A 
ATOM     43  C   UNL A   1      44.979  26.539  26.817  1.00  0.00     0.031 C 
ATOM     44  C   UNL A   1      38.885  28.245  29.560  1.00  0.00     0.029 A 
ATOM     45  C   UNL A   1      39.922  29.271  29.627  1.00  0.00     0.049 A 
ATOM     46  H   UNL A   1      41.824  29.206  28.776  1.00  0.00     0.167 HD
ATOM     47  C   UNL A   1      45.951  28.747  27.376  1.00  0.00     0.034 A 
ATOM     48  C   UNL A   1      39.805  30.455  30.259  1.00  0.00     0.034 A 
ATOM     49  C   UNL A   1      45.864  30.095  27.868  1.00  0.00     0.049 A 
ATOM     50  C   UNL A   1      40.958  31.421  30.217  1.00  0.00     0.074 A 
ATOM     51  C   UNL A   1      46.832  31.082  27.847  1.00  0.00     0.029 A 
ATOM     52  N   UNL A   1      44.744  30.645  28.472  1.00  0.00    -0.354 N 
ATOM     53  N   UNL A   1      42.135  31.277  29.658  1.00  0.00    -0.248 NA
ATOM     54  C   UNL A   1      40.755  32.728  30.860  1.00  0.00     0.031 C 
ATOM     55  C   UNL A   1      46.304  32.226  28.454  1.00  0.00     0.029 A 
ATOM     56  C   UNL A   1      44.998  31.957  28.833  1.00  0.00     0.049 A 
ATOM     57  H   UNL A   1      43.894  30.173  28.622  1.00  0.00     0.167 HD
ATOM     58  C   UNL A   1      42.800  32.481  29.851  1.00  0.00     0.074 A 
ATOM     59  C   UNL A   1      41.886  33.354  30.561  1.00  0.00     0.031 C 
ATOM     60  C   UNL A   1      44.059  32.830  29.488  1.00  0.00     0.034 A 
BRANCH  47  61
ATOM     61  C   UNL A   1      47.260  28.284  26.790  1.00  0.00     0.023 A 
ATOM     62  C   UNL A   1      48.329  27.958  27.651  1.00  0.00     0.012 A 
ATOM     63  C   UNL A   1      47.417  28.113  25.401  1.00  0.00     0.148 A 
ATOM     64  C   UNL A   1      49.544  27.505  27.138  1.00  0.00     0.002 A 
ATOM     65  C   UNL A   1      48.616  27.619  24.899  1.00  0.00     0.091 A 
ATOM     66  F   UNL A   1      46.399  28.446  24.595  1.00  0.00    -0.205 F 
ATOM     67  C   UNL A   1      49.683  27.326  25.765  1.00  0.00     0.022 A 
BRANCH  65  68
ATOM     68  S   UNL A   1      48.872  27.278  23.154  1.00  0.00     0.127 S 
ATOM     69  O   UNL A   1      50.332  27.277  23.065  1.00  0.00    -0.237 OA
ATOM     70  O   UNL A   1      48.253  25.961  23.002  1.00  0.00    -0.237 OA
ATOM     71  O   UNL A   1      48.202  28.350  22.433  1.00  0.00    -0.744 OA
ENDBRANCH  65  68
ENDBRANCH  47  61
BRANCH  48  72
ATOM     72  C   UNL A   1      38.523  30.818  30.925  1.00  0.00     0.023 A 
ATOM     73  C   UNL A   1      38.348  30.532  32.292  1.00  0.00     0.012 A 
ATOM     74  C   UNL A   1      37.494  31.477  30.224  1.00  0.00     0.148 A 
ATOM     75  C   UNL A   1      37.162  30.869  32.944  1.00  0.00     0.002 A 
ATOM     76  C   UNL A   1      36.336  31.859  30.892  1.00  0.00     0.091 A 
ATOM     77  F   UNL A   1      37.673  31.728  28.919  1.00  0.00    -0.205 F 
ATOM     78  C   UNL A   1      36.161  31.542  32.248  1.00  0.00     0.022 A 
BRANCH  76  79
ATOM     79  S   UNL A   1      35.055  32.847  30.109  1.00  0.00     0.127 S 
ATOM     80  O   UNL A   1      34.152  33.106  31.227  1.00  0.00    -0.237 OA
ATOM     81  O   UNL A   1      35.813  34.009  29.645  1.00  0.00    -0.237 OA
ATOM     82  O   UNL A   1      34.521  32.014  29.040  1.00  0.00    -0.744 OA
ENDBRANCH  76  79
ENDBRANCH  48  72
BRANCH  60  83
ATOM     83  C   UNL A   1      44.521  34.226  29.817  1.00  0.00     0.023 A 
ATOM     84  C   UNL A   1      45.211  34.468  31.021  1.00  0.00     0.012 A 
ATOM     85  C   UNL A   1      44.343  35.277  28.897  1.00  0.00     0.148 A 
ATOM     86  C   UNL A   1      45.693  35.742  31.316  1.00  0.00     0.002 A 
ATOM     87  C   UNL A   1      44.868  36.532  29.176  1.00  0.00     0.091 A 
ATOM     88  F   UNL A   1      43.667  35.028  27.765  1.00  0.00    -0.205 F 
ATOM     89  C   UNL A   1      45.533  36.771  30.389  1.00  0.00     0.022 A 
BRANCH  87  90
ATOM     90  S   UNL A   1      44.793  37.889  28.000  1.00  0.00     0.127 S 
ATOM     91  O   UNL A   1      43.351  38.059  27.832  1.00  0.00    -0.237 OA
ATOM     92  O   UNL A   1      45.454  38.971  28.732  1.00  0.00    -0.237 OA
ATOM     93  O   UNL A   1      45.512  37.435  26.817  1.00  0.00    -0.744 OA
ENDBRANCH  87  90
ENDBRANCH  60  83
ENDBRANCH  34  35
ENDBRANCH  26  29
ENDBRANCH  24  25
ENDBRANCH   1  24
TORSDOF 16
ENDMDL
MODEL 3
REMARK VINA RESULT:     -11.6      3.709      8.878
REMARK SMILES Cc1nc(CNC(=O)[C@H]2CCO[C@H]2C)sc1C(=O)NCCCNC(=O)c1ccc(-c2c3nc(c(-c4cccc(S(=O)(=O)[O-])c4F)c4ccc([nH]4)c(-c4cccc(S(=O)(=O)[O-])c4F)c4nc(c(-c5cccc(S(=O)(=O)[O-])c5F)c5ccc2[nH]5)C=C4)C=C3)cc1
REMARK SMILES IDX 21 1 20 2 19 3 17 4 18 5 16 7 1 8 2 9 3 10 4 11 15 12 5 13
REMARK SMILES IDX 6 14 7 15 8 17 9 18 10 19 13 20 11 21 12 22 14 23 22 24
REMARK SMILES IDX 23 25 24 26 25 28 26 29 27 30 88 31 28 32 87 33 29 34 30 35
REMARK SMILES IDX 31 36 81 37 32 38 86 39 80 40 82 41 33 42 85 43 79 44 78 45
REMARK SMILES IDX 34 47 66 48 46 49 65 50 47 51 50 52 64 53 83 54 48 55 49 56
REMARK SMILES IDX 63 58 84 59 51 60 35 61 36 62 44 63 37 64 39 65 45 66 38 67
REMARK SMILES IDX 40 68 41 69 42 70 43 71 67 72 68 73 76 74 69 75 71 76 77 77
REMARK SMILES IDX 70 78 72 79 73 80 74 81 75 82 52 83 53 84 61 85 54 86 56 87
REMARK SMILES IDX 62 88 55 89 57 90 58 91 59 92 60 93
REMARK H PARENT 19 6 6 16 23 27 82 46 50 57
REMARK Flexibility Score: inf
ROOT
ATOM      1  C   UNL A   1      33.074  28.500  25.017  1.00  0.00     0.042 C 
ENDROOT
BRANCH   1   2
ATOM      2  C   UNL A   1      31.724  29.216  25.050  1.00  0.00     0.118 C 
BRANCH   2   3
ATOM      3  N   UNL A   1      31.099  29.194  23.748  1.00  0.00    -0.351 N 
ATOM      4  C   UNL A   1      30.672  28.193  22.916  1.00  0.00     0.263 C 
ATOM      5  O   UNL A   1      30.137  28.625  21.886  1.00  0.00    -0.268 OA
ATOM      6  H   UNL A   1      30.947  30.094  23.378  1.00  0.00     0.163 HD
BRANCH   4   7
ATOM      7  C   UNL A   1      30.768  26.765  23.202  1.00  0.00     0.115 A 
ATOM      8  C   UNL A   1      29.709  26.083  25.513  1.00  0.00     0.068 C 
ATOM      9  C   UNL A   1      30.386  25.880  24.208  1.00  0.00     0.061 A 
ATOM     10  N   UNL A   1      30.751  24.556  23.994  1.00  0.00    -0.244 NA
ATOM     11  C   UNL A   1      31.514  24.434  22.939  1.00  0.00     0.113 A 
ATOM     12  S   UNL A   1      31.685  25.853  22.019  1.00  0.00    -0.111 S 
BRANCH  11  13
ATOM     13  C   UNL A   1      32.202  23.163  22.550  1.00  0.00     0.183 C 
BRANCH  13  14
ATOM     14  N   UNL A   1      33.621  23.426  22.368  1.00  0.00    -0.349 N 
ATOM     15  C   UNL A   1      34.669  23.162  23.195  1.00  0.00     0.226 C 
ATOM     16  H   UNL A   1      33.859  23.861  21.517  1.00  0.00     0.163 HD
ATOM     17  O   UNL A   1      35.795  23.502  22.832  1.00  0.00    -0.275 OA
BRANCH  15  18
ATOM     18  C   UNL A   1      34.432  22.416  24.491  1.00  0.00     0.109 C 
ATOM     19  C   UNL A   1      35.707  21.968  25.181  1.00  0.00     0.044 C 
ATOM     20  C   UNL A   1      33.753  23.212  25.600  1.00  0.00     0.127 C 
ATOM     21  C   UNL A   1      35.217  21.670  26.581  1.00  0.00     0.161 C 
ATOM     22  O   UNL A   1      34.071  22.501  26.819  1.00  0.00    -0.378 OA
ATOM     23  C   UNL A   1      34.233  24.651  25.777  1.00  0.00     0.039 C 
ENDBRANCH  15  18
ENDBRANCH  13  14
ENDBRANCH  11  13
ENDBRANCH   4   7
ENDBRANCH   2   3
ENDBRANCH   1   2
BRANCH   1  24
ATOM     24  C   UNL A   1      33.938  28.758  26.245  1.00  0.00     0.118 C 
BRANCH  24  25
ATOM     25  N   UNL A   1      33.854  30.145  26.679  1.00  0.00    -0.352 N 
ATOM     26  C   UNL A   1      34.618  30.830  27.593  1.00  0.00     0.251 C 
ATOM     27  H   UNL A   1      33.141  30.673  26.252  1.00  0.00     0.163 HD
ATOM     28  O   UNL A   1      34.223  31.921  27.998  1.00  0.00    -0.269 OA
BRANCH  26  29
ATOM     29  C   UNL A   1      35.898  30.274  28.090  1.00  0.00     0.039 A 
ATOM     30  C   UNL A   1      37.043  30.400  27.296  1.00  0.00     0.014 A 
ATOM     31  C   UNL A   1      35.970  29.581  29.301  1.00  0.00     0.014 A 
ATOM     32  C   UNL A   1      38.261  29.875  27.736  1.00  0.00     0.010 A 
ATOM     33  C   UNL A   1      37.199  29.130  29.775  1.00  0.00     0.010 A 
ATOM     34  C   UNL A   1      38.355  29.256  28.992  1.00  0.00    -0.014 A 
BRANCH  34  35
ATOM     35  C   UNL A   1      39.646  28.726  29.504  1.00  0.00     0.031 A 
ATOM     36  C   UNL A   1      40.364  29.435  30.622  1.00  0.00     0.074 A 
ATOM     37  C   UNL A   1      40.217  27.667  28.899  1.00  0.00     0.049 A 
ATOM     38  N   UNL A   1      41.537  29.179  31.143  1.00  0.00    -0.248 NA
ATOM     39  C   UNL A   1      39.690  30.602  31.216  1.00  0.00     0.031 C 
ATOM     40  C   UNL A   1      39.659  26.944  27.754  1.00  0.00     0.029 A 
ATOM     41  N   UNL A   1      41.412  27.034  29.140  1.00  0.00    -0.354 N 
ATOM     42  C   UNL A   1      41.759  30.172  32.089  1.00  0.00     0.074 A 
ATOM     43  C   UNL A   1      40.614  31.054  32.051  1.00  0.00     0.031 C 
ATOM     44  C   UNL A   1      40.509  25.972  27.390  1.00  0.00     0.029 A 
ATOM     45  C   UNL A   1      41.684  26.018  28.254  1.00  0.00     0.049 A 
ATOM     46  H   UNL A   1      42.015  27.284  29.876  1.00  0.00     0.167 HD
ATOM     47  C   UNL A   1      42.806  30.320  32.936  1.00  0.00     0.034 A 
ATOM     48  C   UNL A   1      42.765  25.220  28.141  1.00  0.00     0.034 A 
ATOM     49  C   UNL A   1      43.918  29.411  33.006  1.00  0.00     0.049 A 
ATOM     50  C   UNL A   1      43.891  25.372  29.127  1.00  0.00     0.074 A 
ATOM     51  C   UNL A   1      44.982  29.420  33.889  1.00  0.00     0.029 A 
ATOM     52  N   UNL A   1      44.109  28.330  32.160  1.00  0.00    -0.354 N 
ATOM     53  N   UNL A   1      44.010  26.223  30.119  1.00  0.00    -0.248 NA
ATOM     54  C   UNL A   1      45.014  24.432  29.007  1.00  0.00     0.031 C 
ATOM     55  C   UNL A   1      45.828  28.354  33.566  1.00  0.00     0.029 A 
ATOM     56  C   UNL A   1      45.278  27.667  32.495  1.00  0.00     0.049 A 
ATOM     57  H   UNL A   1      43.504  28.072  31.428  1.00  0.00     0.167 HD
ATOM     58  C   UNL A   1      45.200  25.901  30.758  1.00  0.00     0.074 A 
ATOM     59  C   UNL A   1      45.756  24.762  30.055  1.00  0.00     0.031 C 
ATOM     60  C   UNL A   1      45.789  26.502  31.821  1.00  0.00     0.034 A 
BRANCH  47  61
ATOM     61  C   UNL A   1      42.770  31.478  33.900  1.00  0.00     0.023 A 
ATOM     62  C   UNL A   1      43.320  32.719  33.515  1.00  0.00     0.012 A 
ATOM     63  C   UNL A   1      42.143  31.363  35.156  1.00  0.00     0.148 A 
ATOM     64  C   UNL A   1      43.280  33.814  34.377  1.00  0.00     0.002 A 
ATOM     65  C   UNL A   1      42.068  32.471  35.993  1.00  0.00     0.091 A 
ATOM     66  F   UNL A   1      41.643  30.172  35.515  1.00  0.00    -0.205 F 
ATOM     67  C   UNL A   1      42.646  33.693  35.609  1.00  0.00     0.022 A 
BRANCH  65  68
ATOM     68  S   UNL A   1      41.205  32.442  37.568  1.00  0.00     0.127 S 
ATOM     69  O   UNL A   1      42.061  31.557  38.357  1.00  0.00    -0.237 OA
ATOM     70  O   UNL A   1      41.248  33.848  37.970  1.00  0.00    -0.237 OA
ATOM     71  O   UNL A   1      39.871  31.932  37.284  1.00  0.00    -0.744 OA
ENDBRANCH  65  68
ENDBRANCH  47  61
BRANCH  48  72
ATOM     72  C   UNL A   1      42.800  24.162  27.093  1.00  0.00     0.023 A 
ATOM     73  C   UNL A   1      43.531  24.383  25.911  1.00  0.00     0.012 A 
ATOM     74  C   UNL A   1      42.147  22.927  27.276  1.00  0.00     0.148 A 
ATOM     75  C   UNL A   1      43.590  23.407  24.916  1.00  0.00     0.002 A 
ATOM     76  C   UNL A   1      42.255  21.937  26.306  1.00  0.00     0.091 A 
ATOM     77  F   UNL A   1      41.445  22.741  28.403  1.00  0.00    -0.205 F 
ATOM     78  C   UNL A   1      42.962  22.180  25.119  1.00  0.00     0.022 A 
BRANCH  76  79
ATOM     79  S   UNL A   1      41.593  20.284  26.542  1.00  0.00     0.127 S 
ATOM     80  O   UNL A   1      42.193  19.901  27.817  1.00  0.00    -0.237 OA
ATOM     81  O   UNL A   1      40.153  20.539  26.589  1.00  0.00    -0.237 OA
ATOM     82  O   UNL A   1      42.028  19.520  25.380  1.00  0.00    -0.744 OA
ENDBRANCH  76  79
ENDBRANCH  48  72
BRANCH  60  83
ATOM     83  C   UNL A   1      47.088  25.925  32.320  1.00  0.00     0.023 A 
ATOM     84  C   UNL A   1      47.089  25.067  33.437  1.00  0.00     0.012 A 
ATOM     85  C   UNL A   1      48.293  26.171  31.634  1.00  0.00     0.148 A 
ATOM     86  C   UNL A   1      48.275  24.482  33.879  1.00  0.00     0.002 A 
ATOM     87  C   UNL A   1      49.462  25.547  32.050  1.00  0.00     0.091 A 
ATOM     88  F   UNL A   1      48.273  27.007  30.585  1.00  0.00    -0.205 F 
ATOM     89  C   UNL A   1      49.458  24.712  33.179  1.00  0.00     0.022 A 
BRANCH  87  90
ATOM     90  S   UNL A   1      51.011  25.709  31.154  1.00  0.00     0.127 S 
ATOM     91  O   UNL A   1      50.642  25.213  29.830  1.00  0.00    -0.237 OA
ATOM     92  O   UNL A   1      51.258  27.150  31.220  1.00  0.00    -0.237 OA
ATOM     93  O   UNL A   1      51.979  24.897  31.879  1.00  0.00    -0.744 OA
ENDBRANCH  87  90
ENDBRANCH  60  83
ENDBRANCH  34  35
ENDBRANCH  26  29
ENDBRANCH  24  25
ENDBRANCH   1  24
TORSDOF 16
ENDMDL
