MODEL 1
REMARK VINA RESULT:     -13.0      0.000      0.000
REMARK SMILES CC(C)CCc1cc2c(cc1Cl)C=C(C(=O)NCCCNC(=O)c1ccc(-c3c4nc(c(-c5cccc(S(=O)(=O)[O-])c5F)c5ccc([nH]5)c(-c5cccc(S(=O)(=O)[O-])c5F)c5nc(c(-c6cccc(S(=O)(=O)[O-])c6F)c6ccc3[nH]6)C=C5)C=C4)cc1)[C@H](C(F)(F)F)O2
REMARK SMILES IDX 19 1 18 2 17 3 15 4 16 5 14 7 6 8 7 9 11 10 8 11 10 12 12 13
REMARK SMILES IDX 9 14 92 15 13 16 87 17 5 18 4 19 2 20 1 21 3 22 88 23 89 24
REMARK SMILES IDX 90 25 91 26 20 27 21 28 22 29 23 31 24 32 25 33 86 34 26 35
REMARK SMILES IDX 85 36 27 37 28 38 29 39 79 40 30 41 84 42 78 43 80 44 31 45
REMARK SMILES IDX 83 46 77 47 76 48 32 50 64 51 44 52 63 53 45 54 48 55 62 56
REMARK SMILES IDX 81 57 46 58 47 59 61 61 82 62 49 63 33 64 34 65 42 66 35 67
REMARK SMILES IDX 37 68 43 69 36 70 38 71 39 72 40 73 41 74 65 75 66 76 74 77
REMARK SMILES IDX 67 78 69 79 75 80 68 81 70 82 71 83 72 84 73 85 50 86 51 87
REMARK SMILES IDX 59 88 52 89 54 90 60 91 53 92 55 93 56 94 57 95 58 96
REMARK H PARENT 17 6 21 30 80 49 48 60
REMARK Flexibility Score: inf
ROOT
ATOM      1  C   UNL A   1      32.760  29.760  25.332  1.00  0.00     0.042 C 
ENDROOT
BRANCH   1   2
ATOM      2  C   UNL A   1      32.498  28.277  25.120  1.00  0.00     0.118 C 
BRANCH   2   3
ATOM      3  N   UNL A   1      31.812  28.032  23.866  1.00  0.00    -0.352 N 
ATOM      4  C   UNL A   1      31.430  26.958  23.143  1.00  0.00     0.251 C 
ATOM      5  O   UNL A   1      30.818  27.224  22.103  1.00  0.00    -0.270 OA
ATOM      6  H   UNL A   1      31.556  28.874  23.425  1.00  0.00     0.163 HD
BRANCH   4   7
ATOM      7  C   UNL A   1      31.692  25.538  23.503  1.00  0.00     0.067 C 
ATOM      8  C   UNL A   1      33.973  21.121  24.321  1.00  0.00    -0.026 A 
ATOM      9  C   UNL A   1      32.627  21.523  24.229  1.00  0.00     0.052 A 
ATOM     10  C   UNL A   1      34.965  22.101  24.137  1.00  0.00     0.045 A 
ATOM     11  C   UNL A   1      32.305  22.846  23.938  1.00  0.00     0.128 A 
ATOM     12  C   UNL A   1      34.632  23.390  23.713  1.00  0.00     0.032 A 
ATOM     13  Cl  UNL A   1      36.630  21.850  24.520  1.00  0.00    -0.084 Cl
ATOM     14  C   UNL A   1      33.298  23.762  23.609  1.00  0.00     0.019 A 
ATOM     15  O   UNL A   1      30.987  23.206  23.993  1.00  0.00    -0.475 OA
ATOM     16  C   UNL A   1      32.924  25.100  23.189  1.00  0.00     0.025 C 
ATOM     17  C   UNL A   1      30.763  24.626  24.261  1.00  0.00     0.314 C 
BRANCH   8  18
ATOM     18  C   UNL A   1      34.260  19.667  24.632  1.00  0.00     0.037 C 
BRANCH  18  19
ATOM     19  C   UNL A   1      33.007  18.775  24.751  1.00  0.00     0.008 C 
BRANCH  19  20
ATOM     20  C   UNL A   1      32.896  17.630  23.724  1.00  0.00    -0.017 C 
ATOM     21  C   UNL A   1      32.343  18.107  22.378  1.00  0.00     0.007 C 
ATOM     22  C   UNL A   1      34.251  16.958  23.494  1.00  0.00     0.007 C 
ENDBRANCH  19  20
ENDBRANCH  18  19
ENDBRANCH   8  18
BRANCH  17  23
ATOM     23  C   UNL A   1      30.731  24.922  25.775  1.00  0.00     0.429 C 
ATOM     24  F   UNL A   1      31.943  25.289  26.255  1.00  0.00    -0.167 F 
ATOM     25  F   UNL A   1      29.882  25.950  26.034  1.00  0.00    -0.167 F 
ATOM     26  F   UNL A   1      30.320  23.867  26.512  1.00  0.00    -0.167 F 
ENDBRANCH  17  23
ENDBRANCH   4   7
ENDBRANCH   2   3
ENDBRANCH   1   2
BRANCH   1  27
ATOM     27  C   UNL A   1      32.161  30.267  26.637  1.00  0.00     0.118 C 
BRANCH  27  28
ATOM     28  N   UNL A   1      32.179  31.723  26.709  1.00  0.00    -0.352 N 
ATOM     29  C   UNL A   1      33.009  32.567  27.409  1.00  0.00     0.251 C 
ATOM     30  H   UNL A   1      31.488  32.174  26.170  1.00  0.00     0.163 HD
ATOM     31  O   UNL A   1      32.680  33.737  27.569  1.00  0.00    -0.269 OA
BRANCH  29  32
ATOM     32  C   UNL A   1      34.277  32.055  27.972  1.00  0.00     0.039 A 
ATOM     33  C   UNL A   1      34.380  30.724  28.375  1.00  0.00     0.014 A 
ATOM     34  C   UNL A   1      35.378  32.907  28.092  1.00  0.00     0.014 A 
ATOM     35  C   UNL A   1      35.495  30.303  29.082  1.00  0.00     0.010 A 
ATOM     36  C   UNL A   1      36.553  32.440  28.689  1.00  0.00     0.010 A 
ATOM     37  C   UNL A   1      36.604  31.148  29.234  1.00  0.00    -0.014 A 
BRANCH  37  38
ATOM     38  C   UNL A   1      37.805  30.636  29.942  1.00  0.00     0.031 A 
ATOM     39  C   UNL A   1      38.072  30.992  31.380  1.00  0.00     0.074 A 
ATOM     40  C   UNL A   1      38.635  29.798  29.288  1.00  0.00     0.049 A 
ATOM     41  N   UNL A   1      39.058  30.605  32.147  1.00  0.00    -0.248 NA
ATOM     42  C   UNL A   1      37.120  31.899  32.046  1.00  0.00     0.031 C 
ATOM     43  C   UNL A   1      38.493  29.394  27.885  1.00  0.00     0.029 A 
ATOM     44  N   UNL A   1      39.749  29.120  29.712  1.00  0.00    -0.354 N 
ATOM     45  C   UNL A   1      38.875  31.253  33.362  1.00  0.00     0.074 A 
ATOM     46  C   UNL A   1      37.684  32.062  33.236  1.00  0.00     0.031 C 
ATOM     47  C   UNL A   1      39.444  28.501  27.583  1.00  0.00     0.029 A 
ATOM     48  C   UNL A   1      40.308  28.321  28.743  1.00  0.00     0.049 A 
ATOM     49  H   UNL A   1      40.114  29.198  30.624  1.00  0.00     0.167 HD
ATOM     50  C   UNL A   1      39.621  31.165  34.486  1.00  0.00     0.034 A 
ATOM     51  C   UNL A   1      41.405  27.540  28.769  1.00  0.00     0.034 A 
ATOM     52  C   UNL A   1      40.771  30.314  34.627  1.00  0.00     0.049 A 
ATOM     53  C   UNL A   1      42.210  27.457  30.031  1.00  0.00     0.074 A 
ATOM     54  C   UNL A   1      41.555  30.116  35.750  1.00  0.00     0.029 A 
ATOM     55  N   UNL A   1      41.301  29.522  33.622  1.00  0.00    -0.354 N 
ATOM     56  N   UNL A   1      41.973  28.020  31.190  1.00  0.00    -0.248 NA
ATOM     57  C   UNL A   1      43.422  26.628  29.996  1.00  0.00     0.031 C 
ATOM     58  C   UNL A   1      42.572  29.218  35.419  1.00  0.00     0.029 A 
ATOM     59  C   UNL A   1      42.408  28.841  34.095  1.00  0.00     0.049 A 
ATOM     60  H   UNL A   1      40.943  29.453  32.707  1.00  0.00     0.167 HD
ATOM     61  C   UNL A   1      42.998  27.606  32.028  1.00  0.00     0.074 A 
ATOM     62  C   UNL A   1      43.850  26.729  31.250  1.00  0.00     0.031 C 
ATOM     63  C   UNL A   1      43.218  27.938  33.322  1.00  0.00     0.034 A 
BRANCH  50  64
ATOM     64  C   UNL A   1      39.207  31.972  35.685  1.00  0.00     0.023 A 
ATOM     65  C   UNL A   1      39.507  33.346  35.732  1.00  0.00     0.012 A 
ATOM     66  C   UNL A   1      38.417  31.397  36.700  1.00  0.00     0.148 A 
ATOM     67  C   UNL A   1      39.033  34.139  36.777  1.00  0.00     0.002 A 
ATOM     68  C   UNL A   1      37.922  32.198  37.722  1.00  0.00     0.091 A 
ATOM     69  F   UNL A   1      38.152  30.083  36.636  1.00  0.00    -0.205 F 
ATOM     70  C   UNL A   1      38.232  33.568  37.762  1.00  0.00     0.022 A 
BRANCH  68  71
ATOM     71  S   UNL A   1      36.838  31.576  39.012  1.00  0.00     0.127 S 
ATOM     72  O   UNL A   1      37.686  31.708  40.197  1.00  0.00    -0.237 OA
ATOM     73  O   UNL A   1      35.721  32.518  38.953  1.00  0.00    -0.237 OA
ATOM     74  O   UNL A   1      36.508  30.207  38.639  1.00  0.00    -0.744 OA
ENDBRANCH  68  71
ENDBRANCH  50  64
BRANCH  51  75
ATOM     75  C   UNL A   1      41.769  26.762  27.556  1.00  0.00     0.023 A 
ATOM     76  C   UNL A   1      42.404  27.412  26.483  1.00  0.00     0.012 A 
ATOM     77  C   UNL A   1      41.575  25.366  27.505  1.00  0.00     0.148 A 
ATOM     78  C   UNL A   1      42.838  26.685  25.373  1.00  0.00     0.002 A 
ATOM     79  C   UNL A   1      42.048  24.644  26.418  1.00  0.00     0.091 A 
ATOM     80  F   UNL A   1      40.971  24.775  28.544  1.00  0.00    -0.205 F 
ATOM     81  C   UNL A   1      42.671  25.301  25.347  1.00  0.00     0.022 A 
BRANCH  79  82
ATOM     82  S   UNL A   1      41.977  22.850  26.342  1.00  0.00     0.127 S 
ATOM     83  O   UNL A   1      42.653  22.579  25.075  1.00  0.00    -0.237 OA
ATOM     84  O   UNL A   1      42.731  22.473  27.538  1.00  0.00    -0.237 OA
ATOM     85  O   UNL A   1      40.563  22.507  26.382  1.00  0.00    -0.744 OA
ENDBRANCH  79  82
ENDBRANCH  51  75
BRANCH  63  86
ATOM     86  C   UNL A   1      44.419  27.352  34.009  1.00  0.00     0.023 A 
ATOM     87  C   UNL A   1      45.628  28.071  34.019  1.00  0.00     0.012 A 
ATOM     88  C   UNL A   1      44.301  26.170  34.766  1.00  0.00     0.148 A 
ATOM     89  C   UNL A   1      46.707  27.623  34.777  1.00  0.00     0.002 A 
ATOM     90  C   UNL A   1      45.369  25.747  35.546  1.00  0.00     0.091 A 
ATOM     91  F   UNL A   1      43.136  25.505  34.733  1.00  0.00    -0.205 F 
ATOM     92  C   UNL A   1      46.574  26.470  35.551  1.00  0.00     0.022 A 
BRANCH  90  93
ATOM     93  S   UNL A   1      45.271  24.321  36.632  1.00  0.00     0.127 S 
ATOM     94  O   UNL A   1      46.684  24.061  36.910  1.00  0.00    -0.237 OA
ATOM     95  O   UNL A   1      44.514  24.850  37.766  1.00  0.00    -0.237 OA
ATOM     96  O   UNL A   1      44.590  23.279  35.875  1.00  0.00    -0.744 OA
ENDBRANCH  90  93
ENDBRANCH  63  86
ENDBRANCH  37  38
ENDBRANCH  29  32
ENDBRANCH  27  28
ENDBRANCH   1  27
TORSDOF 17
ENDMDL
MODEL 2
REMARK VINA RESULT:     -12.7      1.982      2.313
REMARK SMILES CC(C)CCc1cc2c(cc1Cl)C=C(C(=O)NCCCNC(=O)c1ccc(-c3c4nc(c(-c5cccc(S(=O)(=O)[O-])c5F)c5ccc([nH]5)c(-c5cccc(S(=O)(=O)[O-])c5F)c5nc(c(-c6cccc(S(=O)(=O)[O-])c6F)c6ccc3[nH]6)C=C5)C=C4)cc1)[C@H](C(F)(F)F)O2
REMARK SMILES IDX 19 1 18 2 17 3 15 4 16 5 14 7 6 8 7 9 11 10 8 11 10 12 12 13
REMARK SMILES IDX 9 14 92 15 13 16 87 17 5 18 4 19 2 20 1 21 3 22 88 23 89 24
REMARK SMILES IDX 90 25 91 26 20 27 21 28 22 29 23 31 24 32 25 33 86 34 26 35
REMARK SMILES IDX 85 36 27 37 28 38 29 39 79 40 30 41 84 42 78 43 80 44 31 45
REMARK SMILES IDX 83 46 77 47 76 48 32 50 64 51 44 52 63 53 45 54 48 55 62 56
REMARK SMILES IDX 81 57 46 58 47 59 61 61 82 62 49 63 33 64 34 65 42 66 35 67
REMARK SMILES IDX 37 68 43 69 36 70 38 71 39 72 40 73 41 74 65 75 66 76 74 77
REMARK SMILES IDX 67 78 69 79 75 80 68 81 70 82 71 83 72 84 73 85 50 86 51 87
REMARK SMILES IDX 59 88 52 89 54 90 60 91 53 92 55 93 56 94 57 95 58 96
REMARK H PARENT 17 6 21 30 80 49 48 60
REMARK Flexibility Score: inf
ROOT
ATOM      1  C   UNL A   1      31.325  30.346  25.553  1.00  0.00     0.042 C 
ENDROOT
BRANCH   1   2
ATOM      2  C   UNL A   1      31.784  29.020  24.967  1.00  0.00     0.118 C 
BRANCH   2   3
ATOM      3  N   UNL A   1      32.877  29.203  24.030  1.00  0.00    -0.352 N 
ATOM      4  C   UNL A   1      33.708  28.414  23.318  1.00  0.00     0.251 C 
ATOM      5  O   UNL A   1      34.505  29.021  22.593  1.00  0.00    -0.270 OA
ATOM      6  H   UNL A   1      33.061  30.157  23.872  1.00  0.00     0.163 HD
BRANCH   4   7
ATOM      7  C   UNL A   1      33.726  26.927  23.351  1.00  0.00     0.067 C 
ATOM      8  C   UNL A   1      33.859  22.148  24.943  1.00  0.00    -0.026 A 
ATOM      9  C   UNL A   1      34.027  22.765  23.688  1.00  0.00     0.052 A 
ATOM     10  C   UNL A   1      33.618  22.976  26.054  1.00  0.00     0.045 A 
ATOM     11  C   UNL A   1      33.979  24.152  23.572  1.00  0.00     0.128 A 
ATOM     12  C   UNL A   1      33.708  24.366  25.948  1.00  0.00     0.032 A 
ATOM     13  Cl  UNL A   1      33.088  22.378  27.585  1.00  0.00    -0.084 Cl
ATOM     14  C   UNL A   1      33.894  24.955  24.705  1.00  0.00     0.019 A 
ATOM     15  O   UNL A   1      34.014  24.686  22.315  1.00  0.00    -0.475 OA
ATOM     16  C   UNL A   1      33.972  26.398  24.563  1.00  0.00     0.025 C 
ATOM     17  C   UNL A   1      33.395  26.006  22.205  1.00  0.00     0.314 C 
BRANCH   8  18
ATOM     18  C   UNL A   1      33.930  20.637  25.006  1.00  0.00     0.037 C 
BRANCH  18  19
ATOM     19  C   UNL A   1      32.725  19.910  24.373  1.00  0.00     0.008 C 
BRANCH  19  20
ATOM     20  C   UNL A   1      32.968  18.448  23.947  1.00  0.00    -0.017 C 
ATOM     21  C   UNL A   1      32.390  17.445  24.949  1.00  0.00     0.007 C 
ATOM     22  C   UNL A   1      32.374  18.167  22.565  1.00  0.00     0.007 C 
ENDBRANCH  19  20
ENDBRANCH  18  19
ENDBRANCH   8  18
BRANCH  17  23
ATOM     23  C   UNL A   1      31.879  25.904  21.935  1.00  0.00     0.429 C 
ATOM     24  F   UNL A   1      31.585  25.961  20.613  1.00  0.00    -0.167 F 
ATOM     25  F   UNL A   1      31.401  24.719  22.390  1.00  0.00    -0.167 F 
ATOM     26  F   UNL A   1      31.167  26.882  22.537  1.00  0.00    -0.167 F 
ENDBRANCH  17  23
ENDBRANCH   4   7
ENDBRANCH   2   3
ENDBRANCH   1   2
BRANCH   1  27
ATOM     27  C   UNL A   1      32.190  30.783  26.728  1.00  0.00     0.118 C 
BRANCH  27  28
ATOM     28  N   UNL A   1      32.237  32.235  26.852  1.00  0.00    -0.352 N 
ATOM     29  C   UNL A   1      33.089  33.037  27.574  1.00  0.00     0.251 C 
ATOM     30  H   UNL A   1      31.551  32.719  26.335  1.00  0.00     0.163 HD
ATOM     31  O   UNL A   1      32.783  34.207  27.779  1.00  0.00    -0.269 OA
BRANCH  29  32
ATOM     32  C   UNL A   1      34.350  32.482  28.108  1.00  0.00     0.039 A 
ATOM     33  C   UNL A   1      34.371  31.212  28.684  1.00  0.00     0.014 A 
ATOM     34  C   UNL A   1      35.529  33.229  28.025  1.00  0.00     0.014 A 
ATOM     35  C   UNL A   1      35.502  30.779  29.358  1.00  0.00     0.010 A 
ATOM     36  C   UNL A   1      36.706  32.731  28.592  1.00  0.00     0.010 A 
ATOM     37  C   UNL A   1      36.691  31.523  29.307  1.00  0.00    -0.014 A 
BRANCH  37  38
ATOM     38  C   UNL A   1      37.899  30.993  29.988  1.00  0.00     0.031 A 
ATOM     39  C   UNL A   1      38.228  31.383  31.404  1.00  0.00     0.074 A 
ATOM     40  C   UNL A   1      38.677  30.108  29.332  1.00  0.00     0.049 A 
ATOM     41  N   UNL A   1      39.228  30.987  32.148  1.00  0.00    -0.248 NA
ATOM     42  C   UNL A   1      37.330  32.340  32.075  1.00  0.00     0.031 C 
ATOM     43  C   UNL A   1      38.472  29.667  27.949  1.00  0.00     0.029 A 
ATOM     44  N   UNL A   1      39.783  29.407  29.739  1.00  0.00    -0.354 N 
ATOM     45  C   UNL A   1      39.110  31.676  33.348  1.00  0.00     0.074 A 
ATOM     46  C   UNL A   1      37.942  32.521  33.239  1.00  0.00     0.031 C 
ATOM     47  C   UNL A   1      39.382  28.734  27.642  1.00  0.00     0.029 A 
ATOM     48  C   UNL A   1      40.281  28.560  28.776  1.00  0.00     0.049 A 
ATOM     49  H   UNL A   1      40.183  29.500  30.634  1.00  0.00     0.167 HD
ATOM     50  C   UNL A   1      39.893  31.597  34.448  1.00  0.00     0.034 A 
ATOM     51  C   UNL A   1      41.352  27.744  28.788  1.00  0.00     0.034 A 
ATOM     52  C   UNL A   1      41.019  30.712  34.575  1.00  0.00     0.049 A 
ATOM     53  C   UNL A   1      42.198  27.673  30.023  1.00  0.00     0.074 A 
ATOM     54  C   UNL A   1      41.836  30.523  35.676  1.00  0.00     0.029 A 
ATOM     55  N   UNL A   1      41.486  29.874  33.577  1.00  0.00    -0.354 N 
ATOM     56  N   UNL A   1      42.022  28.278  31.171  1.00  0.00    -0.248 NA
ATOM     57  C   UNL A   1      43.381  26.803  29.972  1.00  0.00     0.031 C 
ATOM     58  C   UNL A   1      42.810  29.581  35.337  1.00  0.00     0.029 A 
ATOM     59  C   UNL A   1      42.587  29.171  34.032  1.00  0.00     0.049 A 
ATOM     60  H   UNL A   1      41.093  29.790  32.678  1.00  0.00     0.167 HD
ATOM     61  C   UNL A   1      43.063  27.855  31.986  1.00  0.00     0.074 A 
ATOM     62  C   UNL A   1      43.857  26.928  31.206  1.00  0.00     0.031 C 
ATOM     63  C   UNL A   1      43.340  28.218  33.260  1.00  0.00     0.034 A 
BRANCH  50  64
ATOM     64  C   UNL A   1      39.548  32.453  35.635  1.00  0.00     0.023 A 
ATOM     65  C   UNL A   1      38.849  31.886  36.717  1.00  0.00     0.012 A 
ATOM     66  C   UNL A   1      40.021  33.777  35.728  1.00  0.00     0.148 A 
ATOM     67  C   UNL A   1      38.620  32.626  37.877  1.00  0.00     0.002 A 
ATOM     68  C   UNL A   1      39.816  34.498  36.898  1.00  0.00     0.091 A 
ATOM     69  F   UNL A   1      40.676  34.295  34.679  1.00  0.00    -0.205 F 
ATOM     70  C   UNL A   1      39.113  33.925  37.971  1.00  0.00     0.022 A 
BRANCH  68  71
ATOM     71  S   UNL A   1      40.453  36.159  37.144  1.00  0.00     0.127 S 
ATOM     72  O   UNL A   1      39.901  36.861  35.985  1.00  0.00    -0.237 OA
ATOM     73  O   UNL A   1      39.853  36.530  38.424  1.00  0.00    -0.237 OA
ATOM     74  O   UNL A   1      41.905  36.038  37.158  1.00  0.00    -0.744 OA
ENDBRANCH  68  71
ENDBRANCH  50  64
BRANCH  51  75
ATOM     75  C   UNL A   1      41.647  26.918  27.588  1.00  0.00     0.023 A 
ATOM     76  C   UNL A   1      42.265  27.514  26.474  1.00  0.00     0.012 A 
ATOM     77  C   UNL A   1      41.405  25.530  27.587  1.00  0.00     0.148 A 
ATOM     78  C   UNL A   1      42.635  26.740  25.373  1.00  0.00     0.002 A 
ATOM     79  C   UNL A   1      41.815  24.759  26.507  1.00  0.00     0.091 A 
ATOM     80  F   UNL A   1      40.818  24.990  28.664  1.00  0.00    -0.205 F 
ATOM     81  C   UNL A   1      42.422  25.363  25.395  1.00  0.00     0.022 A 
BRANCH  79  82
ATOM     82  S   UNL A   1      41.681  22.968  26.489  1.00  0.00     0.127 S 
ATOM     83  O   UNL A   1      42.356  22.607  27.734  1.00  0.00    -0.237 OA
ATOM     84  O   UNL A   1      40.230  22.779  26.497  1.00  0.00    -0.237 OA
ATOM     85  O   UNL A   1      42.344  22.532  25.269  1.00  0.00    -0.744 OA
ENDBRANCH  79  82
ENDBRANCH  51  75
BRANCH  63  86
ATOM     86  C   UNL A   1      44.544  27.613  33.923  1.00  0.00     0.023 A 
ATOM     87  C   UNL A   1      45.763  28.316  33.912  1.00  0.00     0.012 A 
ATOM     88  C   UNL A   1      44.424  26.430  34.679  1.00  0.00     0.148 A 
ATOM     89  C   UNL A   1      46.850  27.850  34.649  1.00  0.00     0.002 A 
ATOM     90  C   UNL A   1      45.501  25.991  35.437  1.00  0.00     0.091 A 
ATOM     91  F   UNL A   1      43.250  25.782  34.666  1.00  0.00    -0.205 F 
ATOM     92  C   UNL A   1      46.715  26.697  35.421  1.00  0.00     0.022 A 
BRANCH  90  93
ATOM     93  S   UNL A   1      45.403  24.562  36.521  1.00  0.00     0.127 S 
ATOM     94  O   UNL A   1      46.755  24.519  37.077  1.00  0.00    -0.237 OA
ATOM     95  O   UNL A   1      44.365  24.967  37.469  1.00  0.00    -0.237 OA
ATOM     96  O   UNL A   1      45.049  23.432  35.673  1.00  0.00    -0.744 OA
ENDBRANCH  90  93
ENDBRANCH  63  86
ENDBRANCH  37  38
ENDBRANCH  29  32
ENDBRANCH  27  28
ENDBRANCH   1  27
TORSDOF 17
ENDMDL
MODEL 3
REMARK VINA RESULT:     -12.7      2.279      3.117
REMARK SMILES CC(C)CCc1cc2c(cc1Cl)C=C(C(=O)NCCCNC(=O)c1ccc(-c3c4nc(c(-c5cccc(S(=O)(=O)[O-])c5F)c5ccc([nH]5)c(-c5cccc(S(=O)(=O)[O-])c5F)c5nc(c(-c6cccc(S(=O)(=O)[O-])c6F)c6ccc3[nH]6)C=C5)C=C4)cc1)[C@H](C(F)(F)F)O2
REMARK SMILES IDX 19 1 18 2 17 3 15 4 16 5 14 7 6 8 7 9 11 10 8 11 10 12 12 13
REMARK SMILES IDX 9 14 92 15 13 16 87 17 5 18 4 19 2 20 1 21 3 22 88 23 89 24
REMARK SMILES IDX 90 25 91 26 20 27 21 28 22 29 23 31 24 32 25 33 86 34 26 35
REMARK SMILES IDX 85 36 27 37 28 38 29 39 79 40 30 41 84 42 78 43 80 44 31 45
REMARK SMILES IDX 83 46 77 47 76 48 32 50 64 51 44 52 63 53 45 54 48 55 62 56
REMARK SMILES IDX 81 57 46 58 47 59 61 61 82 62 49 63 33 64 34 65 42 66 35 67
REMARK SMILES IDX 37 68 43 69 36 70 38 71 39 72 40 73 41 74 65 75 66 76 74 77
REMARK SMILES IDX 67 78 69 79 75 80 68 81 70 82 71 83 72 84 73 85 50 86 51 87
REMARK SMILES IDX 59 88 52 89 54 90 60 91 53 92 55 93 56 94 57 95 58 96
REMARK H PARENT 17 6 21 30 80 49 48 60
REMARK Flexibility Score: inf
ROOT
ATOM      1  C   UNL A   1      31.574  32.265  26.617  1.00  0.00     0.042 C 
ENDROOT
BRANCH   1   2
ATOM      2  C   UNL A   1      31.687  30.767  26.376  1.00  0.00     0.118 C 
BRANCH   2   3
ATOM      3  N   UNL A   1      31.241  30.408  25.043  1.00  0.00    -0.352 N 
ATOM      4  C   UNL A   1      31.016  29.272  24.351  1.00  0.00     0.251 C 
ATOM      5  O   UNL A   1      30.595  29.441  23.202  1.00  0.00    -0.270 OA
ATOM      6  H   UNL A   1      31.052  31.206  24.499  1.00  0.00     0.163 HD
BRANCH   4   7
ATOM      7  C   UNL A   1      31.235  27.892  24.862  1.00  0.00     0.067 C 
ATOM      8  C   UNL A   1      31.626  22.878  25.172  1.00  0.00    -0.026 A 
ATOM      9  C   UNL A   1      31.565  23.914  26.124  1.00  0.00     0.052 A 
ATOM     10  C   UNL A   1      31.547  23.231  23.813  1.00  0.00     0.045 A 
ATOM     11  C   UNL A   1      31.405  25.236  25.718  1.00  0.00     0.128 A 
ATOM     12  C   UNL A   1      31.251  24.540  23.425  1.00  0.00     0.032 A 
ATOM     13  Cl  UNL A   1      31.914  22.139  22.526  1.00  0.00    -0.084 Cl
ATOM     14  C   UNL A   1      31.174  25.544  24.381  1.00  0.00     0.019 A 
ATOM     15  O   UNL A   1      31.486  26.209  26.674  1.00  0.00    -0.475 OA
ATOM     16  C   UNL A   1      30.887  26.917  24.004  1.00  0.00     0.025 C 
ATOM     17  C   UNL A   1      31.892  27.520  26.166  1.00  0.00     0.314 C 
BRANCH   8  18
ATOM     18  C   UNL A   1      31.793  21.460  25.676  1.00  0.00     0.037 C 
BRANCH  18  19
ATOM     19  C   UNL A   1      33.250  21.055  25.984  1.00  0.00     0.008 C 
BRANCH  19  20
ATOM     20  C   UNL A   1      34.079  20.558  24.784  1.00  0.00    -0.017 C 
ATOM     21  C   UNL A   1      35.553  20.958  24.888  1.00  0.00     0.007 C 
ATOM     22  C   UNL A   1      33.987  19.037  24.638  1.00  0.00     0.007 C 
ENDBRANCH  19  20
ENDBRANCH  18  19
ENDBRANCH   8  18
BRANCH  17  23
ATOM     23  C   UNL A   1      33.428  27.666  26.129  1.00  0.00     0.429 C 
ATOM     24  F   UNL A   1      33.854  28.369  25.052  1.00  0.00    -0.167 F 
ATOM     25  F   UNL A   1      33.862  28.334  27.227  1.00  0.00    -0.167 F 
ATOM     26  F   UNL A   1      34.071  26.478  26.101  1.00  0.00    -0.167 F 
ENDBRANCH  17  23
ENDBRANCH   4   7
ENDBRANCH   2   3
ENDBRANCH   1   2
BRANCH   1  27
ATOM     27  C   UNL A   1      32.757  32.808  27.408  1.00  0.00     0.118 C 
BRANCH  27  28
ATOM     28  N   UNL A   1      32.560  34.205  27.780  1.00  0.00    -0.352 N 
ATOM     29  C   UNL A   1      33.079  34.925  28.830  1.00  0.00     0.251 C 
ATOM     30  H   UNL A   1      31.961  34.713  27.185  1.00  0.00     0.163 HD
ATOM     31  O   UNL A   1      32.566  35.995  29.136  1.00  0.00    -0.269 OA
BRANCH  29  32
ATOM     32  C   UNL A   1      34.235  34.398  29.586  1.00  0.00     0.039 A 
ATOM     33  C   UNL A   1      35.535  34.667  29.159  1.00  0.00     0.014 A 
ATOM     34  C   UNL A   1      34.023  33.637  30.739  1.00  0.00     0.014 A 
ATOM     35  C   UNL A   1      36.604  34.010  29.750  1.00  0.00     0.010 A 
ATOM     36  C   UNL A   1      35.116  33.082  31.413  1.00  0.00     0.010 A 
ATOM     37  C   UNL A   1      36.413  33.223  30.895  1.00  0.00    -0.014 A 
BRANCH  37  38
ATOM     38  C   UNL A   1      37.593  32.589  31.536  1.00  0.00     0.031 A 
ATOM     39  C   UNL A   1      38.067  33.025  32.896  1.00  0.00     0.074 A 
ATOM     40  C   UNL A   1      38.209  31.573  30.898  1.00  0.00     0.049 A 
ATOM     41  N   UNL A   1      39.062  32.555  33.602  1.00  0.00    -0.248 NA
ATOM     42  C   UNL A   1      37.343  34.130  33.549  1.00  0.00     0.031 C 
ATOM     43  C   UNL A   1      37.853  31.073  29.567  1.00  0.00     0.029 A 
ATOM     44  N   UNL A   1      39.248  30.765  31.285  1.00  0.00    -0.354 N 
ATOM     45  C   UNL A   1      39.114  33.330  34.754  1.00  0.00     0.074 A 
ATOM     46  C   UNL A   1      38.053  34.307  34.657  1.00  0.00     0.031 C 
ATOM     47  C   UNL A   1      38.620  30.015  29.272  1.00  0.00     0.029 A 
ATOM     48  C   UNL A   1      39.569  29.803  30.357  1.00  0.00     0.049 A 
ATOM     49  H   UNL A   1      39.719  30.865  32.144  1.00  0.00     0.167 HD
ATOM     50  C   UNL A   1      39.958  33.224  35.805  1.00  0.00     0.034 A 
ATOM     51  C   UNL A   1      40.532  28.861  30.362  1.00  0.00     0.034 A 
ATOM     52  C   UNL A   1      40.975  32.215  35.926  1.00  0.00     0.049 A 
ATOM     53  C   UNL A   1      41.449  28.763  31.542  1.00  0.00     0.074 A 
ATOM     54  C   UNL A   1      41.839  31.996  36.984  1.00  0.00     0.029 A 
ATOM     55  N   UNL A   1      41.264  31.262  34.964  1.00  0.00    -0.354 N 
ATOM     56  N   UNL A   1      41.430  29.458  32.653  1.00  0.00    -0.248 NA
ATOM     57  C   UNL A   1      42.510  27.749  31.481  1.00  0.00     0.031 C 
ATOM     58  C   UNL A   1      42.665  30.919  36.655  1.00  0.00     0.029 A 
ATOM     59  C   UNL A   1      42.301  30.456  35.400  1.00  0.00     0.049 A 
ATOM     60  H   UNL A   1      40.801  31.169  34.101  1.00  0.00     0.167 HD
ATOM     61  C   UNL A   1      42.467  28.962  33.429  1.00  0.00     0.074 A 
ATOM     62  C   UNL A   1      43.085  27.892  32.671  1.00  0.00     0.031 C 
ATOM     63  C   UNL A   1      42.875  29.368  34.654  1.00  0.00     0.034 A 
BRANCH  50  64
ATOM     64  C   UNL A   1      39.805  34.192  36.946  1.00  0.00     0.023 A 
ATOM     65  C   UNL A   1      40.107  35.552  36.745  1.00  0.00     0.012 A 
ATOM     66  C   UNL A   1      39.249  33.776  38.171  1.00  0.00     0.148 A 
ATOM     67  C   UNL A   1      39.863  36.487  37.750  1.00  0.00     0.002 A 
ATOM     68  C   UNL A   1      38.980  34.717  39.158  1.00  0.00     0.091 A 
ATOM     69  F   UNL A   1      38.979  32.473  38.340  1.00  0.00    -0.205 F 
ATOM     70  C   UNL A   1      39.289  36.071  38.949  1.00  0.00     0.022 A 
BRANCH  68  71
ATOM     71  S   UNL A   1      38.195  34.298  40.718  1.00  0.00     0.127 S 
ATOM     72  O   UNL A   1      39.264  33.566  41.398  1.00  0.00    -0.237 OA
ATOM     73  O   UNL A   1      37.906  35.617  41.279  1.00  0.00    -0.237 OA
ATOM     74  O   UNL A   1      37.021  33.504  40.381  1.00  0.00    -0.744 OA
ENDBRANCH  68  71
ENDBRANCH  50  64
BRANCH  51  75
ATOM     75  C   UNL A   1      40.638  27.928  29.209  1.00  0.00     0.023 A 
ATOM     76  C   UNL A   1      39.751  26.841  29.115  1.00  0.00     0.012 A 
ATOM     77  C   UNL A   1      41.549  28.171  28.162  1.00  0.00     0.148 A 
ATOM     78  C   UNL A   1      39.771  26.006  27.997  1.00  0.00     0.002 A 
ATOM     79  C   UNL A   1      41.534  27.364  27.033  1.00  0.00     0.091 A 
ATOM     80  F   UNL A   1      42.380  29.216  28.277  1.00  0.00    -0.205 F 
ATOM     81  C   UNL A   1      40.653  26.275  26.952  1.00  0.00     0.022 A 
BRANCH  79  82
ATOM     82  S   UNL A   1      42.555  27.693  25.592  1.00  0.00     0.127 S 
ATOM     83  O   UNL A   1      43.893  27.731  26.179  1.00  0.00    -0.237 OA
ATOM     84  O   UNL A   1      42.279  26.522  24.759  1.00  0.00    -0.237 OA
ATOM     85  O   UNL A   1      42.076  28.955  25.045  1.00  0.00    -0.744 OA
ENDBRANCH  79  82
ENDBRANCH  51  75
BRANCH  63  86
ATOM     86  C   UNL A   1      44.042  28.660  35.282  1.00  0.00     0.023 A 
ATOM     87  C   UNL A   1      45.345  29.141  35.055  1.00  0.00     0.012 A 
ATOM     88  C   UNL A   1      43.831  27.622  36.210  1.00  0.00     0.148 A 
ATOM     89  C   UNL A   1      46.425  28.598  35.746  1.00  0.00     0.002 A 
ATOM     90  C   UNL A   1      44.908  27.109  36.921  1.00  0.00     0.091 A 
ATOM     91  F   UNL A   1      42.577  27.183  36.402  1.00  0.00    -0.205 F 
ATOM     92  C   UNL A   1      46.206  27.593  36.688  1.00  0.00     0.022 A 
BRANCH  90  93
ATOM     93  S   UNL A   1      44.718  25.869  38.205  1.00  0.00     0.127 S 
ATOM     94  O   UNL A   1      46.101  25.686  38.647  1.00  0.00    -0.237 OA
ATOM     95  O   UNL A   1      43.856  26.554  39.169  1.00  0.00    -0.237 OA
ATOM     96  O   UNL A   1      44.117  24.707  37.564  1.00  0.00    -0.744 OA
ENDBRANCH  90  93
ENDBRANCH  63  86
ENDBRANCH  37  38
ENDBRANCH  29  32
ENDBRANCH  27  28
ENDBRANCH   1  27
TORSDOF 17
ENDMDL
