MODEL 1
REMARK VINA RESULT:     -12.7      0.000      0.000
REMARK SMILES Cc1ccc(S(=O)(=O)Nc2ccc(C(=O)CCC(=O)NCCCNC(=O)c3ccc(-c4c5nc(c(-c6cccc(S(=O)(=O)[O-])c6F)c6ccc([nH]6)c(-c6cccc(S(=O)(=O)[O-])c6F)c6nc(c(-c7cccc(S(=O)(=O)[O-])c7F)c7ccc4[nH]7)C=C6)C=C5)cc3)cc2)c(C)c1
REMARK SMILES IDX 18 1 19 2 20 3 17 5 16 6 14 7 15 8 13 9 10 10 11 11 91 12
REMARK SMILES IDX 12 13 90 14 9 15 6 17 7 18 8 19 5 20 1 21 2 22 3 23 94 24
REMARK SMILES IDX 4 25 92 26 93 27 21 28 22 29 23 30 24 31 25 32 26 34 27 35
REMARK SMILES IDX 28 36 89 37 29 38 88 39 30 40 31 41 32 42 82 43 33 44 87 45
REMARK SMILES IDX 81 46 83 47 34 48 86 49 80 50 79 51 35 53 67 54 47 55 66 56
REMARK SMILES IDX 48 57 51 58 65 59 84 60 49 61 50 62 64 64 85 65 52 66 36 67
REMARK SMILES IDX 37 68 45 69 38 70 40 71 46 72 39 73 41 74 42 75 43 76 44 77
REMARK SMILES IDX 68 78 69 79 77 80 70 81 72 82 78 83 71 84 73 85 74 86 75 87
REMARK SMILES IDX 76 88 53 89 54 90 62 91 55 92 57 93 63 94 56 95 58 96 59 97
REMARK SMILES IDX 60 98 61 99
REMARK H PARENT 20 4 9 16 24 33 83 52 51 63
REMARK Flexibility Score: inf
ROOT
ATOM      1  C   UNL A   1      36.481  22.981  23.869  1.00  0.00     0.220 C 
ATOM      2  O   UNL A   1      36.626  22.957  22.646  1.00  0.00    -0.275 OA
ATOM      3  N   UNL A   1      37.411  23.671  24.613  1.00  0.00    -0.356 N 
ATOM      4  H   UNL A   1      37.948  24.338  24.129  1.00  0.00     0.163 HD
ENDROOT
BRANCH   1   5
ATOM      5  C   UNL A   1      35.300  22.257  24.548  1.00  0.00     0.108 C 
BRANCH   5   6
ATOM      6  C   UNL A   1      35.553  20.778  24.971  1.00  0.00     0.091 C 
BRANCH   6   7
ATOM      7  C   UNL A   1      34.338  19.805  24.858  1.00  0.00     0.163 C 
ATOM      8  O   UNL A   1      34.477  18.622  24.566  1.00  0.00    -0.294 OA
BRANCH   7   9
ATOM      9  C   UNL A   1      32.932  20.392  24.822  1.00  0.00     0.018 A 
ATOM     10  C   UNL A   1      31.363  23.629  24.269  1.00  0.00     0.049 A 
ATOM     11  C   UNL A   1      31.800  22.544  22.839  1.00  0.00     0.027 A 
ATOM     12  C   UNL A   1      31.713  23.061  25.936  1.00  0.00     0.027 A 
ATOM     13  C   UNL A   1      32.518  20.910  23.127  1.00  0.00     0.014 A 
ATOM     14  C   UNL A   1      32.478  21.437  26.201  1.00  0.00     0.014 A 
BRANCH  10  15
ATOM     15  N   UNL A   1      30.252  24.530  24.047  1.00  0.00    -0.280 N 
ATOM     16  H   UNL A   1      29.347  24.149  23.991  1.00  0.00     0.180 HD
BRANCH  15  17
ATOM     17  S   UNL A   1      30.430  26.204  23.877  1.00  0.00     0.262 S 
ATOM     18  O   UNL A   1      29.176  26.828  24.239  1.00  0.00    -0.201 OA
ATOM     19  O   UNL A   1      31.026  26.413  22.577  1.00  0.00    -0.201 OA
BRANCH  17  20
ATOM     20  C   UNL A   1      31.642  26.656  25.086  1.00  0.00     0.090 A 
ATOM     21  C   UNL A   1      34.076  29.198  27.495  1.00  0.00     0.044 C 
ATOM     22  C   UNL A   1      33.279  28.208  26.702  1.00  0.00    -0.051 A 
ATOM     23  C   UNL A   1      32.014  27.837  27.150  1.00  0.00     0.005 A 
ATOM     24  C   UNL A   1      33.789  27.628  25.531  1.00  0.00     0.008 A 
ATOM     25  C   UNL A   1      31.208  27.034  26.356  1.00  0.00     0.023 A 
ATOM     26  C   UNL A   1      32.978  26.837  24.707  1.00  0.00    -0.030 A 
ATOM     27  C   UNL A   1      33.586  26.099  23.545  1.00  0.00     0.046 C 
ENDBRANCH  17  20
ENDBRANCH  15  17
ENDBRANCH  10  15
ENDBRANCH   7   9
ENDBRANCH   6   7
ENDBRANCH   5   6
ENDBRANCH   1   5
BRANCH   3  28
ATOM     28  C   UNL A   1      37.692  23.524  26.047  1.00  0.00     0.117 C 
BRANCH  28  29
ATOM     29  C   UNL A   1      38.948  22.460  26.184  1.00  0.00     0.042 C 
BRANCH  29  30
ATOM     30  C   UNL A   1      39.334  20.316  26.056  1.00  0.00     0.118 C 
BRANCH  30  31
ATOM     31  N   UNL A   1      40.804  19.528  26.130  1.00  0.00    -0.352 N 
ATOM     32  C   UNL A   1      42.122  19.782  26.178  1.00  0.00     0.251 C 
ATOM     33  H   UNL A   1      40.656  18.556  26.144  1.00  0.00     0.163 HD
ATOM     34  O   UNL A   1      42.879  18.816  26.093  1.00  0.00    -0.269 OA
BRANCH  32  35
ATOM     35  C   UNL A   1      42.650  21.106  26.376  1.00  0.00     0.039 A 
ATOM     36  C   UNL A   1      42.896  21.481  27.699  1.00  0.00     0.014 A 
ATOM     37  C   UNL A   1      42.745  21.994  25.308  1.00  0.00     0.014 A 
ATOM     38  C   UNL A   1      43.253  22.782  27.959  1.00  0.00     0.010 A 
ATOM     39  C   UNL A   1      43.188  23.268  25.554  1.00  0.00     0.010 A 
ATOM     40  C   UNL A   1      43.409  23.657  26.879  1.00  0.00    -0.014 A 
BRANCH  40  41
ATOM     41  C   UNL A   1      43.810  25.034  27.125  1.00  0.00     0.031 A 
ATOM     42  C   UNL A   1      42.797  25.977  27.677  1.00  0.00     0.074 A 
ATOM     43  C   UNL A   1      45.050  25.366  26.742  1.00  0.00     0.049 A 
ATOM     44  N   UNL A   1      42.917  27.249  27.911  1.00  0.00    -0.248 NA
ATOM     45  C   UNL A   1      41.454  25.433  27.959  1.00  0.00     0.031 C 
ATOM     46  C   UNL A   1      46.011  24.450  26.109  1.00  0.00     0.029 A 
ATOM     47  N   UNL A   1      45.710  26.552  26.804  1.00  0.00    -0.354 N 
ATOM     48  C   UNL A   1      41.661  27.669  28.325  1.00  0.00     0.074 A 
ATOM     49  C   UNL A   1      40.778  26.528  28.269  1.00  0.00     0.031 C 
ATOM     50  C   UNL A   1      47.148  25.113  25.858  1.00  0.00     0.029 A 
ATOM     51  C   UNL A   1      46.979  26.493  26.284  1.00  0.00     0.049 A 
ATOM     52  H   UNL A   1      45.318  27.371  27.184  1.00  0.00     0.167 HD
ATOM     53  C   UNL A   1      41.308  28.905  28.741  1.00  0.00     0.034 A 
ATOM     54  C   UNL A   1      47.892  27.470  26.182  1.00  0.00     0.034 A 
ATOM     55  C   UNL A   1      42.260  29.979  28.801  1.00  0.00     0.049 A 
ATOM     56  C   UNL A   1      47.502  28.804  26.748  1.00  0.00     0.074 A 
ATOM     57  C   UNL A   1      42.091  31.265  29.267  1.00  0.00     0.029 A 
ATOM     58  N   UNL A   1      43.581  29.870  28.376  1.00  0.00    -0.354 N 
ATOM     59  N   UNL A   1      46.348  29.173  27.256  1.00  0.00    -0.248 NA
ATOM     60  C   UNL A   1      48.540  29.835  26.782  1.00  0.00     0.031 C 
ATOM     61  C   UNL A   1      43.306  31.940  29.104  1.00  0.00     0.029 A 
ATOM     62  C   UNL A   1      44.244  31.063  28.573  1.00  0.00     0.049 A 
ATOM     63  H   UNL A   1      43.984  29.059  27.990  1.00  0.00     0.167 HD
ATOM     64  C   UNL A   1      46.525  30.469  27.709  1.00  0.00     0.074 A 
ATOM     65  C   UNL A   1      47.911  30.809  27.426  1.00  0.00     0.031 C 
ATOM     66  C   UNL A   1      45.639  31.312  28.296  1.00  0.00     0.034 A 
BRANCH  53  67
ATOM     67  C   UNL A   1      39.882  29.120  29.175  1.00  0.00     0.023 A 
ATOM     68  C   UNL A   1      38.870  29.307  28.208  1.00  0.00     0.012 A 
ATOM     69  C   UNL A   1      39.537  29.140  30.540  1.00  0.00     0.148 A 
ATOM     70  C   UNL A   1      37.552  29.555  28.590  1.00  0.00     0.002 A 
ATOM     71  C   UNL A   1      38.211  29.335  30.913  1.00  0.00     0.091 A 
ATOM     72  F   UNL A   1      40.511  28.992  31.449  1.00  0.00    -0.205 F 
ATOM     73  C   UNL A   1      37.221  29.559  29.942  1.00  0.00     0.022 A 
BRANCH  71  74
ATOM     74  S   UNL A   1      37.664  29.280  32.623  1.00  0.00     0.127 S 
ATOM     75  O   UNL A   1      36.309  29.822  32.519  1.00  0.00    -0.237 OA
ATOM     76  O   UNL A   1      37.727  27.848  32.917  1.00  0.00    -0.237 OA
ATOM     77  O   UNL A   1      38.604  30.099  33.375  1.00  0.00    -0.744 OA
ENDBRANCH  71  74
ENDBRANCH  53  67
BRANCH  54  78
ATOM     78  C   UNL A   1      49.242  27.167  25.641  1.00  0.00     0.023 A 
ATOM     79  C   UNL A   1      49.444  27.161  24.248  1.00  0.00     0.012 A 
ATOM     80  C   UNL A   1      50.346  26.983  26.495  1.00  0.00     0.148 A 
ATOM     81  C   UNL A   1      50.714  26.940  23.714  1.00  0.00     0.002 A 
ATOM     82  C   UNL A   1      51.618  26.814  25.958  1.00  0.00     0.091 A 
ATOM     83  F   UNL A   1      50.137  27.006  27.820  1.00  0.00    -0.205 F 
ATOM     84  C   UNL A   1      51.801  26.776  24.568  1.00  0.00     0.022 A 
BRANCH  82  85
ATOM     85  S   UNL A   1      53.092  26.734  26.983  1.00  0.00     0.127 S 
ATOM     86  O   UNL A   1      53.075  28.042  27.631  1.00  0.00    -0.237 OA
ATOM     87  O   UNL A   1      52.790  25.605  27.864  1.00  0.00    -0.237 OA
ATOM     88  O   UNL A   1      54.196  26.496  26.062  1.00  0.00    -0.744 OA
ENDBRANCH  82  85
ENDBRANCH  54  78
BRANCH  66  89
ATOM     89  C   UNL A   1      46.168  32.656  28.697  1.00  0.00     0.023 A 
ATOM     90  C   UNL A   1      46.747  32.832  29.967  1.00  0.00     0.012 A 
ATOM     91  C   UNL A   1      46.147  33.721  27.778  1.00  0.00     0.148 A 
ATOM     92  C   UNL A   1      47.267  34.070  30.333  1.00  0.00     0.002 A 
ATOM     93  C   UNL A   1      46.723  34.931  28.127  1.00  0.00     0.091 A 
ATOM     94  F   UNL A   1      45.569  33.527  26.584  1.00  0.00    -0.205 F 
ATOM     95  C   UNL A   1      47.268  35.114  29.409  1.00  0.00     0.022 A 
BRANCH  93  96
ATOM     96  S   UNL A   1      46.870  36.286  26.961  1.00  0.00     0.127 S 
ATOM     97  O   UNL A   1      47.605  35.657  25.866  1.00  0.00    -0.237 OA
ATOM     98  O   UNL A   1      45.470  36.590  26.663  1.00  0.00    -0.237 OA
ATOM     99  O   UNL A   1      47.579  37.346  27.665  1.00  0.00    -0.744 OA
ENDBRANCH  93  96
ENDBRANCH  66  89
ENDBRANCH  40  41
ENDBRANCH  32  35
ENDBRANCH  30  31
ENDBRANCH  29  30
ENDBRANCH  28  29
ENDBRANCH   3  28
TORSDOF 19
ENDMDL
MODEL 2
REMARK VINA RESULT:     -11.7      1.731      2.122
REMARK SMILES Cc1ccc(S(=O)(=O)Nc2ccc(C(=O)CCC(=O)NCCCNC(=O)c3ccc(-c4c5nc(c(-c6cccc(S(=O)(=O)[O-])c6F)c6ccc([nH]6)c(-c6cccc(S(=O)(=O)[O-])c6F)c6nc(c(-c7cccc(S(=O)(=O)[O-])c7F)c7ccc4[nH]7)C=C6)C=C5)cc3)cc2)c(C)c1
REMARK SMILES IDX 18 1 19 2 20 3 17 5 16 6 14 7 15 8 13 9 10 10 11 11 91 12
REMARK SMILES IDX 12 13 90 14 9 15 6 17 7 18 8 19 5 20 1 21 2 22 3 23 94 24
REMARK SMILES IDX 4 25 92 26 93 27 21 28 22 29 23 30 24 31 25 32 26 34 27 35
REMARK SMILES IDX 28 36 89 37 29 38 88 39 30 40 31 41 32 42 82 43 33 44 87 45
REMARK SMILES IDX 81 46 83 47 34 48 86 49 80 50 79 51 35 53 67 54 47 55 66 56
REMARK SMILES IDX 48 57 51 58 65 59 84 60 49 61 50 62 64 64 85 65 52 66 36 67
REMARK SMILES IDX 37 68 45 69 38 70 40 71 46 72 39 73 41 74 42 75 43 76 44 77
REMARK SMILES IDX 68 78 69 79 77 80 70 81 72 82 78 83 71 84 73 85 74 86 75 87
REMARK SMILES IDX 76 88 53 89 54 90 62 91 55 92 57 93 63 94 56 95 58 96 59 97
REMARK SMILES IDX 60 98 61 99
REMARK H PARENT 20 4 9 16 24 33 83 52 51 63
REMARK Flexibility Score: inf
ROOT
ATOM      1  C   UNL A   1      35.812  22.902  25.800  1.00  0.00     0.220 C 
ATOM      2  O   UNL A   1      35.391  24.060  25.791  1.00  0.00    -0.275 OA
ATOM      3  N   UNL A   1      37.169  22.711  25.676  1.00  0.00    -0.356 N 
ATOM      4  H   UNL A   1      37.740  23.485  25.886  1.00  0.00     0.163 HD
ENDROOT
BRANCH   1   5
ATOM      5  C   UNL A   1      34.851  21.704  25.940  1.00  0.00     0.108 C 
BRANCH   5   6
ATOM      6  C   UNL A   1      33.902  21.440  24.731  1.00  0.00     0.091 C 
BRANCH   6   7
ATOM      7  C   UNL A   1      32.419  21.094  25.074  1.00  0.00     0.163 C 
ATOM      8  O   UNL A   1      31.998  19.942  25.048  1.00  0.00    -0.294 OA
BRANCH   7   9
ATOM      9  C   UNL A   1      31.404  22.226  25.155  1.00  0.00     0.018 A 
ATOM     10  C   UNL A   1      31.374  25.858  24.921  1.00  0.00     0.049 A 
ATOM     11  C   UNL A   1      31.275  24.821  23.395  1.00  0.00     0.027 A 
ATOM     12  C   UNL A   1      31.475  25.051  26.521  1.00  0.00     0.027 A 
ATOM     13  C   UNL A   1      31.223  23.019  23.527  1.00  0.00     0.014 A 
ATOM     14  C   UNL A   1      31.469  23.240  26.628  1.00  0.00     0.014 A 
BRANCH  10  15
ATOM     15  N   UNL A   1      30.756  27.164  24.824  1.00  0.00    -0.280 N 
ATOM     16  H   UNL A   1      29.807  27.250  25.067  1.00  0.00     0.180 HD
BRANCH  15  17
ATOM     17  S   UNL A   1      31.582  28.550  24.312  1.00  0.00     0.262 S 
ATOM     18  O   UNL A   1      30.601  29.541  23.927  1.00  0.00    -0.201 OA
ATOM     19  O   UNL A   1      32.593  28.093  23.386  1.00  0.00    -0.201 OA
BRANCH  17  20
ATOM     20  C   UNL A   1      32.424  29.135  25.756  1.00  0.00     0.090 A 
ATOM     21  C   UNL A   1      34.980  31.591  28.127  1.00  0.00     0.044 C 
ATOM     22  C   UNL A   1      34.060  30.660  27.398  1.00  0.00    -0.051 A 
ATOM     23  C   UNL A   1      32.724  31.015  27.228  1.00  0.00     0.005 A 
ATOM     24  C   UNL A   1      34.511  29.428  26.901  1.00  0.00     0.008 A 
ATOM     25  C   UNL A   1      31.898  30.234  26.433  1.00  0.00     0.023 A 
ATOM     26  C   UNL A   1      33.695  28.642  26.076  1.00  0.00    -0.030 A 
ATOM     27  C   UNL A   1      34.137  27.258  25.687  1.00  0.00     0.046 C 
ENDBRANCH  17  20
ENDBRANCH  15  17
ENDBRANCH  10  15
ENDBRANCH   7   9
ENDBRANCH   6   7
ENDBRANCH   5   6
ENDBRANCH   1   5
BRANCH   3  28
ATOM     28  C   UNL A   1      37.862  21.483  25.266  1.00  0.00     0.117 C 
BRANCH  28  29
ATOM     29  C   UNL A   1      39.294  21.442  26.089  1.00  0.00     0.042 C 
BRANCH  29  30
ATOM     30  C   UNL A   1      40.882  20.035  26.596  1.00  0.00     0.118 C 
BRANCH  30  31
ATOM     31  N   UNL A   1      42.216  19.615  25.684  1.00  0.00    -0.352 N 
ATOM     32  C   UNL A   1      43.325  20.152  25.151  1.00  0.00     0.251 C 
ATOM     33  H   UNL A   1      42.177  18.656  25.466  1.00  0.00     0.163 HD
ATOM     34  O   UNL A   1      43.991  19.432  24.407  1.00  0.00    -0.269 OA
BRANCH  32  35
ATOM     35  C   UNL A   1      43.769  21.484  25.464  1.00  0.00     0.039 A 
ATOM     36  C   UNL A   1      44.283  21.679  26.748  1.00  0.00     0.014 A 
ATOM     37  C   UNL A   1      43.536  22.531  24.576  1.00  0.00     0.014 A 
ATOM     38  C   UNL A   1      44.577  22.958  27.152  1.00  0.00     0.010 A 
ATOM     39  C   UNL A   1      43.914  23.797  24.944  1.00  0.00     0.010 A 
ATOM     40  C   UNL A   1      44.403  24.002  26.238  1.00  0.00    -0.014 A 
BRANCH  40  41
ATOM     41  C   UNL A   1      44.730  25.363  26.633  1.00  0.00     0.031 A 
ATOM     42  C   UNL A   1      43.647  26.213  27.203  1.00  0.00     0.074 A 
ATOM     43  C   UNL A   1      45.976  25.774  26.362  1.00  0.00     0.049 A 
ATOM     44  N   UNL A   1      43.699  27.462  27.559  1.00  0.00    -0.248 NA
ATOM     45  C   UNL A   1      42.313  25.596  27.348  1.00  0.00     0.031 C 
ATOM     46  C   UNL A   1      47.010  24.957  25.711  1.00  0.00     0.029 A 
ATOM     47  N   UNL A   1      46.580  26.972  26.574  1.00  0.00    -0.354 N 
ATOM     48  C   UNL A   1      42.403  27.794  27.928  1.00  0.00     0.074 A 
ATOM     49  C   UNL A   1      41.574  26.633  27.712  1.00  0.00     0.031 C 
ATOM     50  C   UNL A   1      48.131  25.681  25.594  1.00  0.00     0.029 A 
ATOM     51  C   UNL A   1      47.879  27.008  26.133  1.00  0.00     0.049 A 
ATOM     52  H   UNL A   1      46.132  27.737  27.001  1.00  0.00     0.167 HD
ATOM     53  C   UNL A   1      41.975  28.973  28.431  1.00  0.00     0.034 A 
ATOM     54  C   UNL A   1      48.755  28.023  26.179  1.00  0.00     0.034 A 
ATOM     55  C   UNL A   1      42.875  30.070  28.650  1.00  0.00     0.049 A 
ATOM     56  C   UNL A   1      48.276  29.283  26.837  1.00  0.00     0.074 A 
ATOM     57  C   UNL A   1      42.625  31.301  29.219  1.00  0.00     0.029 A 
ATOM     58  N   UNL A   1      44.223  30.050  28.302  1.00  0.00    -0.354 N 
ATOM     59  N   UNL A   1      47.079  29.561  27.302  1.00  0.00    -0.248 NA
ATOM     60  C   UNL A   1      49.266  30.343  27.031  1.00  0.00     0.031 C 
ATOM     61  C   UNL A   1      43.818  32.032  29.196  1.00  0.00     0.029 A 
ATOM     62  C   UNL A   1      44.823  31.242  28.649  1.00  0.00     0.049 A 
ATOM     63  H   UNL A   1      44.682  29.293  27.870  1.00  0.00     0.167 HD
ATOM     64  C   UNL A   1      47.174  30.814  27.882  1.00  0.00     0.074 A 
ATOM     65  C   UNL A   1      48.559  31.229  27.720  1.00  0.00     0.031 C 
ATOM     66  C   UNL A   1      46.220  31.567  28.485  1.00  0.00     0.034 A 
BRANCH  53  67
ATOM     67  C   UNL A   1      40.517  29.095  28.792  1.00  0.00     0.023 A 
ATOM     68  C   UNL A   1      39.563  29.367  27.788  1.00  0.00     0.012 A 
ATOM     69  C   UNL A   1      40.086  28.943  30.123  1.00  0.00     0.148 A 
ATOM     70  C   UNL A   1      38.215  29.531  28.107  1.00  0.00     0.002 A 
ATOM     71  C   UNL A   1      38.733  29.055  30.427  1.00  0.00     0.091 A 
ATOM     72  F   UNL A   1      41.006  28.716  31.072  1.00  0.00    -0.205 F 
ATOM     73  C   UNL A   1      37.799  29.365  29.424  1.00  0.00     0.022 A 
BRANCH  71  74
ATOM     74  S   UNL A   1      38.081  28.782  32.079  1.00  0.00     0.127 S 
ATOM     75  O   UNL A   1      36.661  29.074  31.889  1.00  0.00    -0.237 OA
ATOM     76  O   UNL A   1      38.390  27.369  32.297  1.00  0.00    -0.237 OA
ATOM     77  O   UNL A   1      38.794  29.704  32.952  1.00  0.00    -0.744 OA
ENDBRANCH  71  74
ENDBRANCH  53  67
BRANCH  54  78
ATOM     78  C   UNL A   1      50.147  27.821  25.700  1.00  0.00     0.023 A 
ATOM     79  C   UNL A   1      51.169  27.563  26.632  1.00  0.00     0.012 A 
ATOM     80  C   UNL A   1      50.448  27.785  24.324  1.00  0.00     0.148 A 
ATOM     81  C   UNL A   1      52.473  27.308  26.207  1.00  0.00     0.002 A 
ATOM     82  C   UNL A   1      51.738  27.481  23.904  1.00  0.00     0.091 A 
ATOM     83  F   UNL A   1      49.458  28.020  23.450  1.00  0.00    -0.205 F 
ATOM     84  C   UNL A   1      52.756  27.258  24.845  1.00  0.00     0.022 A 
BRANCH  82  85
ATOM     85  S   UNL A   1      52.159  27.260  22.172  1.00  0.00     0.127 S 
ATOM     86  O   UNL A   1      52.948  26.032  22.212  1.00  0.00    -0.237 OA
ATOM     87  O   UNL A   1      50.840  27.125  21.552  1.00  0.00    -0.237 OA
ATOM     88  O   UNL A   1      52.881  28.465  21.787  1.00  0.00    -0.744 OA
ENDBRANCH  82  85
ENDBRANCH  54  78
BRANCH  66  89
ATOM     89  C   UNL A   1      46.667  32.886  29.039  1.00  0.00     0.023 A 
ATOM     90  C   UNL A   1      47.196  32.957  30.341  1.00  0.00     0.012 A 
ATOM     91  C   UNL A   1      46.621  34.037  28.233  1.00  0.00     0.148 A 
ATOM     92  C   UNL A   1      47.641  34.173  30.850  1.00  0.00     0.002 A 
ATOM     93  C   UNL A   1      47.123  35.231  28.724  1.00  0.00     0.091 A 
ATOM     94  F   UNL A   1      46.091  33.940  27.005  1.00  0.00    -0.205 F 
ATOM     95  C   UNL A   1      47.617  35.306  30.038  1.00  0.00     0.022 A 
BRANCH  93  96
ATOM     96  S   UNL A   1      47.238  36.704  27.708  1.00  0.00     0.127 S 
ATOM     97  O   UNL A   1      47.671  37.704  28.682  1.00  0.00    -0.237 OA
ATOM     98  O   UNL A   1      48.257  36.324  26.729  1.00  0.00    -0.237 OA
ATOM     99  O   UNL A   1      45.910  36.910  27.147  1.00  0.00    -0.744 OA
ENDBRANCH  93  96
ENDBRANCH  66  89
ENDBRANCH  40  41
ENDBRANCH  32  35
ENDBRANCH  30  31
ENDBRANCH  29  30
ENDBRANCH  28  29
ENDBRANCH   3  28
TORSDOF 19
ENDMDL
MODEL 3
REMARK VINA RESULT:     -11.5      2.316      8.073
REMARK SMILES Cc1ccc(S(=O)(=O)Nc2ccc(C(=O)CCC(=O)NCCCNC(=O)c3ccc(-c4c5nc(c(-c6cccc(S(=O)(=O)[O-])c6F)c6ccc([nH]6)c(-c6cccc(S(=O)(=O)[O-])c6F)c6nc(c(-c7cccc(S(=O)(=O)[O-])c7F)c7ccc4[nH]7)C=C6)C=C5)cc3)cc2)c(C)c1
REMARK SMILES IDX 18 1 19 2 20 3 17 5 16 6 14 7 15 8 13 9 10 10 11 11 91 12
REMARK SMILES IDX 12 13 90 14 9 15 6 17 7 18 8 19 5 20 1 21 2 22 3 23 94 24
REMARK SMILES IDX 4 25 92 26 93 27 21 28 22 29 23 30 24 31 25 32 26 34 27 35
REMARK SMILES IDX 28 36 89 37 29 38 88 39 30 40 31 41 32 42 82 43 33 44 87 45
REMARK SMILES IDX 81 46 83 47 34 48 86 49 80 50 79 51 35 53 67 54 47 55 66 56
REMARK SMILES IDX 48 57 51 58 65 59 84 60 49 61 50 62 64 64 85 65 52 66 36 67
REMARK SMILES IDX 37 68 45 69 38 70 40 71 46 72 39 73 41 74 42 75 43 76 44 77
REMARK SMILES IDX 68 78 69 79 77 80 70 81 72 82 78 83 71 84 73 85 74 86 75 87
REMARK SMILES IDX 76 88 53 89 54 90 62 91 55 92 57 93 63 94 56 95 58 96 59 97
REMARK SMILES IDX 60 98 61 99
REMARK H PARENT 20 4 9 16 24 33 83 52 51 63
REMARK Flexibility Score: inf
ROOT
ATOM      1  C   UNL A   1      37.600  21.296  25.243  1.00  0.00     0.220 C 
ATOM      2  O   UNL A   1      37.080  20.377  24.607  1.00  0.00    -0.275 OA
ATOM      3  N   UNL A   1      38.953  21.227  25.481  1.00  0.00    -0.356 N 
ATOM      4  H   UNL A   1      39.470  20.629  24.894  1.00  0.00     0.163 HD
ENDROOT
BRANCH   1   5
ATOM      5  C   UNL A   1      36.762  22.483  25.761  1.00  0.00     0.108 C 
BRANCH   5   6
ATOM      6  C   UNL A   1      36.662  23.717  24.814  1.00  0.00     0.091 C 
BRANCH   6   7
ATOM      7  C   UNL A   1      35.446  23.747  23.835  1.00  0.00     0.163 C 
ATOM      8  O   UNL A   1      35.487  23.215  22.731  1.00  0.00    -0.294 OA
BRANCH   7   9
ATOM      9  C   UNL A   1      34.294  24.698  24.129  1.00  0.00     0.018 A 
ATOM     10  C   UNL A   1      33.768  28.280  24.502  1.00  0.00     0.049 A 
ATOM     11  C   UNL A   1      33.734  27.499  22.828  1.00  0.00     0.027 A 
ATOM     12  C   UNL A   1      34.052  27.249  25.943  1.00  0.00     0.027 A 
ATOM     13  C   UNL A   1      33.930  25.709  22.660  1.00  0.00     0.014 A 
ATOM     14  C   UNL A   1      34.294  25.460  25.748  1.00  0.00     0.014 A 
BRANCH  10  15
ATOM     15  N   UNL A   1      32.977  29.485  24.639  1.00  0.00    -0.280 N 
ATOM     16  H   UNL A   1      33.374  30.338  24.351  1.00  0.00     0.180 HD
BRANCH  15  17
ATOM     17  S   UNL A   1      31.406  29.503  25.269  1.00  0.00     0.262 S 
ATOM     18  O   UNL A   1      30.666  30.552  24.603  1.00  0.00    -0.201 OA
ATOM     19  O   UNL A   1      31.553  29.483  26.707  1.00  0.00    -0.201 OA
BRANCH  17  20
ATOM     20  C   UNL A   1      30.709  27.946  24.794  1.00  0.00     0.090 A 
ATOM     21  C   UNL A   1      30.606  23.872  23.539  1.00  0.00     0.044 C 
ATOM     22  C   UNL A   1      30.517  25.302  23.977  1.00  0.00    -0.051 A 
ATOM     23  C   UNL A   1      30.581  25.605  25.335  1.00  0.00     0.005 A 
ATOM     24  C   UNL A   1      30.346  26.341  23.050  1.00  0.00     0.008 A 
ATOM     25  C   UNL A   1      30.645  26.928  25.745  1.00  0.00     0.023 A 
ATOM     26  C   UNL A   1      30.434  27.682  23.447  1.00  0.00    -0.030 A 
ATOM     27  C   UNL A   1      30.093  28.775  22.471  1.00  0.00     0.046 C 
ENDBRANCH  17  20
ENDBRANCH  15  17
ENDBRANCH  10  15
ENDBRANCH   7   9
ENDBRANCH   6   7
ENDBRANCH   5   6
ENDBRANCH   1   5
BRANCH   3  28
ATOM     28  C   UNL A   1      39.714  21.945  26.512  1.00  0.00     0.117 C 
BRANCH  28  29
ATOM     29  C   UNL A   1      40.857  20.897  27.083  1.00  0.00     0.042 C 
BRANCH  29  30
ATOM     30  C   UNL A   1      42.119  19.265  26.374  1.00  0.00     0.118 C 
BRANCH  30  31
ATOM     31  N   UNL A   1      43.385  19.339  25.288  1.00  0.00    -0.352 N 
ATOM     32  C   UNL A   1      44.242  20.218  24.744  1.00  0.00     0.251 C 
ATOM     33  H   UNL A   1      43.563  18.440  24.929  1.00  0.00     0.163 HD
ATOM     34  O   UNL A   1      44.965  19.804  23.839  1.00  0.00    -0.269 OA
BRANCH  32  35
ATOM     35  C   UNL A   1      44.369  21.571  25.217  1.00  0.00     0.039 A 
ATOM     36  C   UNL A   1      44.133  22.578  24.278  1.00  0.00     0.014 A 
ATOM     37  C   UNL A   1      44.856  21.828  26.495  1.00  0.00     0.014 A 
ATOM     38  C   UNL A   1      44.389  23.880  24.631  1.00  0.00     0.010 A 
ATOM     39  C   UNL A   1      45.026  23.133  26.880  1.00  0.00     0.010 A 
ATOM     40  C   UNL A   1      44.819  24.144  25.936  1.00  0.00    -0.014 A 
BRANCH  40  41
ATOM     41  C   UNL A   1      45.074  25.517  26.343  1.00  0.00     0.031 A 
ATOM     42  C   UNL A   1      46.471  26.030  26.263  1.00  0.00     0.074 A 
ATOM     43  C   UNL A   1      44.031  26.187  26.850  1.00  0.00     0.049 A 
ATOM     44  N   UNL A   1      46.931  27.188  26.631  1.00  0.00    -0.248 NA
ATOM     45  C   UNL A   1      47.500  25.104  25.749  1.00  0.00     0.031 C 
ATOM     46  C   UNL A   1      42.677  25.639  27.013  1.00  0.00     0.029 A 
ATOM     47  N   UNL A   1      43.942  27.451  27.338  1.00  0.00    -0.354 N 
ATOM     48  C   UNL A   1      48.304  27.118  26.435  1.00  0.00     0.074 A 
ATOM     49  C   UNL A   1      48.612  25.791  25.959  1.00  0.00     0.031 C 
ATOM     50  C   UNL A   1      41.886  26.578  27.551  1.00  0.00     0.029 A 
ATOM     51  C   UNL A   1      42.686  27.769  27.791  1.00  0.00     0.049 A 
ATOM     52  H   UNL A   1      44.701  28.077  27.364  1.00  0.00     0.167 HD
ATOM     53  C   UNL A   1      49.206  28.107  26.617  1.00  0.00     0.034 A 
ATOM     54  C   UNL A   1      42.253  28.916  28.335  1.00  0.00     0.034 A 
ATOM     55  C   UNL A   1      48.810  29.415  27.060  1.00  0.00     0.049 A 
ATOM     56  C   UNL A   1      43.257  30.026  28.427  1.00  0.00     0.074 A 
ATOM     57  C   UNL A   1      49.578  30.548  27.223  1.00  0.00     0.029 A 
ATOM     58  N   UNL A   1      47.505  29.756  27.407  1.00  0.00    -0.354 N 
ATOM     59  N   UNL A   1      44.536  30.003  28.126  1.00  0.00    -0.248 NA
ATOM     60  C   UNL A   1      42.761  31.328  28.875  1.00  0.00     0.031 C 
ATOM     61  C   UNL A   1      48.741  31.568  27.688  1.00  0.00     0.029 A 
ATOM     62  C   UNL A   1      47.441  31.083  27.778  1.00  0.00     0.049 A 
ATOM     63  H   UNL A   1      46.738  29.138  27.390  1.00  0.00     0.167 HD
ATOM     64  C   UNL A   1      44.997  31.295  28.308  1.00  0.00     0.074 A 
ATOM     65  C   UNL A   1      43.846  32.078  28.732  1.00  0.00     0.031 C 
ATOM     66  C   UNL A   1      46.247  31.800  28.155  1.00  0.00     0.034 A 
BRANCH  53  67
ATOM     67  C   UNL A   1      50.649  27.808  26.308  1.00  0.00     0.023 A 
ATOM     68  C   UNL A   1      51.536  27.460  27.351  1.00  0.00     0.012 A 
ATOM     69  C   UNL A   1      51.135  27.871  24.989  1.00  0.00     0.148 A 
ATOM     70  C   UNL A   1      52.887  27.226  27.093  1.00  0.00     0.002 A 
ATOM     71  C   UNL A   1      52.472  27.585  24.731  1.00  0.00     0.091 A 
ATOM     72  F   UNL A   1      50.291  28.234  24.013  1.00  0.00    -0.205 F 
ATOM     73  C   UNL A   1      53.352  27.278  25.783  1.00  0.00     0.022 A 
BRANCH  71  74
ATOM     74  S   UNL A   1      53.157  27.547  23.071  1.00  0.00     0.127 S 
ATOM     75  O   UNL A   1      52.516  26.356  22.514  1.00  0.00    -0.237 OA
ATOM     76  O   UNL A   1      52.679  28.813  22.517  1.00  0.00    -0.237 OA
ATOM     77  O   UNL A   1      54.601  27.457  23.232  1.00  0.00    -0.744 OA
ENDBRANCH  71  74
ENDBRANCH  53  67
BRANCH  54  78
ATOM     78  C   UNL A   1      40.820  29.068  28.697  1.00  0.00     0.023 A 
ATOM     79  C   UNL A   1      39.856  29.180  27.678  1.00  0.00     0.012 A 
ATOM     80  C   UNL A   1      40.395  29.005  30.039  1.00  0.00     0.148 A 
ATOM     81  C   UNL A   1      38.498  29.262  27.988  1.00  0.00     0.002 A 
ATOM     82  C   UNL A   1      39.038  29.036  30.339  1.00  0.00     0.091 A 
ATOM     83  F   UNL A   1      41.327  28.885  30.996  1.00  0.00    -0.205 F 
ATOM     84  C   UNL A   1      38.089  29.181  29.316  1.00  0.00     0.022 A 
BRANCH  82  85
ATOM     85  S   UNL A   1      38.417  28.799  32.008  1.00  0.00     0.127 S 
ATOM     86  O   UNL A   1      39.060  29.897  32.724  1.00  0.00    -0.237 OA
ATOM     87  O   UNL A   1      36.973  28.947  31.821  1.00  0.00    -0.237 OA
ATOM     88  O   UNL A   1      38.835  27.458  32.395  1.00  0.00    -0.744 OA
ENDBRANCH  82  85
ENDBRANCH  54  78
BRANCH  66  89
ATOM     89  C   UNL A   1      46.405  33.269  28.410  1.00  0.00     0.023 A 
ATOM     90  C   UNL A   1      46.249  34.185  27.354  1.00  0.00     0.012 A 
ATOM     91  C   UNL A   1      46.639  33.732  29.718  1.00  0.00     0.148 A 
ATOM     92  C   UNL A   1      46.364  35.551  27.591  1.00  0.00     0.002 A 
ATOM     93  C   UNL A   1      46.690  35.095  29.956  1.00  0.00     0.091 A 
ATOM     94  F   UNL A   1      46.804  32.831  30.698  1.00  0.00    -0.205 F 
ATOM     95  C   UNL A   1      46.571  36.007  28.893  1.00  0.00     0.022 A 
BRANCH  93  96
ATOM     96  S   UNL A   1      46.835  35.766  31.613  1.00  0.00     0.127 S 
ATOM     97  O   UNL A   1      47.981  35.025  32.134  1.00  0.00    -0.237 OA
ATOM     98  O   UNL A   1      47.090  37.183  31.350  1.00  0.00    -0.237 OA
ATOM     99  O   UNL A   1      45.563  35.495  32.268  1.00  0.00    -0.744 OA
ENDBRANCH  93  96
ENDBRANCH  66  89
ENDBRANCH  40  41
ENDBRANCH  32  35
ENDBRANCH  30  31
ENDBRANCH  29  30
ENDBRANCH  28  29
ENDBRANCH   3  28
TORSDOF 19
ENDMDL
