MODEL 1
REMARK VINA RESULT:     -12.9      0.000      0.000
REMARK SMILES C[N@@H+]1CCN(C(=O)c2cnn3c2CCCC3)C[C@@H]1C(=O)NCCCNC(=O)c1ccc(-c2c3nc(c(-c4cccc(S(=O)(=O)[O-])c4F)c4ccc([nH]4)c(-c4cccc(S(=O)(=O)[O-])c4F)c4nc(c(-c5cccc(S(=O)(=O)[O-])c5F)c5ccc2[nH]5)C=C4)C=C3)cc1
REMARK SMILES IDX 23 1 22 2 21 3 19 4 20 5 18 7 1 8 2 9 3 10 4 12 17 13 5 14
REMARK SMILES IDX 6 15 7 16 8 17 9 18 12 19 10 20 11 21 13 22 16 23 14 24
REMARK SMILES IDX 15 25 24 26 25 27 26 28 27 30 28 31 29 32 90 33 30 34 89 35
REMARK SMILES IDX 31 36 32 37 33 38 83 39 34 40 88 41 82 42 84 43 35 44 87 45
REMARK SMILES IDX 81 46 80 47 36 49 68 50 48 51 67 52 49 53 52 54 66 55 85 56
REMARK SMILES IDX 50 57 51 58 65 60 86 61 53 62 37 63 38 64 46 65 39 66 41 67
REMARK SMILES IDX 47 68 40 69 42 70 43 71 44 72 45 73 69 74 70 75 78 76 71 77
REMARK SMILES IDX 73 78 79 79 72 80 74 81 75 82 76 83 77 84 54 85 55 86 63 87
REMARK SMILES IDX 56 88 58 89 64 90 57 91 59 92 60 93 61 94 62 95
REMARK H PARENT 21 6 2 11 25 29 84 48 52 59
REMARK Flexibility Score: inf
ROOT
ATOM      1  C   UNL A   1      37.461  19.749  24.996  1.00  0.00     0.042 C 
ENDROOT
BRANCH   1   2
ATOM      2  C   UNL A   1      36.354  20.789  25.180  1.00  0.00     0.118 C 
BRANCH   2   3
ATOM      3  N   UNL A   1      36.153  21.647  24.026  1.00  0.00    -0.351 N 
ATOM      4  C   UNL A   1      35.235  22.627  23.778  1.00  0.00     0.280 C 
ATOM      5  O   UNL A   1      35.445  23.328  22.787  1.00  0.00    -0.268 OA
ATOM      6  H   UNL A   1      36.793  21.496  23.292  1.00  0.00     0.163 HD
BRANCH   4   7
ATOM      7  C   UNL A   1      34.019  22.843  24.707  1.00  0.00     0.293 C 
ATOM      8  C   UNL A   1      32.969  20.654  24.235  1.00  0.00     0.333 C 
ATOM      9  N   UNL A   1      32.795  22.095  24.295  1.00  0.00    -0.324 N 
ATOM     10  C   UNL A   1      32.266  22.601  23.010  1.00  0.00     0.284 C 
ATOM     11  H   UNL A   1      32.115  22.265  25.036  1.00  0.00     0.348 HD
ATOM     12  C   UNL A   1      31.933  24.097  23.080  1.00  0.00     0.181 C 
ATOM     13  C   UNL A   1      33.709  24.361  24.781  1.00  0.00     0.195 C 
ATOM     14  N   UNL A   1      33.054  24.891  23.577  1.00  0.00    -0.326 N 
BRANCH  14  15
ATOM     15  C   UNL A   1      33.294  26.126  22.986  1.00  0.00     0.257 C 
ATOM     16  O   UNL A   1      34.028  26.248  22.006  1.00  0.00    -0.269 OA
BRANCH  15  17
ATOM     17  C   UNL A   1      32.532  27.265  23.459  1.00  0.00     0.081 A 
ATOM     18  C   UNL A   1      31.337  27.856  22.983  1.00  0.00     0.149 A 
ATOM     19  C   UNL A   1      32.832  27.989  24.596  1.00  0.00     0.051 A 
ATOM     20  N   UNL A   1      30.968  28.925  23.703  1.00  0.00    -0.180 NA
ATOM     21  N   UNL A   1      31.858  28.937  24.708  1.00  0.00    -0.269 N 
ATOM     22  C   UNL A   1      33.913  27.832  25.604  1.00  0.00     0.057 C 
ATOM     23  C   UNL A   1      31.795  29.941  25.751  1.00  0.00     0.144 C 
ATOM     24  C   UNL A   1      34.059  29.085  26.469  1.00  0.00     0.008 C 
ATOM     25  C   UNL A   1      32.689  29.581  26.942  1.00  0.00     0.024 C 
ENDBRANCH  15  17
ENDBRANCH  14  15
ENDBRANCH   4   7
ENDBRANCH   2   3
ENDBRANCH   1   2
BRANCH   1  26
ATOM     26  C   UNL A   1      38.837  20.256  25.385  1.00  0.00     0.118 C 
BRANCH  26  27
ATOM     27  N   UNL A   1      39.809  19.182  25.593  1.00  0.00    -0.352 N 
ATOM     28  C   UNL A   1      41.142  19.314  25.949  1.00  0.00     0.251 C 
ATOM     29  H   UNL A   1      39.478  18.263  25.466  1.00  0.00     0.163 HD
ATOM     30  O   UNL A   1      41.934  18.408  25.769  1.00  0.00    -0.269 OA
BRANCH  28  31
ATOM     31  C   UNL A   1      41.569  20.589  26.559  1.00  0.00     0.039 A 
ATOM     32  C   UNL A   1      42.319  21.531  25.848  1.00  0.00     0.014 A 
ATOM     33  C   UNL A   1      41.157  20.840  27.864  1.00  0.00     0.014 A 
ATOM     34  C   UNL A   1      42.588  22.760  26.447  1.00  0.00     0.010 A 
ATOM     35  C   UNL A   1      41.258  22.105  28.372  1.00  0.00     0.010 A 
ATOM     36  C   UNL A   1      42.042  23.040  27.707  1.00  0.00    -0.014 A 
BRANCH  36  37
ATOM     37  C   UNL A   1      42.199  24.344  28.336  1.00  0.00     0.031 A 
ATOM     38  C   UNL A   1      41.053  25.271  28.126  1.00  0.00     0.074 A 
ATOM     39  C   UNL A   1      43.173  24.574  29.245  1.00  0.00     0.049 A 
ATOM     40  N   UNL A   1      41.039  26.378  27.459  1.00  0.00    -0.248 NA
ATOM     41  C   UNL A   1      39.721  24.837  28.579  1.00  0.00     0.031 C 
ATOM     42  C   UNL A   1      44.136  23.607  29.798  1.00  0.00     0.029 A 
ATOM     43  N   UNL A   1      43.402  25.680  30.002  1.00  0.00    -0.354 N 
ATOM     44  C   UNL A   1      39.755  26.900  27.627  1.00  0.00     0.074 A 
ATOM     45  C   UNL A   1      38.946  25.814  28.109  1.00  0.00     0.031 C 
ATOM     46  C   UNL A   1      44.628  24.078  30.964  1.00  0.00     0.029 A 
ATOM     47  C   UNL A   1      44.169  25.440  31.139  1.00  0.00     0.049 A 
ATOM     48  H   UNL A   1      43.055  26.571  29.767  1.00  0.00     0.167 HD
ATOM     49  C   UNL A   1      39.532  28.245  27.622  1.00  0.00     0.034 A 
ATOM     50  C   UNL A   1      44.367  26.285  32.180  1.00  0.00     0.034 A 
ATOM     51  C   UNL A   1      40.683  28.953  27.117  1.00  0.00     0.049 A 
ATOM     52  C   UNL A   1      44.009  27.641  31.710  1.00  0.00     0.074 A 
ATOM     53  C   UNL A   1      41.393  28.954  25.935  1.00  0.00     0.029 A 
ATOM     54  N   UNL A   1      41.496  29.539  28.055  1.00  0.00    -0.354 N 
ATOM     55  N   UNL A   1      44.669  28.280  30.784  1.00  0.00    -0.248 NA
ATOM     56  C   UNL A   1      42.652  28.105  31.948  1.00  0.00     0.031 C 
ATOM     57  C   UNL A   1      42.755  29.102  26.331  1.00  0.00     0.029 A 
ATOM     58  C   UNL A   1      42.791  29.261  27.718  1.00  0.00     0.049 A 
ATOM     59  H   UNL A   1      41.200  30.066  28.832  1.00  0.00     0.167 HD
ATOM     60  C   UNL A   1      43.682  28.890  30.022  1.00  0.00     0.074 A 
ATOM     61  C   UNL A   1      42.479  28.846  30.852  1.00  0.00     0.031 C 
ATOM     62  C   UNL A   1      43.857  29.099  28.684  1.00  0.00     0.034 A 
BRANCH  49  63
ATOM     63  C   UNL A   1      38.472  28.978  28.425  1.00  0.00     0.023 A 
ATOM     64  C   UNL A   1      37.673  29.912  27.723  1.00  0.00     0.012 A 
ATOM     65  C   UNL A   1      38.402  29.023  29.836  1.00  0.00     0.148 A 
ATOM     66  C   UNL A   1      36.919  30.888  28.383  1.00  0.00     0.002 A 
ATOM     67  C   UNL A   1      37.591  29.947  30.490  1.00  0.00     0.091 A 
ATOM     68  F   UNL A   1      39.210  28.265  30.578  1.00  0.00    -0.205 F 
ATOM     69  C   UNL A   1      36.877  30.906  29.769  1.00  0.00     0.022 A 
BRANCH  67  70
ATOM     70  S   UNL A   1      37.458  29.981  32.283  1.00  0.00     0.127 S 
ATOM     71  O   UNL A   1      38.717  30.621  32.655  1.00  0.00    -0.237 OA
ATOM     72  O   UNL A   1      36.263  30.802  32.477  1.00  0.00    -0.237 OA
ATOM     73  O   UNL A   1      37.300  28.592  32.692  1.00  0.00    -0.744 OA
ENDBRANCH  67  70
ENDBRANCH  49  63
BRANCH  50  74
ATOM     74  C   UNL A   1      44.601  25.987  33.610  1.00  0.00     0.023 A 
ATOM     75  C   UNL A   1      45.917  25.884  34.100  1.00  0.00     0.012 A 
ATOM     76  C   UNL A   1      43.545  26.076  34.545  1.00  0.00     0.148 A 
ATOM     77  C   UNL A   1      46.178  25.896  35.476  1.00  0.00     0.002 A 
ATOM     78  C   UNL A   1      43.808  26.085  35.911  1.00  0.00     0.091 A 
ATOM     79  F   UNL A   1      42.296  26.241  34.088  1.00  0.00    -0.205 F 
ATOM     80  C   UNL A   1      45.125  26.005  36.381  1.00  0.00     0.022 A 
BRANCH  78  81
ATOM     81  S   UNL A   1      42.510  26.260  37.143  1.00  0.00     0.127 S 
ATOM     82  O   UNL A   1      41.868  27.505  36.722  1.00  0.00    -0.237 OA
ATOM     83  O   UNL A   1      41.717  25.054  36.916  1.00  0.00    -0.237 OA
ATOM     84  O   UNL A   1      43.192  26.332  38.428  1.00  0.00    -0.744 OA
ENDBRANCH  78  81
ENDBRANCH  50  74
BRANCH  62  85
ATOM     85  C   UNL A   1      45.235  28.907  28.103  1.00  0.00     0.023 A 
ATOM     86  C   UNL A   1      46.255  29.873  28.228  1.00  0.00     0.012 A 
ATOM     87  C   UNL A   1      45.560  27.630  27.619  1.00  0.00     0.148 A 
ATOM     88  C   UNL A   1      47.573  29.567  27.874  1.00  0.00     0.002 A 
ATOM     89  C   UNL A   1      46.877  27.313  27.322  1.00  0.00     0.091 A 
ATOM     90  F   UNL A   1      44.573  26.728  27.507  1.00  0.00    -0.205 F 
ATOM     91  C   UNL A   1      47.887  28.280  27.440  1.00  0.00     0.022 A 
BRANCH  89  92
ATOM     92  S   UNL A   1      47.361  25.635  26.911  1.00  0.00     0.127 S 
ATOM     93  O   UNL A   1      46.927  24.894  28.093  1.00  0.00    -0.237 OA
ATOM     94  O   UNL A   1      46.578  25.372  25.702  1.00  0.00    -0.237 OA
ATOM     95  O   UNL A   1      48.801  25.674  26.689  1.00  0.00    -0.744 OA
ENDBRANCH  89  92
ENDBRANCH  62  85
ENDBRANCH  36  37
ENDBRANCH  28  31
ENDBRANCH  26  27
ENDBRANCH   1  26
TORSDOF 15
ENDMDL
MODEL 2
REMARK VINA RESULT:     -12.6      1.348      1.915
REMARK SMILES C[N@@H+]1CCN(C(=O)c2cnn3c2CCCC3)C[C@@H]1C(=O)NCCCNC(=O)c1ccc(-c2c3nc(c(-c4cccc(S(=O)(=O)[O-])c4F)c4ccc([nH]4)c(-c4cccc(S(=O)(=O)[O-])c4F)c4nc(c(-c5cccc(S(=O)(=O)[O-])c5F)c5ccc2[nH]5)C=C4)C=C3)cc1
REMARK SMILES IDX 23 1 22 2 21 3 19 4 20 5 18 7 1 8 2 9 3 10 4 12 17 13 5 14
REMARK SMILES IDX 6 15 7 16 8 17 9 18 12 19 10 20 11 21 13 22 16 23 14 24
REMARK SMILES IDX 15 25 24 26 25 27 26 28 27 30 28 31 29 32 90 33 30 34 89 35
REMARK SMILES IDX 31 36 32 37 33 38 83 39 34 40 88 41 82 42 84 43 35 44 87 45
REMARK SMILES IDX 81 46 80 47 36 49 68 50 48 51 67 52 49 53 52 54 66 55 85 56
REMARK SMILES IDX 50 57 51 58 65 60 86 61 53 62 37 63 38 64 46 65 39 66 41 67
REMARK SMILES IDX 47 68 40 69 42 70 43 71 44 72 45 73 69 74 70 75 78 76 71 77
REMARK SMILES IDX 73 78 79 79 72 80 74 81 75 82 76 83 77 84 54 85 55 86 63 87
REMARK SMILES IDX 56 88 58 89 64 90 57 91 59 92 60 93 61 94 62 95
REMARK H PARENT 21 6 2 11 25 29 84 48 52 59
REMARK Flexibility Score: inf
ROOT
ATOM      1  C   UNL A   1      38.137  19.998  24.866  1.00  0.00     0.042 C 
ENDROOT
BRANCH   1   2
ATOM      2  C   UNL A   1      37.748  21.471  25.012  1.00  0.00     0.118 C 
BRANCH   2   3
ATOM      3  N   UNL A   1      37.172  22.050  23.811  1.00  0.00    -0.351 N 
ATOM      4  C   UNL A   1      36.064  22.826  23.625  1.00  0.00     0.280 C 
ATOM      5  O   UNL A   1      35.944  23.341  22.512  1.00  0.00    -0.268 OA
ATOM      6  H   UNL A   1      37.670  21.849  22.985  1.00  0.00     0.163 HD
BRANCH   4   7
ATOM      7  C   UNL A   1      35.039  23.050  24.759  1.00  0.00     0.293 C 
ATOM      8  C   UNL A   1      34.198  20.724  24.780  1.00  0.00     0.333 C 
ATOM      9  N   UNL A   1      33.861  22.134  24.707  1.00  0.00    -0.324 N 
ATOM     10  C   UNL A   1      33.029  22.402  23.514  1.00  0.00     0.284 C 
ATOM     11  H   UNL A   1      33.325  22.339  25.551  1.00  0.00     0.348 HD
ATOM     12  C   UNL A   1      32.532  23.854  23.479  1.00  0.00     0.181 C 
ATOM     13  C   UNL A   1      34.562  24.525  24.721  1.00  0.00     0.195 C 
ATOM     14  N   UNL A   1      33.621  24.814  23.631  1.00  0.00    -0.326 N 
BRANCH  14  15
ATOM     15  C   UNL A   1      33.582  25.973  22.863  1.00  0.00     0.257 C 
ATOM     16  O   UNL A   1      33.783  25.957  21.648  1.00  0.00    -0.269 OA
BRANCH  15  17
ATOM     17  C   UNL A   1      33.147  27.199  23.501  1.00  0.00     0.081 A 
ATOM     18  C   UNL A   1      33.853  28.162  24.260  1.00  0.00     0.149 A 
ATOM     19  C   UNL A   1      31.869  27.717  23.410  1.00  0.00     0.051 A 
ATOM     20  N   UNL A   1      33.064  29.156  24.695  1.00  0.00    -0.180 NA
ATOM     21  N   UNL A   1      31.886  28.888  24.108  1.00  0.00    -0.269 N 
ATOM     22  C   UNL A   1      30.663  27.236  22.686  1.00  0.00     0.057 C 
ATOM     23  C   UNL A   1      30.742  29.756  24.299  1.00  0.00     0.144 C 
ATOM     24  C   UNL A   1      29.397  27.934  23.183  1.00  0.00     0.008 C 
ATOM     25  C   UNL A   1      29.620  29.445  23.303  1.00  0.00     0.024 C 
ENDBRANCH  15  17
ENDBRANCH  14  15
ENDBRANCH   4   7
ENDBRANCH   2   3
ENDBRANCH   1   2
BRANCH   1  26
ATOM     26  C   UNL A   1      38.837  19.434  26.088  1.00  0.00     0.118 C 
BRANCH  26  27
ATOM     27  N   UNL A   1      40.160  18.886  25.793  1.00  0.00    -0.352 N 
ATOM     28  C   UNL A   1      41.369  19.564  25.796  1.00  0.00     0.251 C 
ATOM     29  H   UNL A   1      40.196  17.928  25.567  1.00  0.00     0.163 HD
ATOM     30  O   UNL A   1      42.343  19.115  25.219  1.00  0.00    -0.269 OA
BRANCH  28  31
ATOM     31  C   UNL A   1      41.438  20.846  26.524  1.00  0.00     0.039 A 
ATOM     32  C   UNL A   1      41.197  20.927  27.898  1.00  0.00     0.014 A 
ATOM     33  C   UNL A   1      41.800  21.974  25.793  1.00  0.00     0.014 A 
ATOM     34  C   UNL A   1      41.392  22.149  28.539  1.00  0.00     0.010 A 
ATOM     35  C   UNL A   1      42.173  23.113  26.450  1.00  0.00     0.010 A 
ATOM     36  C   UNL A   1      41.892  23.233  27.806  1.00  0.00    -0.014 A 
BRANCH  36  37
ATOM     37  C   UNL A   1      42.219  24.502  28.443  1.00  0.00     0.031 A 
ATOM     38  C   UNL A   1      41.211  25.577  28.228  1.00  0.00     0.074 A 
ATOM     39  C   UNL A   1      43.208  24.593  29.360  1.00  0.00     0.049 A 
ATOM     40  N   UNL A   1      41.354  26.678  27.567  1.00  0.00    -0.248 NA
ATOM     41  C   UNL A   1      39.829  25.325  28.669  1.00  0.00     0.031 C 
ATOM     42  C   UNL A   1      44.025  23.502  29.917  1.00  0.00     0.029 A 
ATOM     43  N   UNL A   1      43.578  25.654  30.125  1.00  0.00    -0.354 N 
ATOM     44  C   UNL A   1      40.151  27.369  27.728  1.00  0.00     0.074 A 
ATOM     45  C   UNL A   1      39.198  26.401  28.197  1.00  0.00     0.031 C 
ATOM     46  C   UNL A   1      44.567  23.897  31.089  1.00  0.00     0.029 A 
ATOM     47  C   UNL A   1      44.295  25.308  31.267  1.00  0.00     0.049 A 
ATOM     48  H   UNL A   1      43.357  26.585  29.892  1.00  0.00     0.167 HD
ATOM     49  C   UNL A   1      40.113  28.732  27.728  1.00  0.00     0.034 A 
ATOM     50  C   UNL A   1      44.597  26.114  32.314  1.00  0.00     0.034 A 
ATOM     51  C   UNL A   1      41.353  29.279  27.235  1.00  0.00     0.049 A 
ATOM     52  C   UNL A   1      44.431  27.508  31.849  1.00  0.00     0.074 A 
ATOM     53  C   UNL A   1      42.068  29.188  26.059  1.00  0.00     0.029 A 
ATOM     54  N   UNL A   1      42.231  29.745  28.183  1.00  0.00    -0.354 N 
ATOM     55  N   UNL A   1      45.179  28.055  30.931  1.00  0.00    -0.248 NA
ATOM     56  C   UNL A   1      43.147  28.151  32.078  1.00  0.00     0.031 C 
ATOM     57  C   UNL A   1      43.434  29.149  26.467  1.00  0.00     0.029 A 
ATOM     58  C   UNL A   1      43.479  29.295  27.856  1.00  0.00     0.049 A 
ATOM     59  H   UNL A   1      42.002  30.304  28.961  1.00  0.00     0.167 HD
ATOM     60  C   UNL A   1      44.291  28.797  30.164  1.00  0.00     0.074 A 
ATOM     61  C   UNL A   1      43.086  28.914  30.984  1.00  0.00     0.031 C 
ATOM     62  C   UNL A   1      44.505  28.985  28.829  1.00  0.00     0.034 A 
BRANCH  49  63
ATOM     63  C   UNL A   1      39.156  29.598  28.527  1.00  0.00     0.023 A 
ATOM     64  C   UNL A   1      39.355  29.641  29.928  1.00  0.00     0.012 A 
ATOM     65  C   UNL A   1      37.936  30.126  28.047  1.00  0.00     0.148 A 
ATOM     66  C   UNL A   1      38.365  30.099  30.805  1.00  0.00     0.002 A 
ATOM     67  C   UNL A   1      36.984  30.651  28.917  1.00  0.00     0.091 A 
ATOM     68  F   UNL A   1      37.612  30.015  26.758  1.00  0.00    -0.205 F 
ATOM     69  C   UNL A   1      37.178  30.606  30.299  1.00  0.00     0.022 A 
BRANCH  67  70
ATOM     70  S   UNL A   1      35.449  31.367  28.313  1.00  0.00     0.127 S 
ATOM     71  O   UNL A   1      34.837  30.222  27.645  1.00  0.00    -0.237 OA
ATOM     72  O   UNL A   1      34.801  31.779  29.558  1.00  0.00    -0.237 OA
ATOM     73  O   UNL A   1      35.844  32.475  27.452  1.00  0.00    -0.744 OA
ENDBRANCH  67  70
ENDBRANCH  49  63
BRANCH  50  74
ATOM     74  C   UNL A   1      44.776  25.781  33.745  1.00  0.00     0.023 A 
ATOM     75  C   UNL A   1      46.066  25.536  34.253  1.00  0.00     0.012 A 
ATOM     76  C   UNL A   1      43.721  25.972  34.664  1.00  0.00     0.148 A 
ATOM     77  C   UNL A   1      46.305  25.509  35.632  1.00  0.00     0.002 A 
ATOM     78  C   UNL A   1      43.961  25.942  36.034  1.00  0.00     0.091 A 
ATOM     79  F   UNL A   1      42.503  26.272  34.190  1.00  0.00    -0.205 F 
ATOM     80  C   UNL A   1      45.255  25.721  36.523  1.00  0.00     0.022 A 
BRANCH  78  81
ATOM     81  S   UNL A   1      42.669  26.242  37.249  1.00  0.00     0.127 S 
ATOM     82  O   UNL A   1      41.832  25.053  37.091  1.00  0.00    -0.237 OA
ATOM     83  O   UNL A   1      43.434  26.294  38.492  1.00  0.00    -0.237 OA
ATOM     84  O   UNL A   1      42.034  27.490  36.848  1.00  0.00    -0.744 OA
ENDBRANCH  78  81
ENDBRANCH  50  74
BRANCH  62  85
ATOM     85  C   UNL A   1      45.849  28.611  28.258  1.00  0.00     0.023 A 
ATOM     86  C   UNL A   1      46.990  29.427  28.398  1.00  0.00     0.012 A 
ATOM     87  C   UNL A   1      46.000  27.304  27.768  1.00  0.00     0.148 A 
ATOM     88  C   UNL A   1      48.257  28.946  28.053  1.00  0.00     0.002 A 
ATOM     89  C   UNL A   1      47.265  26.811  27.480  1.00  0.00     0.091 A 
ATOM     90  F   UNL A   1      44.901  26.546  27.641  1.00  0.00    -0.205 F 
ATOM     91  C   UNL A   1      48.396  27.631  27.612  1.00  0.00     0.022 A 
BRANCH  89  92
ATOM     92  S   UNL A   1      47.518  25.086  27.060  1.00  0.00     0.127 S 
ATOM     93  O   UNL A   1      46.825  24.402  28.150  1.00  0.00    -0.237 OA
ATOM     94  O   UNL A   1      46.862  24.981  25.756  1.00  0.00    -0.237 OA
ATOM     95  O   UNL A   1      48.962  24.890  27.015  1.00  0.00    -0.744 OA
ENDBRANCH  89  92
ENDBRANCH  62  85
ENDBRANCH  36  37
ENDBRANCH  28  31
ENDBRANCH  26  27
ENDBRANCH   1  26
TORSDOF 15
ENDMDL
MODEL 3
REMARK VINA RESULT:     -12.4      2.967      8.091
REMARK SMILES C[N@@H+]1CCN(C(=O)c2cnn3c2CCCC3)C[C@@H]1C(=O)NCCCNC(=O)c1ccc(-c2c3nc(c(-c4cccc(S(=O)(=O)[O-])c4F)c4ccc([nH]4)c(-c4cccc(S(=O)(=O)[O-])c4F)c4nc(c(-c5cccc(S(=O)(=O)[O-])c5F)c5ccc2[nH]5)C=C4)C=C3)cc1
REMARK SMILES IDX 23 1 22 2 21 3 19 4 20 5 18 7 1 8 2 9 3 10 4 12 17 13 5 14
REMARK SMILES IDX 6 15 7 16 8 17 9 18 12 19 10 20 11 21 13 22 16 23 14 24
REMARK SMILES IDX 15 25 24 26 25 27 26 28 27 30 28 31 29 32 90 33 30 34 89 35
REMARK SMILES IDX 31 36 32 37 33 38 83 39 34 40 88 41 82 42 84 43 35 44 87 45
REMARK SMILES IDX 81 46 80 47 36 49 68 50 48 51 67 52 49 53 52 54 66 55 85 56
REMARK SMILES IDX 50 57 51 58 65 60 86 61 53 62 37 63 38 64 46 65 39 66 41 67
REMARK SMILES IDX 47 68 40 69 42 70 43 71 44 72 45 73 69 74 70 75 78 76 71 77
REMARK SMILES IDX 73 78 79 79 72 80 74 81 75 82 76 83 77 84 54 85 55 86 63 87
REMARK SMILES IDX 56 88 58 89 64 90 57 91 59 92 60 93 61 94 62 95
REMARK H PARENT 21 6 2 11 25 29 84 48 52 59
REMARK Flexibility Score: inf
ROOT
ATOM      1  C   UNL A   1      34.044  30.369  27.387  1.00  0.00     0.042 C 
ENDROOT
BRANCH   1   2
ATOM      2  C   UNL A   1      32.611  30.420  26.853  1.00  0.00     0.118 C 
BRANCH   2   3
ATOM      3  N   UNL A   1      31.782  29.307  27.282  1.00  0.00    -0.351 N 
ATOM      4  C   UNL A   1      31.658  28.036  26.801  1.00  0.00     0.280 C 
ATOM      5  O   UNL A   1      31.023  27.249  27.505  1.00  0.00    -0.268 OA
ATOM      6  H   UNL A   1      31.210  29.504  28.059  1.00  0.00     0.163 HD
BRANCH   4   7
ATOM      7  C   UNL A   1      32.297  27.619  25.456  1.00  0.00     0.293 C 
ATOM      8  C   UNL A   1      30.655  28.804  24.036  1.00  0.00     0.333 C 
ATOM      9  N   UNL A   1      31.334  27.552  24.317  1.00  0.00    -0.324 N 
ATOM     10  C   UNL A   1      30.350  26.466  24.514  1.00  0.00     0.284 C 
ATOM     11  H   UNL A   1      31.906  27.351  23.496  1.00  0.00     0.348 HD
ATOM     12  C   UNL A   1      31.030  25.100  24.670  1.00  0.00     0.181 C 
ATOM     13  C   UNL A   1      32.996  26.246  25.638  1.00  0.00     0.195 C 
ATOM     14  N   UNL A   1      32.064  25.112  25.701  1.00  0.00    -0.326 N 
BRANCH  14  15
ATOM     15  C   UNL A   1      32.177  23.999  26.526  1.00  0.00     0.257 C 
ATOM     16  O   UNL A   1      31.317  23.715  27.360  1.00  0.00    -0.269 OA
BRANCH  15  17
ATOM     17  C   UNL A   1      33.270  23.078  26.282  1.00  0.00     0.081 A 
ATOM     18  C   UNL A   1      34.608  23.069  26.742  1.00  0.00     0.149 A 
ATOM     19  C   UNL A   1      33.161  21.912  25.550  1.00  0.00     0.051 A 
ATOM     20  N   UNL A   1      35.313  22.035  26.260  1.00  0.00    -0.180 NA
ATOM     21  N   UNL A   1      34.389  21.321  25.596  1.00  0.00    -0.269 N 
ATOM     22  C   UNL A   1      31.999  21.287  24.865  1.00  0.00     0.057 C 
ATOM     23  C   UNL A   1      34.738  20.080  24.934  1.00  0.00     0.144 C 
ATOM     24  C   UNL A   1      32.446  20.204  23.882  1.00  0.00     0.008 C 
ATOM     25  C   UNL A   1      33.493  19.287  24.522  1.00  0.00     0.024 C 
ENDBRANCH  15  17
ENDBRANCH  14  15
ENDBRANCH   4   7
ENDBRANCH   2   3
ENDBRANCH   1   2
BRANCH   1  26
ATOM     26  C   UNL A   1      34.638  31.738  27.658  1.00  0.00     0.118 C 
BRANCH  26  27
ATOM     27  N   UNL A   1      34.457  32.180  29.041  1.00  0.00    -0.352 N 
ATOM     28  C   UNL A   1      35.217  31.820  30.143  1.00  0.00     0.251 C 
ATOM     29  H   UNL A   1      33.712  32.803  29.207  1.00  0.00     0.163 HD
ATOM     30  O   UNL A   1      34.792  31.965  31.274  1.00  0.00    -0.269 OA
BRANCH  28  31
ATOM     31  C   UNL A   1      36.562  31.260  29.900  1.00  0.00     0.039 A 
ATOM     32  C   UNL A   1      37.673  32.080  29.686  1.00  0.00     0.014 A 
ATOM     33  C   UNL A   1      36.690  29.875  29.937  1.00  0.00     0.014 A 
ATOM     34  C   UNL A   1      38.929  31.485  29.577  1.00  0.00     0.010 A 
ATOM     35  C   UNL A   1      37.933  29.314  30.021  1.00  0.00     0.010 A 
ATOM     36  C   UNL A   1      39.048  30.101  29.758  1.00  0.00    -0.014 A 
BRANCH  36  37
ATOM     37  C   UNL A   1      40.345  29.439  29.765  1.00  0.00     0.031 A 
ATOM     38  C   UNL A   1      40.914  29.209  31.121  1.00  0.00     0.074 A 
ATOM     39  C   UNL A   1      40.841  28.852  28.651  1.00  0.00     0.049 A 
ATOM     40  N   UNL A   1      41.971  29.741  31.640  1.00  0.00    -0.248 NA
ATOM     41  C   UNL A   1      40.124  28.412  32.075  1.00  0.00     0.031 C 
ATOM     42  C   UNL A   1      40.183  28.704  27.342  1.00  0.00     0.029 A 
ATOM     43  N   UNL A   1      41.967  28.107  28.498  1.00  0.00    -0.354 N 
ATOM     44  C   UNL A   1      42.113  29.146  32.894  1.00  0.00     0.074 A 
ATOM     45  C   UNL A   1      40.845  28.538  33.190  1.00  0.00     0.031 C 
ATOM     46  C   UNL A   1      40.775  27.706  26.651  1.00  0.00     0.029 A 
ATOM     47  C   UNL A   1      41.954  27.282  27.377  1.00  0.00     0.049 A 
ATOM     48  H   UNL A   1      42.725  28.148  29.126  1.00  0.00     0.167 HD
ATOM     49  C   UNL A   1      43.342  28.967  33.458  1.00  0.00     0.034 A 
ATOM     50  C   UNL A   1      42.823  26.281  27.093  1.00  0.00     0.034 A 
ATOM     51  C   UNL A   1      44.343  29.734  32.758  1.00  0.00     0.049 A 
ATOM     52  C   UNL A   1      44.023  26.501  27.928  1.00  0.00     0.074 A 
ATOM     53  C   UNL A   1      44.540  31.072  32.485  1.00  0.00     0.029 A 
ATOM     54  N   UNL A   1      45.135  29.041  31.877  1.00  0.00    -0.354 N 
ATOM     55  N   UNL A   1      44.820  27.525  27.790  1.00  0.00    -0.248 NA
ATOM     56  C   UNL A   1      44.089  25.822  29.212  1.00  0.00     0.031 C 
ATOM     57  C   UNL A   1      45.065  31.097  31.159  1.00  0.00     0.029 A 
ATOM     58  C   UNL A   1      45.230  29.777  30.730  1.00  0.00     0.049 A 
ATOM     59  H   UNL A   1      45.559  28.167  32.042  1.00  0.00     0.167 HD
ATOM     60  C   UNL A   1      45.128  27.895  29.092  1.00  0.00     0.074 A 
ATOM     61  C   UNL A   1      44.750  26.746  29.914  1.00  0.00     0.031 C 
ATOM     62  C   UNL A   1      45.375  29.200  29.411  1.00  0.00     0.034 A 
BRANCH  49  63
ATOM     63  C   UNL A   1      43.750  27.819  34.364  1.00  0.00     0.023 A 
ATOM     64  C   UNL A   1      44.403  28.163  35.572  1.00  0.00     0.012 A 
ATOM     65  C   UNL A   1      43.793  26.457  33.989  1.00  0.00     0.148 A 
ATOM     66  C   UNL A   1      45.131  27.226  36.315  1.00  0.00     0.002 A 
ATOM     67  C   UNL A   1      44.454  25.513  34.771  1.00  0.00     0.091 A 
ATOM     68  F   UNL A   1      43.311  26.065  32.809  1.00  0.00    -0.205 F 
ATOM     69  C   UNL A   1      45.156  25.899  35.914  1.00  0.00     0.022 A 
BRANCH  67  70
ATOM     70  S   UNL A   1      44.475  23.771  34.327  1.00  0.00     0.127 S 
ATOM     71  O   UNL A   1      43.055  23.438  34.389  1.00  0.00    -0.237 OA
ATOM     72  O   UNL A   1      45.045  23.813  32.980  1.00  0.00    -0.237 OA
ATOM     73  O   UNL A   1      45.329  23.123  35.315  1.00  0.00    -0.744 OA
ENDBRANCH  67  70
ENDBRANCH  49  63
BRANCH  50  74
ATOM     74  C   UNL A   1      42.605  25.022  26.348  1.00  0.00     0.023 A 
ATOM     75  C   UNL A   1      43.525  24.622  25.359  1.00  0.00     0.012 A 
ATOM     76  C   UNL A   1      41.651  24.079  26.794  1.00  0.00     0.148 A 
ATOM     77  C   UNL A   1      43.513  23.318  24.850  1.00  0.00     0.002 A 
ATOM     78  C   UNL A   1      41.642  22.785  26.283  1.00  0.00     0.091 A 
ATOM     79  F   UNL A   1      40.816  24.431  27.782  1.00  0.00    -0.205 F 
ATOM     80  C   UNL A   1      42.579  22.397  25.317  1.00  0.00     0.022 A 
BRANCH  78  81
ATOM     81  S   UNL A   1      40.493  21.528  26.860  1.00  0.00     0.127 S 
ATOM     82  O   UNL A   1      40.798  21.481  28.290  1.00  0.00    -0.237 OA
ATOM     83  O   UNL A   1      39.203  22.127  26.528  1.00  0.00    -0.237 OA
ATOM     84  O   UNL A   1      40.833  20.317  26.126  1.00  0.00    -0.744 OA
ENDBRANCH  78  81
ENDBRANCH  50  74
BRANCH  62  85
ATOM     85  C   UNL A   1      45.576  30.186  28.289  1.00  0.00     0.023 A 
ATOM     86  C   UNL A   1      44.508  30.886  27.689  1.00  0.00     0.012 A 
ATOM     87  C   UNL A   1      46.893  30.571  27.997  1.00  0.00     0.148 A 
ATOM     88  C   UNL A   1      44.755  31.948  26.814  1.00  0.00     0.002 A 
ATOM     89  C   UNL A   1      47.133  31.661  27.172  1.00  0.00     0.091 A 
ATOM     90  F   UNL A   1      47.893  29.890  28.577  1.00  0.00    -0.205 F 
ATOM     91  C   UNL A   1      46.068  32.347  26.570  1.00  0.00     0.022 A 
BRANCH  89  92
ATOM     92  S   UNL A   1      48.790  32.313  26.949  1.00  0.00     0.127 S 
ATOM     93  O   UNL A   1      49.531  31.125  26.530  1.00  0.00    -0.237 OA
ATOM     94  O   UNL A   1      48.594  33.314  25.900  1.00  0.00    -0.237 OA
ATOM     95  O   UNL A   1      49.179  32.872  28.238  1.00  0.00    -0.744 OA
ENDBRANCH  89  92
ENDBRANCH  62  85
ENDBRANCH  36  37
ENDBRANCH  28  31
ENDBRANCH  26  27
ENDBRANCH   1  26
TORSDOF 15
ENDMDL
