MODEL 1
REMARK VINA RESULT:     -12.2      0.000      0.000
REMARK SMILES CC(C)(C)OC(=O)N1CCC[C@H]1C(=O)N1CCC[C@H]1C(=O)N1CCC[C@@H]1C(=O)NCCCNC(=O)c1ccc(-c2c3nc(c(-c4cccc(S(=O)(=O)[O-])c4F)c4ccc([nH]4)c(-c4cccc(S(=O)(=O)[O-])c4F)c4nc(c(-c5cccc(S(=O)(=O)[O-])c5F)c5ccc2[nH]5)C=C4)C=C3)cc1
REMARK SMILES IDX 27 1 28 2 29 3 26 5 22 6 23 7 24 8 25 9 20 10 21 11 19 12
REMARK SMILES IDX 15 13 16 14 17 15 18 16 13 17 14 18 12 19 8 20 9 21 10 22
REMARK SMILES IDX 11 23 6 24 7 25 5 26 2 27 1 28 3 29 4 30 30 31 31 32 32 33
REMARK SMILES IDX 33 34 34 35 35 37 36 38 37 39 98 40 38 41 97 42 39 43 40 44
REMARK SMILES IDX 41 45 91 46 42 47 96 48 90 49 92 50 43 51 95 52 89 53 88 54
REMARK SMILES IDX 44 56 76 57 56 58 75 59 57 60 60 61 74 62 93 63 58 64 59 65
REMARK SMILES IDX 73 67 94 68 61 69 45 70 46 71 54 72 47 73 49 74 55 75 48 76
REMARK SMILES IDX 50 77 51 78 52 79 53 80 77 81 78 82 86 83 79 84 81 85 87 86
REMARK SMILES IDX 80 87 82 88 83 89 84 90 85 91 62 92 63 93 71 94 64 95 66 96
REMARK SMILES IDX 72 97 65 98 67 99 68 100 69 101 70 102
REMARK H PARENT 29 4 33 36 92 55 60 66
REMARK Flexibility Score: inf
ROOT
ATOM      1  C   UNL A   1      32.392  29.384  24.603  1.00  0.00     0.242 C 
ATOM      2  O   UNL A   1      33.268  29.108  23.775  1.00  0.00    -0.273 OA
ATOM      3  N   UNL A   1      32.751  30.203  25.633  1.00  0.00    -0.354 N 
ATOM      4  H   UNL A   1      33.625  30.640  25.515  1.00  0.00     0.163 HD
ENDROOT
BRANCH   1   5
ATOM      5  C   UNL A   1      31.034  28.656  24.559  1.00  0.00     0.174 C 
ATOM      6  N   UNL A   1      31.133  27.207  24.436  1.00  0.00    -0.329 N 
ATOM      7  C   UNL A   1      30.176  26.718  23.462  1.00  0.00     0.120 C 
ATOM      8  C   UNL A   1      29.990  27.872  22.495  1.00  0.00     0.024 C 
ATOM      9  C   UNL A   1      30.197  29.116  23.355  1.00  0.00     0.037 C 
BRANCH   6  10
ATOM     10  C   UNL A   1      31.560  26.441  25.518  1.00  0.00     0.246 C 
ATOM     11  O   UNL A   1      31.081  26.559  26.642  1.00  0.00    -0.272 OA
BRANCH  10  12
ATOM     12  C   UNL A   1      32.659  25.411  25.148  1.00  0.00     0.174 C 
ATOM     13  N   UNL A   1      32.224  24.129  24.560  1.00  0.00    -0.329 N 
ATOM     14  C   UNL A   1      32.598  24.097  23.161  1.00  0.00     0.120 C 
ATOM     15  C   UNL A   1      33.878  24.904  23.113  1.00  0.00     0.024 C 
ATOM     16  C   UNL A   1      33.621  26.016  24.113  1.00  0.00     0.037 C 
BRANCH  13  17
ATOM     17  C   UNL A   1      31.589  23.188  25.361  1.00  0.00     0.246 C 
ATOM     18  O   UNL A   1      30.418  23.400  25.698  1.00  0.00    -0.272 OA
BRANCH  17  19
ATOM     19  C   UNL A   1      32.411  22.049  26.073  1.00  0.00     0.178 C 
ATOM     20  N   UNL A   1      33.465  21.378  25.275  1.00  0.00    -0.296 N 
ATOM     21  C   UNL A   1      34.748  21.407  25.956  1.00  0.00     0.124 C 
ATOM     22  C   UNL A   1      34.343  21.459  27.412  1.00  0.00     0.024 C 
ATOM     23  C   UNL A   1      33.165  22.418  27.356  1.00  0.00     0.037 C 
BRANCH  20  24
ATOM     24  C   UNL A   1      33.181  20.496  24.251  1.00  0.00     0.410 C 
ATOM     25  O   UNL A   1      32.229  20.606  23.492  1.00  0.00    -0.224 OA
BRANCH  24  26
ATOM     26  O   UNL A   1      34.052  19.453  24.256  1.00  0.00    -0.444 OA
BRANCH  26  27
ATOM     27  C   UNL A   1      33.683  18.062  24.462  1.00  0.00     0.106 C 
ATOM     28  C   UNL A   1      33.029  17.627  23.139  1.00  0.00     0.056 C 
ATOM     29  C   UNL A   1      32.637  18.024  25.577  1.00  0.00     0.056 C 
ATOM     30  C   UNL A   1      34.846  17.110  24.754  1.00  0.00     0.056 C 
ENDBRANCH  26  27
ENDBRANCH  24  26
ENDBRANCH  20  24
ENDBRANCH  17  19
ENDBRANCH  13  17
ENDBRANCH  10  12
ENDBRANCH   6  10
ENDBRANCH   1   5
BRANCH   3  31
ATOM     31  C   UNL A   1      32.077  30.545  26.870  1.00  0.00     0.117 C 
BRANCH  31  32
ATOM     32  C   UNL A   1      31.782  32.032  26.973  1.00  0.00     0.042 C 
BRANCH  32  33
ATOM     33  C   UNL A   1      33.038  32.870  27.146  1.00  0.00     0.118 C 
BRANCH  33  34
ATOM     34  N   UNL A   1      32.739  34.204  27.660  1.00  0.00    -0.352 N 
ATOM     35  C   UNL A   1      33.188  34.832  28.795  1.00  0.00     0.251 C 
ATOM     36  H   UNL A   1      32.121  34.734  27.107  1.00  0.00     0.163 HD
ATOM     37  O   UNL A   1      32.634  35.858  29.182  1.00  0.00    -0.269 OA
BRANCH  35  38
ATOM     38  C   UNL A   1      34.330  34.273  29.549  1.00  0.00     0.039 A 
ATOM     39  C   UNL A   1      34.084  33.453  30.653  1.00  0.00     0.014 A 
ATOM     40  C   UNL A   1      35.643  34.579  29.183  1.00  0.00     0.014 A 
ATOM     41  C   UNL A   1      35.156  32.894  31.351  1.00  0.00     0.010 A 
ATOM     42  C   UNL A   1      36.705  33.946  29.817  1.00  0.00     0.010 A 
ATOM     43  C   UNL A   1      36.474  33.113  30.919  1.00  0.00    -0.014 A 
BRANCH  43  44
ATOM     44  C   UNL A   1      37.631  32.491  31.606  1.00  0.00     0.031 A 
ATOM     45  C   UNL A   1      38.377  31.359  30.953  1.00  0.00     0.074 A 
ATOM     46  C   UNL A   1      37.947  32.878  32.857  1.00  0.00     0.049 A 
ATOM     47  N   UNL A   1      39.373  30.651  31.416  1.00  0.00    -0.248 NA
ATOM     48  C   UNL A   1      37.922  30.948  29.613  1.00  0.00     0.031 C 
ATOM     49  C   UNL A   1      37.247  33.910  33.625  1.00  0.00     0.029 A 
ATOM     50  N   UNL A   1      38.924  32.434  33.711  1.00  0.00    -0.354 N 
ATOM     51  C   UNL A   1      39.635  29.688  30.449  1.00  0.00     0.074 A 
ATOM     52  C   UNL A   1      38.665  29.874  29.393  1.00  0.00     0.031 C 
ATOM     53  C   UNL A   1      37.830  34.035  34.827  1.00  0.00     0.029 A 
ATOM     54  C   UNL A   1      38.923  33.073  34.928  1.00  0.00     0.049 A 
ATOM     55  H   UNL A   1      39.564  31.725  33.475  1.00  0.00     0.167 HD
ATOM     56  C   UNL A   1      40.617  28.754  30.423  1.00  0.00     0.034 A 
ATOM     57  C   UNL A   1      39.717  32.904  36.003  1.00  0.00     0.034 A 
ATOM     58  C   UNL A   1      41.606  28.605  31.455  1.00  0.00     0.049 A 
ATOM     59  C   UNL A   1      40.821  31.883  35.938  1.00  0.00     0.074 A 
ATOM     60  C   UNL A   1      42.699  27.758  31.487  1.00  0.00     0.029 A 
ATOM     61  N   UNL A   1      41.617  29.318  32.646  1.00  0.00    -0.354 N 
ATOM     62  N   UNL A   1      41.156  31.091  34.949  1.00  0.00    -0.248 NA
ATOM     63  C   UNL A   1      41.676  31.758  37.126  1.00  0.00     0.031 C 
ATOM     64  C   UNL A   1      43.359  27.945  32.708  1.00  0.00     0.029 A 
ATOM     65  C   UNL A   1      42.690  28.924  33.426  1.00  0.00     0.049 A 
ATOM     66  H   UNL A   1      40.956  30.003  32.898  1.00  0.00     0.167 HD
ATOM     67  C   UNL A   1      42.283  30.400  35.379  1.00  0.00     0.074 A 
ATOM     68  C   UNL A   1      42.581  30.881  36.713  1.00  0.00     0.031 C 
ATOM     69  C   UNL A   1      43.000  29.448  34.732  1.00  0.00     0.034 A 
BRANCH  56  70
ATOM     70  C   UNL A   1      40.690  27.862  29.209  1.00  0.00     0.023 A 
ATOM     71  C   UNL A   1      39.842  26.739  29.119  1.00  0.00     0.012 A 
ATOM     72  C   UNL A   1      41.581  28.137  28.153  1.00  0.00     0.148 A 
ATOM     73  C   UNL A   1      39.916  25.874  28.028  1.00  0.00     0.002 A 
ATOM     74  C   UNL A   1      41.615  27.296  27.045  1.00  0.00     0.091 A 
ATOM     75  F   UNL A   1      42.400  29.193  28.262  1.00  0.00    -0.205 F 
ATOM     76  C   UNL A   1      40.796  26.157  26.987  1.00  0.00     0.022 A 
BRANCH  74  77
ATOM     77  S   UNL A   1      42.659  27.628  25.621  1.00  0.00     0.127 S 
ATOM     78  O   UNL A   1      42.479  26.411  24.832  1.00  0.00    -0.237 OA
ATOM     79  O   UNL A   1      42.035  28.822  25.049  1.00  0.00    -0.237 OA
ATOM     80  O   UNL A   1      43.996  27.846  26.154  1.00  0.00    -0.744 OA
ENDBRANCH  74  77
ENDBRANCH  56  70
BRANCH  57  81
ATOM     81  C   UNL A   1      39.562  33.799  37.183  1.00  0.00     0.023 A 
ATOM     82  C   UNL A   1      40.005  35.133  37.088  1.00  0.00     0.012 A 
ATOM     83  C   UNL A   1      38.935  33.366  38.368  1.00  0.00     0.148 A 
ATOM     84  C   UNL A   1      39.847  36.014  38.158  1.00  0.00     0.002 A 
ATOM     85  C   UNL A   1      38.735  34.262  39.411  1.00  0.00     0.091 A 
ATOM     86  F   UNL A   1      38.524  32.092  38.438  1.00  0.00    -0.205 F 
ATOM     87  C   UNL A   1      39.205  35.582  39.315  1.00  0.00     0.022 A 
BRANCH  85  88
ATOM     88  S   UNL A   1      37.806  33.839  40.889  1.00  0.00     0.127 S 
ATOM     89  O   UNL A   1      37.638  35.145  41.521  1.00  0.00    -0.237 OA
ATOM     90  O   UNL A   1      36.584  33.268  40.321  1.00  0.00    -0.237 OA
ATOM     91  O   UNL A   1      38.632  32.888  41.619  1.00  0.00    -0.744 OA
ENDBRANCH  85  88
ENDBRANCH  57  81
BRANCH  69  92
ATOM     92  C   UNL A   1      44.200  28.879  35.442  1.00  0.00     0.023 A 
ATOM     93  C   UNL A   1      45.470  29.458  35.247  1.00  0.00     0.012 A 
ATOM     94  C   UNL A   1      44.057  27.819  36.359  1.00  0.00     0.148 A 
ATOM     95  C   UNL A   1      46.583  28.971  35.930  1.00  0.00     0.002 A 
ATOM     96  C   UNL A   1      45.162  27.371  37.073  1.00  0.00     0.091 A 
ATOM     97  F   UNL A   1      42.844  27.268  36.517  1.00  0.00    -0.205 F 
ATOM     98  C   UNL A   1      46.427  27.937  36.852  1.00  0.00     0.022 A 
BRANCH  96  99
ATOM     99  S   UNL A   1      45.036  26.112  38.349  1.00  0.00     0.127 S 
ATOM    100  O   UNL A   1      44.083  26.720  39.275  1.00  0.00    -0.237 OA
ATOM    101  O   UNL A   1      44.517  24.965  37.603  1.00  0.00    -0.237 OA
ATOM    102  O   UNL A   1      46.386  25.932  38.867  1.00  0.00    -0.744 OA
ENDBRANCH  96  99
ENDBRANCH  69  92
ENDBRANCH  43  44
ENDBRANCH  35  38
ENDBRANCH  33  34
ENDBRANCH  32  33
ENDBRANCH  31  32
ENDBRANCH   3  31
TORSDOF 20
ENDMDL
MODEL 2
REMARK VINA RESULT:     -12.0      1.183      2.037
REMARK SMILES CC(C)(C)OC(=O)N1CCC[C@H]1C(=O)N1CCC[C@H]1C(=O)N1CCC[C@@H]1C(=O)NCCCNC(=O)c1ccc(-c2c3nc(c(-c4cccc(S(=O)(=O)[O-])c4F)c4ccc([nH]4)c(-c4cccc(S(=O)(=O)[O-])c4F)c4nc(c(-c5cccc(S(=O)(=O)[O-])c5F)c5ccc2[nH]5)C=C4)C=C3)cc1
REMARK SMILES IDX 27 1 28 2 29 3 26 5 22 6 23 7 24 8 25 9 20 10 21 11 19 12
REMARK SMILES IDX 15 13 16 14 17 15 18 16 13 17 14 18 12 19 8 20 9 21 10 22
REMARK SMILES IDX 11 23 6 24 7 25 5 26 2 27 1 28 3 29 4 30 30 31 31 32 32 33
REMARK SMILES IDX 33 34 34 35 35 37 36 38 37 39 98 40 38 41 97 42 39 43 40 44
REMARK SMILES IDX 41 45 91 46 42 47 96 48 90 49 92 50 43 51 95 52 89 53 88 54
REMARK SMILES IDX 44 56 76 57 56 58 75 59 57 60 60 61 74 62 93 63 58 64 59 65
REMARK SMILES IDX 73 67 94 68 61 69 45 70 46 71 54 72 47 73 49 74 55 75 48 76
REMARK SMILES IDX 50 77 51 78 52 79 53 80 77 81 78 82 86 83 79 84 81 85 87 86
REMARK SMILES IDX 80 87 82 88 83 89 84 90 85 91 62 92 63 93 71 94 64 95 66 96
REMARK SMILES IDX 72 97 65 98 67 99 68 100 69 101 70 102
REMARK H PARENT 29 4 33 36 92 55 60 66
REMARK Flexibility Score: inf
ROOT
ATOM      1  C   UNL A   1      32.580  29.287  24.836  1.00  0.00     0.242 C 
ATOM      2  O   UNL A   1      33.357  28.813  24.001  1.00  0.00    -0.273 OA
ATOM      3  N   UNL A   1      33.134  29.960  25.885  1.00  0.00    -0.354 N 
ATOM      4  H   UNL A   1      34.093  30.156  25.777  1.00  0.00     0.163 HD
ENDROOT
BRANCH   1   5
ATOM      5  C   UNL A   1      31.079  28.940  24.776  1.00  0.00     0.174 C 
ATOM      6  N   UNL A   1      30.794  27.511  24.723  1.00  0.00    -0.329 N 
ATOM      7  C   UNL A   1      29.765  27.240  23.738  1.00  0.00     0.120 C 
ATOM      8  C   UNL A   1      29.912  28.348  22.714  1.00  0.00     0.024 C 
ATOM      9  C   UNL A   1      30.421  29.539  23.523  1.00  0.00     0.037 C 
BRANCH   6  10
ATOM     10  C   UNL A   1      30.979  26.719  25.853  1.00  0.00     0.246 C 
ATOM     11  O   UNL A   1      30.968  27.178  26.991  1.00  0.00    -0.272 OA
BRANCH  10  12
ATOM     12  C   UNL A   1      31.158  25.213  25.527  1.00  0.00     0.174 C 
ATOM     13  N   UNL A   1      32.411  24.564  25.959  1.00  0.00    -0.329 N 
ATOM     14  C   UNL A   1      32.124  23.656  27.050  1.00  0.00     0.120 C 
ATOM     15  C   UNL A   1      30.726  23.161  26.748  1.00  0.00     0.024 C 
ATOM     16  C   UNL A   1      30.038  24.395  26.191  1.00  0.00     0.037 C 
BRANCH  13  17
ATOM     17  C   UNL A   1      33.598  24.863  25.303  1.00  0.00     0.246 C 
ATOM     18  O   UNL A   1      34.228  25.866  25.660  1.00  0.00    -0.272 OA
BRANCH  17  19
ATOM     19  C   UNL A   1      33.980  24.141  23.956  1.00  0.00     0.178 C 
ATOM     20  N   UNL A   1      33.714  22.685  23.873  1.00  0.00    -0.296 N 
ATOM     21  C   UNL A   1      32.915  22.357  22.705  1.00  0.00     0.124 C 
ATOM     22  C   UNL A   1      33.280  23.460  21.738  1.00  0.00     0.024 C 
ATOM     23  C   UNL A   1      33.331  24.661  22.668  1.00  0.00     0.037 C 
BRANCH  20  24
ATOM     24  C   UNL A   1      34.463  21.748  24.555  1.00  0.00     0.410 C 
ATOM     25  O   UNL A   1      34.199  20.555  24.598  1.00  0.00    -0.224 OA
BRANCH  24  26
ATOM     26  O   UNL A   1      35.480  22.342  25.234  1.00  0.00    -0.444 OA
BRANCH  26  27
ATOM     27  C   UNL A   1      36.854  22.422  24.769  1.00  0.00     0.106 C 
ATOM     28  C   UNL A   1      37.441  23.656  25.478  1.00  0.00     0.056 C 
ATOM     29  C   UNL A   1      36.815  22.680  23.261  1.00  0.00     0.056 C 
ATOM     30  C   UNL A   1      37.734  21.216  25.106  1.00  0.00     0.056 C 
ENDBRANCH  26  27
ENDBRANCH  24  26
ENDBRANCH  20  24
ENDBRANCH  17  19
ENDBRANCH  13  17
ENDBRANCH  10  12
ENDBRANCH   6  10
ENDBRANCH   1   5
BRANCH   3  31
ATOM     31  C   UNL A   1      32.566  30.435  27.131  1.00  0.00     0.117 C 
BRANCH  31  32
ATOM     32  C   UNL A   1      32.080  31.871  27.030  1.00  0.00     0.042 C 
BRANCH  32  33
ATOM     33  C   UNL A   1      33.215  32.882  27.072  1.00  0.00     0.118 C 
BRANCH  33  34
ATOM     34  N   UNL A   1      32.803  34.143  27.681  1.00  0.00    -0.352 N 
ATOM     35  C   UNL A   1      33.171  34.706  28.878  1.00  0.00     0.251 C 
ATOM     36  H   UNL A   1      32.163  34.672  27.152  1.00  0.00     0.163 HD
ATOM     37  O   UNL A   1      32.531  35.653  29.328  1.00  0.00    -0.269 OA
BRANCH  35  38
ATOM     38  C   UNL A   1      34.330  34.170  29.624  1.00  0.00     0.039 A 
ATOM     39  C   UNL A   1      34.116  33.519  30.842  1.00  0.00     0.014 A 
ATOM     40  C   UNL A   1      35.628  34.331  29.135  1.00  0.00     0.014 A 
ATOM     41  C   UNL A   1      35.201  32.981  31.537  1.00  0.00     0.010 A 
ATOM     42  C   UNL A   1      36.693  33.713  29.777  1.00  0.00     0.010 A 
ATOM     43  C   UNL A   1      36.493  33.048  30.994  1.00  0.00    -0.014 A 
BRANCH  43  44
ATOM     44  C   UNL A   1      37.659  32.440  31.680  1.00  0.00     0.031 A 
ATOM     45  C   UNL A   1      38.405  31.304  31.036  1.00  0.00     0.074 A 
ATOM     46  C   UNL A   1      37.980  32.844  32.924  1.00  0.00     0.049 A 
ATOM     47  N   UNL A   1      39.408  30.606  31.501  1.00  0.00    -0.248 NA
ATOM     48  C   UNL A   1      37.943  30.874  29.705  1.00  0.00     0.031 C 
ATOM     49  C   UNL A   1      37.281  33.882  33.685  1.00  0.00     0.029 A 
ATOM     50  N   UNL A   1      38.965  32.415  33.778  1.00  0.00    -0.354 N 
ATOM     51  C   UNL A   1      39.668  29.632  30.544  1.00  0.00     0.074 A 
ATOM     52  C   UNL A   1      38.690  29.801  29.493  1.00  0.00     0.031 C 
ATOM     53  C   UNL A   1      37.871  34.024  34.881  1.00  0.00     0.029 A 
ATOM     54  C   UNL A   1      38.969  33.069  34.987  1.00  0.00     0.049 A 
ATOM     55  H   UNL A   1      39.607  31.706  33.546  1.00  0.00     0.167 HD
ATOM     56  C   UNL A   1      40.654  28.703  30.523  1.00  0.00     0.034 A 
ATOM     57  C   UNL A   1      39.771  32.917  36.058  1.00  0.00     0.034 A 
ATOM     58  C   UNL A   1      41.650  28.571  31.550  1.00  0.00     0.049 A 
ATOM     59  C   UNL A   1      40.879  31.901  35.999  1.00  0.00     0.074 A 
ATOM     60  C   UNL A   1      42.748  27.730  31.586  1.00  0.00     0.029 A 
ATOM     61  N   UNL A   1      41.666  29.298  32.733  1.00  0.00    -0.354 N 
ATOM     62  N   UNL A   1      41.212  31.098  35.017  1.00  0.00    -0.248 NA
ATOM     63  C   UNL A   1      41.742  31.794  37.183  1.00  0.00     0.031 C 
ATOM     64  C   UNL A   1      43.415  27.935  32.800  1.00  0.00     0.029 A 
ATOM     65  C   UNL A   1      42.746  28.919  33.510  1.00  0.00     0.049 A 
ATOM     66  H   UNL A   1      41.004  29.984  32.981  1.00  0.00     0.167 HD
ATOM     67  C   UNL A   1      42.345  30.418  35.448  1.00  0.00     0.074 A 
ATOM     68  C   UNL A   1      42.649  30.916  36.774  1.00  0.00     0.031 C 
ATOM     69  C   UNL A   1      43.062  29.461  34.808  1.00  0.00     0.034 A 
BRANCH  56  70
ATOM     70  C   UNL A   1      40.724  27.797  29.320  1.00  0.00     0.023 A 
ATOM     71  C   UNL A   1      39.885  26.665  29.252  1.00  0.00     0.012 A 
ATOM     72  C   UNL A   1      41.602  28.066  28.252  1.00  0.00     0.148 A 
ATOM     73  C   UNL A   1      39.957  25.786  28.172  1.00  0.00     0.002 A 
ATOM     74  C   UNL A   1      41.633  27.211  27.155  1.00  0.00     0.091 A 
ATOM     75  F   UNL A   1      42.412  29.131  28.340  1.00  0.00    -0.205 F 
ATOM     76  C   UNL A   1      40.824  26.065  27.119  1.00  0.00     0.022 A 
BRANCH  74  77
ATOM     77  S   UNL A   1      42.660  27.535  25.716  1.00  0.00     0.127 S 
ATOM     78  O   UNL A   1      44.003  27.388  26.273  1.00  0.00    -0.237 OA
ATOM     79  O   UNL A   1      42.260  26.466  24.801  1.00  0.00    -0.237 OA
ATOM     80  O   UNL A   1      42.301  28.874  25.270  1.00  0.00    -0.744 OA
ENDBRANCH  74  77
ENDBRANCH  56  70
BRANCH  57  81
ATOM     81  C   UNL A   1      39.619  33.825  37.228  1.00  0.00     0.023 A 
ATOM     82  C   UNL A   1      40.049  35.162  37.112  1.00  0.00     0.012 A 
ATOM     83  C   UNL A   1      39.008  33.402  38.425  1.00  0.00     0.148 A 
ATOM     84  C   UNL A   1      39.894  36.055  38.172  1.00  0.00     0.002 A 
ATOM     85  C   UNL A   1      38.811  34.310  39.458  1.00  0.00     0.091 A 
ATOM     86  F   UNL A   1      38.610  32.125  38.515  1.00  0.00    -0.205 F 
ATOM     87  C   UNL A   1      39.267  35.632  39.341  1.00  0.00     0.022 A 
BRANCH  85  88
ATOM     88  S   UNL A   1      37.900  33.897  40.951  1.00  0.00     0.127 S 
ATOM     89  O   UNL A   1      37.923  35.165  41.676  1.00  0.00    -0.237 OA
ATOM     90  O   UNL A   1      36.593  33.520  40.410  1.00  0.00    -0.237 OA
ATOM     91  O   UNL A   1      38.632  32.803  41.573  1.00  0.00    -0.744 OA
ENDBRANCH  85  88
ENDBRANCH  57  81
BRANCH  69  92
ATOM     92  C   UNL A   1      44.269  28.906  35.517  1.00  0.00     0.023 A 
ATOM     93  C   UNL A   1      45.528  29.514  35.337  1.00  0.00     0.012 A 
ATOM     94  C   UNL A   1      44.143  27.831  36.419  1.00  0.00     0.148 A 
ATOM     95  C   UNL A   1      46.648  29.040  36.021  1.00  0.00     0.002 A 
ATOM     96  C   UNL A   1      45.253  27.396  37.133  1.00  0.00     0.091 A 
ATOM     97  F   UNL A   1      42.941  27.253  36.561  1.00  0.00    -0.205 F 
ATOM     98  C   UNL A   1      46.507  27.990  36.926  1.00  0.00     0.022 A 
BRANCH  96  99
ATOM     99  S   UNL A   1      45.146  26.116  38.390  1.00  0.00     0.127 S 
ATOM    100  O   UNL A   1      46.532  26.027  38.843  1.00  0.00    -0.237 OA
ATOM    101  O   UNL A   1      44.223  26.708  39.358  1.00  0.00    -0.237 OA
ATOM    102  O   UNL A   1      44.631  24.933  37.713  1.00  0.00    -0.744 OA
ENDBRANCH  96  99
ENDBRANCH  69  92
ENDBRANCH  43  44
ENDBRANCH  35  38
ENDBRANCH  33  34
ENDBRANCH  32  33
ENDBRANCH  31  32
ENDBRANCH   3  31
TORSDOF 20
ENDMDL
MODEL 3
REMARK VINA RESULT:     -11.9      1.833      7.614
REMARK SMILES CC(C)(C)OC(=O)N1CCC[C@H]1C(=O)N1CCC[C@H]1C(=O)N1CCC[C@@H]1C(=O)NCCCNC(=O)c1ccc(-c2c3nc(c(-c4cccc(S(=O)(=O)[O-])c4F)c4ccc([nH]4)c(-c4cccc(S(=O)(=O)[O-])c4F)c4nc(c(-c5cccc(S(=O)(=O)[O-])c5F)c5ccc2[nH]5)C=C4)C=C3)cc1
REMARK SMILES IDX 27 1 28 2 29 3 26 5 22 6 23 7 24 8 25 9 20 10 21 11 19 12
REMARK SMILES IDX 15 13 16 14 17 15 18 16 13 17 14 18 12 19 8 20 9 21 10 22
REMARK SMILES IDX 11 23 6 24 7 25 5 26 2 27 1 28 3 29 4 30 30 31 31 32 32 33
REMARK SMILES IDX 33 34 34 35 35 37 36 38 37 39 98 40 38 41 97 42 39 43 40 44
REMARK SMILES IDX 41 45 91 46 42 47 96 48 90 49 92 50 43 51 95 52 89 53 88 54
REMARK SMILES IDX 44 56 76 57 56 58 75 59 57 60 60 61 74 62 93 63 58 64 59 65
REMARK SMILES IDX 73 67 94 68 61 69 45 70 46 71 54 72 47 73 49 74 55 75 48 76
REMARK SMILES IDX 50 77 51 78 52 79 53 80 77 81 78 82 86 83 79 84 81 85 87 86
REMARK SMILES IDX 80 87 82 88 83 89 84 90 85 91 62 92 63 93 71 94 64 95 66 96
REMARK SMILES IDX 72 97 65 98 67 99 68 100 69 101 70 102
REMARK H PARENT 29 4 33 36 92 55 60 66
REMARK Flexibility Score: inf
ROOT
ATOM      1  C   UNL A   1      33.133  28.876  23.877  1.00  0.00     0.242 C 
ATOM      2  O   UNL A   1      33.861  29.115  22.906  1.00  0.00    -0.273 OA
ATOM      3  N   UNL A   1      32.142  29.775  24.142  1.00  0.00    -0.354 N 
ATOM      4  H   UNL A   1      31.990  30.432  23.425  1.00  0.00     0.163 HD
ENDROOT
BRANCH   1   5
ATOM      5  C   UNL A   1      33.486  27.726  24.840  1.00  0.00     0.174 C 
ATOM      6  N   UNL A   1      32.381  26.816  25.118  1.00  0.00    -0.329 N 
ATOM      7  C   UNL A   1      32.327  26.509  26.535  1.00  0.00     0.120 C 
ATOM      8  C   UNL A   1      32.914  27.731  27.214  1.00  0.00     0.024 C 
ATOM      9  C   UNL A   1      33.931  28.265  26.209  1.00  0.00     0.037 C 
BRANCH   6  10
ATOM     10  C   UNL A   1      31.946  25.925  24.141  1.00  0.00     0.246 C 
ATOM     11  O   UNL A   1      30.806  25.470  24.120  1.00  0.00    -0.272 OA
BRANCH  10  12
ATOM     12  C   UNL A   1      33.026  25.603  23.075  1.00  0.00     0.174 C 
ATOM     13  N   UNL A   1      33.475  24.203  22.957  1.00  0.00    -0.329 N 
ATOM     14  C   UNL A   1      32.975  23.647  21.716  1.00  0.00     0.120 C 
ATOM     15  C   UNL A   1      32.949  24.832  20.776  1.00  0.00     0.024 C 
ATOM     16  C   UNL A   1      32.511  25.974  21.675  1.00  0.00     0.037 C 
BRANCH  13  17
ATOM     17  C   UNL A   1      34.271  23.652  23.953  1.00  0.00     0.246 C 
ATOM     18  O   UNL A   1      35.451  23.396  23.685  1.00  0.00    -0.272 OA
BRANCH  17  19
ATOM     19  C   UNL A   1      33.632  23.087  25.277  1.00  0.00     0.178 C 
ATOM     20  N   UNL A   1      33.691  21.621  25.482  1.00  0.00    -0.296 N 
ATOM     21  C   UNL A   1      34.286  21.287  26.765  1.00  0.00     0.124 C 
ATOM     22  C   UNL A   1      33.950  22.497  27.606  1.00  0.00     0.024 C 
ATOM     23  C   UNL A   1      34.175  23.621  26.608  1.00  0.00     0.037 C 
BRANCH  20  24
ATOM     24  C   UNL A   1      32.917  20.733  24.762  1.00  0.00     0.410 C 
ATOM     25  O   UNL A   1      31.697  20.770  24.707  1.00  0.00    -0.224 OA
BRANCH  24  26
ATOM     26  O   UNL A   1      33.689  19.769  24.192  1.00  0.00    -0.444 OA
BRANCH  26  27
ATOM     27  C   UNL A   1      33.463  18.340  24.318  1.00  0.00     0.106 C 
ATOM     28  C   UNL A   1      34.868  17.714  24.318  1.00  0.00     0.056 C 
ATOM     29  C   UNL A   1      32.709  17.882  23.068  1.00  0.00     0.056 C 
ATOM     30  C   UNL A   1      32.744  17.898  25.596  1.00  0.00     0.056 C 
ENDBRANCH  26  27
ENDBRANCH  24  26
ENDBRANCH  20  24
ENDBRANCH  17  19
ENDBRANCH  13  17
ENDBRANCH  10  12
ENDBRANCH   6  10
ENDBRANCH   1   5
BRANCH   3  31
ATOM     31  C   UNL A   1      31.273  29.937  25.290  1.00  0.00     0.117 C 
BRANCH  31  32
ATOM     32  C   UNL A   1      31.244  31.371  25.792  1.00  0.00     0.042 C 
BRANCH  32  33
ATOM     33  C   UNL A   1      32.364  31.675  26.772  1.00  0.00     0.118 C 
BRANCH  33  34
ATOM     34  N   UNL A   1      32.473  33.103  27.054  1.00  0.00    -0.352 N 
ATOM     35  C   UNL A   1      33.323  33.773  27.899  1.00  0.00     0.251 C 
ATOM     36  H   UNL A   1      31.840  33.674  26.562  1.00  0.00     0.163 HD
ATOM     37  O   UNL A   1      33.098  34.947  28.183  1.00  0.00    -0.269 OA
BRANCH  35  38
ATOM     38  C   UNL A   1      34.501  33.083  28.466  1.00  0.00     0.039 A 
ATOM     39  C   UNL A   1      35.758  33.685  28.367  1.00  0.00     0.014 A 
ATOM     40  C   UNL A   1      34.369  31.832  29.074  1.00  0.00     0.014 A 
ATOM     41  C   UNL A   1      36.871  33.056  28.929  1.00  0.00     0.010 A 
ATOM     42  C   UNL A   1      35.457  31.255  29.715  1.00  0.00     0.010 A 
ATOM     43  C   UNL A   1      36.722  31.851  29.634  1.00  0.00    -0.014 A 
BRANCH  43  44
ATOM     44  C   UNL A   1      37.875  31.185  30.288  1.00  0.00     0.031 A 
ATOM     45  C   UNL A   1      38.242  31.533  31.704  1.00  0.00     0.074 A 
ATOM     46  C   UNL A   1      38.647  30.343  29.574  1.00  0.00     0.049 A 
ATOM     47  N   UNL A   1      39.245  31.105  32.426  1.00  0.00    -0.248 NA
ATOM     48  C   UNL A   1      37.388  32.518  32.391  1.00  0.00     0.031 C 
ATOM     49  C   UNL A   1      38.437  29.988  28.168  1.00  0.00     0.029 A 
ATOM     50  N   UNL A   1      39.777  29.649  29.926  1.00  0.00    -0.354 N 
ATOM     51  C   UNL A   1      39.167  31.795  33.630  1.00  0.00     0.074 A 
ATOM     52  C   UNL A   1      38.047  32.703  33.525  1.00  0.00     0.031 C 
ATOM     53  C   UNL A   1      39.393  29.128  27.786  1.00  0.00     0.029 A 
ATOM     54  C   UNL A   1      40.299  28.893  28.904  1.00  0.00     0.049 A 
ATOM     55  H   UNL A   1      40.175  29.690  30.825  1.00  0.00     0.167 HD
ATOM     56  C   UNL A   1      39.936  31.663  34.737  1.00  0.00     0.034 A 
ATOM     57  C   UNL A   1      41.386  28.097  28.875  1.00  0.00     0.034 A 
ATOM     58  C   UNL A   1      41.020  30.725  34.850  1.00  0.00     0.049 A 
ATOM     59  C   UNL A   1      42.206  27.940  30.127  1.00  0.00     0.074 A 
ATOM     60  C   UNL A   1      41.803  30.441  35.954  1.00  0.00     0.029 A 
ATOM     61  N   UNL A   1      41.480  29.923  33.815  1.00  0.00    -0.354 N 
ATOM     62  N   UNL A   1      42.022  28.479  31.308  1.00  0.00    -0.248 NA
ATOM     63  C   UNL A   1      43.364  27.040  30.050  1.00  0.00     0.031 C 
ATOM     64  C   UNL A   1      42.751  29.480  35.579  1.00  0.00     0.029 A 
ATOM     65  C   UNL A   1      42.543  29.150  34.249  1.00  0.00     0.049 A 
ATOM     66  H   UNL A   1      41.105  29.907  32.905  1.00  0.00     0.167 HD
ATOM     67  C   UNL A   1      43.016  27.955  32.126  1.00  0.00     0.074 A 
ATOM     68  C   UNL A   1      43.790  27.044  31.307  1.00  0.00     0.031 C 
ATOM     69  C   UNL A   1      43.272  28.212  33.433  1.00  0.00     0.034 A 
BRANCH  56  70
ATOM     70  C   UNL A   1      39.588  32.521  35.927  1.00  0.00     0.023 A 
ATOM     71  C   UNL A   1      40.207  33.779  36.082  1.00  0.00     0.012 A 
ATOM     72  C   UNL A   1      38.644  32.096  36.883  1.00  0.00     0.148 A 
ATOM     73  C   UNL A   1      39.935  34.575  37.194  1.00  0.00     0.002 A 
ATOM     74  C   UNL A   1      38.343  32.918  37.964  1.00  0.00     0.091 A 
ATOM     75  F   UNL A   1      38.082  30.888  36.738  1.00  0.00    -0.205 F 
ATOM     76  C   UNL A   1      38.997  34.149  38.130  1.00  0.00     0.022 A 
BRANCH  74  77
ATOM     77  S   UNL A   1      37.087  32.488  39.175  1.00  0.00     0.127 S 
ATOM     78  O   UNL A   1      37.451  31.110  39.501  1.00  0.00    -0.237 OA
ATOM     79  O   UNL A   1      37.340  33.454  40.244  1.00  0.00    -0.237 OA
ATOM     80  O   UNL A   1      35.810  32.662  38.497  1.00  0.00    -0.744 OA
ENDBRANCH  74  77
ENDBRANCH  56  70
BRANCH  57  81
ATOM     81  C   UNL A   1      41.689  27.307  27.650  1.00  0.00     0.023 A 
ATOM     82  C   UNL A   1      42.232  27.970  26.531  1.00  0.00     0.012 A 
ATOM     83  C   UNL A   1      41.503  25.912  27.599  1.00  0.00     0.148 A 
ATOM     84  C   UNL A   1      42.564  27.262  25.376  1.00  0.00     0.002 A 
ATOM     85  C   UNL A   1      41.883  25.206  26.463  1.00  0.00     0.091 A 
ATOM     86  F   UNL A   1      40.982  25.302  28.673  1.00  0.00    -0.205 F 
ATOM     87  C   UNL A   1      42.398  25.880  25.345  1.00  0.00     0.022 A 
BRANCH  85  88
ATOM     88  S   UNL A   1      41.829  23.413  26.374  1.00  0.00     0.127 S 
ATOM     89  O   UNL A   1      42.521  23.155  25.114  1.00  0.00    -0.237 OA
ATOM     90  O   UNL A   1      42.573  23.030  27.575  1.00  0.00    -0.237 OA
ATOM     91  O   UNL A   1      40.417  23.056  26.401  1.00  0.00    -0.744 OA
ENDBRANCH  85  88
ENDBRANCH  57  81
BRANCH  69  92
ATOM     92  C   UNL A   1      44.418  27.476  34.075  1.00  0.00     0.023 A 
ATOM     93  C   UNL A   1      45.721  28.005  33.998  1.00  0.00     0.012 A 
ATOM     94  C   UNL A   1      44.192  26.299  34.816  1.00  0.00     0.148 A 
ATOM     95  C   UNL A   1      46.787  27.358  34.624  1.00  0.00     0.002 A 
ATOM     96  C   UNL A   1      45.249  25.687  35.478  1.00  0.00     0.091 A 
ATOM     97  F   UNL A   1      42.948  25.800  34.860  1.00  0.00    -0.205 F 
ATOM     98  C   UNL A   1      46.548  26.208  35.373  1.00  0.00     0.022 A 
BRANCH  96  99
ATOM     99  S   UNL A   1      45.019  24.259  36.543  1.00  0.00     0.127 S 
ATOM    100  O   UNL A   1      44.159  24.804  37.592  1.00  0.00    -0.237 OA
ATOM    101  O   UNL A   1      44.361  23.306  35.648  1.00  0.00    -0.237 OA
ATOM    102  O   UNL A   1      46.353  23.860  36.972  1.00  0.00    -0.744 OA
ENDBRANCH  96  99
ENDBRANCH  69  92
ENDBRANCH  43  44
ENDBRANCH  35  38
ENDBRANCH  33  34
ENDBRANCH  32  33
ENDBRANCH  31  32
ENDBRANCH   3  31
TORSDOF 20
ENDMDL
