MODEL 1
REMARK VINA RESULT:     -13.2      0.000      0.000
REMARK SMILES Cc1cc(C(=O)NCCCNC(=O)c2ccc(-c3c4nc(c(-c5cccc(S(=O)(=O)[O-])c5F)c5ccc([nH]5)c(-c5cccc(S(=O)(=O)[O-])c5F)c5nc(c(-c6cccc(S(=O)(=O)[O-])c6F)c6ccc3[nH]6)C=C5)C=C4)cc2)nc(N2CCN(c3ccccc3Cl)CC2)n1
REMARK SMILES IDX 9 1 8 2 7 3 5 4 6 5 4 7 1 8 2 9 3 10 92 11 78 12 77 13 79 14
REMARK SMILES IDX 80 15 91 16 81 17 90 18 82 19 83 20 84 21 88 22 85 23 87 24
REMARK SMILES IDX 89 25 86 26 10 27 11 28 12 29 13 31 14 32 15 33 76 34 16 35
REMARK SMILES IDX 75 36 17 37 18 38 19 39 69 40 20 41 74 42 68 43 70 44 21 45
REMARK SMILES IDX 73 46 67 47 66 48 22 50 54 51 34 52 53 53 35 54 38 55 52 56
REMARK SMILES IDX 71 57 36 58 37 59 51 61 72 62 39 63 23 64 24 65 32 66 25 67
REMARK SMILES IDX 27 68 33 69 26 70 28 71 29 72 30 73 31 74 55 75 56 76 64 77
REMARK SMILES IDX 57 78 59 79 65 80 58 81 60 82 61 83 62 84 63 85 40 86 41 87
REMARK SMILES IDX 49 88 42 89 44 90 50 91 43 92 45 93 46 94 47 95 48 96
REMARK H PARENT 7 6 11 30 70 49 38 60
REMARK Flexibility Score: inf
ROOT
ATOM      1  C   UNL A   1      31.672  31.680  26.471  1.00  0.00     0.042 C 
ENDROOT
BRANCH   1   2
ATOM      2  C   UNL A   1      31.873  30.185  26.240  1.00  0.00     0.118 C 
BRANCH   2   3
ATOM      3  N   UNL A   1      32.657  29.966  25.045  1.00  0.00    -0.351 N 
ATOM      4  C   UNL A   1      32.650  28.975  24.096  1.00  0.00     0.270 C 
ATOM      5  O   UNL A   1      33.502  29.075  23.209  1.00  0.00    -0.268 OA
ATOM      6  H   UNL A   1      33.329  30.667  24.879  1.00  0.00     0.163 HD
BRANCH   4   7
ATOM      7  C   UNL A   1      31.643  27.862  24.050  1.00  0.00     0.133 A 
ATOM      8  C   UNL A   1      28.054  26.906  23.736  1.00  0.00     0.067 C 
ATOM      9  C   UNL A   1      29.550  26.851  23.832  1.00  0.00     0.044 A 
ATOM     10  C   UNL A   1      30.278  28.001  24.065  1.00  0.00     0.058 A 
ATOM     11  N   UNL A   1      30.129  25.637  23.712  1.00  0.00    -0.218 NA
ATOM     12  C   UNL A   1      31.456  25.577  23.872  1.00  0.00     0.226 A 
ATOM     13  N   UNL A   1      32.226  26.656  23.986  1.00  0.00    -0.208 NA
BRANCH  12  14
ATOM     14  N   UNL A   1      32.107  24.378  23.976  1.00  0.00    -0.337 N 
ATOM     15  C   UNL A   1      32.722  23.748  22.816  1.00  0.00     0.141 C 
ATOM     16  C   UNL A   1      31.490  23.464  24.953  1.00  0.00     0.141 C 
ATOM     17  C   UNL A   1      33.786  22.729  23.304  1.00  0.00     0.138 C 
ATOM     18  C   UNL A   1      32.511  22.417  25.428  1.00  0.00     0.138 C 
ATOM     19  N   UNL A   1      33.189  21.803  24.277  1.00  0.00    -0.367 N 
BRANCH  19  20
ATOM     20  C   UNL A   1      33.394  20.444  24.214  1.00  0.00     0.056 A 
ATOM     21  C   UNL A   1      32.388  19.613  23.699  1.00  0.00     0.027 A 
ATOM     22  C   UNL A   1      34.581  19.825  24.661  1.00  0.00     0.064 A 
ATOM     23  C   UNL A   1      32.552  18.226  23.625  1.00  0.00     0.002 A 
ATOM     24  C   UNL A   1      34.744  18.437  24.595  1.00  0.00     0.023 A 
ATOM     25  Cl  UNL A   1      35.867  20.727  25.392  1.00  0.00    -0.082 Cl
ATOM     26  C   UNL A   1      33.730  17.637  24.076  1.00  0.00     0.002 A 
ENDBRANCH  19  20
ENDBRANCH  12  14
ENDBRANCH   4   7
ENDBRANCH   2   3
ENDBRANCH   1   2
BRANCH   1  27
ATOM     27  C   UNL A   1      32.674  32.249  27.472  1.00  0.00     0.118 C 
BRANCH  27  28
ATOM     28  N   UNL A   1      32.512  33.690  27.629  1.00  0.00    -0.352 N 
ATOM     29  C   UNL A   1      33.109  34.544  28.523  1.00  0.00     0.251 C 
ATOM     30  H   UNL A   1      31.882  34.113  27.001  1.00  0.00     0.163 HD
ATOM     31  O   UNL A   1      32.659  35.672  28.684  1.00  0.00    -0.269 OA
BRANCH  29  32
ATOM     32  C   UNL A   1      34.291  34.092  29.284  1.00  0.00     0.039 A 
ATOM     33  C   UNL A   1      34.106  33.372  30.467  1.00  0.00     0.014 A 
ATOM     34  C   UNL A   1      35.577  34.390  28.829  1.00  0.00     0.014 A 
ATOM     35  C   UNL A   1      35.219  32.891  31.160  1.00  0.00     0.010 A 
ATOM     36  C   UNL A   1      36.679  33.844  29.476  1.00  0.00     0.010 A 
ATOM     37  C   UNL A   1      36.511  33.092  30.649  1.00  0.00    -0.014 A 
BRANCH  37  38
ATOM     38  C   UNL A   1      37.711  32.518  31.309  1.00  0.00     0.031 A 
ATOM     39  C   UNL A   1      38.440  31.368  30.671  1.00  0.00     0.074 A 
ATOM     40  C   UNL A   1      38.065  32.952  32.534  1.00  0.00     0.049 A 
ATOM     41  N   UNL A   1      39.419  30.647  31.147  1.00  0.00    -0.248 NA
ATOM     42  C   UNL A   1      37.986  30.953  29.331  1.00  0.00     0.031 C 
ATOM     43  C   UNL A   1      37.392  34.015  33.283  1.00  0.00     0.029 A 
ATOM     44  N   UNL A   1      39.056  32.525  33.383  1.00  0.00    -0.354 N 
ATOM     45  C   UNL A   1      39.670  29.668  30.192  1.00  0.00     0.074 A 
ATOM     46  C   UNL A   1      38.720  29.870  29.121  1.00  0.00     0.031 C 
ATOM     47  C   UNL A   1      37.983  34.154  34.480  1.00  0.00     0.029 A 
ATOM     48  C   UNL A   1      39.048  33.163  34.603  1.00  0.00     0.049 A 
ATOM     49  H   UNL A   1      39.710  31.830  33.142  1.00  0.00     0.167 HD
ATOM     50  C   UNL A   1      40.619  28.703  30.197  1.00  0.00     0.034 A 
ATOM     51  C   UNL A   1      39.797  32.957  35.704  1.00  0.00     0.034 A 
ATOM     52  C   UNL A   1      41.583  28.534  31.250  1.00  0.00     0.049 A 
ATOM     53  C   UNL A   1      40.859  31.892  35.675  1.00  0.00     0.074 A 
ATOM     54  C   UNL A   1      42.642  27.646  31.309  1.00  0.00     0.029 A 
ATOM     55  N   UNL A   1      41.599  29.256  32.432  1.00  0.00    -0.354 N 
ATOM     56  N   UNL A   1      41.178  31.073  34.702  1.00  0.00    -0.248 NA
ATOM     57  C   UNL A   1      41.685  31.741  36.881  1.00  0.00     0.031 C 
ATOM     58  C   UNL A   1      43.277  27.807  32.545  1.00  0.00     0.029 A 
ATOM     59  C   UNL A   1      42.640  28.825  33.235  1.00  0.00     0.049 A 
ATOM     60  H   UNL A   1      40.963  29.971  32.666  1.00  0.00     0.167 HD
ATOM     61  C   UNL A   1      42.266  30.341  35.161  1.00  0.00     0.074 A 
ATOM     62  C   UNL A   1      42.560  30.822  36.496  1.00  0.00     0.031 C 
ATOM     63  C   UNL A   1      42.954  29.353  34.538  1.00  0.00     0.034 A 
BRANCH  50  64
ATOM     64  C   UNL A   1      40.687  27.778  29.010  1.00  0.00     0.023 A 
ATOM     65  C   UNL A   1      39.772  26.710  28.902  1.00  0.00     0.012 A 
ATOM     66  C   UNL A   1      41.614  28.000  27.973  1.00  0.00     0.148 A 
ATOM     67  C   UNL A   1      39.804  25.856  27.801  1.00  0.00     0.002 A 
ATOM     68  C   UNL A   1      41.607  27.174  26.855  1.00  0.00     0.091 A 
ATOM     69  F   UNL A   1      42.488  29.008  28.102  1.00  0.00    -0.205 F 
ATOM     70  C   UNL A   1      40.712  26.095  26.773  1.00  0.00     0.022 A 
BRANCH  68  71
ATOM     71  S   UNL A   1      42.679  27.448  25.440  1.00  0.00     0.127 S 
ATOM     72  O   UNL A   1      42.501  26.204  24.691  1.00  0.00    -0.237 OA
ATOM     73  O   UNL A   1      42.071  28.625  24.819  1.00  0.00    -0.237 OA
ATOM     74  O   UNL A   1      44.013  27.665  25.981  1.00  0.00    -0.744 OA
ENDBRANCH  68  71
ENDBRANCH  50  64
BRANCH  51  75
ATOM     75  C   UNL A   1      39.598  33.808  36.911  1.00  0.00     0.023 A 
ATOM     76  C   UNL A   1      40.025  35.151  36.890  1.00  0.00     0.012 A 
ATOM     77  C   UNL A   1      38.966  33.307  38.066  1.00  0.00     0.148 A 
ATOM     78  C   UNL A   1      39.861  35.967  38.009  1.00  0.00     0.002 A 
ATOM     79  C   UNL A   1      38.753  34.143  39.156  1.00  0.00     0.091 A 
ATOM     80  F   UNL A   1      38.571  32.026  38.068  1.00  0.00    -0.205 F 
ATOM     81  C   UNL A   1      39.217  35.467  39.137  1.00  0.00     0.022 A 
BRANCH  79  82
ATOM     82  S   UNL A   1      37.813  33.627  40.598  1.00  0.00     0.127 S 
ATOM     83  O   UNL A   1      37.709  34.875  41.349  1.00  0.00    -0.237 OA
ATOM     84  O   UNL A   1      36.564  33.165  39.992  1.00  0.00    -0.237 OA
ATOM     85  O   UNL A   1      38.601  32.575  41.225  1.00  0.00    -0.744 OA
ENDBRANCH  79  82
ENDBRANCH  51  75
BRANCH  63  86
ATOM     86  C   UNL A   1      44.133  28.752  35.259  1.00  0.00     0.023 A 
ATOM     87  C   UNL A   1      45.410  29.330  35.129  1.00  0.00     0.012 A 
ATOM     88  C   UNL A   1      43.946  27.672  36.145  1.00  0.00     0.148 A 
ATOM     89  C   UNL A   1      46.490  28.825  35.853  1.00  0.00     0.002 A 
ATOM     90  C   UNL A   1      45.014  27.210  36.902  1.00  0.00     0.091 A 
ATOM     91  F   UNL A   1      42.724  27.128  36.240  1.00  0.00    -0.205 F 
ATOM     92  C   UNL A   1      46.290  27.777  36.748  1.00  0.00     0.022 A 
BRANCH  90  93
ATOM     93  S   UNL A   1      44.831  25.935  38.154  1.00  0.00     0.127 S 
ATOM     94  O   UNL A   1      46.190  25.841  38.684  1.00  0.00    -0.237 OA
ATOM     95  O   UNL A   1      43.859  26.536  39.067  1.00  0.00    -0.237 OA
ATOM     96  O   UNL A   1      44.354  24.748  37.455  1.00  0.00    -0.744 OA
ENDBRANCH  90  93
ENDBRANCH  63  86
ENDBRANCH  37  38
ENDBRANCH  29  32
ENDBRANCH  27  28
ENDBRANCH   1  27
TORSDOF 15
ENDMDL
MODEL 2
REMARK VINA RESULT:     -13.0      3.290      8.485
REMARK SMILES Cc1cc(C(=O)NCCCNC(=O)c2ccc(-c3c4nc(c(-c5cccc(S(=O)(=O)[O-])c5F)c5ccc([nH]5)c(-c5cccc(S(=O)(=O)[O-])c5F)c5nc(c(-c6cccc(S(=O)(=O)[O-])c6F)c6ccc3[nH]6)C=C5)C=C4)cc2)nc(N2CCN(c3ccccc3Cl)CC2)n1
REMARK SMILES IDX 9 1 8 2 7 3 5 4 6 5 4 7 1 8 2 9 3 10 92 11 78 12 77 13 79 14
REMARK SMILES IDX 80 15 91 16 81 17 90 18 82 19 83 20 84 21 88 22 85 23 87 24
REMARK SMILES IDX 89 25 86 26 10 27 11 28 12 29 13 31 14 32 15 33 76 34 16 35
REMARK SMILES IDX 75 36 17 37 18 38 19 39 69 40 20 41 74 42 68 43 70 44 21 45
REMARK SMILES IDX 73 46 67 47 66 48 22 50 54 51 34 52 53 53 35 54 38 55 52 56
REMARK SMILES IDX 71 57 36 58 37 59 51 61 72 62 39 63 23 64 24 65 32 66 25 67
REMARK SMILES IDX 27 68 33 69 26 70 28 71 29 72 30 73 31 74 55 75 56 76 64 77
REMARK SMILES IDX 57 78 59 79 65 80 58 81 60 82 61 83 62 84 63 85 40 86 41 87
REMARK SMILES IDX 49 88 42 89 44 90 50 91 43 92 45 93 46 94 47 95 48 96
REMARK H PARENT 7 6 11 30 70 49 38 60
REMARK Flexibility Score: inf
ROOT
ATOM      1  C   UNL A   1      33.901  28.134  25.841  1.00  0.00     0.042 C 
ENDROOT
BRANCH   1   2
ATOM      2  C   UNL A   1      33.500  29.038  24.679  1.00  0.00     0.118 C 
BRANCH   2   3
ATOM      3  N   UNL A   1      33.840  28.413  23.421  1.00  0.00    -0.351 N 
ATOM      4  C   UNL A   1      33.314  27.344  22.741  1.00  0.00     0.270 C 
ATOM      5  O   UNL A   1      33.885  27.043  21.689  1.00  0.00    -0.268 OA
ATOM      6  H   UNL A   1      34.599  28.840  22.960  1.00  0.00     0.163 HD
BRANCH   4   7
ATOM      7  C   UNL A   1      32.079  26.603  23.166  1.00  0.00     0.133 A 
ATOM      8  C   UNL A   1      28.432  26.778  23.913  1.00  0.00     0.067 C 
ATOM      9  C   UNL A   1      29.822  26.273  23.662  1.00  0.00     0.044 A 
ATOM     10  C   UNL A   1      30.863  27.160  23.474  1.00  0.00     0.058 A 
ATOM     11  N   UNL A   1      29.999  24.934  23.662  1.00  0.00    -0.218 NA
ATOM     12  C   UNL A   1      31.251  24.486  23.513  1.00  0.00     0.226 A 
ATOM     13  N   UNL A   1      32.278  25.277  23.216  1.00  0.00    -0.208 NA
BRANCH  12  14
ATOM     14  N   UNL A   1      31.562  23.168  23.706  1.00  0.00    -0.337 N 
ATOM     15  C   UNL A   1      32.011  22.678  25.002  1.00  0.00     0.141 C 
ATOM     16  C   UNL A   1      32.189  22.541  22.529  1.00  0.00     0.141 C 
ATOM     17  C   UNL A   1      31.788  21.143  25.063  1.00  0.00     0.138 C 
ATOM     18  C   UNL A   1      32.017  21.013  22.579  1.00  0.00     0.138 C 
ATOM     19  N   UNL A   1      32.411  20.497  23.899  1.00  0.00    -0.367 N 
BRANCH  19  20
ATOM     20  C   UNL A   1      33.183  19.364  24.018  1.00  0.00     0.056 A 
ATOM     21  C   UNL A   1      32.662  18.124  23.619  1.00  0.00     0.027 A 
ATOM     22  C   UNL A   1      34.494  19.379  24.540  1.00  0.00     0.064 A 
ATOM     23  C   UNL A   1      33.410  16.947  23.731  1.00  0.00     0.002 A 
ATOM     24  C   UNL A   1      35.241  18.202  24.659  1.00  0.00     0.023 A 
ATOM     25  Cl  UNL A   1      35.225  20.830  25.142  1.00  0.00    -0.082 Cl
ATOM     26  C   UNL A   1      34.699  16.986  24.253  1.00  0.00     0.002 A 
ENDBRANCH  19  20
ENDBRANCH  12  14
ENDBRANCH   4   7
ENDBRANCH   2   3
ENDBRANCH   1   2
BRANCH   1  27
ATOM     27  C   UNL A   1      33.446  28.689  27.188  1.00  0.00     0.118 C 
BRANCH  27  28
ATOM     28  N   UNL A   1      33.603  30.138  27.249  1.00  0.00    -0.352 N 
ATOM     29  C   UNL A   1      34.593  30.885  27.840  1.00  0.00     0.251 C 
ATOM     30  H   UNL A   1      32.897  30.657  26.800  1.00  0.00     0.163 HD
ATOM     31  O   UNL A   1      34.426  32.085  28.021  1.00  0.00    -0.269 OA
BRANCH  29  32
ATOM     32  C   UNL A   1      35.850  30.231  28.254  1.00  0.00     0.039 A 
ATOM     33  C   UNL A   1      36.938  30.227  27.379  1.00  0.00     0.014 A 
ATOM     34  C   UNL A   1      35.945  29.618  29.506  1.00  0.00     0.014 A 
ATOM     35  C   UNL A   1      38.148  29.662  27.788  1.00  0.00     0.010 A 
ATOM     36  C   UNL A   1      37.171  29.129  29.940  1.00  0.00     0.010 A 
ATOM     37  C   UNL A   1      38.283  29.143  29.085  1.00  0.00    -0.014 A 
BRANCH  37  38
ATOM     38  C   UNL A   1      39.578  28.618  29.586  1.00  0.00     0.031 A 
ATOM     39  C   UNL A   1      40.310  29.347  30.680  1.00  0.00     0.074 A 
ATOM     40  C   UNL A   1      40.147  27.561  28.975  1.00  0.00     0.049 A 
ATOM     41  N   UNL A   1      41.505  29.127  31.160  1.00  0.00    -0.248 NA
ATOM     42  C   UNL A   1      39.618  30.495  31.293  1.00  0.00     0.031 C 
ATOM     43  C   UNL A   1      39.564  26.815  27.858  1.00  0.00     0.029 A 
ATOM     44  N   UNL A   1      41.362  26.955  29.179  1.00  0.00    -0.354 N 
ATOM     45  C   UNL A   1      41.728  30.131  32.095  1.00  0.00     0.074 A 
ATOM     46  C   UNL A   1      40.556  30.978  32.095  1.00  0.00     0.031 C 
ATOM     47  C   UNL A   1      40.421  25.857  27.472  1.00  0.00     0.029 A 
ATOM     48  C   UNL A   1      41.632  25.947  28.283  1.00  0.00     0.049 A 
ATOM     49  H   UNL A   1      41.980  27.217  29.899  1.00  0.00     0.167 HD
ATOM     50  C   UNL A   1      42.803  30.317  32.897  1.00  0.00     0.034 A 
ATOM     51  C   UNL A   1      42.738  25.196  28.116  1.00  0.00     0.034 A 
ATOM     52  C   UNL A   1      43.948  29.449  32.916  1.00  0.00     0.049 A 
ATOM     53  C   UNL A   1      43.910  25.410  29.034  1.00  0.00     0.074 A 
ATOM     54  C   UNL A   1      45.048  29.497  33.753  1.00  0.00     0.029 A 
ATOM     55  N   UNL A   1      44.148  28.384  32.052  1.00  0.00    -0.354 N 
ATOM     56  N   UNL A   1      44.043  26.271  30.014  1.00  0.00    -0.248 NA
ATOM     57  C   UNL A   1      45.073  24.531  28.848  1.00  0.00     0.031 C 
ATOM     58  C   UNL A   1      45.931  28.483  33.371  1.00  0.00     0.029 A 
ATOM     59  C   UNL A   1      45.360  27.776  32.325  1.00  0.00     0.049 A 
ATOM     60  H   UNL A   1      43.520  28.102  31.348  1.00  0.00     0.167 HD
ATOM     61  C   UNL A   1      45.281  26.010  30.587  1.00  0.00     0.074 A 
ATOM     62  C   UNL A   1      45.856  24.902  29.852  1.00  0.00     0.031 C 
ATOM     63  C   UNL A   1      45.893  26.637  31.621  1.00  0.00     0.034 A 
BRANCH  50  64
ATOM     64  C   UNL A   1      42.776  31.485  33.849  1.00  0.00     0.023 A 
ATOM     65  C   UNL A   1      43.248  32.744  33.425  1.00  0.00     0.012 A 
ATOM     66  C   UNL A   1      42.227  31.352  35.140  1.00  0.00     0.148 A 
ATOM     67  C   UNL A   1      43.211  33.843  34.282  1.00  0.00     0.002 A 
ATOM     68  C   UNL A   1      42.148  32.464  35.971  1.00  0.00     0.091 A 
ATOM     69  F   UNL A   1      41.801  30.144  35.532  1.00  0.00    -0.205 F 
ATOM     70  C   UNL A   1      42.651  33.705  35.549  1.00  0.00     0.022 A 
BRANCH  68  71
ATOM     71  S   UNL A   1      41.370  32.411  37.588  1.00  0.00     0.127 S 
ATOM     72  O   UNL A   1      41.392  33.822  37.972  1.00  0.00    -0.237 OA
ATOM     73  O   UNL A   1      40.041  31.887  37.271  1.00  0.00    -0.237 OA
ATOM     74  O   UNL A   1      42.193  31.530  38.405  1.00  0.00    -0.744 OA
ENDBRANCH  68  71
ENDBRANCH  50  64
BRANCH  51  75
ATOM     75  C   UNL A   1      42.772  24.142  27.063  1.00  0.00     0.023 A 
ATOM     76  C   UNL A   1      43.462  24.388  25.859  1.00  0.00     0.012 A 
ATOM     77  C   UNL A   1      42.152  22.892  27.255  1.00  0.00     0.148 A 
ATOM     78  C   UNL A   1      43.501  23.424  24.852  1.00  0.00     0.002 A 
ATOM     79  C   UNL A   1      42.245  21.914  26.271  1.00  0.00     0.091 A 
ATOM     80  F   UNL A   1      41.497  22.679  28.405  1.00  0.00    -0.205 F 
ATOM     81  C   UNL A   1      42.902  22.184  25.061  1.00  0.00     0.022 A 
BRANCH  79  82
ATOM     82  S   UNL A   1      41.622  20.246  26.508  1.00  0.00     0.127 S 
ATOM     83  O   UNL A   1      40.179  20.449  26.415  1.00  0.00    -0.237 OA
ATOM     84  O   UNL A   1      42.221  19.539  25.375  1.00  0.00    -0.237 OA
ATOM     85  O   UNL A   1      42.119  19.821  27.810  1.00  0.00    -0.744 OA
ENDBRANCH  79  82
ENDBRANCH  51  75
BRANCH  63  86
ATOM     86  C   UNL A   1      47.233  26.115  32.069  1.00  0.00     0.023 A 
ATOM     87  C   UNL A   1      48.416  26.621  31.498  1.00  0.00     0.012 A 
ATOM     88  C   UNL A   1      47.314  25.192  33.131  1.00  0.00     0.148 A 
ATOM     89  C   UNL A   1      49.661  26.196  31.962  1.00  0.00     0.002 A 
ATOM     90  C   UNL A   1      48.557  24.815  33.622  1.00  0.00     0.091 A 
ATOM     91  F   UNL A   1      46.174  24.711  33.649  1.00  0.00    -0.205 F 
ATOM     92  C   UNL A   1      49.732  25.306  33.031  1.00  0.00     0.022 A 
BRANCH  90  93
ATOM     93  S   UNL A   1      48.746  23.755  35.061  1.00  0.00     0.127 S 
ATOM     94  O   UNL A   1      50.182  23.852  35.315  1.00  0.00    -0.237 OA
ATOM     95  O   UNL A   1      47.903  24.426  36.051  1.00  0.00    -0.237 OA
ATOM     96  O   UNL A   1      48.275  22.436  34.657  1.00  0.00    -0.744 OA
ENDBRANCH  90  93
ENDBRANCH  63  86
ENDBRANCH  37  38
ENDBRANCH  29  32
ENDBRANCH  27  28
ENDBRANCH   1  27
TORSDOF 15
ENDMDL
MODEL 3
REMARK VINA RESULT:     -12.9      5.751     11.939
REMARK SMILES Cc1cc(C(=O)NCCCNC(=O)c2ccc(-c3c4nc(c(-c5cccc(S(=O)(=O)[O-])c5F)c5ccc([nH]5)c(-c5cccc(S(=O)(=O)[O-])c5F)c5nc(c(-c6cccc(S(=O)(=O)[O-])c6F)c6ccc3[nH]6)C=C5)C=C4)cc2)nc(N2CCN(c3ccccc3Cl)CC2)n1
REMARK SMILES IDX 9 1 8 2 7 3 5 4 6 5 4 7 1 8 2 9 3 10 92 11 78 12 77 13 79 14
REMARK SMILES IDX 80 15 91 16 81 17 90 18 82 19 83 20 84 21 88 22 85 23 87 24
REMARK SMILES IDX 89 25 86 26 10 27 11 28 12 29 13 31 14 32 15 33 76 34 16 35
REMARK SMILES IDX 75 36 17 37 18 38 19 39 69 40 20 41 74 42 68 43 70 44 21 45
REMARK SMILES IDX 73 46 67 47 66 48 22 50 54 51 34 52 53 53 35 54 38 55 52 56
REMARK SMILES IDX 71 57 36 58 37 59 51 61 72 62 39 63 23 64 24 65 32 66 25 67
REMARK SMILES IDX 27 68 33 69 26 70 28 71 29 72 30 73 31 74 55 75 56 76 64 77
REMARK SMILES IDX 57 78 59 79 65 80 58 81 60 82 61 83 62 84 63 85 40 86 41 87
REMARK SMILES IDX 49 88 42 89 44 90 50 91 43 92 45 93 46 94 47 95 48 96
REMARK H PARENT 7 6 11 30 70 49 38 60
REMARK Flexibility Score: inf
ROOT
ATOM      1  C   UNL A   1      38.080  20.169  25.102  1.00  0.00     0.042 C 
ENDROOT
BRANCH   1   2
ATOM      2  C   UNL A   1      37.376  21.438  24.631  1.00  0.00     0.118 C 
BRANCH   2   3
ATOM      3  N   UNL A   1      36.805  22.139  25.760  1.00  0.00    -0.351 N 
ATOM      4  C   UNL A   1      35.563  22.673  25.993  1.00  0.00     0.270 C 
ATOM      5  O   UNL A   1      35.422  23.255  27.071  1.00  0.00    -0.268 OA
ATOM      6  H   UNL A   1      37.433  22.256  26.511  1.00  0.00     0.163 HD
BRANCH   4   7
ATOM      7  C   UNL A   1      34.395  22.519  25.062  1.00  0.00     0.133 A 
ATOM      8  C   UNL A   1      32.207  20.182  23.152  1.00  0.00     0.067 C 
ATOM      9  C   UNL A   1      32.785  21.416  23.780  1.00  0.00     0.044 A 
ATOM     10  C   UNL A   1      33.992  21.359  24.449  1.00  0.00     0.058 A 
ATOM     11  N   UNL A   1      32.090  22.565  23.632  1.00  0.00    -0.218 NA
ATOM     12  C   UNL A   1      32.642  23.678  24.127  1.00  0.00     0.226 A 
ATOM     13  N   UNL A   1      33.741  23.676  24.876  1.00  0.00    -0.208 NA
BRANCH  12  14
ATOM     14  N   UNL A   1      32.124  24.913  23.849  1.00  0.00    -0.337 N 
ATOM     15  C   UNL A   1      31.551  25.747  24.897  1.00  0.00     0.141 C 
ATOM     16  C   UNL A   1      31.459  24.983  22.536  1.00  0.00     0.141 C 
ATOM     17  C   UNL A   1      31.534  27.222  24.412  1.00  0.00     0.138 C 
ATOM     18  C   UNL A   1      31.393  26.439  22.045  1.00  0.00     0.138 C 
ATOM     19  N   UNL A   1      30.869  27.314  23.104  1.00  0.00    -0.367 N 
BRANCH  19  20
ATOM     20  C   UNL A   1      29.928  28.279  22.829  1.00  0.00     0.056 A 
ATOM     21  C   UNL A   1      30.330  29.498  22.259  1.00  0.00     0.027 A 
ATOM     22  C   UNL A   1      28.554  28.114  23.104  1.00  0.00     0.064 A 
ATOM     23  C   UNL A   1      29.407  30.508  21.971  1.00  0.00     0.002 A 
ATOM     24  C   UNL A   1      27.631  29.127  22.823  1.00  0.00     0.023 A 
ATOM     25  Cl  UNL A   1      27.939  26.692  23.880  1.00  0.00    -0.082 Cl
ATOM     26  C   UNL A   1      28.058  30.324  22.255  1.00  0.00     0.002 A 
ENDBRANCH  19  20
ENDBRANCH  12  14
ENDBRANCH   4   7
ENDBRANCH   2   3
ENDBRANCH   1   2
BRANCH   1  27
ATOM     27  C   UNL A   1      39.209  20.466  26.086  1.00  0.00     0.118 C 
BRANCH  27  28
ATOM     28  N   UNL A   1      40.220  19.414  26.070  1.00  0.00    -0.352 N 
ATOM     29  C   UNL A   1      41.589  19.520  26.045  1.00  0.00     0.251 C 
ATOM     30  H   UNL A   1      39.870  18.494  26.080  1.00  0.00     0.163 HD
ATOM     31  O   UNL A   1      42.271  18.541  25.769  1.00  0.00    -0.269 OA
BRANCH  29  32
ATOM     32  C   UNL A   1      42.225  20.816  26.350  1.00  0.00     0.039 A 
ATOM     33  C   UNL A   1      42.538  21.687  25.303  1.00  0.00     0.014 A 
ATOM     34  C   UNL A   1      42.518  21.163  27.671  1.00  0.00     0.014 A 
ATOM     35  C   UNL A   1      43.086  22.939  25.590  1.00  0.00     0.010 A 
ATOM     36  C   UNL A   1      42.989  22.438  27.959  1.00  0.00     0.010 A 
ATOM     37  C   UNL A   1      43.281  23.337  26.922  1.00  0.00    -0.014 A 
BRANCH  37  38
ATOM     38  C   UNL A   1      43.775  24.694  27.268  1.00  0.00     0.031 A 
ATOM     39  C   UNL A   1      42.819  25.729  27.794  1.00  0.00     0.074 A 
ATOM     40  C   UNL A   1      45.052  25.024  26.994  1.00  0.00     0.049 A 
ATOM     41  N   UNL A   1      43.025  26.997  28.028  1.00  0.00    -0.248 NA
ATOM     42  C   UNL A   1      41.440  25.285  28.064  1.00  0.00     0.031 C 
ATOM     43  C   UNL A   1      46.054  24.125  26.418  1.00  0.00     0.029 A 
ATOM     44  N   UNL A   1      45.716  26.219  27.125  1.00  0.00    -0.354 N 
ATOM     45  C   UNL A   1      41.798  27.514  28.426  1.00  0.00     0.074 A 
ATOM     46  C   UNL A   1      40.845  26.427  28.376  1.00  0.00     0.031 C 
ATOM     47  C   UNL A   1      47.201  24.799  26.240  1.00  0.00     0.029 A 
ATOM     48  C   UNL A   1      47.006  26.187  26.647  1.00  0.00     0.049 A 
ATOM     49  H   UNL A   1      45.308  27.021  27.523  1.00  0.00     0.167 HD
ATOM     50  C   UNL A   1      41.497  28.774  28.820  1.00  0.00     0.034 A 
ATOM     51  C   UNL A   1      47.920  27.170  26.527  1.00  0.00     0.034 A 
ATOM     52  C   UNL A   1      42.459  29.838  28.902  1.00  0.00     0.049 A 
ATOM     53  C   UNL A   1      47.566  28.555  26.991  1.00  0.00     0.074 A 
ATOM     54  C   UNL A   1      42.276  31.126  29.374  1.00  0.00     0.029 A 
ATOM     55  N   UNL A   1      43.779  29.746  28.492  1.00  0.00    -0.354 N 
ATOM     56  N   UNL A   1      46.441  28.990  27.505  1.00  0.00    -0.248 NA
ATOM     57  C   UNL A   1      48.614  29.581  26.889  1.00  0.00     0.031 C 
ATOM     58  C   UNL A   1      43.477  31.823  29.215  1.00  0.00     0.029 A 
ATOM     59  C   UNL A   1      44.420  30.956  28.685  1.00  0.00     0.049 A 
ATOM     60  H   UNL A   1      44.199  28.937  28.118  1.00  0.00     0.167 HD
ATOM     61  C   UNL A   1      46.658  30.324  27.827  1.00  0.00     0.074 A 
ATOM     62  C   UNL A   1      48.027  30.625  27.461  1.00  0.00     0.031 C 
ATOM     63  C   UNL A   1      45.799  31.223  28.368  1.00  0.00     0.034 A 
BRANCH  50  64
ATOM     64  C   UNL A   1      40.075  29.062  29.229  1.00  0.00     0.023 A 
ATOM     65  C   UNL A   1      39.093  29.281  28.241  1.00  0.00     0.012 A 
ATOM     66  C   UNL A   1      39.699  29.054  30.587  1.00  0.00     0.148 A 
ATOM     67  C   UNL A   1      37.769  29.527  28.597  1.00  0.00     0.002 A 
ATOM     68  C   UNL A   1      38.366  29.250  30.932  1.00  0.00     0.091 A 
ATOM     69  F   UNL A   1      40.648  28.863  31.513  1.00  0.00    -0.205 F 
ATOM     70  C   UNL A   1      37.403  29.500  29.940  1.00  0.00     0.022 A 
BRANCH  68  71
ATOM     71  S   UNL A   1      37.779  29.152  32.626  1.00  0.00     0.127 S 
ATOM     72  O   UNL A   1      36.438  29.724  32.506  1.00  0.00    -0.237 OA
ATOM     73  O   UNL A   1      37.806  27.710  32.876  1.00  0.00    -0.237 OA
ATOM     74  O   UNL A   1      38.719  29.926  33.425  1.00  0.00    -0.744 OA
ENDBRANCH  68  71
ENDBRANCH  50  64
BRANCH  51  75
ATOM     75  C   UNL A   1      49.274  26.866  25.982  1.00  0.00     0.023 A 
ATOM     76  C   UNL A   1      50.203  26.173  26.784  1.00  0.00     0.012 A 
ATOM     77  C   UNL A   1      49.637  27.233  24.672  1.00  0.00     0.148 A 
ATOM     78  C   UNL A   1      51.480  25.885  26.304  1.00  0.00     0.002 A 
ATOM     79  C   UNL A   1      50.891  26.890  24.179  1.00  0.00     0.091 A 
ATOM     80  F   UNL A   1      48.741  27.895  23.927  1.00  0.00    -0.205 F 
ATOM     81  C   UNL A   1      51.821  26.234  25.000  1.00  0.00     0.022 A 
BRANCH  79  82
ATOM     82  S   UNL A   1      51.369  27.178  22.472  1.00  0.00     0.127 S 
ATOM     83  O   UNL A   1      50.203  26.680  21.747  1.00  0.00    -0.237 OA
ATOM     84  O   UNL A   1      51.536  28.632  22.449  1.00  0.00    -0.237 OA
ATOM     85  O   UNL A   1      52.603  26.429  22.276  1.00  0.00    -0.744 OA
ENDBRANCH  79  82
ENDBRANCH  51  75
BRANCH  63  86
ATOM     86  C   UNL A   1      46.317  32.608  28.655  1.00  0.00     0.023 A 
ATOM     87  C   UNL A   1      46.987  32.876  29.864  1.00  0.00     0.012 A 
ATOM     88  C   UNL A   1      46.224  33.616  27.674  1.00  0.00     0.148 A 
ATOM     89  C   UNL A   1      47.534  34.136  30.103  1.00  0.00     0.002 A 
ATOM     90  C   UNL A   1      46.819  34.851  27.898  1.00  0.00     0.091 A 
ATOM     91  F   UNL A   1      45.568  33.343  26.537  1.00  0.00    -0.205 F 
ATOM     92  C   UNL A   1      47.464  35.117  29.117  1.00  0.00     0.022 A 
BRANCH  90  93
ATOM     93  S   UNL A   1      46.868  36.140  26.648  1.00  0.00     0.127 S 
ATOM     94  O   UNL A   1      45.455  36.496  26.532  1.00  0.00    -0.237 OA
ATOM     95  O   UNL A   1      47.704  37.157  27.286  1.00  0.00    -0.237 OA
ATOM     96  O   UNL A   1      47.454  35.530  25.461  1.00  0.00    -0.744 OA
ENDBRANCH  90  93
ENDBRANCH  63  86
ENDBRANCH  37  38
ENDBRANCH  29  32
ENDBRANCH  27  28
ENDBRANCH   1  27
TORSDOF 15
ENDMDL
