MODEL 1
REMARK VINA RESULT:     -12.6      0.000      0.000
REMARK SMILES Cc1ccc(NC(=O)C[C@H]2C(=O)NCCN2C(=O)CCC(=O)NCCCNC(=O)c2ccc(-c3c4nc(c(-c5cccc(S(=O)(=O)[O-])c5F)c5ccc([nH]5)c(-c5cccc(S(=O)(=O)[O-])c5F)c5nc(c(-c6cccc(S(=O)(=O)[O-])c6F)c6ccc3[nH]6)C=C5)C=C4)cc2)c(C)c1
REMARK SMILES IDX 21 1 22 2 23 3 20 5 19 6 17 7 18 8 16 9 10 10 11 11 12 12
REMARK SMILES IDX 13 13 15 14 14 15 9 17 7 18 6 19 8 21 5 22 1 23 2 24 3 25
REMARK SMILES IDX 95 26 4 27 93 28 94 29 24 30 25 31 26 32 27 33 28 34 29 36
REMARK SMILES IDX 30 37 31 38 92 39 32 40 91 41 33 42 34 43 35 44 85 45 36 46
REMARK SMILES IDX 90 47 84 48 86 49 37 50 89 51 83 52 82 53 38 55 70 56 50 57
REMARK SMILES IDX 69 58 51 59 54 60 68 61 87 62 52 63 53 64 67 66 88 67 55 68
REMARK SMILES IDX 39 69 40 70 48 71 41 72 43 73 49 74 42 75 44 76 45 77 46 78
REMARK SMILES IDX 47 79 71 80 72 81 80 82 73 83 75 84 81 85 74 86 76 87 77 88
REMARK SMILES IDX 78 89 79 90 56 91 57 92 65 93 58 94 60 95 66 96 59 97 61 98
REMARK SMILES IDX 62 99 63 100 64 101
REMARK H PARENT 23 4 13 16 6 20 27 35 86 54 54 65
REMARK Flexibility Score: inf
ROOT
ATOM      1  C   UNL A   1      29.520  29.876  22.695  1.00  0.00     0.220 C 
ATOM      2  O   UNL A   1      29.000  30.370  21.691  1.00  0.00    -0.275 OA
ATOM      3  N   UNL A   1      29.981  30.708  23.671  1.00  0.00    -0.356 N 
ATOM      4  H   UNL A   1      29.890  31.654  23.409  1.00  0.00     0.163 HD
ENDROOT
BRANCH   1   5
ATOM      5  C   UNL A   1      29.739  28.411  22.767  1.00  0.00     0.110 C 
BRANCH   5   6
ATOM      6  C   UNL A   1      31.175  28.145  22.381  1.00  0.00     0.110 C 
BRANCH   6   7
ATOM      7  C   UNL A   1      31.601  26.881  23.048  1.00  0.00     0.223 C 
ATOM      8  O   UNL A   1      31.258  25.829  22.491  1.00  0.00    -0.275 OA
BRANCH   7   9
ATOM      9  N   UNL A   1      32.256  26.877  24.290  1.00  0.00    -0.328 N 
ATOM     10  C   UNL A   1      31.723  26.443  25.681  1.00  0.00     0.183 C 
ATOM     11  C   UNL A   1      31.936  27.619  26.680  1.00  0.00     0.243 C 
ATOM     12  O   UNL A   1      31.301  27.706  27.731  1.00  0.00    -0.273 OA
ATOM     13  N   UNL A   1      32.901  28.553  26.431  1.00  0.00    -0.353 N 
ATOM     14  C   UNL A   1      33.487  27.681  24.172  1.00  0.00     0.141 C 
ATOM     15  C   UNL A   1      33.852  28.544  25.350  1.00  0.00     0.137 C 
ATOM     16  H   UNL A   1      32.950  29.312  27.054  1.00  0.00     0.163 HD
BRANCH  10  17
ATOM     17  C   UNL A   1      31.745  24.958  26.548  1.00  0.00     0.135 C 
BRANCH  17  18
ATOM     18  C   UNL A   1      31.756  23.290  26.550  1.00  0.00     0.227 C 
ATOM     19  N   UNL A   1      32.381  22.224  25.917  1.00  0.00    -0.326 N 
ATOM     20  H   UNL A   1      31.796  21.436  25.996  1.00  0.00     0.169 HD
ATOM     21  O   UNL A   1      30.869  22.799  27.293  1.00  0.00    -0.275 OA
BRANCH  19  22
ATOM     22  C   UNL A   1      33.559  21.835  25.189  1.00  0.00     0.044 A 
ATOM     23  C   UNL A   1      37.689  20.867  24.937  1.00  0.00     0.044 C 
ATOM     24  C   UNL A   1      36.221  21.058  24.654  1.00  0.00    -0.051 A 
ATOM     25  C   UNL A   1      35.286  20.110  25.068  1.00  0.00     0.005 A 
ATOM     26  C   UNL A   1      35.734  22.291  24.206  1.00  0.00     0.009 A 
ATOM     27  C   UNL A   1      33.942  20.484  25.262  1.00  0.00     0.026 A 
ATOM     28  C   UNL A   1      34.390  22.676  24.437  1.00  0.00    -0.027 A 
ATOM     29  C   UNL A   1      33.902  23.948  23.812  1.00  0.00     0.046 C 
ENDBRANCH  19  22
ENDBRANCH  17  18
ENDBRANCH  10  17
ENDBRANCH   7   9
ENDBRANCH   6   7
ENDBRANCH   5   6
ENDBRANCH   1   5
BRANCH   3  30
ATOM     30  C   UNL A   1      30.582  30.576  25.016  1.00  0.00     0.117 C 
BRANCH  30  31
ATOM     31  C   UNL A   1      31.038  31.807  25.929  1.00  0.00     0.042 C 
BRANCH  31  32
ATOM     32  C   UNL A   1      32.299  32.035  26.811  1.00  0.00     0.118 C 
BRANCH  32  33
ATOM     33  N   UNL A   1      32.442  33.376  27.395  1.00  0.00    -0.352 N 
ATOM     34  C   UNL A   1      33.471  33.924  28.150  1.00  0.00     0.251 C 
ATOM     35  H   UNL A   1      31.688  33.984  27.223  1.00  0.00     0.163 HD
ATOM     36  O   UNL A   1      33.398  35.064  28.560  1.00  0.00    -0.269 OA
BRANCH  34  37
ATOM     37  C   UNL A   1      34.647  33.096  28.507  1.00  0.00     0.039 A 
ATOM     38  C   UNL A   1      35.922  33.558  28.178  1.00  0.00     0.014 A 
ATOM     39  C   UNL A   1      34.499  31.875  29.158  1.00  0.00     0.014 A 
ATOM     40  C   UNL A   1      37.052  32.862  28.625  1.00  0.00     0.010 A 
ATOM     41  C   UNL A   1      35.630  31.214  29.657  1.00  0.00     0.010 A 
ATOM     42  C   UNL A   1      36.920  31.718  29.433  1.00  0.00    -0.014 A 
BRANCH  42  43
ATOM     43  C   UNL A   1      38.111  31.106  30.094  1.00  0.00     0.031 A 
ATOM     44  C   UNL A   1      38.529  31.497  31.488  1.00  0.00     0.074 A 
ATOM     45  C   UNL A   1      38.883  30.238  29.404  1.00  0.00     0.049 A 
ATOM     46  N   UNL A   1      39.520  31.034  32.211  1.00  0.00    -0.248 NA
ATOM     47  C   UNL A   1      37.760  32.564  32.146  1.00  0.00     0.031 C 
ATOM     48  C   UNL A   1      38.671  29.840  28.010  1.00  0.00     0.029 A 
ATOM     49  N   UNL A   1      40.005  29.535  29.776  1.00  0.00    -0.354 N 
ATOM     50  C   UNL A   1      39.510  31.767  33.391  1.00  0.00     0.074 A 
ATOM     51  C   UNL A   1      38.444  32.739  33.268  1.00  0.00     0.031 C 
ATOM     52  C   UNL A   1      39.601  28.936  27.661  1.00  0.00     0.029 A 
ATOM     53  C   UNL A   1      40.493  28.705  28.792  1.00  0.00     0.049 A 
ATOM     54  H   UNL A   1      40.422  29.618  30.665  1.00  0.00     0.167 HD
ATOM     55  C   UNL A   1      40.283  31.624  34.496  1.00  0.00     0.034 A 
ATOM     56  C   UNL A   1      41.525  27.836  28.800  1.00  0.00     0.034 A 
ATOM     57  C   UNL A   1      41.306  30.624  34.651  1.00  0.00     0.049 A 
ATOM     58  C   UNL A   1      42.337  27.656  30.055  1.00  0.00     0.074 A 
ATOM     59  C   UNL A   1      42.061  30.333  35.775  1.00  0.00     0.029 A 
ATOM     60  N   UNL A   1      41.723  29.754  33.656  1.00  0.00    -0.354 N 
ATOM     61  N   UNL A   1      42.182  28.226  31.226  1.00  0.00    -0.248 NA
ATOM     62  C   UNL A   1      43.442  26.687  30.001  1.00  0.00     0.031 C 
ATOM     63  C   UNL A   1      42.946  29.296  35.453  1.00  0.00     0.029 A 
ATOM     64  C   UNL A   1      42.733  28.934  34.133  1.00  0.00     0.049 A 
ATOM     65  H   UNL A   1      41.356  29.724  32.744  1.00  0.00     0.167 HD
ATOM     66  C   UNL A   1      43.143  27.657  32.056  1.00  0.00     0.074 A 
ATOM     67  C   UNL A   1      43.864  26.687  31.259  1.00  0.00     0.031 C 
ATOM     68  C   UNL A   1      43.411  27.929  33.356  1.00  0.00     0.034 A 
BRANCH  55  69
ATOM     69  C   UNL A   1      39.997  32.536  35.662  1.00  0.00     0.023 A 
ATOM     70  C   UNL A   1      40.655  33.782  35.740  1.00  0.00     0.012 A 
ATOM     71  C   UNL A   1      39.061  32.188  36.654  1.00  0.00     0.148 A 
ATOM     72  C   UNL A   1      40.421  34.644  36.810  1.00  0.00     0.002 A 
ATOM     73  C   UNL A   1      38.801  33.073  37.695  1.00  0.00     0.091 A 
ATOM     74  F   UNL A   1      38.459  30.991  36.579  1.00  0.00    -0.205 F 
ATOM     75  C   UNL A   1      39.489  34.293  37.782  1.00  0.00     0.022 A 
BRANCH  73  76
ATOM     76  S   UNL A   1      37.557  32.735  38.947  1.00  0.00     0.127 S 
ATOM     77  O   UNL A   1      37.890  33.725  39.970  1.00  0.00    -0.237 OA
ATOM     78  O   UNL A   1      36.309  32.997  38.228  1.00  0.00    -0.237 OA
ATOM     79  O   UNL A   1      37.751  31.342  39.325  1.00  0.00    -0.744 OA
ENDBRANCH  73  76
ENDBRANCH  55  69
BRANCH  56  80
ATOM     80  C   UNL A   1      41.782  26.977  27.608  1.00  0.00     0.023 A 
ATOM     81  C   UNL A   1      42.360  27.557  26.461  1.00  0.00     0.012 A 
ATOM     82  C   UNL A   1      41.496  25.599  27.610  1.00  0.00     0.148 A 
ATOM     83  C   UNL A   1      42.625  26.787  25.329  1.00  0.00     0.002 A 
ATOM     84  C   UNL A   1      41.810  24.827  26.496  1.00  0.00     0.091 A 
ATOM     85  F   UNL A   1      40.935  25.069  28.705  1.00  0.00    -0.205 F 
ATOM     86  C   UNL A   1      42.360  25.420  25.350  1.00  0.00     0.022 A 
BRANCH  84  87
ATOM     87  S   UNL A   1      41.625  23.040  26.478  1.00  0.00     0.127 S 
ATOM     88  O   UNL A   1      40.173  22.889  26.435  1.00  0.00    -0.237 OA
ATOM     89  O   UNL A   1      42.321  22.677  25.243  1.00  0.00    -0.237 OA
ATOM     90  O   UNL A   1      42.275  22.567  27.693  1.00  0.00    -0.744 OA
ENDBRANCH  84  87
ENDBRANCH  56  80
BRANCH  68  91
ATOM     91  C   UNL A   1      44.516  27.152  34.025  1.00  0.00     0.023 A 
ATOM     92  C   UNL A   1      45.838  27.639  33.979  1.00  0.00     0.012 A 
ATOM     93  C   UNL A   1      44.237  25.983  34.761  1.00  0.00     0.148 A 
ATOM     94  C   UNL A   1      46.867  26.963  34.633  1.00  0.00     0.002 A 
ATOM     95  C   UNL A   1      45.261  25.338  35.446  1.00  0.00     0.091 A 
ATOM     96  F   UNL A   1      42.978  25.521  34.775  1.00  0.00    -0.205 F 
ATOM     97  C   UNL A   1      46.578  25.821  35.375  1.00  0.00     0.022 A 
BRANCH  95  98
ATOM     98  S   UNL A   1      44.962  23.914  36.502  1.00  0.00     0.127 S 
ATOM     99  O   UNL A   1      44.220  24.515  37.609  1.00  0.00    -0.237 OA
ATOM    100  O   UNL A   1      44.167  23.043  35.636  1.00  0.00    -0.237 OA
ATOM    101  O   UNL A   1      46.278  23.387  36.840  1.00  0.00    -0.744 OA
ENDBRANCH  95  98
ENDBRANCH  68  91
ENDBRANCH  42  43
ENDBRANCH  34  37
ENDBRANCH  32  33
ENDBRANCH  31  32
ENDBRANCH  30  31
ENDBRANCH   3  30
TORSDOF 19
ENDMDL
MODEL 2
REMARK VINA RESULT:     -12.5      5.311     10.773
REMARK SMILES Cc1ccc(NC(=O)C[C@H]2C(=O)NCCN2C(=O)CCC(=O)NCCCNC(=O)c2ccc(-c3c4nc(c(-c5cccc(S(=O)(=O)[O-])c5F)c5ccc([nH]5)c(-c5cccc(S(=O)(=O)[O-])c5F)c5nc(c(-c6cccc(S(=O)(=O)[O-])c6F)c6ccc3[nH]6)C=C5)C=C4)cc2)c(C)c1
REMARK SMILES IDX 21 1 22 2 23 3 20 5 19 6 17 7 18 8 16 9 10 10 11 11 12 12
REMARK SMILES IDX 13 13 15 14 14 15 9 17 7 18 6 19 8 21 5 22 1 23 2 24 3 25
REMARK SMILES IDX 95 26 4 27 93 28 94 29 24 30 25 31 26 32 27 33 28 34 29 36
REMARK SMILES IDX 30 37 31 38 92 39 32 40 91 41 33 42 34 43 35 44 85 45 36 46
REMARK SMILES IDX 90 47 84 48 86 49 37 50 89 51 83 52 82 53 38 55 70 56 50 57
REMARK SMILES IDX 69 58 51 59 54 60 68 61 87 62 52 63 53 64 67 66 88 67 55 68
REMARK SMILES IDX 39 69 40 70 48 71 41 72 43 73 49 74 42 75 44 76 45 77 46 78
REMARK SMILES IDX 47 79 71 80 72 81 80 82 73 83 75 84 81 85 74 86 76 87 77 88
REMARK SMILES IDX 78 89 79 90 56 91 57 92 65 93 58 94 60 95 66 96 59 97 61 98
REMARK SMILES IDX 62 99 63 100 64 101
REMARK H PARENT 23 4 13 16 6 20 27 35 86 54 54 65
REMARK Flexibility Score: inf
ROOT
ATOM      1  C   UNL A   1      36.910  23.102  25.574  1.00  0.00     0.220 C 
ATOM      2  O   UNL A   1      36.439  24.092  25.007  1.00  0.00    -0.275 OA
ATOM      3  N   UNL A   1      38.257  23.038  25.769  1.00  0.00    -0.356 N 
ATOM      4  H   UNL A   1      38.716  23.805  25.356  1.00  0.00     0.163 HD
ENDROOT
BRANCH   1   5
ATOM      5  C   UNL A   1      36.026  21.962  25.920  1.00  0.00     0.110 C 
BRANCH   5   6
ATOM      6  C   UNL A   1      35.502  21.381  24.628  1.00  0.00     0.110 C 
BRANCH   6   7
ATOM      7  C   UNL A   1      34.041  21.138  24.797  1.00  0.00     0.223 C 
ATOM      8  O   UNL A   1      33.706  19.963  25.008  1.00  0.00    -0.275 OA
BRANCH   7   9
ATOM      9  N   UNL A   1      33.089  22.155  24.620  1.00  0.00    -0.328 N 
ATOM     10  C   UNL A   1      33.296  23.630  24.187  1.00  0.00     0.183 C 
ATOM     11  C   UNL A   1      32.639  24.554  25.256  1.00  0.00     0.243 C 
ATOM     12  O   UNL A   1      32.950  25.739  25.374  1.00  0.00    -0.273 OA
ATOM     13  N   UNL A   1      31.639  24.068  26.048  1.00  0.00    -0.353 N 
ATOM     14  C   UNL A   1      31.821  21.720  25.235  1.00  0.00     0.141 C 
ATOM     15  C   UNL A   1      31.023  22.770  25.962  1.00  0.00     0.137 C 
ATOM     16  H   UNL A   1      31.304  24.668  26.753  1.00  0.00     0.163 HD
BRANCH  10  17
ATOM     17  C   UNL A   1      33.283  24.432  22.667  1.00  0.00     0.135 C 
BRANCH  17  18
ATOM     18  C   UNL A   1      32.889  25.766  21.744  1.00  0.00     0.227 C 
ATOM     19  N   UNL A   1      32.371  27.046  21.882  1.00  0.00    -0.326 N 
ATOM     20  H   UNL A   1      31.987  27.315  21.017  1.00  0.00     0.169 HD
ATOM     21  O   UNL A   1      33.011  25.556  20.510  1.00  0.00    -0.275 OA
BRANCH  19  22
ATOM     22  C   UNL A   1      32.183  28.128  22.811  1.00  0.00     0.044 A 
ATOM     23  C   UNL A   1      31.918  29.724  26.741  1.00  0.00     0.044 C 
ATOM     24  C   UNL A   1      32.030  29.547  25.248  1.00  0.00    -0.051 A 
ATOM     25  C   UNL A   1      33.268  29.322  24.647  1.00  0.00     0.005 A 
ATOM     26  C   UNL A   1      30.888  29.350  24.464  1.00  0.00     0.009 A 
ATOM     27  C   UNL A   1      33.337  28.680  23.395  1.00  0.00     0.026 A 
ATOM     28  C   UNL A   1      30.959  28.671  23.222  1.00  0.00    -0.027 A 
ATOM     29  C   UNL A   1      29.724  28.616  22.375  1.00  0.00     0.046 C 
ENDBRANCH  19  22
ENDBRANCH  17  18
ENDBRANCH  10  17
ENDBRANCH   7   9
ENDBRANCH   6   7
ENDBRANCH   5   6
ENDBRANCH   1   5
BRANCH   3  30
ATOM     30  C   UNL A   1      39.215  22.128  26.433  1.00  0.00     0.117 C 
BRANCH  30  31
ATOM     31  C   UNL A   1      39.648  20.698  25.865  1.00  0.00     0.042 C 
BRANCH  31  32
ATOM     32  C   UNL A   1      40.470  19.535  26.493  1.00  0.00     0.118 C 
BRANCH  32  33
ATOM     33  N   UNL A   1      41.804  19.308  25.921  1.00  0.00    -0.352 N 
ATOM     34  C   UNL A   1      42.889  20.167  25.798  1.00  0.00     0.251 C 
ATOM     35  H   UNL A   1      41.954  18.402  25.568  1.00  0.00     0.163 HD
ATOM     36  O   UNL A   1      43.917  19.793  25.275  1.00  0.00    -0.269 OA
BRANCH  34  37
ATOM     37  C   UNL A   1      42.775  21.570  26.261  1.00  0.00     0.039 A 
ATOM     38  C   UNL A   1      42.791  21.832  27.631  1.00  0.00     0.014 A 
ATOM     39  C   UNL A   1      42.653  22.621  25.356  1.00  0.00     0.014 A 
ATOM     40  C   UNL A   1      42.824  23.156  28.088  1.00  0.00     0.010 A 
ATOM     41  C   UNL A   1      42.749  23.943  25.812  1.00  0.00     0.010 A 
ATOM     42  C   UNL A   1      42.876  24.229  27.180  1.00  0.00    -0.014 A 
BRANCH  42  43
ATOM     43  C   UNL A   1      43.136  25.621  27.654  1.00  0.00     0.031 A 
ATOM     44  C   UNL A   1      44.521  26.215  27.639  1.00  0.00     0.074 A 
ATOM     45  C   UNL A   1      42.125  26.344  28.184  1.00  0.00     0.049 A 
ATOM     46  N   UNL A   1      44.903  27.420  27.987  1.00  0.00    -0.248 NA
ATOM     47  C   UNL A   1      45.622  25.342  27.207  1.00  0.00     0.031 C 
ATOM     48  C   UNL A   1      40.750  25.870  28.365  1.00  0.00     0.029 A 
ATOM     49  N   UNL A   1      42.093  27.630  28.671  1.00  0.00    -0.354 N 
ATOM     50  C   UNL A   1      46.285  27.440  27.844  1.00  0.00     0.074 A 
ATOM     51  C   UNL A   1      46.680  26.112  27.423  1.00  0.00     0.031 C 
ATOM     52  C   UNL A   1      40.005  26.861  28.882  1.00  0.00     0.029 A 
ATOM     53  C   UNL A   1      40.847  28.034  29.093  1.00  0.00     0.049 A 
ATOM     54  H   UNL A   1      42.889  28.208  28.715  1.00  0.00     0.167 HD
ATOM     55  C   UNL A   1      47.149  28.473  28.005  1.00  0.00     0.034 A 
ATOM     56  C   UNL A   1      40.417  29.219  29.574  1.00  0.00     0.034 A 
ATOM     57  C   UNL A   1      46.762  29.811  28.368  1.00  0.00     0.049 A 
ATOM     58  C   UNL A   1      41.384  30.368  29.695  1.00  0.00     0.074 A 
ATOM     59  C   UNL A   1      47.552  30.945  28.443  1.00  0.00     0.029 A 
ATOM     60  N   UNL A   1      45.478  30.197  28.718  1.00  0.00    -0.354 N 
ATOM     61  N   UNL A   1      42.652  30.415  29.367  1.00  0.00    -0.248 NA
ATOM     62  C   UNL A   1      40.851  31.636  30.216  1.00  0.00     0.031 C 
ATOM     63  C   UNL A   1      46.748  32.014  28.856  1.00  0.00     0.029 A 
ATOM     64  C   UNL A   1      45.455  31.548  29.024  1.00  0.00     0.049 A 
ATOM     65  H   UNL A   1      44.697  29.600  28.746  1.00  0.00     0.167 HD
ATOM     66  C   UNL A   1      43.058  31.724  29.606  1.00  0.00     0.074 A 
ATOM     67  C   UNL A   1      41.897  32.442  30.090  1.00  0.00     0.031 C 
ATOM     68  C   UNL A   1      44.287  32.275  29.451  1.00  0.00     0.034 A 
BRANCH  55  69
ATOM     69  C   UNL A   1      48.605  28.208  27.716  1.00  0.00     0.023 A 
ATOM     70  C   UNL A   1      49.491  27.980  28.789  1.00  0.00     0.012 A 
ATOM     71  C   UNL A   1      49.091  28.145  26.396  1.00  0.00     0.148 A 
ATOM     72  C   UNL A   1      50.844  27.742  28.557  1.00  0.00     0.002 A 
ATOM     73  C   UNL A   1      50.435  27.864  26.171  1.00  0.00     0.091 A 
ATOM     74  F   UNL A   1      48.242  28.385  25.385  1.00  0.00    -0.205 F 
ATOM     75  C   UNL A   1      51.315  27.677  27.249  1.00  0.00     0.022 A 
BRANCH  73  76
ATOM     76  S   UNL A   1      51.107  27.683  24.515  1.00  0.00     0.127 S 
ATOM     77  O   UNL A   1      51.014  29.050  24.006  1.00  0.00    -0.237 OA
ATOM     78  O   UNL A   1      52.472  27.223  24.778  1.00  0.00    -0.237 OA
ATOM     79  O   UNL A   1      50.260  26.700  23.855  1.00  0.00    -0.744 OA
ENDBRANCH  73  76
ENDBRANCH  55  69
BRANCH  56  80
ATOM     80  C   UNL A   1      38.970  29.420  29.871  1.00  0.00     0.023 A 
ATOM     81  C   UNL A   1      38.498  29.156  31.173  1.00  0.00     0.012 A 
ATOM     82  C   UNL A   1      38.070  29.897  28.900  1.00  0.00     0.148 A 
ATOM     83  C   UNL A   1      37.154  29.340  31.496  1.00  0.00     0.002 A 
ATOM     84  C   UNL A   1      36.742  30.127  29.242  1.00  0.00     0.091 A 
ATOM     85  F   UNL A   1      38.536  30.130  27.665  1.00  0.00    -0.205 F 
ATOM     86  C   UNL A   1      36.278  29.834  30.533  1.00  0.00     0.022 A 
BRANCH  84  87
ATOM     87  S   UNL A   1      35.571  30.884  28.109  1.00  0.00     0.127 S 
ATOM     88  O   UNL A   1      35.386  29.826  27.119  1.00  0.00    -0.237 OA
ATOM     89  O   UNL A   1      34.420  31.124  28.980  1.00  0.00    -0.237 OA
ATOM     90  O   UNL A   1      36.221  32.095  27.626  1.00  0.00    -0.744 OA
ENDBRANCH  84  87
ENDBRANCH  56  80
BRANCH  68  91
ATOM     91  C   UNL A   1      44.450  33.736  29.782  1.00  0.00     0.023 A 
ATOM     92  C   UNL A   1      44.898  34.116  31.063  1.00  0.00     0.012 A 
ATOM     93  C   UNL A   1      44.235  34.729  28.806  1.00  0.00     0.148 A 
ATOM     94  C   UNL A   1      45.105  35.459  31.375  1.00  0.00     0.002 A 
ATOM     95  C   UNL A   1      44.484  36.063  29.110  1.00  0.00     0.091 A 
ATOM     96  F   UNL A   1      43.787  34.352  27.598  1.00  0.00    -0.205 F 
ATOM     97  C   UNL A   1      44.909  36.430  30.397  1.00  0.00     0.022 A 
BRANCH  95  98
ATOM     98  S   UNL A   1      44.348  37.370  27.883  1.00  0.00     0.127 S 
ATOM     99  O   UNL A   1      45.316  36.935  26.877  1.00  0.00    -0.237 OA
ATOM    100  O   UNL A   1      42.948  37.266  27.468  1.00  0.00    -0.237 OA
ATOM    101  O   UNL A   1      44.677  38.605  28.581  1.00  0.00    -0.744 OA
ENDBRANCH  95  98
ENDBRANCH  68  91
ENDBRANCH  42  43
ENDBRANCH  34  37
ENDBRANCH  32  33
ENDBRANCH  31  32
ENDBRANCH  30  31
ENDBRANCH   3  30
TORSDOF 19
ENDMDL
MODEL 3
REMARK VINA RESULT:     -12.4      1.164      7.417
REMARK SMILES Cc1ccc(NC(=O)C[C@H]2C(=O)NCCN2C(=O)CCC(=O)NCCCNC(=O)c2ccc(-c3c4nc(c(-c5cccc(S(=O)(=O)[O-])c5F)c5ccc([nH]5)c(-c5cccc(S(=O)(=O)[O-])c5F)c5nc(c(-c6cccc(S(=O)(=O)[O-])c6F)c6ccc3[nH]6)C=C5)C=C4)cc2)c(C)c1
REMARK SMILES IDX 21 1 22 2 23 3 20 5 19 6 17 7 18 8 16 9 10 10 11 11 12 12
REMARK SMILES IDX 13 13 15 14 14 15 9 17 7 18 6 19 8 21 5 22 1 23 2 24 3 25
REMARK SMILES IDX 95 26 4 27 93 28 94 29 24 30 25 31 26 32 27 33 28 34 29 36
REMARK SMILES IDX 30 37 31 38 92 39 32 40 91 41 33 42 34 43 35 44 85 45 36 46
REMARK SMILES IDX 90 47 84 48 86 49 37 50 89 51 83 52 82 53 38 55 70 56 50 57
REMARK SMILES IDX 69 58 51 59 54 60 68 61 87 62 52 63 53 64 67 66 88 67 55 68
REMARK SMILES IDX 39 69 40 70 48 71 41 72 43 73 49 74 42 75 44 76 45 77 46 78
REMARK SMILES IDX 47 79 71 80 72 81 80 82 73 83 75 84 81 85 74 86 76 87 77 88
REMARK SMILES IDX 78 89 79 90 56 91 57 92 65 93 58 94 60 95 66 96 59 97 61 98
REMARK SMILES IDX 62 99 63 100 64 101
REMARK H PARENT 23 4 13 16 6 20 27 35 86 54 54 65
REMARK Flexibility Score: inf
ROOT
ATOM      1  C   UNL A   1      29.742  29.210  22.738  1.00  0.00     0.220 C 
ATOM      2  O   UNL A   1      29.330  29.566  21.630  1.00  0.00    -0.275 OA
ATOM      3  N   UNL A   1      30.200  30.158  23.603  1.00  0.00    -0.356 N 
ATOM      4  H   UNL A   1      30.199  31.052  23.189  1.00  0.00     0.163 HD
ENDROOT
BRANCH   1   5
ATOM      5  C   UNL A   1      29.843  27.765  23.056  1.00  0.00     0.110 C 
BRANCH   5   6
ATOM      6  C   UNL A   1      30.761  27.135  22.036  1.00  0.00     0.110 C 
BRANCH   6   7
ATOM      7  C   UNL A   1      31.687  26.217  22.760  1.00  0.00     0.223 C 
ATOM      8  O   UNL A   1      31.295  25.049  22.900  1.00  0.00    -0.275 OA
BRANCH   7   9
ATOM      9  N   UNL A   1      32.881  26.668  23.344  1.00  0.00    -0.328 N 
ATOM     10  C   UNL A   1      33.430  26.420  24.774  1.00  0.00     0.183 C 
ATOM     11  C   UNL A   1      33.741  27.799  25.430  1.00  0.00     0.243 C 
ATOM     12  O   UNL A   1      33.836  27.935  26.649  1.00  0.00    -0.273 OA
ATOM     13  N   UNL A   1      33.983  28.885  24.639  1.00  0.00    -0.353 N 
ATOM     14  C   UNL A   1      33.443  27.735  22.496  1.00  0.00     0.141 C 
ATOM     15  C   UNL A   1      34.078  28.903  23.202  1.00  0.00     0.137 C 
ATOM     16  H   UNL A   1      34.106  29.746  25.098  1.00  0.00     0.163 HD
BRANCH  10  17
ATOM     17  C   UNL A   1      34.466  25.228  25.455  1.00  0.00     0.135 C 
BRANCH  17  18
ATOM     18  C   UNL A   1      35.387  23.848  25.281  1.00  0.00     0.227 C 
ATOM     19  N   UNL A   1      35.256  22.466  25.305  1.00  0.00    -0.326 N 
ATOM     20  H   UNL A   1      36.138  22.079  25.512  1.00  0.00     0.169 HD
ATOM     21  O   UNL A   1      36.614  24.093  25.168  1.00  0.00    -0.275 OA
BRANCH  19  22
ATOM     22  C   UNL A   1      34.321  21.385  25.143  1.00  0.00     0.044 A 
ATOM     23  C   UNL A   1      32.329  18.435  22.822  1.00  0.00     0.044 C 
ATOM     24  C   UNL A   1      32.874  19.274  23.949  1.00  0.00    -0.051 A 
ATOM     25  C   UNL A   1      34.155  19.046  24.453  1.00  0.00     0.005 A 
ATOM     26  C   UNL A   1      32.225  20.449  24.344  1.00  0.00     0.009 A 
ATOM     27  C   UNL A   1      34.845  20.081  25.114  1.00  0.00     0.026 A 
ATOM     28  C   UNL A   1      32.934  21.500  24.977  1.00  0.00    -0.027 A 
ATOM     29  C   UNL A   1      32.152  22.670  25.494  1.00  0.00     0.046 C 
ENDBRANCH  19  22
ENDBRANCH  17  18
ENDBRANCH  10  17
ENDBRANCH   7   9
ENDBRANCH   6   7
ENDBRANCH   5   6
ENDBRANCH   1   5
BRANCH   3  30
ATOM     30  C   UNL A   1      30.697  30.208  24.994  1.00  0.00     0.117 C 
BRANCH  30  31
ATOM     31  C   UNL A   1      31.089  31.551  25.768  1.00  0.00     0.042 C 
BRANCH  31  32
ATOM     32  C   UNL A   1      32.133  31.840  26.886  1.00  0.00     0.118 C 
BRANCH  32  33
ATOM     33  N   UNL A   1      32.295  33.250  27.266  1.00  0.00    -0.352 N 
ATOM     34  C   UNL A   1      33.351  33.898  27.894  1.00  0.00     0.251 C 
ATOM     35  H   UNL A   1      31.532  33.829  27.039  1.00  0.00     0.163 HD
ATOM     36  O   UNL A   1      33.291  35.084  28.139  1.00  0.00    -0.269 OA
BRANCH  34  37
ATOM     37  C   UNL A   1      34.543  33.126  28.318  1.00  0.00     0.039 A 
ATOM     38  C   UNL A   1      35.778  33.772  28.379  1.00  0.00     0.014 A 
ATOM     39  C   UNL A   1      34.449  31.778  28.650  1.00  0.00     0.014 A 
ATOM     40  C   UNL A   1      36.889  33.103  28.907  1.00  0.00     0.010 A 
ATOM     41  C   UNL A   1      35.546  31.130  29.235  1.00  0.00     0.010 A 
ATOM     42  C   UNL A   1      36.770  31.794  29.409  1.00  0.00    -0.014 A 
BRANCH  42  43
ATOM     43  C   UNL A   1      37.887  31.161  30.172  1.00  0.00     0.031 A 
ATOM     44  C   UNL A   1      38.780  30.120  29.548  1.00  0.00     0.074 A 
ATOM     45  C   UNL A   1      38.059  31.467  31.477  1.00  0.00     0.049 A 
ATOM     46  N   UNL A   1      39.811  29.501  30.070  1.00  0.00    -0.248 NA
ATOM     47  C   UNL A   1      38.460  29.694  28.177  1.00  0.00     0.031 C 
ATOM     48  C   UNL A   1      37.211  32.377  32.252  1.00  0.00     0.029 A 
ATOM     49  N   UNL A   1      39.001  31.045  32.386  1.00  0.00    -0.354 N 
ATOM     50  C   UNL A   1      40.244  28.599  29.106  1.00  0.00     0.074 A 
ATOM     51  C   UNL A   1      39.334  28.716  27.986  1.00  0.00     0.031 C 
ATOM     52  C   UNL A   1      37.695  32.476  33.501  1.00  0.00     0.029 A 
ATOM     53  C   UNL A   1      38.871  31.622  33.629  1.00  0.00     0.049 A 
ATOM     54  H   UNL A   1      39.703  30.390  32.168  1.00  0.00     0.167 HD
ATOM     55  C   UNL A   1      41.321  27.775  29.125  1.00  0.00     0.034 A 
ATOM     56  C   UNL A   1      39.623  31.501  34.743  1.00  0.00     0.034 A 
ATOM     57  C   UNL A   1      42.265  27.691  30.208  1.00  0.00     0.049 A 
ATOM     58  C   UNL A   1      40.844  30.621  34.724  1.00  0.00     0.074 A 
ATOM     59  C   UNL A   1      43.446  26.971  30.268  1.00  0.00     0.029 A 
ATOM     60  N   UNL A   1      42.137  28.346  31.423  1.00  0.00    -0.354 N 
ATOM     61  N   UNL A   1      41.344  29.925  33.732  1.00  0.00    -0.248 NA
ATOM     62  C   UNL A   1      41.627  30.540  35.967  1.00  0.00     0.031 C 
ATOM     63  C   UNL A   1      44.023  27.177  31.527  1.00  0.00     0.029 A 
ATOM     64  C   UNL A   1      43.209  28.037  32.245  1.00  0.00     0.049 A 
ATOM     65  H   UNL A   1      41.394  28.943  31.667  1.00  0.00     0.167 HD
ATOM     66  C   UNL A   1      42.516  29.356  34.218  1.00  0.00     0.074 A 
ATOM     67  C   UNL A   1      42.661  29.801  35.589  1.00  0.00     0.031 C 
ATOM     68  C   UNL A   1      43.383  28.526  33.589  1.00  0.00     0.034 A 
BRANCH  55  69
ATOM     69  C   UNL A   1      41.578  26.944  27.893  1.00  0.00     0.023 A 
ATOM     70  C   UNL A   1      42.151  27.554  26.757  1.00  0.00     0.012 A 
ATOM     71  C   UNL A   1      41.294  25.566  27.865  1.00  0.00     0.148 A 
ATOM     72  C   UNL A   1      42.392  26.817  25.599  1.00  0.00     0.002 A 
ATOM     73  C   UNL A   1      41.578  24.828  26.721  1.00  0.00     0.091 A 
ATOM     74  F   UNL A   1      40.730  25.003  28.945  1.00  0.00    -0.205 F 
ATOM     75  C   UNL A   1      42.113  25.453  25.584  1.00  0.00     0.022 A 
BRANCH  73  76
ATOM     76  S   UNL A   1      41.324  23.051  26.643  1.00  0.00     0.127 S 
ATOM     77  O   UNL A   1      39.871  22.966  26.502  1.00  0.00    -0.237 OA
ATOM     78  O   UNL A   1      42.075  22.678  25.444  1.00  0.00    -0.237 OA
ATOM     79  O   UNL A   1      41.873  22.523  27.884  1.00  0.00    -0.744 OA
ENDBRANCH  73  76
ENDBRANCH  55  69
BRANCH  56  80
ATOM     80  C   UNL A   1      39.308  32.327  35.945  1.00  0.00     0.023 A 
ATOM     81  C   UNL A   1      39.844  33.627  36.039  1.00  0.00     0.012 A 
ATOM     82  C   UNL A   1      38.464  31.857  36.968  1.00  0.00     0.148 A 
ATOM     83  C   UNL A   1      39.567  34.434  37.142  1.00  0.00     0.002 A 
ATOM     84  C   UNL A   1      38.150  32.687  38.040  1.00  0.00     0.091 A 
ATOM     85  F   UNL A   1      37.973  30.614  36.866  1.00  0.00    -0.205 F 
ATOM     86  C   UNL A   1      38.712  33.969  38.137  1.00  0.00     0.022 A 
BRANCH  84  87
ATOM     87  S   UNL A   1      36.957  32.224  39.301  1.00  0.00     0.127 S 
ATOM     88  O   UNL A   1      35.692  32.571  38.659  1.00  0.00    -0.237 OA
ATOM     89  O   UNL A   1      37.206  30.788  39.440  1.00  0.00    -0.237 OA
ATOM     90  O   UNL A   1      37.307  33.009  40.477  1.00  0.00    -0.744 OA
ENDBRANCH  84  87
ENDBRANCH  56  80
BRANCH  68  91
ATOM     91  C   UNL A   1      44.591  28.055  34.357  1.00  0.00     0.023 A 
ATOM     92  C   UNL A   1      45.793  28.787  34.284  1.00  0.00     0.012 A 
ATOM     93  C   UNL A   1      44.517  26.935  35.209  1.00  0.00     0.148 A 
ATOM     94  C   UNL A   1      46.908  28.398  35.025  1.00  0.00     0.002 A 
ATOM     95  C   UNL A   1      45.619  26.578  35.979  1.00  0.00     0.091 A 
ATOM     96  F   UNL A   1      43.372  26.237  35.250  1.00  0.00    -0.205 F 
ATOM     97  C   UNL A   1      46.818  27.302  35.881  1.00  0.00     0.022 A 
BRANCH  95  98
ATOM     98  S   UNL A   1      45.562  25.238  37.175  1.00  0.00     0.127 S 
ATOM     99  O   UNL A   1      46.829  25.416  37.882  1.00  0.00    -0.237 OA
ATOM    100  O   UNL A   1      44.373  25.570  37.961  1.00  0.00    -0.237 OA
ATOM    101  O   UNL A   1      45.444  24.014  36.395  1.00  0.00    -0.744 OA
ENDBRANCH  95  98
ENDBRANCH  68  91
ENDBRANCH  42  43
ENDBRANCH  34  37
ENDBRANCH  32  33
ENDBRANCH  31  32
ENDBRANCH  30  31
ENDBRANCH   3  30
TORSDOF 19
ENDMDL
