MODEL 1
REMARK VINA RESULT:     -14.3      0.000      0.000
REMARK SMILES Cc1ccc(-c2nc(NC(=O)[C@H]3[C@@H](C(=O)NCCCNC(=O)c4ccc(-c5c6nc(c(-c7cccc(S(=O)(=O)[O-])c7F)c7ccc([nH]7)c(-c7cccc(S(=O)(=O)[O-])c7F)c7nc(c(-c8cccc(S(=O)(=O)[O-])c8F)c8ccc5[nH]8)C=C7)C=C6)cc4)[C@@H]4CC[C@H]3O4)sc2C)cc1
REMARK SMILES IDX 18 1 17 2 16 3 14 4 15 5 13 7 12 8 89 9 86 10 88 11 90 12
REMARK SMILES IDX 87 13 10 14 9 15 11 17 8 18 6 19 7 20 92 21 91 22 93 23 5 24
REMARK SMILES IDX 1 25 2 26 3 27 95 28 4 29 94 30 19 31 20 32 21 33 22 35
REMARK SMILES IDX 23 36 24 37 85 38 25 39 84 40 26 41 27 42 28 43 78 44 29 45
REMARK SMILES IDX 83 46 77 47 79 48 30 49 82 50 76 51 75 52 31 54 63 55 43 56
REMARK SMILES IDX 62 57 44 58 47 59 61 60 80 61 45 62 46 63 60 65 81 66 48 67
REMARK SMILES IDX 32 68 33 69 41 70 34 71 36 72 42 73 35 74 37 75 38 76 39 77
REMARK SMILES IDX 40 78 64 79 65 80 73 81 66 82 68 83 74 84 67 85 69 86 70 87
REMARK SMILES IDX 71 88 72 89 49 90 50 91 58 92 51 93 53 94 59 95 52 96 54 97
REMARK SMILES IDX 55 98 56 99 57 100
REMARK H PARENT 16 6 9 16 20 34 79 53 47 64
REMARK Flexibility Score: inf
ROOT
ATOM      1  C   UNL A   1      32.308  30.905  26.752  1.00  0.00     0.042 C 
ENDROOT
BRANCH   1   2
ATOM      2  C   UNL A   1      31.917  30.271  25.429  1.00  0.00     0.117 C 
BRANCH   2   3
ATOM      3  N   UNL A   1      32.960  29.699  24.601  1.00  0.00    -0.356 N 
ATOM      4  C   UNL A   1      32.810  28.894  23.504  1.00  0.00     0.226 C 
ATOM      5  O   UNL A   1      33.388  29.198  22.458  1.00  0.00    -0.275 OA
ATOM      6  H   UNL A   1      33.886  29.914  24.858  1.00  0.00     0.163 HD
BRANCH   4   7
ATOM      7  C   UNL A   1      31.928  27.688  23.607  1.00  0.00     0.122 C 
ATOM      8  C   UNL A   1      32.362  26.214  23.601  1.00  0.00     0.123 C 
ATOM      9  C   UNL A   1      30.996  25.603  23.188  1.00  0.00     0.132 C 
ATOM     10  C   UNL A   1      30.734  27.674  22.609  1.00  0.00     0.132 C 
ATOM     11  C   UNL A   1      29.797  26.096  24.057  1.00  0.00     0.035 C 
ATOM     12  O   UNL A   1      30.806  26.367  21.979  1.00  0.00    -0.373 OA
ATOM     13  C   UNL A   1      29.461  27.454  23.415  1.00  0.00     0.035 C 
BRANCH   8  14
ATOM     14  C   UNL A   1      33.462  25.332  22.909  1.00  0.00     0.232 C 
ATOM     15  N   UNL A   1      34.113  24.172  23.166  1.00  0.00    -0.302 N 
ATOM     16  H   UNL A   1      34.928  24.093  22.619  1.00  0.00     0.172 HD
ATOM     17  O   UNL A   1      33.912  25.876  21.871  1.00  0.00    -0.274 OA
BRANCH  15  18
ATOM     18  C   UNL A   1      33.953  23.080  23.973  1.00  0.00     0.190 A 
ATOM     19  C   UNL A   1      33.933  21.013  24.819  1.00  0.00     0.086 A 
ATOM     20  N   UNL A   1      34.113  21.804  23.657  1.00  0.00    -0.220 NA
ATOM     21  C   UNL A   1      33.907  21.780  25.972  1.00  0.00     0.031 A 
ATOM     22  S   UNL A   1      33.342  23.287  25.494  1.00  0.00    -0.101 S 
ATOM     23  C   UNL A   1      34.130  21.546  27.417  1.00  0.00     0.059 C 
BRANCH  19  24
ATOM     24  C   UNL A   1      33.794  19.554  24.863  1.00  0.00     0.001 A 
ATOM     25  C   UNL A   1      33.257  15.274  25.304  1.00  0.00     0.044 C 
ATOM     26  C   UNL A   1      33.435  16.752  25.124  1.00  0.00    -0.051 A 
ATOM     27  C   UNL A   1      34.615  17.287  24.583  1.00  0.00     0.004 A 
ATOM     28  C   UNL A   1      32.408  17.622  25.477  1.00  0.00     0.004 A 
ATOM     29  C   UNL A   1      34.796  18.677  24.452  1.00  0.00     0.010 A 
ATOM     30  C   UNL A   1      32.581  18.996  25.323  1.00  0.00     0.010 A 
ENDBRANCH  19  24
ENDBRANCH  15  18
ENDBRANCH   8  14
ENDBRANCH   4   7
ENDBRANCH   2   3
ENDBRANCH   1   2
BRANCH   1  31
ATOM     31  C   UNL A   1      33.534  30.319  27.431  1.00  0.00     0.118 C 
BRANCH  31  32
ATOM     32  N   UNL A   1      34.627  31.265  27.418  1.00  0.00    -0.352 N 
ATOM     33  C   UNL A   1      35.618  31.341  28.387  1.00  0.00     0.251 C 
ATOM     34  H   UNL A   1      34.672  31.901  26.668  1.00  0.00     0.163 HD
ATOM     35  O   UNL A   1      35.798  32.377  28.983  1.00  0.00    -0.269 OA
BRANCH  33  36
ATOM     36  C   UNL A   1      36.586  30.209  28.426  1.00  0.00     0.039 A 
ATOM     37  C   UNL A   1      36.828  29.630  29.682  1.00  0.00     0.014 A 
ATOM     38  C   UNL A   1      37.420  29.919  27.349  1.00  0.00     0.014 A 
ATOM     39  C   UNL A   1      38.022  28.948  29.908  1.00  0.00     0.010 A 
ATOM     40  C   UNL A   1      38.602  29.262  27.573  1.00  0.00     0.010 A 
ATOM     41  C   UNL A   1      38.938  28.867  28.868  1.00  0.00    -0.014 A 
BRANCH  41  42
ATOM     42  C   UNL A   1      40.308  28.413  28.985  1.00  0.00     0.031 A 
ATOM     43  C   UNL A   1      40.614  26.983  28.808  1.00  0.00     0.074 A 
ATOM     44  C   UNL A   1      41.272  29.362  28.989  1.00  0.00     0.049 A 
ATOM     45  N   UNL A   1      41.764  26.457  29.044  1.00  0.00    -0.248 NA
ATOM     46  C   UNL A   1      39.612  26.015  28.371  1.00  0.00     0.031 C 
ATOM     47  C   UNL A   1      42.681  29.192  28.663  1.00  0.00     0.029 A 
ATOM     48  N   UNL A   1      41.205  30.690  29.431  1.00  0.00    -0.354 N 
ATOM     49  C   UNL A   1      41.752  25.187  28.509  1.00  0.00     0.074 A 
ATOM     50  C   UNL A   1      40.361  24.915  28.249  1.00  0.00     0.031 C 
ATOM     51  C   UNL A   1      43.370  30.218  29.192  1.00  0.00     0.029 A 
ATOM     52  C   UNL A   1      42.441  30.927  30.053  1.00  0.00     0.049 A 
ATOM     53  H   UNL A   1      40.455  31.319  29.326  1.00  0.00     0.167 HD
ATOM     54  C   UNL A   1      42.947  24.606  28.206  1.00  0.00     0.034 A 
ATOM     55  C   UNL A   1      42.593  31.065  31.409  1.00  0.00     0.034 A 
ATOM     56  C   UNL A   1      44.057  25.405  28.759  1.00  0.00     0.049 A 
ATOM     57  C   UNL A   1      43.563  30.055  32.012  1.00  0.00     0.074 A 
ATOM     58  C   UNL A   1      44.942  26.313  28.203  1.00  0.00     0.029 A 
ATOM     59  N   UNL A   1      44.164  25.552  30.140  1.00  0.00    -0.354 N 
ATOM     60  N   UNL A   1      43.992  28.987  31.392  1.00  0.00    -0.248 NA
ATOM     61  C   UNL A   1      44.132  30.165  33.353  1.00  0.00     0.031 C 
ATOM     62  C   UNL A   1      45.504  27.082  29.263  1.00  0.00     0.029 A 
ATOM     63  C   UNL A   1      44.998  26.613  30.464  1.00  0.00     0.049 A 
ATOM     64  H   UNL A   1      43.710  24.979  30.800  1.00  0.00     0.167 HD
ATOM     65  C   UNL A   1      44.778  28.232  32.222  1.00  0.00     0.074 A 
ATOM     66  C   UNL A   1      44.894  29.057  33.415  1.00  0.00     0.031 C 
ATOM     67  C   UNL A   1      45.215  26.981  31.865  1.00  0.00     0.034 A 
BRANCH  54  68
ATOM     68  C   UNL A   1      43.174  23.466  27.213  1.00  0.00     0.023 A 
ATOM     69  C   UNL A   1      43.962  23.756  26.074  1.00  0.00     0.012 A 
ATOM     70  C   UNL A   1      42.609  22.167  27.241  1.00  0.00     0.148 A 
ATOM     71  C   UNL A   1      44.130  22.853  25.015  1.00  0.00     0.002 A 
ATOM     72  C   UNL A   1      42.781  21.257  26.191  1.00  0.00     0.091 A 
ATOM     73  F   UNL A   1      41.873  21.773  28.276  1.00  0.00    -0.205 F 
ATOM     74  C   UNL A   1      43.532  21.603  25.068  1.00  0.00     0.022 A 
BRANCH  72  75
ATOM     75  S   UNL A   1      42.034  19.612  26.198  1.00  0.00     0.127 S 
ATOM     76  O   UNL A   1      42.664  18.984  25.037  1.00  0.00    -0.237 OA
ATOM     77  O   UNL A   1      42.471  19.076  27.488  1.00  0.00    -0.237 OA
ATOM     78  O   UNL A   1      40.594  19.804  26.078  1.00  0.00    -0.744 OA
ENDBRANCH  72  75
ENDBRANCH  54  68
BRANCH  55  79
ATOM     79  C   UNL A   1      41.393  31.636  32.095  1.00  0.00     0.023 A 
ATOM     80  C   UNL A   1      41.004  32.942  31.706  1.00  0.00     0.012 A 
ATOM     81  C   UNL A   1      40.458  30.825  32.764  1.00  0.00     0.148 A 
ATOM     82  C   UNL A   1      39.677  33.357  31.810  1.00  0.00     0.002 A 
ATOM     83  C   UNL A   1      39.135  31.257  32.883  1.00  0.00     0.091 A 
ATOM     84  F   UNL A   1      40.853  29.632  33.225  1.00  0.00    -0.205 F 
ATOM     85  C   UNL A   1      38.734  32.497  32.359  1.00  0.00     0.022 A 
BRANCH  83  86
ATOM     86  S   UNL A   1      37.861  30.213  33.607  1.00  0.00     0.127 S 
ATOM     87  O   UNL A   1      38.056  30.458  35.032  1.00  0.00    -0.237 OA
ATOM     88  O   UNL A   1      36.631  30.780  33.053  1.00  0.00    -0.237 OA
ATOM     89  O   UNL A   1      38.163  28.870  33.132  1.00  0.00    -0.744 OA
ENDBRANCH  83  86
ENDBRANCH  55  79
BRANCH  67  90
ATOM     90  C   UNL A   1      45.878  25.964  32.790  1.00  0.00     0.023 A 
ATOM     91  C   UNL A   1      47.273  25.886  32.960  1.00  0.00     0.012 A 
ATOM     92  C   UNL A   1      45.099  25.134  33.643  1.00  0.00     0.148 A 
ATOM     93  C   UNL A   1      47.869  25.003  33.871  1.00  0.00     0.002 A 
ATOM     94  C   UNL A   1      45.690  24.348  34.631  1.00  0.00     0.091 A 
ATOM     95  F   UNL A   1      43.768  25.073  33.491  1.00  0.00    -0.205 F 
ATOM     96  C   UNL A   1      47.077  24.253  34.726  1.00  0.00     0.022 A 
BRANCH  94  97
ATOM     97  S   UNL A   1      44.699  23.567  35.915  1.00  0.00     0.127 S 
ATOM     98  O   UNL A   1      43.727  22.809  35.129  1.00  0.00    -0.237 OA
ATOM     99  O   UNL A   1      45.685  22.745  36.618  1.00  0.00    -0.237 OA
ATOM    100  O   UNL A   1      44.170  24.669  36.706  1.00  0.00    -0.744 OA
ENDBRANCH  94  97
ENDBRANCH  67  90
ENDBRANCH  41  42
ENDBRANCH  33  36
ENDBRANCH  31  32
ENDBRANCH   1  31
TORSDOF 16
ENDMDL
MODEL 2
REMARK VINA RESULT:     -13.8      4.026      9.846
REMARK SMILES Cc1ccc(-c2nc(NC(=O)[C@H]3[C@@H](C(=O)NCCCNC(=O)c4ccc(-c5c6nc(c(-c7cccc(S(=O)(=O)[O-])c7F)c7ccc([nH]7)c(-c7cccc(S(=O)(=O)[O-])c7F)c7nc(c(-c8cccc(S(=O)(=O)[O-])c8F)c8ccc5[nH]8)C=C7)C=C6)cc4)[C@@H]4CC[C@H]3O4)sc2C)cc1
REMARK SMILES IDX 18 1 17 2 16 3 14 4 15 5 13 7 12 8 89 9 86 10 88 11 90 12
REMARK SMILES IDX 87 13 10 14 9 15 11 17 8 18 6 19 7 20 92 21 91 22 93 23 5 24
REMARK SMILES IDX 1 25 2 26 3 27 95 28 4 29 94 30 19 31 20 32 21 33 22 35
REMARK SMILES IDX 23 36 24 37 85 38 25 39 84 40 26 41 27 42 28 43 78 44 29 45
REMARK SMILES IDX 83 46 77 47 79 48 30 49 82 50 76 51 75 52 31 54 63 55 43 56
REMARK SMILES IDX 62 57 44 58 47 59 61 60 80 61 45 62 46 63 60 65 81 66 48 67
REMARK SMILES IDX 32 68 33 69 41 70 34 71 36 72 42 73 35 74 37 75 38 76 39 77
REMARK SMILES IDX 40 78 64 79 65 80 73 81 66 82 68 83 74 84 67 85 69 86 70 87
REMARK SMILES IDX 71 88 72 89 49 90 50 91 58 92 51 93 53 94 59 95 52 96 54 97
REMARK SMILES IDX 55 98 56 99 57 100
REMARK H PARENT 16 6 9 16 20 34 79 53 47 64
REMARK Flexibility Score: inf
ROOT
ATOM      1  C   UNL A   1      37.962  20.791  25.394  1.00  0.00     0.042 C 
ENDROOT
BRANCH   1   2
ATOM      2  C   UNL A   1      36.637  20.640  24.668  1.00  0.00     0.117 C 
BRANCH   2   3
ATOM      3  N   UNL A   1      35.452  20.341  25.445  1.00  0.00    -0.356 N 
ATOM      4  C   UNL A   1      34.151  20.326  25.016  1.00  0.00     0.226 C 
ATOM      5  O   UNL A   1      33.460  19.332  25.243  1.00  0.00    -0.275 OA
ATOM      6  H   UNL A   1      35.598  20.123  26.394  1.00  0.00     0.163 HD
BRANCH   4   7
ATOM      7  C   UNL A   1      33.626  21.509  24.263  1.00  0.00     0.122 C 
ATOM      8  C   UNL A   1      33.571  22.969  24.743  1.00  0.00     0.123 C 
ATOM      9  C   UNL A   1      32.473  23.462  23.763  1.00  0.00     0.132 C 
ATOM     10  C   UNL A   1      32.201  21.315  23.668  1.00  0.00     0.132 C 
ATOM     11  C   UNL A   1      32.753  23.105  22.270  1.00  0.00     0.035 C 
ATOM     12  O   UNL A   1      31.465  22.489  24.105  1.00  0.00    -0.373 OA
ATOM     13  C   UNL A   1      32.271  21.646  22.183  1.00  0.00     0.035 C 
BRANCH   8  14
ATOM     14  C   UNL A   1      33.332  23.738  26.091  1.00  0.00     0.232 C 
ATOM     15  N   UNL A   1      33.081  25.012  26.478  1.00  0.00    -0.302 N 
ATOM     16  H   UNL A   1      33.263  25.134  27.437  1.00  0.00     0.172 HD
ATOM     17  O   UNL A   1      33.475  22.989  27.088  1.00  0.00    -0.274 OA
BRANCH  15  18
ATOM     18  C   UNL A   1      32.645  26.175  25.906  1.00  0.00     0.190 A 
ATOM     19  C   UNL A   1      31.446  27.741  24.856  1.00  0.00     0.086 A 
ATOM     20  N   UNL A   1      31.561  26.363  25.168  1.00  0.00    -0.220 NA
ATOM     21  C   UNL A   1      32.316  28.518  25.604  1.00  0.00     0.031 A 
ATOM     22  S   UNL A   1      33.611  27.514  25.972  1.00  0.00    -0.101 S 
ATOM     23  C   UNL A   1      32.401  29.940  26.008  1.00  0.00     0.059 C 
BRANCH  19  24
ATOM     24  C   UNL A   1      30.531  28.336  23.878  1.00  0.00     0.001 A 
ATOM     25  C   UNL A   1      27.977  30.392  21.040  1.00  0.00     0.044 C 
ATOM     26  C   UNL A   1      28.861  29.658  22.004  1.00  0.00    -0.051 A 
ATOM     27  C   UNL A   1      28.334  28.740  22.927  1.00  0.00     0.004 A 
ATOM     28  C   UNL A   1      30.237  29.866  21.980  1.00  0.00     0.004 A 
ATOM     29  C   UNL A   1      29.161  28.082  23.859  1.00  0.00     0.010 A 
ATOM     30  C   UNL A   1      31.055  29.195  22.886  1.00  0.00     0.010 A 
ENDBRANCH  19  24
ENDBRANCH  15  18
ENDBRANCH   8  14
ENDBRANCH   4   7
ENDBRANCH   2   3
ENDBRANCH   1   2
BRANCH   1  31
ATOM     31  C   UNL A   1      38.377  22.215  25.727  1.00  0.00     0.118 C 
BRANCH  31  32
ATOM     32  N   UNL A   1      39.362  22.226  26.785  1.00  0.00    -0.352 N 
ATOM     33  C   UNL A   1      40.414  23.126  26.875  1.00  0.00     0.251 C 
ATOM     34  H   UNL A   1      39.281  21.546  27.493  1.00  0.00     0.163 HD
ATOM     35  O   UNL A   1      41.551  22.719  26.926  1.00  0.00    -0.269 OA
BRANCH  33  36
ATOM     36  C   UNL A   1      40.047  24.536  27.190  1.00  0.00     0.039 A 
ATOM     37  C   UNL A   1      40.752  25.538  26.506  1.00  0.00     0.014 A 
ATOM     38  C   UNL A   1      39.262  24.860  28.294  1.00  0.00     0.014 A 
ATOM     39  C   UNL A   1      40.847  26.814  27.058  1.00  0.00     0.010 A 
ATOM     40  C   UNL A   1      39.367  26.111  28.848  1.00  0.00     0.010 A 
ATOM     41  C   UNL A   1      40.232  27.047  28.281  1.00  0.00    -0.014 A 
BRANCH  41  42
ATOM     42  C   UNL A   1      40.420  28.219  29.109  1.00  0.00     0.031 A 
ATOM     43  C   UNL A   1      39.509  29.366  28.955  1.00  0.00     0.074 A 
ATOM     44  C   UNL A   1      41.257  28.099  30.165  1.00  0.00     0.049 A 
ATOM     45  N   UNL A   1      39.682  30.506  29.526  1.00  0.00    -0.248 NA
ATOM     46  C   UNL A   1      38.325  29.319  28.102  1.00  0.00     0.031 C 
ATOM     47  C   UNL A   1      41.293  28.927  31.363  1.00  0.00     0.029 A 
ATOM     48  N   UNL A   1      42.370  27.263  30.321  1.00  0.00    -0.354 N 
ATOM     49  C   UNL A   1      38.512  31.220  29.381  1.00  0.00     0.074 A 
ATOM     50  C   UNL A   1      37.775  30.508  28.368  1.00  0.00     0.031 C 
ATOM     51  C   UNL A   1      42.496  28.783  31.946  1.00  0.00     0.029 A 
ATOM     52  C   UNL A   1      43.317  28.044  31.003  1.00  0.00     0.049 A 
ATOM     53  H   UNL A   1      42.467  26.331  30.019  1.00  0.00     0.167 HD
ATOM     54  C   UNL A   1      38.260  32.229  30.262  1.00  0.00     0.034 A 
ATOM     55  C   UNL A   1      44.458  28.532  30.422  1.00  0.00     0.034 A 
ATOM     56  C   UNL A   1      39.459  32.504  31.077  1.00  0.00     0.049 A 
ATOM     57  C   UNL A   1      44.566  30.052  30.489  1.00  0.00     0.074 A 
ATOM     58  C   UNL A   1      39.830  32.161  32.367  1.00  0.00     0.029 A 
ATOM     59  N   UNL A   1      40.613  32.968  30.450  1.00  0.00    -0.354 N 
ATOM     60  N   UNL A   1      43.575  30.846  30.794  1.00  0.00    -0.248 NA
ATOM     61  C   UNL A   1      45.793  30.798  30.223  1.00  0.00     0.031 C 
ATOM     62  C   UNL A   1      41.241  32.325  32.474  1.00  0.00     0.029 A 
ATOM     63  C   UNL A   1      41.722  32.809  31.268  1.00  0.00     0.049 A 
ATOM     64  H   UNL A   1      40.639  33.359  29.547  1.00  0.00     0.167 HD
ATOM     65  C   UNL A   1      43.956  32.157  30.683  1.00  0.00     0.074 A 
ATOM     66  C   UNL A   1      45.380  32.068  30.396  1.00  0.00     0.031 C 
ATOM     67  C   UNL A   1      43.054  33.185  30.790  1.00  0.00     0.034 A 
BRANCH  54  68
ATOM     68  C   UNL A   1      36.890  32.820  30.595  1.00  0.00     0.023 A 
ATOM     69  C   UNL A   1      36.384  32.573  31.893  1.00  0.00     0.012 A 
ATOM     70  C   UNL A   1      36.010  33.510  29.725  1.00  0.00     0.148 A 
ATOM     71  C   UNL A   1      35.085  32.929  32.284  1.00  0.00     0.002 A 
ATOM     72  C   UNL A   1      34.716  33.877  30.113  1.00  0.00     0.091 A 
ATOM     73  F   UNL A   1      36.389  33.823  28.490  1.00  0.00    -0.205 F 
ATOM     74  C   UNL A   1      34.245  33.575  31.390  1.00  0.00     0.022 A 
BRANCH  72  75
ATOM     75  S   UNL A   1      33.572  34.725  29.001  1.00  0.00     0.127 S 
ATOM     76  O   UNL A   1      33.225  33.665  28.053  1.00  0.00    -0.237 OA
ATOM     77  O   UNL A   1      32.486  35.109  29.903  1.00  0.00    -0.237 OA
ATOM     78  O   UNL A   1      34.303  35.844  28.420  1.00  0.00    -0.744 OA
ENDBRANCH  72  75
ENDBRANCH  54  68
BRANCH  55  79
ATOM     79  C   UNL A   1      44.990  27.670  29.321  1.00  0.00     0.023 A 
ATOM     80  C   UNL A   1      45.385  26.358  29.683  1.00  0.00     0.012 A 
ATOM     81  C   UNL A   1      44.745  27.951  27.966  1.00  0.00     0.148 A 
ATOM     82  C   UNL A   1      45.353  25.317  28.754  1.00  0.00     0.002 A 
ATOM     83  C   UNL A   1      44.735  26.907  27.038  1.00  0.00     0.091 A 
ATOM     84  F   UNL A   1      44.473  29.213  27.608  1.00  0.00    -0.205 F 
ATOM     85  C   UNL A   1      44.985  25.585  27.441  1.00  0.00     0.022 A 
BRANCH  83  86
ATOM     86  S   UNL A   1      44.295  27.177  25.314  1.00  0.00     0.127 S 
ATOM     87  O   UNL A   1      45.574  27.596  24.748  1.00  0.00    -0.237 OA
ATOM     88  O   UNL A   1      43.845  25.852  24.888  1.00  0.00    -0.237 OA
ATOM     89  O   UNL A   1      43.242  28.181  25.349  1.00  0.00    -0.744 OA
ENDBRANCH  83  86
ENDBRANCH  55  79
BRANCH  67  90
ATOM     90  C   UNL A   1      43.316  34.649  30.443  1.00  0.00     0.023 A 
ATOM     91  C   UNL A   1      43.759  35.588  31.393  1.00  0.00     0.012 A 
ATOM     92  C   UNL A   1      43.261  35.103  29.096  1.00  0.00     0.148 A 
ATOM     93  C   UNL A   1      44.073  36.910  31.049  1.00  0.00     0.002 A 
ATOM     94  C   UNL A   1      43.690  36.380  28.741  1.00  0.00     0.091 A 
ATOM     95  F   UNL A   1      42.765  34.308  28.137  1.00  0.00    -0.205 F 
ATOM     96  C   UNL A   1      44.065  37.300  29.719  1.00  0.00     0.022 A 
BRANCH  94  97
ATOM     97  S   UNL A   1      43.936  36.833  27.016  1.00  0.00     0.127 S 
ATOM     98  O   UNL A   1      42.575  36.769  26.488  1.00  0.00    -0.237 OA
ATOM     99  O   UNL A   1      44.484  38.187  27.121  1.00  0.00    -0.237 OA
ATOM    100  O   UNL A   1      44.877  35.850  26.498  1.00  0.00    -0.744 OA
ENDBRANCH  94  97
ENDBRANCH  67  90
ENDBRANCH  41  42
ENDBRANCH  33  36
ENDBRANCH  31  32
ENDBRANCH   1  31
TORSDOF 16
ENDMDL
MODEL 3
REMARK VINA RESULT:     -13.6      3.972      9.652
REMARK SMILES Cc1ccc(-c2nc(NC(=O)[C@H]3[C@@H](C(=O)NCCCNC(=O)c4ccc(-c5c6nc(c(-c7cccc(S(=O)(=O)[O-])c7F)c7ccc([nH]7)c(-c7cccc(S(=O)(=O)[O-])c7F)c7nc(c(-c8cccc(S(=O)(=O)[O-])c8F)c8ccc5[nH]8)C=C7)C=C6)cc4)[C@@H]4CC[C@H]3O4)sc2C)cc1
REMARK SMILES IDX 18 1 17 2 16 3 14 4 15 5 13 7 12 8 89 9 86 10 88 11 90 12
REMARK SMILES IDX 87 13 10 14 9 15 11 17 8 18 6 19 7 20 92 21 91 22 93 23 5 24
REMARK SMILES IDX 1 25 2 26 3 27 95 28 4 29 94 30 19 31 20 32 21 33 22 35
REMARK SMILES IDX 23 36 24 37 85 38 25 39 84 40 26 41 27 42 28 43 78 44 29 45
REMARK SMILES IDX 83 46 77 47 79 48 30 49 82 50 76 51 75 52 31 54 63 55 43 56
REMARK SMILES IDX 62 57 44 58 47 59 61 60 80 61 45 62 46 63 60 65 81 66 48 67
REMARK SMILES IDX 32 68 33 69 41 70 34 71 36 72 42 73 35 74 37 75 38 76 39 77
REMARK SMILES IDX 40 78 64 79 65 80 73 81 66 82 68 83 74 84 67 85 69 86 70 87
REMARK SMILES IDX 71 88 72 89 49 90 50 91 58 92 51 93 53 94 59 95 52 96 54 97
REMARK SMILES IDX 55 98 56 99 57 100
REMARK H PARENT 16 6 9 16 20 34 79 53 47 64
REMARK Flexibility Score: inf
ROOT
ATOM      1  C   UNL A   1      37.177  23.633  25.405  1.00  0.00     0.042 C 
ENDROOT
BRANCH   1   2
ATOM      2  C   UNL A   1      36.069  23.337  26.401  1.00  0.00     0.117 C 
BRANCH   2   3
ATOM      3  N   UNL A   1      34.732  23.814  26.111  1.00  0.00    -0.356 N 
ATOM      4  C   UNL A   1      33.567  23.093  26.113  1.00  0.00     0.226 C 
ATOM      5  O   UNL A   1      32.609  23.513  26.764  1.00  0.00    -0.275 OA
ATOM      6  H   UNL A   1      34.650  24.769  25.884  1.00  0.00     0.163 HD
BRANCH   4   7
ATOM      7  C   UNL A   1      33.512  21.808  25.347  1.00  0.00     0.122 C 
ATOM      8  C   UNL A   1      33.203  21.627  23.852  1.00  0.00     0.123 C 
ATOM      9  C   UNL A   1      32.786  20.133  23.912  1.00  0.00     0.132 C 
ATOM     10  C   UNL A   1      32.619  20.709  25.994  1.00  0.00     0.132 C 
ATOM     11  C   UNL A   1      33.816  19.220  24.647  1.00  0.00     0.035 C 
ATOM     12  O   UNL A   1      31.756  20.265  24.913  1.00  0.00    -0.373 OA
ATOM     13  C   UNL A   1      33.461  19.448  26.127  1.00  0.00     0.035 C 
BRANCH   8  14
ATOM     14  C   UNL A   1      32.282  22.296  22.770  1.00  0.00     0.232 C 
ATOM     15  N   UNL A   1      31.538  23.423  22.657  1.00  0.00    -0.302 N 
ATOM     16  H   UNL A   1      30.890  23.348  21.921  1.00  0.00     0.172 HD
ATOM     17  O   UNL A   1      32.139  21.564  21.761  1.00  0.00    -0.274 OA
BRANCH  15  18
ATOM     18  C   UNL A   1      31.438  24.635  23.282  1.00  0.00     0.190 A 
ATOM     19  C   UNL A   1      31.872  26.554  24.341  1.00  0.00     0.086 A 
ATOM     20  N   UNL A   1      32.386  25.301  23.923  1.00  0.00    -0.220 NA
ATOM     21  C   UNL A   1      30.650  26.837  23.751  1.00  0.00     0.031 A 
ATOM     22  S   UNL A   1      29.952  25.344  23.428  1.00  0.00    -0.101 S 
ATOM     23  C   UNL A   1      29.849  28.052  23.483  1.00  0.00     0.059 C 
BRANCH  19  24
ATOM     24  C   UNL A   1      32.510  27.488  25.272  1.00  0.00     0.001 A 
ATOM     25  C   UNL A   1      34.119  30.439  28.013  1.00  0.00     0.044 C 
ATOM     26  C   UNL A   1      33.576  29.398  27.080  1.00  0.00    -0.051 A 
ATOM     27  C   UNL A   1      34.352  28.874  26.034  1.00  0.00     0.004 A 
ATOM     28  C   UNL A   1      32.282  28.915  27.257  1.00  0.00     0.004 A 
ATOM     29  C   UNL A   1      33.826  27.927  25.134  1.00  0.00     0.010 A 
ATOM     30  C   UNL A   1      31.774  27.959  26.381  1.00  0.00     0.010 A 
ENDBRANCH  19  24
ENDBRANCH  15  18
ENDBRANCH   8  14
ENDBRANCH   4   7
ENDBRANCH   2   3
ENDBRANCH   1   2
BRANCH   1  31
ATOM     31  C   UNL A   1      38.257  22.571  25.281  1.00  0.00     0.118 C 
BRANCH  31  32
ATOM     32  N   UNL A   1      38.995  22.447  26.518  1.00  0.00    -0.352 N 
ATOM     33  C   UNL A   1      40.069  23.247  26.880  1.00  0.00     0.251 C 
ATOM     34  H   UNL A   1      38.716  21.744  27.149  1.00  0.00     0.163 HD
ATOM     35  O   UNL A   1      41.136  22.741  27.138  1.00  0.00    -0.269 OA
BRANCH  33  36
ATOM     36  C   UNL A   1      39.751  24.667  27.202  1.00  0.00     0.039 A 
ATOM     37  C   UNL A   1      40.487  25.648  26.519  1.00  0.00     0.014 A 
ATOM     38  C   UNL A   1      38.982  25.013  28.311  1.00  0.00     0.014 A 
ATOM     39  C   UNL A   1      40.627  26.917  27.076  1.00  0.00     0.010 A 
ATOM     40  C   UNL A   1      39.132  26.257  28.869  1.00  0.00     0.010 A 
ATOM     41  C   UNL A   1      40.026  27.166  28.303  1.00  0.00    -0.014 A 
BRANCH  41  42
ATOM     42  C   UNL A   1      40.256  28.328  29.134  1.00  0.00     0.031 A 
ATOM     43  C   UNL A   1      39.378  29.502  28.996  1.00  0.00     0.074 A 
ATOM     44  C   UNL A   1      41.100  28.178  30.181  1.00  0.00     0.049 A 
ATOM     45  N   UNL A   1      39.591  30.634  29.570  1.00  0.00    -0.248 NA
ATOM     46  C   UNL A   1      38.185  29.494  28.154  1.00  0.00     0.031 C 
ATOM     47  C   UNL A   1      41.173  28.998  31.383  1.00  0.00     0.029 A 
ATOM     48  N   UNL A   1      42.189  27.308  30.322  1.00  0.00    -0.354 N 
ATOM     49  C   UNL A   1      38.441  31.382  29.440  1.00  0.00     0.074 A 
ATOM     50  C   UNL A   1      37.673  30.698  28.432  1.00  0.00     0.031 C 
ATOM     51  C   UNL A   1      42.377  28.816  31.952  1.00  0.00     0.029 A 
ATOM     52  C   UNL A   1      43.166  28.057  30.998  1.00  0.00     0.049 A 
ATOM     53  H   UNL A   1      42.255  26.375  30.014  1.00  0.00     0.167 HD
ATOM     54  C   UNL A   1      38.228  32.393  30.329  1.00  0.00     0.034 A 
ATOM     55  C   UNL A   1      44.315  28.515  30.407  1.00  0.00     0.034 A 
ATOM     56  C   UNL A   1      39.443  32.629  31.133  1.00  0.00     0.049 A 
ATOM     57  C   UNL A   1      44.469  30.030  30.480  1.00  0.00     0.074 A 
ATOM     58  C   UNL A   1      39.817  32.269  32.417  1.00  0.00     0.029 A 
ATOM     59  N   UNL A   1      40.603  33.062  30.496  1.00  0.00    -0.354 N 
ATOM     60  N   UNL A   1      43.505  30.851  30.800  1.00  0.00    -0.248 NA
ATOM     61  C   UNL A   1      45.715  30.741  30.206  1.00  0.00     0.031 C 
ATOM     62  C   UNL A   1      41.232  32.390  32.510  1.00  0.00     0.029 A 
ATOM     63  C   UNL A   1      41.715  32.866  31.302  1.00  0.00     0.049 A 
ATOM     64  H   UNL A   1      40.632  33.457  29.595  1.00  0.00     0.167 HD
ATOM     65  C   UNL A   1      43.923  32.151  30.691  1.00  0.00     0.074 A 
ATOM     66  C   UNL A   1      45.341  32.021  30.389  1.00  0.00     0.031 C 
ATOM     67  C   UNL A   1      43.053  33.205  30.812  1.00  0.00     0.034 A 
BRANCH  54  68
ATOM     68  C   UNL A   1      36.880  33.023  30.679  1.00  0.00     0.023 A 
ATOM     69  C   UNL A   1      36.425  32.865  32.009  1.00  0.00     0.012 A 
ATOM     70  C   UNL A   1      35.972  33.670  29.803  1.00  0.00     0.148 A 
ATOM     71  C   UNL A   1      35.147  33.263  32.429  1.00  0.00     0.002 A 
ATOM     72  C   UNL A   1      34.699  34.078  30.219  1.00  0.00     0.091 A 
ATOM     73  F   UNL A   1      36.303  33.899  28.536  1.00  0.00    -0.205 F 
ATOM     74  C   UNL A   1      34.278  33.863  31.531  1.00  0.00     0.022 A 
BRANCH  72  75
ATOM     75  S   UNL A   1      33.520  34.870  29.102  1.00  0.00     0.127 S 
ATOM     76  O   UNL A   1      34.319  35.955  28.534  1.00  0.00    -0.237 OA
ATOM     77  O   UNL A   1      33.207  33.792  28.164  1.00  0.00    -0.237 OA
ATOM     78  O   UNL A   1      32.395  35.307  29.920  1.00  0.00    -0.744 OA
ENDBRANCH  72  75
ENDBRANCH  54  68
BRANCH  55  79
ATOM     79  C   UNL A   1      44.810  27.642  29.297  1.00  0.00     0.023 A 
ATOM     80  C   UNL A   1      45.168  26.317  29.648  1.00  0.00     0.012 A 
ATOM     81  C   UNL A   1      44.560  27.939  27.945  1.00  0.00     0.148 A 
ATOM     82  C   UNL A   1      45.096  25.283  28.714  1.00  0.00     0.002 A 
ATOM     83  C   UNL A   1      44.510  26.900  27.013  1.00  0.00     0.091 A 
ATOM     84  F   UNL A   1      44.323  29.210  27.597  1.00  0.00    -0.205 F 
ATOM     85  C   UNL A   1      44.724  25.569  27.407  1.00  0.00     0.022 A 
BRANCH  83  86
ATOM     86  S   UNL A   1      44.062  27.193  25.294  1.00  0.00     0.127 S 
ATOM     87  O   UNL A   1      45.348  27.576  24.718  1.00  0.00    -0.237 OA
ATOM     88  O   UNL A   1      43.567  25.884  24.866  1.00  0.00    -0.237 OA
ATOM     89  O   UNL A   1      43.041  28.228  25.344  1.00  0.00    -0.744 OA
ENDBRANCH  83  86
ENDBRANCH  55  79
BRANCH  67  90
ATOM     90  C   UNL A   1      43.355  34.662  30.469  1.00  0.00     0.023 A 
ATOM     91  C   UNL A   1      43.876  35.572  31.408  1.00  0.00     0.012 A 
ATOM     92  C   UNL A   1      43.256  35.135  29.132  1.00  0.00     0.148 A 
ATOM     93  C   UNL A   1      44.225  36.885  31.066  1.00  0.00     0.002 A 
ATOM     94  C   UNL A   1      43.717  36.400  28.771  1.00  0.00     0.091 A 
ATOM     95  F   UNL A   1      42.686  34.372  28.188  1.00  0.00    -0.205 F 
ATOM     96  C   UNL A   1      44.171  37.292  29.742  1.00  0.00     0.022 A 
BRANCH  94  97
ATOM     97  S   UNL A   1      43.901  36.865  27.042  1.00  0.00     0.127 S 
ATOM     98  O   UNL A   1      45.008  36.012  26.614  1.00  0.00    -0.237 OA
ATOM     99  O   UNL A   1      42.600  36.501  26.478  1.00  0.00    -0.237 OA
ATOM    100  O   UNL A   1      44.161  38.298  27.062  1.00  0.00    -0.744 OA
ENDBRANCH  94  97
ENDBRANCH  67  90
ENDBRANCH  41  42
ENDBRANCH  33  36
ENDBRANCH  31  32
ENDBRANCH   1  31
TORSDOF 16
ENDMDL
