MODEL 1
REMARK VINA RESULT:     -11.9      0.000      0.000
REMARK SMILES C[C@@H]1CCCN(c2ccc(NC(=O)Cc3cccs3)c(C(=O)NCCCNC(=O)c3ccc(-c4c5nc(c(-c6cccc(S(=O)(=O)[O-])c6F)c6ccc([nH]6)c(-c6cccc(S(=O)(=O)[O-])c6F)c6nc(c(-c7cccc(S(=O)(=O)[O-])c7F)c7ccc4[nH]7)C=C6)C=C5)cc3)c2)C1
REMARK SMILES IDX 25 1 24 2 23 3 21 4 22 5 20 7 7 8 8 9 93 10 9 11 10 12 6 13
REMARK SMILES IDX 1 14 2 15 3 16 94 17 4 18 5 19 11 20 12 21 13 23 14 24 15 25
REMARK SMILES IDX 16 26 19 27 17 28 18 29 26 30 27 31 28 32 29 34 30 35 31 36
REMARK SMILES IDX 92 37 32 38 91 39 33 40 34 41 35 42 85 43 36 44 90 45 84 46
REMARK SMILES IDX 86 47 37 48 89 49 83 50 82 51 38 53 70 54 50 55 69 56 51 57
REMARK SMILES IDX 54 58 68 59 87 60 52 61 53 62 67 64 88 65 55 66 39 67 40 68
REMARK SMILES IDX 48 69 41 70 43 71 49 72 42 73 44 74 45 75 46 76 47 77 71 78
REMARK SMILES IDX 72 79 80 80 73 81 75 82 81 83 74 84 76 85 77 86 78 87 79 88
REMARK SMILES IDX 56 89 57 90 65 91 58 92 60 93 66 94 59 95 61 96 62 97 63 98
REMARK SMILES IDX 64 99
REMARK H PARENT 23 6 11 22 27 33 86 52 54 63
REMARK Flexibility Score: inf
ROOT
ATOM      1  C   UNL A   1      33.937  28.991  25.798  1.00  0.00     0.042 C 
ENDROOT
BRANCH   1   2
ATOM      2  C   UNL A   1      32.641  28.675  25.052  1.00  0.00     0.118 C 
BRANCH   2   3
ATOM      3  N   UNL A   1      31.674  28.046  25.933  1.00  0.00    -0.352 N 
ATOM      4  C   UNL A   1      31.101  26.801  25.974  1.00  0.00     0.253 C 
ATOM      5  O   UNL A   1      30.381  26.576  26.949  1.00  0.00    -0.269 OA
ATOM      6  H   UNL A   1      31.363  28.639  26.654  1.00  0.00     0.163 HD
BRANCH   4   7
ATOM      7  C   UNL A   1      31.354  25.712  24.973  1.00  0.00     0.065 A 
ATOM      8  C   UNL A   1      32.861  24.075  23.951  1.00  0.00     0.038 A 
ATOM      9  C   UNL A   1      31.792  23.569  23.220  1.00  0.00     0.028 A 
ATOM     10  C   UNL A   1      32.631  25.164  24.795  1.00  0.00     0.042 A 
ATOM     11  C   UNL A   1      30.531  24.160  23.298  1.00  0.00     0.029 A 
ATOM     12  C   UNL A   1      30.308  25.265  24.122  1.00  0.00     0.054 A 
BRANCH   8  13
ATOM     13  N   UNL A   1      34.101  23.480  23.868  1.00  0.00    -0.371 N 
ATOM     14  C   UNL A   1      37.118  23.992  26.134  1.00  0.00     0.009 C 
ATOM     15  C   UNL A   1      35.807  23.383  25.641  1.00  0.00     0.005 C 
ATOM     16  C   UNL A   1      36.001  21.896  25.305  1.00  0.00     0.007 C 
ATOM     17  C   UNL A   1      35.270  24.156  24.425  1.00  0.00     0.119 C 
ATOM     18  C   UNL A   1      34.706  21.284  24.772  1.00  0.00     0.022 C 
ATOM     19  C   UNL A   1      34.195  22.058  23.562  1.00  0.00     0.116 C 
ENDBRANCH   8  13
BRANCH  12  20
ATOM     20  N   UNL A   1      29.089  25.980  24.095  1.00  0.00    -0.325 N 
ATOM     21  C   UNL A   1      28.720  27.185  23.569  1.00  0.00     0.229 C 
ATOM     22  H   UNL A   1      28.352  25.510  24.548  1.00  0.00     0.169 HD
ATOM     23  O   UNL A   1      27.538  27.527  23.717  1.00  0.00    -0.274 OA
BRANCH  21  24
ATOM     24  C   UNL A   1      29.666  28.109  22.830  1.00  0.00     0.147 C 
BRANCH  24  25
ATOM     25  C   UNL A   1      29.313  29.573  22.881  1.00  0.00     0.014 A 
ATOM     26  C   UNL A   1      29.491  30.536  23.859  1.00  0.00     0.016 A 
ATOM     27  S   UNL A   1      28.583  30.270  21.481  1.00  0.00    -0.148 S 
ATOM     28  C   UNL A   1      29.098  31.840  23.436  1.00  0.00     0.012 A 
ATOM     29  C   UNL A   1      28.563  31.831  22.171  1.00  0.00     0.065 A 
ENDBRANCH  24  25
ENDBRANCH  21  24
ENDBRANCH  12  20
ENDBRANCH   4   7
ENDBRANCH   2   3
ENDBRANCH   1   2
BRANCH   1  30
ATOM     30  C   UNL A   1      33.717  29.245  27.288  1.00  0.00     0.118 C 
BRANCH  30  31
ATOM     31  N   UNL A   1      33.720  30.672  27.593  1.00  0.00    -0.352 N 
ATOM     32  C   UNL A   1      34.554  31.404  28.398  1.00  0.00     0.251 C 
ATOM     33  H   UNL A   1      33.011  31.192  27.149  1.00  0.00     0.163 HD
ATOM     34  O   UNL A   1      34.217  32.533  28.742  1.00  0.00    -0.269 OA
BRANCH  32  35
ATOM     35  C   UNL A   1      35.850  30.849  28.845  1.00  0.00     0.039 A 
ATOM     36  C   UNL A   1      35.860  29.876  29.849  1.00  0.00     0.014 A 
ATOM     37  C   UNL A   1      37.054  31.326  28.322  1.00  0.00     0.014 A 
ATOM     38  C   UNL A   1      37.075  29.349  30.294  1.00  0.00     0.010 A 
ATOM     39  C   UNL A   1      38.259  30.746  28.711  1.00  0.00     0.010 A 
ATOM     40  C   UNL A   1      38.283  29.762  29.710  1.00  0.00    -0.014 A 
BRANCH  40  41
ATOM     41  C   UNL A   1      39.586  29.181  30.125  1.00  0.00     0.031 A 
ATOM     42  C   UNL A   1      40.382  29.821  31.230  1.00  0.00     0.074 A 
ATOM     43  C   UNL A   1      40.094  28.138  29.440  1.00  0.00     0.049 A 
ATOM     44  N   UNL A   1      41.576  29.517  31.670  1.00  0.00    -0.248 NA
ATOM     45  C   UNL A   1      39.772  30.977  31.910  1.00  0.00     0.031 C 
ATOM     46  C   UNL A   1      39.451  27.482  28.298  1.00  0.00     0.029 A 
ATOM     47  N   UNL A   1      41.283  27.466  29.580  1.00  0.00    -0.354 N 
ATOM     48  C   UNL A   1      41.876  30.464  32.642  1.00  0.00     0.074 A 
ATOM     49  C   UNL A   1      40.754  31.373  32.707  1.00  0.00     0.031 C 
ATOM     50  C   UNL A   1      40.251  26.506  27.843  1.00  0.00     0.029 A 
ATOM     51  C   UNL A   1      41.475  26.484  28.638  1.00  0.00     0.049 A 
ATOM     52  H   UNL A   1      41.935  27.669  30.289  1.00  0.00     0.167 HD
ATOM     53  C   UNL A   1      42.975  30.552  33.430  1.00  0.00     0.034 A 
ATOM     54  C   UNL A   1      42.524  25.664  28.430  1.00  0.00     0.034 A 
ATOM     55  C   UNL A   1      44.062  29.613  33.397  1.00  0.00     0.049 A 
ATOM     56  C   UNL A   1      43.707  25.748  29.355  1.00  0.00     0.074 A 
ATOM     57  C   UNL A   1      45.175  29.556  34.216  1.00  0.00     0.029 A 
ATOM     58  N   UNL A   1      44.175  28.565  32.496  1.00  0.00    -0.354 N 
ATOM     59  N   UNL A   1      43.903  26.551  30.373  1.00  0.00    -0.248 NA
ATOM     60  C   UNL A   1      44.797  24.789  29.130  1.00  0.00     0.031 C 
ATOM     61  C   UNL A   1      45.972  28.484  33.798  1.00  0.00     0.029 A 
ATOM     62  C   UNL A   1      45.341  27.859  32.734  1.00  0.00     0.049 A 
ATOM     63  H   UNL A   1      43.522  28.355  31.790  1.00  0.00     0.167 HD
ATOM     64  C   UNL A   1      45.118  26.172  30.931  1.00  0.00     0.074 A 
ATOM     65  C   UNL A   1      45.603  25.052  30.151  1.00  0.00     0.031 C 
ATOM     66  C   UNL A   1      45.780  26.711  31.984  1.00  0.00     0.034 A 
BRANCH  53  67
ATOM     67  C   UNL A   1      43.029  31.671  34.438  1.00  0.00     0.023 A 
ATOM     68  C   UNL A   1      43.638  32.894  34.087  1.00  0.00     0.012 A 
ATOM     69  C   UNL A   1      42.428  31.539  35.705  1.00  0.00     0.148 A 
ATOM     70  C   UNL A   1      43.681  33.954  34.991  1.00  0.00     0.002 A 
ATOM     71  C   UNL A   1      42.436  32.616  36.585  1.00  0.00     0.091 A 
ATOM     72  F   UNL A   1      41.871  30.364  36.029  1.00  0.00    -0.205 F 
ATOM     73  C   UNL A   1      43.071  33.818  36.235  1.00  0.00     0.022 A 
BRANCH  71  74
ATOM     74  S   UNL A   1      41.608  32.572  38.179  1.00  0.00     0.127 S 
ATOM     75  O   UNL A   1      41.760  33.955  38.628  1.00  0.00    -0.237 OA
ATOM     76  O   UNL A   1      40.244  32.198  37.808  1.00  0.00    -0.237 OA
ATOM     77  O   UNL A   1      42.317  31.577  38.973  1.00  0.00    -0.744 OA
ENDBRANCH  71  74
ENDBRANCH  53  67
BRANCH  54  78
ATOM     78  C   UNL A   1      42.469  24.645  27.343  1.00  0.00     0.023 A 
ATOM     79  C   UNL A   1      43.241  24.834  26.181  1.00  0.00     0.012 A 
ATOM     80  C   UNL A   1      41.687  23.480  27.464  1.00  0.00     0.148 A 
ATOM     81  C   UNL A   1      43.211  23.900  25.145  1.00  0.00     0.002 A 
ATOM     82  C   UNL A   1      41.705  22.525  26.454  1.00  0.00     0.091 A 
ATOM     83  F   UNL A   1      40.950  23.322  28.573  1.00  0.00    -0.205 F 
ATOM     84  C   UNL A   1      42.452  22.742  25.285  1.00  0.00     0.022 A 
BRANCH  82  85
ATOM     85  S   UNL A   1      40.869  20.943  26.610  1.00  0.00     0.127 S 
ATOM     86  O   UNL A   1      39.543  21.249  26.082  1.00  0.00    -0.237 OA
ATOM     87  O   UNL A   1      41.689  20.080  25.759  1.00  0.00    -0.237 OA
ATOM     88  O   UNL A   1      40.927  20.609  28.028  1.00  0.00    -0.744 OA
ENDBRANCH  82  85
ENDBRANCH  54  78
BRANCH  66  89
ATOM     89  C   UNL A   1      47.086  26.076  32.387  1.00  0.00     0.023 A 
ATOM     90  C   UNL A   1      48.292  26.542  31.830  1.00  0.00     0.012 A 
ATOM     91  C   UNL A   1      47.120  25.075  33.377  1.00  0.00     0.148 A 
ATOM     92  C   UNL A   1      49.512  25.999  32.231  1.00  0.00     0.002 A 
ATOM     93  C   UNL A   1      48.342  24.575  33.808  1.00  0.00     0.091 A 
ATOM     94  F   UNL A   1      45.958  24.633  33.881  1.00  0.00    -0.205 F 
ATOM     95  C   UNL A   1      49.538  25.027  33.227  1.00  0.00     0.022 A 
BRANCH  93  96
ATOM     96  S   UNL A   1      48.477  23.392  35.153  1.00  0.00     0.127 S 
ATOM     97  O   UNL A   1      49.914  23.407  35.420  1.00  0.00    -0.237 OA
ATOM     98  O   UNL A   1      47.656  24.010  36.194  1.00  0.00    -0.237 OA
ATOM     99  O   UNL A   1      47.950  22.135  34.636  1.00  0.00    -0.744 OA
ENDBRANCH  93  96
ENDBRANCH  66  89
ENDBRANCH  40  41
ENDBRANCH  32  35
ENDBRANCH  30  31
ENDBRANCH   1  30
TORSDOF 17
ENDMDL
MODEL 2
REMARK VINA RESULT:     -11.6      4.716      9.777
REMARK SMILES C[C@@H]1CCCN(c2ccc(NC(=O)Cc3cccs3)c(C(=O)NCCCNC(=O)c3ccc(-c4c5nc(c(-c6cccc(S(=O)(=O)[O-])c6F)c6ccc([nH]6)c(-c6cccc(S(=O)(=O)[O-])c6F)c6nc(c(-c7cccc(S(=O)(=O)[O-])c7F)c7ccc4[nH]7)C=C6)C=C5)cc3)c2)C1
REMARK SMILES IDX 25 1 24 2 23 3 21 4 22 5 20 7 7 8 8 9 93 10 9 11 10 12 6 13
REMARK SMILES IDX 1 14 2 15 3 16 94 17 4 18 5 19 11 20 12 21 13 23 14 24 15 25
REMARK SMILES IDX 16 26 19 27 17 28 18 29 26 30 27 31 28 32 29 34 30 35 31 36
REMARK SMILES IDX 92 37 32 38 91 39 33 40 34 41 35 42 85 43 36 44 90 45 84 46
REMARK SMILES IDX 86 47 37 48 89 49 83 50 82 51 38 53 70 54 50 55 69 56 51 57
REMARK SMILES IDX 54 58 68 59 87 60 52 61 53 62 67 64 88 65 55 66 39 67 40 68
REMARK SMILES IDX 48 69 41 70 43 71 49 72 42 73 44 74 45 75 46 76 47 77 71 78
REMARK SMILES IDX 72 79 80 80 73 81 75 82 81 83 74 84 76 85 77 86 78 87 79 88
REMARK SMILES IDX 56 89 57 90 65 91 58 92 60 93 66 94 59 95 61 96 62 97 63 98
REMARK SMILES IDX 64 99
REMARK H PARENT 23 6 11 22 27 33 86 52 54 63
REMARK Flexibility Score: inf
ROOT
ATOM      1  C   UNL A   1      36.153  21.759  26.067  1.00  0.00     0.042 C 
ENDROOT
BRANCH   1   2
ATOM      2  C   UNL A   1      35.256  22.895  25.575  1.00  0.00     0.118 C 
BRANCH   2   3
ATOM      3  N   UNL A   1      35.204  22.926  24.125  1.00  0.00    -0.352 N 
ATOM      4  C   UNL A   1      34.277  23.374  23.221  1.00  0.00     0.253 C 
ATOM      5  O   UNL A   1      34.621  23.333  22.037  1.00  0.00    -0.269 OA
ATOM      6  H   UNL A   1      36.005  22.542  23.700  1.00  0.00     0.163 HD
BRANCH   4   7
ATOM      7  C   UNL A   1      32.945  23.961  23.584  1.00  0.00     0.065 A 
ATOM      8  C   UNL A   1      31.620  25.690  24.702  1.00  0.00     0.038 A 
ATOM      9  C   UNL A   1      30.469  25.155  24.134  1.00  0.00     0.028 A 
ATOM     10  C   UNL A   1      32.840  25.063  24.443  1.00  0.00     0.042 A 
ATOM     11  C   UNL A   1      30.528  23.996  23.360  1.00  0.00     0.029 A 
ATOM     12  C   UNL A   1      31.746  23.355  23.122  1.00  0.00     0.054 A 
BRANCH   8  13
ATOM     13  N   UNL A   1      31.548  26.837  25.462  1.00  0.00    -0.371 N 
ATOM     14  C   UNL A   1      34.411  28.880  26.922  1.00  0.00     0.009 C 
ATOM     15  C   UNL A   1      33.374  28.431  25.893  1.00  0.00     0.005 C 
ATOM     16  C   UNL A   1      32.383  29.570  25.602  1.00  0.00     0.007 C 
ATOM     17  C   UNL A   1      32.638  27.171  26.377  1.00  0.00     0.119 C 
ATOM     18  C   UNL A   1      31.317  29.121  24.605  1.00  0.00     0.022 C 
ATOM     19  C   UNL A   1      30.591  27.876  25.105  1.00  0.00     0.116 C 
ENDBRANCH   8  13
BRANCH  12  20
ATOM     20  N   UNL A   1      31.811  22.097  22.482  1.00  0.00    -0.325 N 
ATOM     21  C   UNL A   1      32.121  20.839  22.915  1.00  0.00     0.229 C 
ATOM     22  H   UNL A   1      31.586  22.135  21.524  1.00  0.00     0.169 HD
ATOM     23  O   UNL A   1      32.076  19.927  22.077  1.00  0.00    -0.274 OA
BRANCH  21  24
ATOM     24  C   UNL A   1      32.513  20.510  24.341  1.00  0.00     0.147 C 
BRANCH  24  25
ATOM     25  C   UNL A   1      33.229  19.197  24.529  1.00  0.00     0.014 A 
ATOM     26  C   UNL A   1      34.570  18.857  24.487  1.00  0.00     0.016 A 
ATOM     27  S   UNL A   1      32.274  17.811  24.912  1.00  0.00    -0.148 S 
ATOM     28  C   UNL A   1      34.813  17.496  24.834  1.00  0.00     0.012 A 
ATOM     29  C   UNL A   1      33.647  16.809  25.064  1.00  0.00     0.065 A 
ENDBRANCH  24  25
ENDBRANCH  21  24
ENDBRANCH  12  20
ENDBRANCH   4   7
ENDBRANCH   2   3
ENDBRANCH   1   2
BRANCH   1  30
ATOM     30  C   UNL A   1      37.227  21.370  25.053  1.00  0.00     0.118 C 
BRANCH  30  31
ATOM     31  N   UNL A   1      38.147  20.380  25.603  1.00  0.00    -0.352 N 
ATOM     32  C   UNL A   1      39.419  20.530  26.093  1.00  0.00     0.251 C 
ATOM     33  H   UNL A   1      37.800  19.459  25.626  1.00  0.00     0.163 HD
ATOM     34  O   UNL A   1      40.125  19.536  26.243  1.00  0.00    -0.269 OA
BRANCH  32  35
ATOM     35  C   UNL A   1      39.939  21.869  26.446  1.00  0.00     0.039 A 
ATOM     36  C   UNL A   1      40.905  21.976  27.452  1.00  0.00     0.014 A 
ATOM     37  C   UNL A   1      39.436  23.019  25.834  1.00  0.00     0.014 A 
ATOM     38  C   UNL A   1      41.399  23.233  27.808  1.00  0.00     0.010 A 
ATOM     39  C   UNL A   1      39.984  24.262  26.136  1.00  0.00     0.010 A 
ATOM     40  C   UNL A   1      40.961  24.385  27.136  1.00  0.00    -0.014 A 
BRANCH  40  41
ATOM     41  C   UNL A   1      41.507  25.728  27.456  1.00  0.00     0.031 A 
ATOM     42  C   UNL A   1      42.928  26.073  27.099  1.00  0.00     0.074 A 
ATOM     43  C   UNL A   1      40.753  26.600  28.155  1.00  0.00     0.049 A 
ATOM     44  N   UNL A   1      43.609  27.155  27.375  1.00  0.00    -0.248 NA
ATOM     45  C   UNL A   1      43.697  25.055  26.362  1.00  0.00     0.031 C 
ATOM     46  C   UNL A   1      39.388  26.349  28.626  1.00  0.00     0.029 A 
ATOM     47  N   UNL A   1      41.038  27.859  28.620  1.00  0.00    -0.354 N 
ATOM     48  C   UNL A   1      44.891  26.932  26.888  1.00  0.00     0.074 A 
ATOM     49  C   UNL A   1      44.905  25.599  26.326  1.00  0.00     0.031 C 
ATOM     50  C   UNL A   1      38.957  27.418  29.313  1.00  0.00     0.029 A 
ATOM     51  C   UNL A   1      40.020  28.417  29.358  1.00  0.00     0.049 A 
ATOM     52  H   UNL A   1      41.890  28.319  28.443  1.00  0.00     0.167 HD
ATOM     53  C   UNL A   1      45.955  27.771  26.883  1.00  0.00     0.034 A 
ATOM     54  C   UNL A   1      39.954  29.596  30.006  1.00  0.00     0.034 A 
ATOM     55  C   UNL A   1      45.919  29.114  27.394  1.00  0.00     0.049 A 
ATOM     56  C   UNL A   1      41.130  30.531  29.936  1.00  0.00     0.074 A 
ATOM     57  C   UNL A   1      46.910  30.078  27.352  1.00  0.00     0.029 A 
ATOM     58  N   UNL A   1      44.835  29.683  28.044  1.00  0.00    -0.354 N 
ATOM     59  N   UNL A   1      42.283  30.364  29.333  1.00  0.00    -0.248 NA
ATOM     60  C   UNL A   1      40.986  31.833  30.603  1.00  0.00     0.031 C 
ATOM     61  C   UNL A   1      46.431  31.226  27.993  1.00  0.00     0.029 A 
ATOM     62  C   UNL A   1      45.133  30.983  28.413  1.00  0.00     0.049 A 
ATOM     63  H   UNL A   1      43.979  29.229  28.218  1.00  0.00     0.167 HD
ATOM     64  C   UNL A   1      42.985  31.549  29.515  1.00  0.00     0.074 A 
ATOM     65  C   UNL A   1      42.120  32.435  30.267  1.00  0.00     0.031 C 
ATOM     66  C   UNL A   1      44.238  31.871  29.110  1.00  0.00     0.034 A 
BRANCH  53  67
ATOM     67  C   UNL A   1      47.233  27.283  26.251  1.00  0.00     0.023 A 
ATOM     68  C   UNL A   1      47.506  27.600  24.904  1.00  0.00     0.012 A 
ATOM     69  C   UNL A   1      48.189  26.567  26.998  1.00  0.00     0.148 A 
ATOM     70  C   UNL A   1      48.692  27.182  24.300  1.00  0.00     0.002 A 
ATOM     71  C   UNL A   1      49.388  26.193  26.403  1.00  0.00     0.091 A 
ATOM     72  F   UNL A   1      47.903  26.258  28.271  1.00  0.00    -0.205 F 
ATOM     73  C   UNL A   1      49.636  26.489  25.053  1.00  0.00     0.022 A 
BRANCH  71  74
ATOM     74  S   UNL A   1      50.704  25.367  27.306  1.00  0.00     0.127 S 
ATOM     75  O   UNL A   1      50.006  24.199  27.840  1.00  0.00    -0.237 OA
ATOM     76  O   UNL A   1      51.666  25.071  26.245  1.00  0.00    -0.237 OA
ATOM     77  O   UNL A   1      51.171  26.325  28.300  1.00  0.00    -0.744 OA
ENDBRANCH  71  74
ENDBRANCH  53  67
BRANCH  54  78
ATOM     78  C   UNL A   1      38.702  29.987  30.715  1.00  0.00     0.023 A 
ATOM     79  C   UNL A   1      38.502  29.564  32.044  1.00  0.00     0.012 A 
ATOM     80  C   UNL A   1      37.728  30.796  30.100  1.00  0.00     0.148 A 
ATOM     81  C   UNL A   1      37.341  29.912  32.735  1.00  0.00     0.002 A 
ATOM     82  C   UNL A   1      36.600  31.186  30.812  1.00  0.00     0.091 A 
ATOM     83  F   UNL A   1      37.930  31.180  28.831  1.00  0.00    -0.205 F 
ATOM     84  C   UNL A   1      36.396  30.730  32.124  1.00  0.00     0.022 A 
BRANCH  82  85
ATOM     85  S   UNL A   1      35.401  32.351  30.154  1.00  0.00     0.127 S 
ATOM     86  O   UNL A   1      34.903  31.638  28.981  1.00  0.00    -0.237 OA
ATOM     87  O   UNL A   1      34.449  32.465  31.259  1.00  0.00    -0.237 OA
ATOM     88  O   UNL A   1      36.150  33.573  29.885  1.00  0.00    -0.744 OA
ENDBRANCH  82  85
ENDBRANCH  54  78
BRANCH  66  89
ATOM     89  C   UNL A   1      44.744  33.252  29.434  1.00  0.00     0.023 A 
ATOM     90  C   UNL A   1      45.378  33.495  30.667  1.00  0.00     0.012 A 
ATOM     91  C   UNL A   1      44.661  34.287  28.481  1.00  0.00     0.148 A 
ATOM     92  C   UNL A   1      45.896  34.756  30.960  1.00  0.00     0.002 A 
ATOM     93  C   UNL A   1      45.224  35.526  28.760  1.00  0.00     0.091 A 
ATOM     94  F   UNL A   1      44.037  34.040  27.320  1.00  0.00    -0.205 F 
ATOM     95  C   UNL A   1      45.831  35.765  30.003  1.00  0.00     0.022 A 
BRANCH  93  96
ATOM     96  S   UNL A   1      45.273  36.854  27.552  1.00  0.00     0.127 S 
ATOM     97  O   UNL A   1      45.964  37.907  28.294  1.00  0.00    -0.237 OA
ATOM     98  O   UNL A   1      46.054  36.258  26.467  1.00  0.00    -0.237 OA
ATOM     99  O   UNL A   1      43.885  37.137  27.211  1.00  0.00    -0.744 OA
ENDBRANCH  93  96
ENDBRANCH  66  89
ENDBRANCH  40  41
ENDBRANCH  32  35
ENDBRANCH  30  31
ENDBRANCH   1  30
TORSDOF 17
ENDMDL
MODEL 3
REMARK VINA RESULT:     -11.6      1.584      2.226
REMARK SMILES C[C@@H]1CCCN(c2ccc(NC(=O)Cc3cccs3)c(C(=O)NCCCNC(=O)c3ccc(-c4c5nc(c(-c6cccc(S(=O)(=O)[O-])c6F)c6ccc([nH]6)c(-c6cccc(S(=O)(=O)[O-])c6F)c6nc(c(-c7cccc(S(=O)(=O)[O-])c7F)c7ccc4[nH]7)C=C6)C=C5)cc3)c2)C1
REMARK SMILES IDX 25 1 24 2 23 3 21 4 22 5 20 7 7 8 8 9 93 10 9 11 10 12 6 13
REMARK SMILES IDX 1 14 2 15 3 16 94 17 4 18 5 19 11 20 12 21 13 23 14 24 15 25
REMARK SMILES IDX 16 26 19 27 17 28 18 29 26 30 27 31 28 32 29 34 30 35 31 36
REMARK SMILES IDX 92 37 32 38 91 39 33 40 34 41 35 42 85 43 36 44 90 45 84 46
REMARK SMILES IDX 86 47 37 48 89 49 83 50 82 51 38 53 70 54 50 55 69 56 51 57
REMARK SMILES IDX 54 58 68 59 87 60 52 61 53 62 67 64 88 65 55 66 39 67 40 68
REMARK SMILES IDX 48 69 41 70 43 71 49 72 42 73 44 74 45 75 46 76 47 77 71 78
REMARK SMILES IDX 72 79 80 80 73 81 75 82 81 83 74 84 76 85 77 86 78 87 79 88
REMARK SMILES IDX 56 89 57 90 65 91 58 92 60 93 66 94 59 95 61 96 62 97 63 98
REMARK SMILES IDX 64 99
REMARK H PARENT 23 6 11 22 27 33 86 52 54 63
REMARK Flexibility Score: inf
ROOT
ATOM      1  C   UNL A   1      32.182  29.326  27.251  1.00  0.00     0.042 C 
ENDROOT
BRANCH   1   2
ATOM      2  C   UNL A   1      32.148  27.848  27.637  1.00  0.00     0.118 C 
BRANCH   2   3
ATOM      3  N   UNL A   1      31.040  27.167  26.991  1.00  0.00    -0.352 N 
ATOM      4  C   UNL A   1      30.956  26.112  26.121  1.00  0.00     0.253 C 
ATOM      5  O   UNL A   1      29.814  25.728  25.855  1.00  0.00    -0.269 OA
ATOM      6  H   UNL A   1      30.162  27.545  27.228  1.00  0.00     0.163 HD
BRANCH   4   7
ATOM      7  C   UNL A   1      32.135  25.376  25.555  1.00  0.00     0.065 A 
ATOM      8  C   UNL A   1      33.477  23.336  25.373  1.00  0.00     0.038 A 
ATOM      9  C   UNL A   1      34.239  23.944  24.382  1.00  0.00     0.028 A 
ATOM     10  C   UNL A   1      32.454  24.076  25.969  1.00  0.00     0.042 A 
ATOM     11  C   UNL A   1      34.014  25.273  24.022  1.00  0.00     0.029 A 
ATOM     12  C   UNL A   1      33.006  26.020  24.637  1.00  0.00     0.054 A 
BRANCH   8  13
ATOM     13  N   UNL A   1      33.709  22.023  25.717  1.00  0.00    -0.371 N 
ATOM     14  C   UNL A   1      32.525  18.875  23.931  1.00  0.00     0.009 C 
ATOM     15  C   UNL A   1      33.438  20.053  24.264  1.00  0.00     0.005 C 
ATOM     16  C   UNL A   1      34.795  19.548  24.778  1.00  0.00     0.007 C 
ATOM     17  C   UNL A   1      32.772  20.984  25.291  1.00  0.00     0.119 C 
ATOM     18  C   UNL A   1      35.704  20.717  25.153  1.00  0.00     0.022 C 
ATOM     19  C   UNL A   1      35.032  21.624  26.178  1.00  0.00     0.116 C 
ENDBRANCH   8  13
BRANCH  12  20
ATOM     20  N   UNL A   1      32.865  27.407  24.408  1.00  0.00    -0.325 N 
ATOM     21  C   UNL A   1      32.041  28.147  23.609  1.00  0.00     0.229 C 
ATOM     22  H   UNL A   1      33.490  27.955  24.937  1.00  0.00     0.169 HD
ATOM     23  O   UNL A   1      32.172  29.378  23.648  1.00  0.00    -0.274 OA
BRANCH  21  24
ATOM     24  C   UNL A   1      30.996  27.548  22.690  1.00  0.00     0.147 C 
BRANCH  24  25
ATOM     25  C   UNL A   1      29.643  28.212  22.727  1.00  0.00     0.014 A 
ATOM     26  C   UNL A   1      28.435  27.826  23.279  1.00  0.00     0.016 A 
ATOM     27  S   UNL A   1      29.497  29.771  22.000  1.00  0.00    -0.148 S 
ATOM     28  C   UNL A   1      27.425  28.826  23.169  1.00  0.00     0.012 A 
ATOM     29  C   UNL A   1      27.864  29.925  22.473  1.00  0.00     0.065 A 
ENDBRANCH  24  25
ENDBRANCH  21  24
ENDBRANCH  12  20
ENDBRANCH   4   7
ENDBRANCH   2   3
ENDBRANCH   1   2
BRANCH   1  30
ATOM     30  C   UNL A   1      33.598  29.839  26.995  1.00  0.00     0.118 C 
BRANCH  30  31
ATOM     31  N   UNL A   1      33.728  31.249  27.349  1.00  0.00    -0.352 N 
ATOM     32  C   UNL A   1      34.588  31.868  28.219  1.00  0.00     0.251 C 
ATOM     33  H   UNL A   1      33.099  31.851  26.889  1.00  0.00     0.163 HD
ATOM     34  O   UNL A   1      34.347  33.016  28.585  1.00  0.00    -0.269 OA
BRANCH  32  35
ATOM     35  C   UNL A   1      35.796  31.171  28.710  1.00  0.00     0.039 A 
ATOM     36  C   UNL A   1      37.054  31.631  28.306  1.00  0.00     0.014 A 
ATOM     37  C   UNL A   1      35.692  30.035  29.516  1.00  0.00     0.014 A 
ATOM     38  C   UNL A   1      38.206  30.977  28.750  1.00  0.00     0.010 A 
ATOM     39  C   UNL A   1      36.842  29.433  30.018  1.00  0.00     0.010 A 
ATOM     40  C   UNL A   1      38.111  29.888  29.630  1.00  0.00    -0.014 A 
BRANCH  40  41
ATOM     41  C   UNL A   1      39.319  29.207  30.160  1.00  0.00     0.031 A 
ATOM     42  C   UNL A   1      40.013  29.741  31.384  1.00  0.00     0.074 A 
ATOM     43  C   UNL A   1      39.846  28.169  29.481  1.00  0.00     0.049 A 
ATOM     44  N   UNL A   1      41.127  29.341  31.942  1.00  0.00    -0.248 NA
ATOM     45  C   UNL A   1      39.393  30.898  32.052  1.00  0.00     0.031 C 
ATOM     46  C   UNL A   1      39.308  27.611  28.238  1.00  0.00     0.029 A 
ATOM     47  N   UNL A   1      40.969  27.418  29.721  1.00  0.00    -0.354 N 
ATOM     48  C   UNL A   1      41.362  30.219  32.994  1.00  0.00     0.074 A 
ATOM     49  C   UNL A   1      40.293  31.193  32.979  1.00  0.00     0.031 C 
ATOM     50  C   UNL A   1      40.100  26.610  27.825  1.00  0.00     0.029 A 
ATOM     51  C   UNL A   1      41.217  26.472  28.754  1.00  0.00     0.049 A 
ATOM     52  H   UNL A   1      41.543  27.544  30.511  1.00  0.00     0.167 HD
ATOM     53  C   UNL A   1      42.361  30.200  33.908  1.00  0.00     0.034 A 
ATOM     54  C   UNL A   1      42.235  25.599  28.624  1.00  0.00     0.034 A 
ATOM     55  C   UNL A   1      43.390  29.196  33.950  1.00  0.00     0.049 A 
ATOM     56  C   UNL A   1      43.301  25.563  29.684  1.00  0.00     0.074 A 
ATOM     57  C   UNL A   1      44.392  29.029  34.888  1.00  0.00     0.029 A 
ATOM     58  N   UNL A   1      43.550  28.189  33.010  1.00  0.00    -0.354 N 
ATOM     59  N   UNL A   1      43.420  26.302  30.761  1.00  0.00    -0.248 NA
ATOM     60  C   UNL A   1      44.355  24.549  29.534  1.00  0.00     0.031 C 
ATOM     61  C   UNL A   1      45.171  27.932  34.506  1.00  0.00     0.029 A 
ATOM     62  C   UNL A   1      44.638  27.400  33.342  1.00  0.00     0.049 A 
ATOM     63  H   UNL A   1      42.975  28.055  32.223  1.00  0.00     0.167 HD
ATOM     64  C   UNL A   1      44.536  25.820  31.434  1.00  0.00     0.074 A 
ATOM     65  C   UNL A   1      45.047  24.711  30.655  1.00  0.00     0.031 C 
ATOM     66  C   UNL A   1      45.097  26.264  32.586  1.00  0.00     0.034 A 
BRANCH  53  67
ATOM     67  C   UNL A   1      42.358  31.262  34.977  1.00  0.00     0.023 A 
ATOM     68  C   UNL A   1      41.740  30.998  36.216  1.00  0.00     0.012 A 
ATOM     69  C   UNL A   1      43.015  32.493  34.782  1.00  0.00     0.148 A 
ATOM     70  C   UNL A   1      41.743  31.954  37.232  1.00  0.00     0.002 A 
ATOM     71  C   UNL A   1      43.053  33.423  35.815  1.00  0.00     0.091 A 
ATOM     72  F   UNL A   1      43.581  32.734  33.592  1.00  0.00    -0.205 F 
ATOM     73  C   UNL A   1      42.408  33.160  37.035  1.00  0.00     0.022 A 
BRANCH  71  74
ATOM     74  S   UNL A   1      43.951  34.974  35.692  1.00  0.00     0.127 S 
ATOM     75  O   UNL A   1      43.492  35.479  34.399  1.00  0.00    -0.237 OA
ATOM     76  O   UNL A   1      43.448  35.714  36.849  1.00  0.00    -0.237 OA
ATOM     77  O   UNL A   1      45.364  34.626  35.761  1.00  0.00    -0.744 OA
ENDBRANCH  71  74
ENDBRANCH  53  67
BRANCH  54  78
ATOM     78  C   UNL A   1      42.252  24.640  27.483  1.00  0.00     0.023 A 
ATOM     79  C   UNL A   1      43.054  24.920  26.360  1.00  0.00     0.012 A 
ATOM     80  C   UNL A   1      41.510  23.444  27.514  1.00  0.00     0.148 A 
ATOM     81  C   UNL A   1      43.091  24.043  25.274  1.00  0.00     0.002 A 
ATOM     82  C   UNL A   1      41.595  22.547  26.455  1.00  0.00     0.091 A 
ATOM     83  F   UNL A   1      40.744  23.200  28.587  1.00  0.00    -0.205 F 
ATOM     84  C   UNL A   1      42.371  22.853  25.327  1.00  0.00     0.022 A 
BRANCH  82  85
ATOM     85  S   UNL A   1      40.814  20.930  26.498  1.00  0.00     0.127 S 
ATOM     86  O   UNL A   1      39.520  21.205  25.881  1.00  0.00    -0.237 OA
ATOM     87  O   UNL A   1      41.728  20.128  25.685  1.00  0.00    -0.237 OA
ATOM     88  O   UNL A   1      40.779  20.550  27.906  1.00  0.00    -0.744 OA
ENDBRANCH  82  85
ENDBRANCH  54  78
BRANCH  66  89
ATOM     89  C   UNL A   1      46.307  25.530  33.102  1.00  0.00     0.023 A 
ATOM     90  C   UNL A   1      47.597  26.005  32.797  1.00  0.00     0.012 A 
ATOM     91  C   UNL A   1      46.160  24.418  33.954  1.00  0.00     0.148 A 
ATOM     92  C   UNL A   1      48.725  25.366  33.309  1.00  0.00     0.002 A 
ATOM     93  C   UNL A   1      47.287  23.817  34.501  1.00  0.00     0.091 A 
ATOM     94  F   UNL A   1      44.924  23.971  34.216  1.00  0.00    -0.205 F 
ATOM     95  C   UNL A   1      48.570  24.282  34.170  1.00  0.00     0.022 A 
BRANCH  93  96
ATOM     96  S   UNL A   1      47.180  22.479  35.694  1.00  0.00     0.127 S 
ATOM     97  O   UNL A   1      46.365  23.082  36.746  1.00  0.00    -0.237 OA
ATOM     98  O   UNL A   1      46.507  21.431  34.926  1.00  0.00    -0.237 OA
ATOM     99  O   UNL A   1      48.553  22.164  36.068  1.00  0.00    -0.744 OA
ENDBRANCH  93  96
ENDBRANCH  66  89
ENDBRANCH  40  41
ENDBRANCH  32  35
ENDBRANCH  30  31
ENDBRANCH   1  30
TORSDOF 17
ENDMDL
