MODEL 1
REMARK VINA RESULT:     -11.8      0.000      0.000
REMARK SMILES Cc1ccc(-c2ncccc2C(=O)NCCCNC(=O)c2ccc(-c3c4nc(c(-c5cccc(S(=O)(=O)[O-])c5F)c5ccc([nH]5)c(-c5cccc(S(=O)(=O)[O-])c5F)c5nc(c(-c6cccc(S(=O)(=O)[O-])c6F)c6ccc3[nH]6)C=C5)C=C4)cc2)c(Cl)c1
REMARK SMILES IDX 17 1 16 2 15 3 14 4 12 5 13 6 11 8 6 9 7 10 8 11 10 12 9 13
REMARK SMILES IDX 5 14 1 15 2 16 3 17 86 18 4 19 84 20 85 21 18 22 19 23 20 25
REMARK SMILES IDX 21 26 22 27 83 28 23 29 82 30 24 31 25 32 26 33 76 34 27 35
REMARK SMILES IDX 81 36 75 37 77 38 28 39 80 40 74 41 73 42 29 44 61 45 41 46
REMARK SMILES IDX 60 47 42 48 45 49 59 50 78 51 43 52 44 53 58 55 79 56 46 57
REMARK SMILES IDX 30 58 31 59 39 60 32 61 34 62 40 63 33 64 35 65 36 66 37 67
REMARK SMILES IDX 38 68 62 69 63 70 71 71 64 72 66 73 72 74 65 75 67 76 68 77
REMARK SMILES IDX 69 78 70 79 47 80 48 81 56 82 49 83 51 84 57 85 50 86 52 87
REMARK SMILES IDX 53 88 54 89 55 90
REMARK H PARENT 14 7 18 24 77 43 45 54
REMARK Flexibility Score: inf
ROOT
ATOM      1  C   UNL A   1      34.002  29.005  26.031  1.00  0.00     0.118 C 
ENDROOT
BRANCH   1   2
ATOM      2  C   UNL A   1      33.446  27.903  26.938  1.00  0.00     0.042 C 
BRANCH   2   3
ATOM      3  C   UNL A   1      31.977  28.103  27.310  1.00  0.00     0.118 C 
BRANCH   3   4
ATOM      4  N   UNL A   1      31.221  26.879  27.139  1.00  0.00    -0.352 N 
ATOM      5  C   UNL A   1      30.768  26.137  26.080  1.00  0.00     0.253 C 
ATOM      6  O   UNL A   1      30.175  25.113  26.420  1.00  0.00    -0.269 OA
ATOM      7  H   UNL A   1      30.970  26.478  28.003  1.00  0.00     0.163 HD
BRANCH   5   8
ATOM      8  C   UNL A   1      30.979  26.466  24.630  1.00  0.00     0.066 A 
ATOM      9  C   UNL A   1      32.091  25.953  23.926  1.00  0.00     0.084 A 
ATOM     10  N   UNL A   1      32.378  26.307  22.635  1.00  0.00    -0.255 NA
ATOM     11  C   UNL A   1      31.550  27.160  22.008  1.00  0.00     0.112 A 
ATOM     12  C   UNL A   1      30.105  27.276  23.896  1.00  0.00     0.018 A 
ATOM     13  C   UNL A   1      30.399  27.649  22.584  1.00  0.00     0.021 A 
BRANCH   9  14
ATOM     14  C   UNL A   1      33.009  24.914  24.426  1.00  0.00     0.020 A 
ATOM     15  C   UNL A   1      35.891  21.966  25.771  1.00  0.00     0.044 C 
ATOM     16  C   UNL A   1      34.889  22.994  25.338  1.00  0.00    -0.050 A 
ATOM     17  C   UNL A   1      35.200  24.353  25.369  1.00  0.00     0.004 A 
ATOM     18  C   UNL A   1      33.621  22.599  24.893  1.00  0.00     0.024 A 
ATOM     19  C   UNL A   1      34.267  25.298  24.936  1.00  0.00     0.012 A 
ATOM     20  C   UNL A   1      32.693  23.546  24.436  1.00  0.00     0.050 A 
ATOM     21  Cl  UNL A   1      31.172  22.951  23.858  1.00  0.00    -0.084 Cl
ENDBRANCH   9  14
ENDBRANCH   5   8
ENDBRANCH   3   4
ENDBRANCH   2   3
ENDBRANCH   1   2
BRANCH   1  22
ATOM     22  N   UNL A   1      33.843  30.329  26.619  1.00  0.00    -0.352 N 
ATOM     23  C   UNL A   1      34.527  30.934  27.644  1.00  0.00     0.251 C 
ATOM     24  H   UNL A   1      33.132  30.878  26.216  1.00  0.00     0.163 HD
ATOM     25  O   UNL A   1      34.065  31.951  28.155  1.00  0.00    -0.269 OA
BRANCH  23  26
ATOM     26  C   UNL A   1      35.806  30.377  28.134  1.00  0.00     0.039 A 
ATOM     27  C   UNL A   1      36.948  30.502  27.337  1.00  0.00     0.014 A 
ATOM     28  C   UNL A   1      35.870  29.675  29.341  1.00  0.00     0.014 A 
ATOM     29  C   UNL A   1      38.164  29.967  27.772  1.00  0.00     0.010 A 
ATOM     30  C   UNL A   1      37.096  29.202  29.805  1.00  0.00     0.010 A 
ATOM     31  C   UNL A   1      38.252  29.333  29.022  1.00  0.00    -0.014 A 
BRANCH  31  32
ATOM     32  C   UNL A   1      39.543  28.800  29.530  1.00  0.00     0.031 A 
ATOM     33  C   UNL A   1      40.270  29.508  30.643  1.00  0.00     0.074 A 
ATOM     34  C   UNL A   1      40.103  27.731  28.930  1.00  0.00     0.049 A 
ATOM     35  N   UNL A   1      41.440  29.243  31.164  1.00  0.00    -0.248 NA
ATOM     36  C   UNL A   1      39.608  30.687  31.229  1.00  0.00     0.031 C 
ATOM     37  C   UNL A   1      39.531  27.005  27.794  1.00  0.00     0.029 A 
ATOM     38  N   UNL A   1      41.292  27.090  29.169  1.00  0.00    -0.354 N 
ATOM     39  C   UNL A   1      41.671  30.236  32.108  1.00  0.00     0.074 A 
ATOM     40  C   UNL A   1      40.534  31.130  32.067  1.00  0.00     0.031 C 
ATOM     41  C   UNL A   1      40.368  26.018  27.436  1.00  0.00     0.029 A 
ATOM     42  C   UNL A   1      41.549  26.060  28.294  1.00  0.00     0.049 A 
ATOM     43  H   UNL A   1      41.904  27.342  29.899  1.00  0.00     0.167 HD
ATOM     44  C   UNL A   1      42.720  30.376  32.954  1.00  0.00     0.034 A 
ATOM     45  C   UNL A   1      42.616  25.245  28.190  1.00  0.00     0.034 A 
ATOM     46  C   UNL A   1      43.824  29.458  33.025  1.00  0.00     0.049 A 
ATOM     47  C   UNL A   1      43.747  25.396  29.172  1.00  0.00     0.074 A 
ATOM     48  C   UNL A   1      44.893  29.465  33.903  1.00  0.00     0.029 A 
ATOM     49  N   UNL A   1      44.001  28.368  32.187  1.00  0.00    -0.354 N 
ATOM     50  N   UNL A   1      43.875  26.251  30.159  1.00  0.00    -0.248 NA
ATOM     51  C   UNL A   1      44.864  24.448  29.052  1.00  0.00     0.031 C 
ATOM     52  C   UNL A   1      45.726  28.386  33.584  1.00  0.00     0.029 A 
ATOM     53  C   UNL A   1      45.163  27.696  32.524  1.00  0.00     0.049 A 
ATOM     54  H   UNL A   1      43.390  28.110  31.459  1.00  0.00     0.167 HD
ATOM     55  C   UNL A   1      45.063  25.919  30.799  1.00  0.00     0.074 A 
ATOM     56  C   UNL A   1      45.607  24.772  30.102  1.00  0.00     0.031 C 
ATOM     57  C   UNL A   1      45.659  26.519  31.859  1.00  0.00     0.034 A 
BRANCH  44  58
ATOM     58  C   UNL A   1      42.695  31.534  33.918  1.00  0.00     0.023 A 
ATOM     59  C   UNL A   1      43.188  32.790  33.506  1.00  0.00     0.012 A 
ATOM     60  C   UNL A   1      42.129  31.404  35.202  1.00  0.00     0.148 A 
ATOM     61  C   UNL A   1      43.148  33.888  34.364  1.00  0.00     0.002 A 
ATOM     62  C   UNL A   1      42.053  32.513  36.036  1.00  0.00     0.091 A 
ATOM     63  F   UNL A   1      41.682  30.199  35.584  1.00  0.00    -0.205 F 
ATOM     64  C   UNL A   1      42.572  33.752  35.624  1.00  0.00     0.022 A 
BRANCH  62  65
ATOM     65  S   UNL A   1      41.259  32.466  37.648  1.00  0.00     0.127 S 
ATOM     66  O   UNL A   1      41.284  33.878  38.030  1.00  0.00    -0.237 OA
ATOM     67  O   UNL A   1      39.932  31.946  37.322  1.00  0.00    -0.237 OA
ATOM     68  O   UNL A   1      42.075  31.583  38.471  1.00  0.00    -0.744 OA
ENDBRANCH  62  65
ENDBRANCH  44  58
BRANCH  45  69
ATOM     69  C   UNL A   1      42.637  24.166  27.162  1.00  0.00     0.023 A 
ATOM     70  C   UNL A   1      43.310  24.388  25.944  1.00  0.00     0.012 A 
ATOM     71  C   UNL A   1      42.020  22.920  27.386  1.00  0.00     0.148 A 
ATOM     72  C   UNL A   1      43.336  23.405  24.954  1.00  0.00     0.002 A 
ATOM     73  C   UNL A   1      42.098  21.925  26.419  1.00  0.00     0.091 A 
ATOM     74  F   UNL A   1      41.375  22.731  28.546  1.00  0.00    -0.205 F 
ATOM     75  C   UNL A   1      42.739  22.170  25.195  1.00  0.00     0.022 A 
BRANCH  73  76
ATOM     76  S   UNL A   1      41.475  20.263  26.701  1.00  0.00     0.127 S 
ATOM     77  O   UNL A   1      40.042  20.498  26.835  1.00  0.00    -0.237 OA
ATOM     78  O   UNL A   1      41.876  19.575  25.474  1.00  0.00    -0.237 OA
ATOM     79  O   UNL A   1      42.159  19.789  27.898  1.00  0.00    -0.744 OA
ENDBRANCH  73  76
ENDBRANCH  45  69
BRANCH  57  80
ATOM     80  C   UNL A   1      46.949  25.926  32.362  1.00  0.00     0.023 A 
ATOM     81  C   UNL A   1      48.177  26.380  31.844  1.00  0.00     0.012 A 
ATOM     82  C   UNL A   1      46.943  24.977  33.404  1.00  0.00     0.148 A 
ATOM     83  C   UNL A   1      49.381  25.874  32.332  1.00  0.00     0.002 A 
ATOM     84  C   UNL A   1      48.148  24.514  33.919  1.00  0.00     0.091 A 
ATOM     85  F   UNL A   1      45.763  24.544  33.869  1.00  0.00    -0.205 F 
ATOM     86  C   UNL A   1      49.367  24.952  33.377  1.00  0.00     0.022 A 
BRANCH  84  87
ATOM     87  S   UNL A   1      48.227  23.400  35.326  1.00  0.00     0.127 S 
ATOM     88  O   UNL A   1      47.593  22.198  34.790  1.00  0.00    -0.237 OA
ATOM     89  O   UNL A   1      49.669  23.282  35.549  1.00  0.00    -0.237 OA
ATOM     90  O   UNL A   1      47.504  24.063  36.403  1.00  0.00    -0.744 OA
ENDBRANCH  84  87
ENDBRANCH  57  80
ENDBRANCH  31  32
ENDBRANCH  23  26
ENDBRANCH   1  22
TORSDOF 14
ENDMDL
MODEL 2
REMARK VINA RESULT:     -11.6      1.318      1.507
REMARK SMILES Cc1ccc(-c2ncccc2C(=O)NCCCNC(=O)c2ccc(-c3c4nc(c(-c5cccc(S(=O)(=O)[O-])c5F)c5ccc([nH]5)c(-c5cccc(S(=O)(=O)[O-])c5F)c5nc(c(-c6cccc(S(=O)(=O)[O-])c6F)c6ccc3[nH]6)C=C5)C=C4)cc2)c(Cl)c1
REMARK SMILES IDX 17 1 16 2 15 3 14 4 12 5 13 6 11 8 6 9 7 10 8 11 10 12 9 13
REMARK SMILES IDX 5 14 1 15 2 16 3 17 86 18 4 19 84 20 85 21 18 22 19 23 20 25
REMARK SMILES IDX 21 26 22 27 83 28 23 29 82 30 24 31 25 32 26 33 76 34 27 35
REMARK SMILES IDX 81 36 75 37 77 38 28 39 80 40 74 41 73 42 29 44 61 45 41 46
REMARK SMILES IDX 60 47 42 48 45 49 59 50 78 51 43 52 44 53 58 55 79 56 46 57
REMARK SMILES IDX 30 58 31 59 39 60 32 61 34 62 40 63 33 64 35 65 36 66 37 67
REMARK SMILES IDX 38 68 62 69 63 70 71 71 64 72 66 73 72 74 65 75 67 76 68 77
REMARK SMILES IDX 69 78 70 79 47 80 48 81 56 82 49 83 51 84 57 85 50 86 52 87
REMARK SMILES IDX 53 88 54 89 55 90
REMARK H PARENT 14 7 18 24 77 43 45 54
REMARK Flexibility Score: inf
ROOT
ATOM      1  C   UNL A   1      33.987  29.175  26.300  1.00  0.00     0.118 C 
ENDROOT
BRANCH   1   2
ATOM      2  C   UNL A   1      33.331  28.099  27.170  1.00  0.00     0.042 C 
BRANCH   2   3
ATOM      3  C   UNL A   1      31.823  28.286  27.337  1.00  0.00     0.118 C 
BRANCH   3   4
ATOM      4  N   UNL A   1      31.118  27.028  27.191  1.00  0.00    -0.352 N 
ATOM      5  C   UNL A   1      30.691  26.250  26.148  1.00  0.00     0.253 C 
ATOM      6  O   UNL A   1      30.144  25.207  26.508  1.00  0.00    -0.269 OA
ATOM      7  H   UNL A   1      30.891  26.631  28.064  1.00  0.00     0.163 HD
BRANCH   5   8
ATOM      8  C   UNL A   1      30.878  26.564  24.692  1.00  0.00     0.066 A 
ATOM      9  C   UNL A   1      31.982  26.049  23.976  1.00  0.00     0.084 A 
ATOM     10  N   UNL A   1      32.248  26.391  22.677  1.00  0.00    -0.255 NA
ATOM     11  C   UNL A   1      31.405  27.233  22.053  1.00  0.00     0.112 A 
ATOM     12  C   UNL A   1      29.988  27.361  23.962  1.00  0.00     0.018 A 
ATOM     13  C   UNL A   1      30.260  27.722  22.642  1.00  0.00     0.021 A 
BRANCH   9  14
ATOM     14  C   UNL A   1      32.913  25.021  24.473  1.00  0.00     0.020 A 
ATOM     15  C   UNL A   1      35.835  22.112  25.818  1.00  0.00     0.044 C 
ATOM     16  C   UNL A   1      34.818  23.125  25.385  1.00  0.00    -0.050 A 
ATOM     17  C   UNL A   1      35.090  24.491  25.465  1.00  0.00     0.004 A 
ATOM     18  C   UNL A   1      33.575  22.711  24.891  1.00  0.00     0.024 A 
ATOM     19  C   UNL A   1      34.145  25.424  25.031  1.00  0.00     0.012 A 
ATOM     20  C   UNL A   1      32.635  23.646  24.433  1.00  0.00     0.050 A 
ATOM     21  Cl  UNL A   1      31.149  23.027  23.793  1.00  0.00    -0.084 Cl
ENDBRANCH   9  14
ENDBRANCH   5   8
ENDBRANCH   3   4
ENDBRANCH   2   3
ENDBRANCH   1   2
BRANCH   1  22
ATOM     22  N   UNL A   1      33.858  30.504  26.885  1.00  0.00    -0.352 N 
ATOM     23  C   UNL A   1      34.573  31.105  27.891  1.00  0.00     0.251 C 
ATOM     24  H   UNL A   1      33.146  31.061  26.494  1.00  0.00     0.163 HD
ATOM     25  O   UNL A   1      34.137  32.131  28.406  1.00  0.00    -0.269 OA
BRANCH  23  26
ATOM     26  C   UNL A   1      35.855  30.533  28.355  1.00  0.00     0.039 A 
ATOM     27  C   UNL A   1      37.018  30.798  27.626  1.00  0.00     0.014 A 
ATOM     28  C   UNL A   1      35.904  29.683  29.464  1.00  0.00     0.014 A 
ATOM     29  C   UNL A   1      38.238  30.252  28.038  1.00  0.00     0.010 A 
ATOM     30  C   UNL A   1      37.130  29.196  29.912  1.00  0.00     0.010 A 
ATOM     31  C   UNL A   1      38.307  29.466  29.198  1.00  0.00    -0.014 A 
BRANCH  31  32
ATOM     32  C   UNL A   1      39.599  28.915  29.685  1.00  0.00     0.031 A 
ATOM     33  C   UNL A   1      40.346  29.604  30.796  1.00  0.00     0.074 A 
ATOM     34  C   UNL A   1      40.141  27.848  29.066  1.00  0.00     0.049 A 
ATOM     35  N   UNL A   1      41.519  29.323  31.299  1.00  0.00    -0.248 NA
ATOM     36  C   UNL A   1      39.702  30.782  31.403  1.00  0.00     0.031 C 
ATOM     37  C   UNL A   1      39.549  27.139  27.929  1.00  0.00     0.029 A 
ATOM     38  N   UNL A   1      41.327  27.193  29.283  1.00  0.00    -0.354 N 
ATOM     39  C   UNL A   1      41.772  30.303  32.251  1.00  0.00     0.074 A 
ATOM     40  C   UNL A   1      40.643  31.208  32.234  1.00  0.00     0.031 C 
ATOM     41  C   UNL A   1      40.372  26.149  27.551  1.00  0.00     0.029 A 
ATOM     42  C   UNL A   1      41.563  26.170  28.394  1.00  0.00     0.049 A 
ATOM     43  H   UNL A   1      41.950  27.431  30.008  1.00  0.00     0.167 HD
ATOM     44  C   UNL A   1      42.832  30.424  33.086  1.00  0.00     0.034 A 
ATOM     45  C   UNL A   1      42.622  25.346  28.268  1.00  0.00     0.034 A 
ATOM     46  C   UNL A   1      43.928  29.495  33.133  1.00  0.00     0.049 A 
ATOM     47  C   UNL A   1      43.766  25.477  29.238  1.00  0.00     0.074 A 
ATOM     48  C   UNL A   1      45.009  29.482  33.998  1.00  0.00     0.029 A 
ATOM     49  N   UNL A   1      44.085  28.413  32.281  1.00  0.00    -0.354 N 
ATOM     50  N   UNL A   1      43.914  26.319  30.232  1.00  0.00    -0.248 NA
ATOM     51  C   UNL A   1      44.873  24.519  29.094  1.00  0.00     0.031 C 
ATOM     52  C   UNL A   1      45.827  28.400  33.657  1.00  0.00     0.029 A 
ATOM     53  C   UNL A   1      45.245  27.726  32.596  1.00  0.00     0.049 A 
ATOM     54  H   UNL A   1      43.463  28.169  31.559  1.00  0.00     0.167 HD
ATOM     55  C   UNL A   1      45.107  25.969  30.854  1.00  0.00     0.074 A 
ATOM     56  C   UNL A   1      45.631  24.825  30.138  1.00  0.00     0.031 C 
ATOM     57  C   UNL A   1      45.722  26.552  31.913  1.00  0.00     0.034 A 
BRANCH  44  58
ATOM     58  C   UNL A   1      42.831  31.572  34.062  1.00  0.00     0.023 A 
ATOM     59  C   UNL A   1      43.369  32.816  33.672  1.00  0.00     0.012 A 
ATOM     60  C   UNL A   1      42.241  31.446  35.336  1.00  0.00     0.148 A 
ATOM     61  C   UNL A   1      43.352  33.904  34.542  1.00  0.00     0.002 A 
ATOM     62  C   UNL A   1      42.189  32.548  36.182  1.00  0.00     0.091 A 
ATOM     63  F   UNL A   1      41.750  30.252  35.699  1.00  0.00    -0.205 F 
ATOM     64  C   UNL A   1      42.753  33.774  35.792  1.00  0.00     0.022 A 
BRANCH  62  65
ATOM     65  S   UNL A   1      41.370  32.508  37.781  1.00  0.00     0.127 S 
ATOM     66  O   UNL A   1      41.450  33.911  38.188  1.00  0.00    -0.237 OA
ATOM     67  O   UNL A   1      40.026  32.052  37.428  1.00  0.00    -0.237 OA
ATOM     68  O   UNL A   1      42.134  31.577  38.600  1.00  0.00    -0.744 OA
ENDBRANCH  62  65
ENDBRANCH  44  58
BRANCH  45  69
ATOM     69  C   UNL A   1      42.620  24.279  27.228  1.00  0.00     0.023 A 
ATOM     70  C   UNL A   1      43.282  24.507  26.005  1.00  0.00     0.012 A 
ATOM     71  C   UNL A   1      41.992  23.037  27.446  1.00  0.00     0.148 A 
ATOM     72  C   UNL A   1      43.286  23.535  25.005  1.00  0.00     0.002 A 
ATOM     73  C   UNL A   1      42.049  22.051  26.468  1.00  0.00     0.091 A 
ATOM     74  F   UNL A   1      41.358  22.842  28.611  1.00  0.00    -0.205 F 
ATOM     75  C   UNL A   1      42.679  22.304  25.239  1.00  0.00     0.022 A 
BRANCH  73  76
ATOM     76  S   UNL A   1      41.412  20.394  26.738  1.00  0.00     0.127 S 
ATOM     77  O   UNL A   1      39.987  20.645  26.921  1.00  0.00    -0.237 OA
ATOM     78  O   UNL A   1      41.764  19.723  25.486  1.00  0.00    -0.237 OA
ATOM     79  O   UNL A   1      42.125  19.888  27.905  1.00  0.00    -0.744 OA
ENDBRANCH  73  76
ENDBRANCH  45  69
BRANCH  57  80
ATOM     80  C   UNL A   1      47.011  25.942  32.394  1.00  0.00     0.023 A 
ATOM     81  C   UNL A   1      47.002  25.056  33.488  1.00  0.00     0.012 A 
ATOM     82  C   UNL A   1      48.219  26.188  31.711  1.00  0.00     0.148 A 
ATOM     83  C   UNL A   1      48.181  24.447  33.917  1.00  0.00     0.002 A 
ATOM     84  C   UNL A   1      49.382  25.541  32.114  1.00  0.00     0.091 A 
ATOM     85  F   UNL A   1      48.210  27.050  30.684  1.00  0.00    -0.205 F 
ATOM     86  C   UNL A   1      49.366  24.680  33.222  1.00  0.00     0.022 A 
BRANCH  84  87
ATOM     87  S   UNL A   1      50.932  25.705  31.222  1.00  0.00     0.127 S 
ATOM     88  O   UNL A   1      50.587  25.144  29.918  1.00  0.00    -0.237 OA
ATOM     89  O   UNL A   1      51.141  27.153  31.227  1.00  0.00    -0.237 OA
ATOM     90  O   UNL A   1      51.916  24.952  31.988  1.00  0.00    -0.744 OA
ENDBRANCH  84  87
ENDBRANCH  57  80
ENDBRANCH  31  32
ENDBRANCH  23  26
ENDBRANCH   1  22
TORSDOF 14
ENDMDL
MODEL 3
REMARK VINA RESULT:     -11.6      3.560      8.850
REMARK SMILES Cc1ccc(-c2ncccc2C(=O)NCCCNC(=O)c2ccc(-c3c4nc(c(-c5cccc(S(=O)(=O)[O-])c5F)c5ccc([nH]5)c(-c5cccc(S(=O)(=O)[O-])c5F)c5nc(c(-c6cccc(S(=O)(=O)[O-])c6F)c6ccc3[nH]6)C=C5)C=C4)cc2)c(Cl)c1
REMARK SMILES IDX 17 1 16 2 15 3 14 4 12 5 13 6 11 8 6 9 7 10 8 11 10 12 9 13
REMARK SMILES IDX 5 14 1 15 2 16 3 17 86 18 4 19 84 20 85 21 18 22 19 23 20 25
REMARK SMILES IDX 21 26 22 27 83 28 23 29 82 30 24 31 25 32 26 33 76 34 27 35
REMARK SMILES IDX 81 36 75 37 77 38 28 39 80 40 74 41 73 42 29 44 61 45 41 46
REMARK SMILES IDX 60 47 42 48 45 49 59 50 78 51 43 52 44 53 58 55 79 56 46 57
REMARK SMILES IDX 30 58 31 59 39 60 32 61 34 62 40 63 33 64 35 65 36 66 37 67
REMARK SMILES IDX 38 68 62 69 63 70 71 71 64 72 66 73 72 74 65 75 67 76 68 77
REMARK SMILES IDX 69 78 70 79 47 80 48 81 56 82 49 83 51 84 57 85 50 86 52 87
REMARK SMILES IDX 53 88 54 89 55 90
REMARK H PARENT 14 7 18 24 77 43 45 54
REMARK Flexibility Score: inf
ROOT
ATOM      1  C   UNL A   1      32.793  32.457  27.168  1.00  0.00     0.118 C 
ENDROOT
BRANCH   1   2
ATOM      2  C   UNL A   1      31.510  31.874  26.568  1.00  0.00     0.042 C 
BRANCH   2   3
ATOM      3  C   UNL A   1      31.506  30.346  26.506  1.00  0.00     0.118 C 
BRANCH   3   4
ATOM      4  N   UNL A   1      32.086  29.871  25.265  1.00  0.00    -0.352 N 
ATOM      5  C   UNL A   1      31.610  29.381  24.078  1.00  0.00     0.253 C 
ATOM      6  O   UNL A   1      32.499  29.125  23.264  1.00  0.00    -0.269 OA
ATOM      7  H   UNL A   1      33.070  29.911  25.279  1.00  0.00     0.163 HD
BRANCH   5   8
ATOM      8  C   UNL A   1      30.163  29.192  23.728  1.00  0.00     0.066 A 
ATOM      9  C   UNL A   1      29.601  27.898  23.647  1.00  0.00     0.084 A 
ATOM     10  N   UNL A   1      28.315  27.672  23.232  1.00  0.00    -0.255 NA
ATOM     11  C   UNL A   1      27.552  28.733  22.913  1.00  0.00     0.112 A 
ATOM     12  C   UNL A   1      29.292  30.258  23.471  1.00  0.00     0.018 A 
ATOM     13  C   UNL A   1      27.986  30.033  23.037  1.00  0.00     0.021 A 
BRANCH   9  14
ATOM     14  C   UNL A   1      30.260  26.655  24.087  1.00  0.00     0.020 A 
ATOM     15  C   UNL A   1      32.262  23.113  25.586  1.00  0.00     0.044 C 
ATOM     16  C   UNL A   1      31.540  24.320  25.067  1.00  0.00    -0.050 A 
ATOM     17  C   UNL A   1      30.688  25.054  25.892  1.00  0.00     0.004 A 
ATOM     18  C   UNL A   1      31.716  24.729  23.739  1.00  0.00     0.024 A 
ATOM     19  C   UNL A   1      30.045  26.194  25.403  1.00  0.00     0.012 A 
ATOM     20  C   UNL A   1      31.089  25.887  23.255  1.00  0.00     0.050 A 
ATOM     21  Cl  UNL A   1      31.412  26.335  21.613  1.00  0.00    -0.084 Cl
ENDBRANCH   9  14
ENDBRANCH   5   8
ENDBRANCH   3   4
ENDBRANCH   2   3
ENDBRANCH   1   2
BRANCH   1  22
ATOM     22  N   UNL A   1      32.621  33.842  27.588  1.00  0.00    -0.352 N 
ATOM     23  C   UNL A   1      33.183  34.530  28.634  1.00  0.00     0.251 C 
ATOM     24  H   UNL A   1      32.004  34.369  27.030  1.00  0.00     0.163 HD
ATOM     25  O   UNL A   1      32.707  35.612  28.964  1.00  0.00    -0.269 OA
BRANCH  23  26
ATOM     26  C   UNL A   1      34.349  33.983  29.360  1.00  0.00     0.039 A 
ATOM     27  C   UNL A   1      34.135  33.066  30.394  1.00  0.00     0.014 A 
ATOM     28  C   UNL A   1      35.645  34.420  29.072  1.00  0.00     0.014 A 
ATOM     29  C   UNL A   1      35.222  32.551  31.105  1.00  0.00     0.010 A 
ATOM     30  C   UNL A   1      36.732  33.855  29.736  1.00  0.00     0.010 A 
ATOM     31  C   UNL A   1      36.532  32.924  30.765  1.00  0.00    -0.014 A 
BRANCH  31  32
ATOM     32  C   UNL A   1      37.708  32.352  31.472  1.00  0.00     0.031 A 
ATOM     33  C   UNL A   1      38.487  31.221  30.855  1.00  0.00     0.074 A 
ATOM     34  C   UNL A   1      38.018  32.793  32.708  1.00  0.00     0.049 A 
ATOM     35  N   UNL A   1      39.488  30.541  31.353  1.00  0.00    -0.248 NA
ATOM     36  C   UNL A   1      38.069  30.775  29.515  1.00  0.00     0.031 C 
ATOM     37  C   UNL A   1      37.293  33.833  33.441  1.00  0.00     0.029 A 
ATOM     38  N   UNL A   1      39.003  32.399  33.578  1.00  0.00    -0.354 N 
ATOM     39  C   UNL A   1      39.794  29.569  30.409  1.00  0.00     0.074 A 
ATOM     40  C   UNL A   1      38.854  29.724  29.321  1.00  0.00     0.031 C 
ATOM     41  C   UNL A   1      37.858  33.995  34.648  1.00  0.00     0.029 A 
ATOM     42  C   UNL A   1      38.963  33.052  34.788  1.00  0.00     0.049 A 
ATOM     43  H   UNL A   1      39.676  31.714  33.357  1.00  0.00     0.167 HD
ATOM     44  C   UNL A   1      40.788  28.648  30.430  1.00  0.00     0.034 A 
ATOM     45  C   UNL A   1      39.727  32.904  35.888  1.00  0.00     0.034 A 
ATOM     46  C   UNL A   1      41.752  28.530  31.490  1.00  0.00     0.049 A 
ATOM     47  C   UNL A   1      40.851  31.904  35.866  1.00  0.00     0.074 A 
ATOM     48  C   UNL A   1      42.846  27.686  31.568  1.00  0.00     0.029 A 
ATOM     49  N   UNL A   1      41.739  29.276  32.658  1.00  0.00    -0.354 N 
ATOM     50  N   UNL A   1      41.220  31.097  34.900  1.00  0.00    -0.248 NA
ATOM     51  C   UNL A   1      41.690  31.818  37.071  1.00  0.00     0.031 C 
ATOM     52  C   UNL A   1      43.486  27.913  32.791  1.00  0.00     0.029 A 
ATOM     53  C   UNL A   1      42.803  28.912  33.465  1.00  0.00     0.049 A 
ATOM     54  H   UNL A   1      41.071  29.964  32.881  1.00  0.00     0.167 HD
ATOM     55  C   UNL A   1      42.353  30.439  35.364  1.00  0.00     0.074 A 
ATOM     56  C   UNL A   1      42.623  30.956  36.690  1.00  0.00     0.031 C 
ATOM     57  C   UNL A   1      43.094  29.481  34.755  1.00  0.00     0.034 A 
BRANCH  44  58
ATOM     58  C   UNL A   1      40.924  27.733  29.240  1.00  0.00     0.023 A 
ATOM     59  C   UNL A   1      40.175  26.540  29.194  1.00  0.00     0.012 A 
ATOM     60  C   UNL A   1      41.736  28.080  28.141  1.00  0.00     0.148 A 
ATOM     61  C   UNL A   1      40.255  25.690  28.092  1.00  0.00     0.002 A 
ATOM     62  C   UNL A   1      41.777  27.249  27.028  1.00  0.00     0.091 A 
ATOM     63  F   UNL A   1      42.457  29.209  28.209  1.00  0.00    -0.205 F 
ATOM     64  C   UNL A   1      41.047  26.049  27.006  1.00  0.00     0.022 A 
BRANCH  62  65
ATOM     65  S   UNL A   1      42.704  27.658  25.543  1.00  0.00     0.127 S 
ATOM     66  O   UNL A   1      44.065  27.770  26.067  1.00  0.00    -0.237 OA
ATOM     67  O   UNL A   1      42.469  26.486  24.701  1.00  0.00    -0.237 OA
ATOM     68  O   UNL A   1      42.127  28.896  25.038  1.00  0.00    -0.744 OA
ENDBRANCH  62  65
ENDBRANCH  44  58
BRANCH  45  69
ATOM     69  C   UNL A   1      39.500  33.772  37.079  1.00  0.00     0.023 A 
ATOM     70  C   UNL A   1      39.932  35.112  37.047  1.00  0.00     0.012 A 
ATOM     71  C   UNL A   1      38.842  33.291  38.228  1.00  0.00     0.148 A 
ATOM     72  C   UNL A   1      39.749  35.946  38.150  1.00  0.00     0.002 A 
ATOM     73  C   UNL A   1      38.612  34.143  39.302  1.00  0.00     0.091 A 
ATOM     74  F   UNL A   1      38.448  32.010  38.245  1.00  0.00    -0.205 F 
ATOM     75  C   UNL A   1      39.080  35.466  39.273  1.00  0.00     0.022 A 
BRANCH  73  76
ATOM     76  S   UNL A   1      37.642  33.647  40.730  1.00  0.00     0.127 S 
ATOM     77  O   UNL A   1      36.435  33.117  40.105  1.00  0.00    -0.237 OA
ATOM     78  O   UNL A   1      38.506  32.644  41.352  1.00  0.00    -0.237 OA
ATOM     79  O   UNL A   1      37.470  34.858  41.523  1.00  0.00    -0.744 OA
ENDBRANCH  73  76
ENDBRANCH  45  69
BRANCH  57  80
ATOM     80  C   UNL A   1      44.296  28.954  35.493  1.00  0.00     0.023 A 
ATOM     81  C   UNL A   1      45.552  29.566  35.315  1.00  0.00     0.012 A 
ATOM     82  C   UNL A   1      44.163  27.901  36.421  1.00  0.00     0.148 A 
ATOM     83  C   UNL A   1      46.665  29.119  36.026  1.00  0.00     0.002 A 
ATOM     84  C   UNL A   1      45.266  27.493  37.162  1.00  0.00     0.091 A 
ATOM     85  F   UNL A   1      42.963  27.319  36.561  1.00  0.00    -0.205 F 
ATOM     86  C   UNL A   1      46.519  28.092  36.957  1.00  0.00     0.022 A 
BRANCH  84  87
ATOM     87  S   UNL A   1      45.152  26.246  38.449  1.00  0.00     0.127 S 
ATOM     88  O   UNL A   1      46.534  26.172  38.917  1.00  0.00    -0.237 OA
ATOM     89  O   UNL A   1      44.219  26.860  39.395  1.00  0.00    -0.237 OA
ATOM     90  O   UNL A   1      44.645  25.044  37.798  1.00  0.00    -0.744 OA
ENDBRANCH  84  87
ENDBRANCH  57  80
ENDBRANCH  31  32
ENDBRANCH  23  26
ENDBRANCH   1  22
TORSDOF 14
ENDMDL
