MODEL 1
REMARK VINA RESULT:     -12.8      0.000      0.000
REMARK SMILES CS(=O)(=O)N1C[C@@H]2CN(C(=O)C3CCOCC3)C[C@]2(C(=O)NCCCNC(=O)c2ccc(-c3c4nc(c(-c5cccc(S(=O)(=O)[O-])c5F)c5ccc([nH]5)c(-c5cccc(S(=O)(=O)[O-])c5F)c5nc(c(-c6cccc(S(=O)(=O)[O-])c6F)c6ccc3[nH]6)C=C5)C=C4)cc2)C1
REMARK SMILES IDX 24 1 23 2 22 3 20 4 21 5 19 7 5 8 6 9 92 10 7 11 8 12 18 13
REMARK SMILES IDX 9 14 2 15 1 16 3 17 4 18 10 19 11 20 12 21 13 22 17 23 14 24
REMARK SMILES IDX 16 25 15 26 25 27 26 28 27 29 28 31 29 32 30 33 91 34 31 35
REMARK SMILES IDX 90 36 32 37 33 38 34 39 84 40 35 41 89 42 83 43 85 44 36 45
REMARK SMILES IDX 88 46 82 47 81 48 37 50 69 51 49 52 68 53 50 54 53 55 67 56
REMARK SMILES IDX 86 57 51 58 52 59 66 61 87 62 54 63 38 64 39 65 47 66 40 67
REMARK SMILES IDX 42 68 48 69 41 70 43 71 44 72 45 73 46 74 70 75 71 76 79 77
REMARK SMILES IDX 72 78 74 79 80 80 73 81 75 82 76 83 77 84 78 85 55 86 56 87
REMARK SMILES IDX 64 88 57 89 59 90 65 91 58 92 60 93 61 94 62 95 63 96
REMARK H PARENT 22 6 26 30 85 49 53 60
REMARK Flexibility Score: inf
ROOT
ATOM      1  C   UNL A   1      38.147  21.421  25.793  1.00  0.00     0.042 C 
ENDROOT
BRANCH   1   2
ATOM      2  C   UNL A   1      36.794  22.116  25.624  1.00  0.00     0.117 C 
BRANCH   2   3
ATOM      3  N   UNL A   1      35.824  21.455  26.481  1.00  0.00    -0.355 N 
ATOM      4  C   UNL A   1      34.459  21.637  26.418  1.00  0.00     0.229 C 
ATOM      5  O   UNL A   1      33.832  21.667  27.478  1.00  0.00    -0.274 OA
ATOM      6  H   UNL A   1      36.169  20.829  27.158  1.00  0.00     0.163 HD
BRANCH   4   7
ATOM      7  C   UNL A   1      33.801  21.680  24.982  1.00  0.00     0.086 C 
ATOM      8  N   UNL A   1      33.282  19.427  24.003  1.00  0.00    -0.201 NA
ATOM      9  C   UNL A   1      32.470  20.365  23.261  1.00  0.00     0.108 C 
ATOM     10  C   UNL A   1      33.677  20.089  25.263  1.00  0.00     0.121 C 
ATOM     11  C   UNL A   1      32.406  21.549  24.210  1.00  0.00     0.042 C 
ATOM     12  C   UNL A   1      32.176  22.820  23.421  1.00  0.00     0.125 C 
ATOM     13  C   UNL A   1      33.321  23.155  25.427  1.00  0.00     0.138 C 
ATOM     14  N   UNL A   1      32.731  23.819  24.275  1.00  0.00    -0.341 N 
BRANCH   8  15
ATOM     15  S   UNL A   1      32.929  17.786  24.013  1.00  0.00     0.211 S 
ATOM     16  C   UNL A   1      34.464  17.024  24.515  1.00  0.00     0.176 C 
ATOM     17  O   UNL A   1      32.678  17.383  22.649  1.00  0.00    -0.213 OA
ATOM     18  O   UNL A   1      31.948  17.552  25.055  1.00  0.00    -0.213 OA
ENDBRANCH   8  15
BRANCH  14  19
ATOM     19  C   UNL A   1      32.623  25.145  23.910  1.00  0.00     0.225 C 
ATOM     20  O   UNL A   1      33.585  25.897  24.117  1.00  0.00    -0.275 OA
BRANCH  19  21
ATOM     21  C   UNL A   1      31.317  25.774  23.404  1.00  0.00     0.083 C 
ATOM     22  C   UNL A   1      31.632  27.143  22.792  1.00  0.00     0.042 C 
ATOM     23  C   UNL A   1      30.112  25.758  24.349  1.00  0.00     0.042 C 
ATOM     24  C   UNL A   1      30.381  27.944  22.464  1.00  0.00     0.161 C 
ATOM     25  C   UNL A   1      28.988  26.663  23.859  1.00  0.00     0.161 C 
ATOM     26  O   UNL A   1      29.498  27.966  23.585  1.00  0.00    -0.381 OA
ENDBRANCH  19  21
ENDBRANCH  14  19
ENDBRANCH   4   7
ENDBRANCH   2   3
ENDBRANCH   1   2
BRANCH   1  27
ATOM     27  C   UNL A   1      38.328  20.121  25.033  1.00  0.00     0.118 C 
BRANCH  27  28
ATOM     28  N   UNL A   1      39.392  19.308  25.592  1.00  0.00    -0.352 N 
ATOM     29  C   UNL A   1      40.603  19.592  26.178  1.00  0.00     0.251 C 
ATOM     30  H   UNL A   1      39.207  18.342  25.541  1.00  0.00     0.163 HD
ATOM     31  O   UNL A   1      41.346  18.625  26.373  1.00  0.00    -0.269 OA
BRANCH  29  32
ATOM     32  C   UNL A   1      41.081  20.953  26.566  1.00  0.00     0.039 A 
ATOM     33  C   UNL A   1      41.636  21.748  25.547  1.00  0.00     0.014 A 
ATOM     34  C   UNL A   1      41.087  21.463  27.863  1.00  0.00     0.014 A 
ATOM     35  C   UNL A   1      42.147  23.025  25.818  1.00  0.00     0.010 A 
ATOM     36  C   UNL A   1      41.508  22.777  28.117  1.00  0.00     0.010 A 
ATOM     37  C   UNL A   1      42.063  23.570  27.105  1.00  0.00    -0.014 A 
BRANCH  37  38
ATOM     38  C   UNL A   1      42.560  24.947  27.402  1.00  0.00     0.031 A 
ATOM     39  C   UNL A   1      41.661  25.968  28.057  1.00  0.00     0.074 A 
ATOM     40  C   UNL A   1      43.806  25.309  27.036  1.00  0.00     0.049 A 
ATOM     41  N   UNL A   1      41.907  27.223  28.342  1.00  0.00    -0.248 NA
ATOM     42  C   UNL A   1      40.303  25.532  28.419  1.00  0.00     0.031 C 
ATOM     43  C   UNL A   1      44.768  24.448  26.345  1.00  0.00     0.029 A 
ATOM     44  N   UNL A   1      44.471  26.505  27.172  1.00  0.00    -0.354 N 
ATOM     45  C   UNL A   1      40.729  27.735  28.879  1.00  0.00     0.074 A 
ATOM     46  C   UNL A   1      39.759  26.661  28.851  1.00  0.00     0.031 C 
ATOM     47  C   UNL A   1      45.897  25.139  26.123  1.00  0.00     0.029 A 
ATOM     48  C   UNL A   1      45.730  26.503  26.615  1.00  0.00     0.049 A 
ATOM     49  H   UNL A   1      44.084  27.288  27.624  1.00  0.00     0.167 HD
ATOM     50  C   UNL A   1      40.479  28.971  29.373  1.00  0.00     0.034 A 
ATOM     51  C   UNL A   1      46.642  27.490  26.492  1.00  0.00     0.034 A 
ATOM     52  C   UNL A   1      41.450  30.032  29.440  1.00  0.00     0.049 A 
ATOM     53  C   UNL A   1      46.341  28.853  27.054  1.00  0.00     0.074 A 
ATOM     54  C   UNL A   1      41.309  31.289  30.005  1.00  0.00     0.029 A 
ATOM     55  N   UNL A   1      42.730  29.973  28.914  1.00  0.00    -0.354 N 
ATOM     56  N   UNL A   1      45.275  29.267  27.691  1.00  0.00    -0.248 NA
ATOM     57  C   UNL A   1      47.386  29.878  26.904  1.00  0.00     0.031 C 
ATOM     58  C   UNL A   1      42.492  32.004  29.784  1.00  0.00     0.029 A 
ATOM     59  C   UNL A   1      43.383  31.177  29.120  1.00  0.00     0.049 A 
ATOM     60  H   UNL A   1      43.118  29.189  28.462  1.00  0.00     0.167 HD
ATOM     61  C   UNL A   1      45.531  30.588  28.045  1.00  0.00     0.074 A 
ATOM     62  C   UNL A   1      46.865  30.896  27.575  1.00  0.00     0.031 C 
ATOM     63  C   UNL A   1      44.726  31.470  28.688  1.00  0.00     0.034 A 
BRANCH  50  64
ATOM     64  C   UNL A   1      39.099  29.244  29.921  1.00  0.00     0.023 A 
ATOM     65  C   UNL A   1      38.775  28.839  31.233  1.00  0.00     0.012 A 
ATOM     66  C   UNL A   1      38.150  29.961  29.166  1.00  0.00     0.148 A 
ATOM     67  C   UNL A   1      37.516  29.108  31.769  1.00  0.00     0.002 A 
ATOM     68  C   UNL A   1      36.915  30.268  29.725  1.00  0.00     0.091 A 
ATOM     69  F   UNL A   1      38.470  30.325  27.916  1.00  0.00    -0.205 F 
ATOM     70  C   UNL A   1      36.592  29.831  31.020  1.00  0.00     0.022 A 
BRANCH  68  71
ATOM     71  S   UNL A   1      35.685  31.265  28.876  1.00  0.00     0.127 S 
ATOM     72  O   UNL A   1      34.872  31.743  29.993  1.00  0.00    -0.237 OA
ATOM     73  O   UNL A   1      36.509  32.290  28.238  1.00  0.00    -0.237 OA
ATOM     74  O   UNL A   1      35.007  30.366  27.952  1.00  0.00    -0.744 OA
ENDBRANCH  68  71
ENDBRANCH  50  64
BRANCH  51  75
ATOM     75  C   UNL A   1      47.949  27.216  25.829  1.00  0.00     0.023 A 
ATOM     76  C   UNL A   1      49.033  26.741  26.593  1.00  0.00     0.012 A 
ATOM     77  C   UNL A   1      48.121  27.416  24.447  1.00  0.00     0.148 A 
ATOM     78  C   UNL A   1      50.273  26.504  25.999  1.00  0.00     0.002 A 
ATOM     79  C   UNL A   1      49.341  27.122  23.850  1.00  0.00     0.091 A 
ATOM     80  F   UNL A   1      47.081  27.881  23.739  1.00  0.00    -0.205 F 
ATOM     81  C   UNL A   1      50.424  26.684  24.627  1.00  0.00     0.022 A 
BRANCH  79  82
ATOM     82  S   UNL A   1      49.584  27.196  22.073  1.00  0.00     0.127 S 
ATOM     83  O   UNL A   1      48.645  26.182  21.600  1.00  0.00    -0.237 OA
ATOM     84  O   UNL A   1      49.204  28.577  21.776  1.00  0.00    -0.237 OA
ATOM     85  O   UNL A   1      50.995  26.901  21.856  1.00  0.00    -0.744 OA
ENDBRANCH  79  82
ENDBRANCH  51  75
BRANCH  63  86
ATOM     86  C   UNL A   1      45.269  32.852  28.955  1.00  0.00     0.023 A 
ATOM     87  C   UNL A   1      46.024  33.099  30.119  1.00  0.00     0.012 A 
ATOM     88  C   UNL A   1      45.087  33.889  28.019  1.00  0.00     0.148 A 
ATOM     89  C   UNL A   1      46.557  34.365  30.365  1.00  0.00     0.002 A 
ATOM     90  C   UNL A   1      45.665  35.133  28.245  1.00  0.00     0.091 A 
ATOM     91  F   UNL A   1      44.354  33.640  26.924  1.00  0.00    -0.205 F 
ATOM     92  C   UNL A   1      46.387  35.377  29.424  1.00  0.00     0.022 A 
BRANCH  90  93
ATOM     93  S   UNL A   1      45.582  36.470  27.048  1.00  0.00     0.127 S 
ATOM     94  O   UNL A   1      44.139  36.631  26.879  1.00  0.00    -0.237 OA
ATOM     95  O   UNL A   1      46.238  37.566  27.763  1.00  0.00    -0.237 OA
ATOM     96  O   UNL A   1      46.299  36.002  25.869  1.00  0.00    -0.744 OA
ENDBRANCH  90  93
ENDBRANCH  63  86
ENDBRANCH  37  38
ENDBRANCH  29  32
ENDBRANCH  27  28
ENDBRANCH   1  27
TORSDOF 16
ENDMDL
MODEL 2
REMARK VINA RESULT:     -12.7      5.626      9.408
REMARK SMILES CS(=O)(=O)N1C[C@@H]2CN(C(=O)C3CCOCC3)C[C@]2(C(=O)NCCCNC(=O)c2ccc(-c3c4nc(c(-c5cccc(S(=O)(=O)[O-])c5F)c5ccc([nH]5)c(-c5cccc(S(=O)(=O)[O-])c5F)c5nc(c(-c6cccc(S(=O)(=O)[O-])c6F)c6ccc3[nH]6)C=C5)C=C4)cc2)C1
REMARK SMILES IDX 24 1 23 2 22 3 20 4 21 5 19 7 5 8 6 9 92 10 7 11 8 12 18 13
REMARK SMILES IDX 9 14 2 15 1 16 3 17 4 18 10 19 11 20 12 21 13 22 17 23 14 24
REMARK SMILES IDX 16 25 15 26 25 27 26 28 27 29 28 31 29 32 30 33 91 34 31 35
REMARK SMILES IDX 90 36 32 37 33 38 34 39 84 40 35 41 89 42 83 43 85 44 36 45
REMARK SMILES IDX 88 46 82 47 81 48 37 50 69 51 49 52 68 53 50 54 53 55 67 56
REMARK SMILES IDX 86 57 51 58 52 59 66 61 87 62 54 63 38 64 39 65 47 66 40 67
REMARK SMILES IDX 42 68 48 69 41 70 43 71 44 72 45 73 46 74 70 75 71 76 79 77
REMARK SMILES IDX 72 78 74 79 80 80 73 81 75 82 76 83 77 84 78 85 55 86 56 87
REMARK SMILES IDX 64 88 57 89 59 90 65 91 58 92 60 93 61 94 62 95 63 96
REMARK H PARENT 22 6 26 30 85 49 53 60
REMARK Flexibility Score: inf
ROOT
ATOM      1  C   UNL A   1      33.325  30.776  26.743  1.00  0.00     0.042 C 
ENDROOT
BRANCH   1   2
ATOM      2  C   UNL A   1      33.091  29.482  25.961  1.00  0.00     0.117 C 
BRANCH   2   3
ATOM      3  N   UNL A   1      33.401  29.725  24.562  1.00  0.00    -0.355 N 
ATOM      4  C   UNL A   1      33.459  28.754  23.584  1.00  0.00     0.229 C 
ATOM      5  O   UNL A   1      34.338  28.853  22.725  1.00  0.00    -0.274 OA
ATOM      6  H   UNL A   1      33.582  30.654  24.291  1.00  0.00     0.163 HD
BRANCH   4   7
ATOM      7  C   UNL A   1      32.323  27.657  23.586  1.00  0.00     0.086 C 
ATOM      8  N   UNL A   1      30.000  28.558  23.273  1.00  0.00    -0.201 NA
ATOM      9  C   UNL A   1      29.914  27.152  22.949  1.00  0.00     0.108 C 
ATOM     10  C   UNL A   1      31.424  28.943  23.184  1.00  0.00     0.121 C 
ATOM     11  C   UNL A   1      31.360  26.812  22.628  1.00  0.00     0.042 C 
ATOM     12  C   UNL A   1      31.603  25.340  22.885  1.00  0.00     0.125 C 
ATOM     13  C   UNL A   1      33.510  26.663  23.130  1.00  0.00     0.138 C 
ATOM     14  N   UNL A   1      33.005  25.299  23.144  1.00  0.00    -0.341 N 
BRANCH   8  15
ATOM     15  S   UNL A   1      28.822  29.642  22.770  1.00  0.00     0.211 S 
ATOM     16  C   UNL A   1      27.291  28.775  23.072  1.00  0.00     0.176 C 
ATOM     17  O   UNL A   1      28.951  29.799  21.340  1.00  0.00    -0.213 OA
ATOM     18  O   UNL A   1      28.871  30.790  23.656  1.00  0.00    -0.213 OA
ENDBRANCH   8  15
BRANCH  14  19
ATOM     19  C   UNL A   1      33.613  24.076  23.343  1.00  0.00     0.225 C 
ATOM     20  O   UNL A   1      34.214  23.552  22.395  1.00  0.00    -0.275 OA
BRANCH  19  21
ATOM     21  C   UNL A   1      33.451  23.257  24.631  1.00  0.00     0.083 C 
ATOM     22  C   UNL A   1      34.317  23.886  25.729  1.00  0.00     0.042 C 
ATOM     23  C   UNL A   1      33.567  21.734  24.520  1.00  0.00     0.042 C 
ATOM     24  C   UNL A   1      34.402  23.023  26.978  1.00  0.00     0.161 C 
ATOM     25  C   UNL A   1      33.690  21.068  25.885  1.00  0.00     0.161 C 
ATOM     26  O   UNL A   1      34.739  21.680  26.632  1.00  0.00    -0.381 OA
ENDBRANCH  19  21
ENDBRANCH  14  19
ENDBRANCH   4   7
ENDBRANCH   2   3
ENDBRANCH   1   2
BRANCH   1  27
ATOM     27  C   UNL A   1      32.092  31.611  27.035  1.00  0.00     0.118 C 
BRANCH  27  28
ATOM     28  N   UNL A   1      32.421  33.007  27.257  1.00  0.00    -0.352 N 
ATOM     29  C   UNL A   1      33.426  33.655  27.935  1.00  0.00     0.251 C 
ATOM     30  H   UNL A   1      31.785  33.625  26.829  1.00  0.00     0.163 HD
ATOM     31  O   UNL A   1      33.284  34.874  28.070  1.00  0.00    -0.269 OA
BRANCH  29  32
ATOM     32  C   UNL A   1      34.634  33.004  28.524  1.00  0.00     0.039 A 
ATOM     33  C   UNL A   1      34.451  32.280  29.717  1.00  0.00     0.014 A 
ATOM     34  C   UNL A   1      35.931  33.119  28.028  1.00  0.00     0.014 A 
ATOM     35  C   UNL A   1      35.530  31.666  30.368  1.00  0.00     0.010 A 
ATOM     36  C   UNL A   1      36.994  32.423  28.624  1.00  0.00     0.010 A 
ATOM     37  C   UNL A   1      36.815  31.704  29.812  1.00  0.00    -0.014 A 
BRANCH  37  38
ATOM     38  C   UNL A   1      37.967  31.015  30.467  1.00  0.00     0.031 A 
ATOM     39  C   UNL A   1      38.372  31.359  31.880  1.00  0.00     0.074 A 
ATOM     40  C   UNL A   1      38.695  30.113  29.776  1.00  0.00     0.049 A 
ATOM     41  N   UNL A   1      39.375  30.900  32.587  1.00  0.00    -0.248 NA
ATOM     42  C   UNL A   1      37.559  32.363  32.584  1.00  0.00     0.031 C 
ATOM     43  C   UNL A   1      38.459  29.721  28.386  1.00  0.00     0.029 A 
ATOM     44  N   UNL A   1      39.799  29.380  30.143  1.00  0.00    -0.354 N 
ATOM     45  C   UNL A   1      39.337  31.584  33.798  1.00  0.00     0.074 A 
ATOM     46  C   UNL A   1      38.229  32.512  33.719  1.00  0.00     0.031 C 
ATOM     47  C   UNL A   1      39.382  28.818  28.020  1.00  0.00     0.029 A 
ATOM     48  C   UNL A   1      40.303  28.596  29.130  1.00  0.00     0.049 A 
ATOM     49  H   UNL A   1      40.191  29.412  31.045  1.00  0.00     0.167 HD
ATOM     50  C   UNL A   1      40.130  31.440  34.888  1.00  0.00     0.034 A 
ATOM     51  C   UNL A   1      41.393  27.803  29.087  1.00  0.00     0.034 A 
ATOM     52  C   UNL A   1      41.209  30.493  34.990  1.00  0.00     0.049 A 
ATOM     53  C   UNL A   1      42.255  27.657  30.312  1.00  0.00     0.074 A 
ATOM     54  C   UNL A   1      42.009  30.218  36.087  1.00  0.00     0.029 A 
ATOM     55  N   UNL A   1      41.653  29.679  33.960  1.00  0.00    -0.354 N 
ATOM     56  N   UNL A   1      42.109  28.202  31.494  1.00  0.00    -0.248 NA
ATOM     57  C   UNL A   1      43.417  26.762  30.204  1.00  0.00     0.031 C 
ATOM     58  C   UNL A   1      42.963  29.267  35.707  1.00  0.00     0.029 A 
ATOM     59  C   UNL A   1      42.730  28.919  34.387  1.00  0.00     0.049 A 
ATOM     60  H   UNL A   1      41.260  29.646  33.058  1.00  0.00     0.167 HD
ATOM     61  C   UNL A   1      43.139  27.693  32.279  1.00  0.00     0.074 A 
ATOM     62  C   UNL A   1      43.886  26.775  31.445  1.00  0.00     0.031 C 
ATOM     63  C   UNL A   1      43.447  27.975  33.569  1.00  0.00     0.034 A 
BRANCH  50  64
ATOM     64  C   UNL A   1      39.841  32.310  36.088  1.00  0.00     0.023 A 
ATOM     65  C   UNL A   1      40.538  33.525  36.255  1.00  0.00     0.012 A 
ATOM     66  C   UNL A   1      38.834  31.960  37.008  1.00  0.00     0.148 A 
ATOM     67  C   UNL A   1      40.265  34.357  37.340  1.00  0.00     0.002 A 
ATOM     68  C   UNL A   1      38.534  32.818  38.060  1.00  0.00     0.091 A 
ATOM     69  F   UNL A   1      38.192  30.795  36.842  1.00  0.00    -0.205 F 
ATOM     70  C   UNL A   1      39.257  34.009  38.235  1.00  0.00     0.022 A 
BRANCH  68  71
ATOM     71  S   UNL A   1      37.199  32.504  39.220  1.00  0.00     0.127 S 
ATOM     72  O   UNL A   1      37.481  31.129  39.628  1.00  0.00    -0.237 OA
ATOM     73  O   UNL A   1      37.446  33.510  40.252  1.00  0.00    -0.237 OA
ATOM     74  O   UNL A   1      35.963  32.691  38.472  1.00  0.00    -0.744 OA
ENDBRANCH  68  71
ENDBRANCH  50  64
BRANCH  51  75
ATOM     75  C   UNL A   1      41.720  27.054  27.840  1.00  0.00     0.023 A 
ATOM     76  C   UNL A   1      42.246  27.744  26.730  1.00  0.00     0.012 A 
ATOM     77  C   UNL A   1      41.520  25.664  27.751  1.00  0.00     0.148 A 
ATOM     78  C   UNL A   1      42.534  27.069  25.544  1.00  0.00     0.002 A 
ATOM     79  C   UNL A   1      41.865  24.987  26.587  1.00  0.00     0.091 A 
ATOM     80  F   UNL A   1      41.007  25.028  28.813  1.00  0.00    -0.205 F 
ATOM     81  C   UNL A   1      42.354  25.690  25.475  1.00  0.00     0.022 A 
BRANCH  79  82
ATOM     82  S   UNL A   1      41.792  23.198  26.458  1.00  0.00     0.127 S 
ATOM     83  O   UNL A   1      40.351  22.958  26.432  1.00  0.00    -0.237 OA
ATOM     84  O   UNL A   1      42.482  22.961  25.190  1.00  0.00    -0.237 OA
ATOM     85  O   UNL A   1      42.497  22.690  27.628  1.00  0.00    -0.744 OA
ENDBRANCH  79  82
ENDBRANCH  51  75
BRANCH  63  86
ATOM     86  C   UNL A   1      44.627  27.262  34.182  1.00  0.00     0.023 A 
ATOM     87  C   UNL A   1      45.911  27.838  34.113  1.00  0.00     0.012 A 
ATOM     88  C   UNL A   1      44.451  26.052  34.884  1.00  0.00     0.148 A 
ATOM     89  C   UNL A   1      47.007  27.204  34.699  1.00  0.00     0.002 A 
ATOM     90  C   UNL A   1      45.538  25.453  35.510  1.00  0.00     0.091 A 
ATOM     91  F   UNL A   1      43.225  25.511  34.927  1.00  0.00    -0.205 F 
ATOM     92  C   UNL A   1      46.818  26.019  35.406  1.00  0.00     0.022 A 
BRANCH  90  93
ATOM     93  S   UNL A   1      45.378  23.978  36.523  1.00  0.00     0.127 S 
ATOM     94  O   UNL A   1      44.619  24.482  37.667  1.00  0.00    -0.237 OA
ATOM     95  O   UNL A   1      44.629  23.080  35.644  1.00  0.00    -0.237 OA
ATOM     96  O   UNL A   1      46.736  23.541  36.820  1.00  0.00    -0.744 OA
ENDBRANCH  90  93
ENDBRANCH  63  86
ENDBRANCH  37  38
ENDBRANCH  29  32
ENDBRANCH  27  28
ENDBRANCH   1  27
TORSDOF 16
ENDMDL
MODEL 3
REMARK VINA RESULT:     -12.7      1.058      7.450
REMARK SMILES CS(=O)(=O)N1C[C@@H]2CN(C(=O)C3CCOCC3)C[C@]2(C(=O)NCCCNC(=O)c2ccc(-c3c4nc(c(-c5cccc(S(=O)(=O)[O-])c5F)c5ccc([nH]5)c(-c5cccc(S(=O)(=O)[O-])c5F)c5nc(c(-c6cccc(S(=O)(=O)[O-])c6F)c6ccc3[nH]6)C=C5)C=C4)cc2)C1
REMARK SMILES IDX 24 1 23 2 22 3 20 4 21 5 19 7 5 8 6 9 92 10 7 11 8 12 18 13
REMARK SMILES IDX 9 14 2 15 1 16 3 17 4 18 10 19 11 20 12 21 13 22 17 23 14 24
REMARK SMILES IDX 16 25 15 26 25 27 26 28 27 29 28 31 29 32 30 33 91 34 31 35
REMARK SMILES IDX 90 36 32 37 33 38 34 39 84 40 35 41 89 42 83 43 85 44 36 45
REMARK SMILES IDX 88 46 82 47 81 48 37 50 69 51 49 52 68 53 50 54 53 55 67 56
REMARK SMILES IDX 86 57 51 58 52 59 66 61 87 62 54 63 38 64 39 65 47 66 40 67
REMARK SMILES IDX 42 68 48 69 41 70 43 71 44 72 45 73 46 74 70 75 71 76 79 77
REMARK SMILES IDX 72 78 74 79 80 80 73 81 75 82 76 83 77 84 78 85 55 86 56 87
REMARK SMILES IDX 64 88 57 89 59 90 65 91 58 92 60 93 61 94 62 95 63 96
REMARK H PARENT 22 6 26 30 85 49 53 60
REMARK Flexibility Score: inf
ROOT
ATOM      1  C   UNL A   1      36.907  20.859  25.331  1.00  0.00     0.042 C 
ENDROOT
BRANCH   1   2
ATOM      2  C   UNL A   1      36.251  21.996  26.117  1.00  0.00     0.117 C 
BRANCH   2   3
ATOM      3  N   UNL A   1      35.096  21.467  26.822  1.00  0.00    -0.355 N 
ATOM      4  C   UNL A   1      33.786  21.807  26.561  1.00  0.00     0.229 C 
ATOM      5  O   UNL A   1      33.020  21.927  27.520  1.00  0.00    -0.274 OA
ATOM      6  H   UNL A   1      35.262  20.815  27.541  1.00  0.00     0.163 HD
BRANCH   4   7
ATOM      7  C   UNL A   1      33.352  21.906  25.045  1.00  0.00     0.086 C 
ATOM      8  N   UNL A   1      33.053  19.692  23.899  1.00  0.00    -0.201 NA
ATOM      9  C   UNL A   1      32.337  20.648  23.084  1.00  0.00     0.108 C 
ATOM     10  C   UNL A   1      33.233  20.301  25.233  1.00  0.00     0.121 C 
ATOM     11  C   UNL A   1      32.094  21.782  24.065  1.00  0.00     0.042 C 
ATOM     12  C   UNL A   1      31.950  23.085  23.308  1.00  0.00     0.125 C 
ATOM     13  C   UNL A   1      32.767  23.347  25.478  1.00  0.00     0.138 C 
ATOM     14  N   UNL A   1      32.339  24.053  24.280  1.00  0.00    -0.341 N 
BRANCH   8  15
ATOM     15  S   UNL A   1      32.750  18.046  23.780  1.00  0.00     0.211 S 
ATOM     16  C   UNL A   1      34.365  17.304  23.952  1.00  0.00     0.176 C 
ATOM     17  O   UNL A   1      32.297  17.778  22.435  1.00  0.00    -0.213 OA
ATOM     18  O   UNL A   1      31.954  17.660  24.929  1.00  0.00    -0.213 OA
ENDBRANCH   8  15
BRANCH  14  19
ATOM     19  C   UNL A   1      32.250  25.393  23.963  1.00  0.00     0.225 C 
ATOM     20  O   UNL A   1      33.190  26.138  24.267  1.00  0.00    -0.275 OA
BRANCH  19  21
ATOM     21  C   UNL A   1      30.978  26.038  23.393  1.00  0.00     0.083 C 
ATOM     22  C   UNL A   1      31.332  27.424  22.841  1.00  0.00     0.042 C 
ATOM     23  C   UNL A   1      29.716  25.998  24.259  1.00  0.00     0.042 C 
ATOM     24  C   UNL A   1      30.104  28.235  22.457  1.00  0.00     0.161 C 
ATOM     25  C   UNL A   1      28.625  26.919  23.724  1.00  0.00     0.161 C 
ATOM     26  O   UNL A   1      29.152  28.228  23.520  1.00  0.00    -0.381 OA
ENDBRANCH  19  21
ENDBRANCH  14  19
ENDBRANCH   4   7
ENDBRANCH   2   3
ENDBRANCH   1   2
BRANCH   1  27
ATOM     27  C   UNL A   1      38.383  21.024  25.024  1.00  0.00     0.118 C 
BRANCH  27  28
ATOM     28  N   UNL A   1      39.215  20.242  25.920  1.00  0.00    -0.352 N 
ATOM     29  C   UNL A   1      40.267  20.544  26.753  1.00  0.00     0.251 C 
ATOM     30  H   UNL A   1      38.975  19.287  25.934  1.00  0.00     0.163 HD
ATOM     31  O   UNL A   1      40.864  19.577  27.235  1.00  0.00    -0.269 OA
BRANCH  29  32
ATOM     32  C   UNL A   1      40.739  21.920  27.089  1.00  0.00     0.039 A 
ATOM     33  C   UNL A   1      40.363  22.955  26.214  1.00  0.00     0.014 A 
ATOM     34  C   UNL A   1      41.578  22.243  28.154  1.00  0.00     0.014 A 
ATOM     35  C   UNL A   1      40.788  24.275  26.423  1.00  0.00     0.010 A 
ATOM     36  C   UNL A   1      41.923  23.578  28.419  1.00  0.00     0.010 A 
ATOM     37  C   UNL A   1      41.552  24.610  27.548  1.00  0.00    -0.014 A 
BRANCH  37  38
ATOM     38  C   UNL A   1      41.974  26.018  27.812  1.00  0.00     0.031 A 
ATOM     39  C   UNL A   1      43.359  26.491  27.442  1.00  0.00     0.074 A 
ATOM     40  C   UNL A   1      41.135  26.869  28.437  1.00  0.00     0.049 A 
ATOM     41  N   UNL A   1      43.914  27.662  27.642  1.00  0.00    -0.248 NA
ATOM     42  C   UNL A   1      44.245  25.520  26.780  1.00  0.00     0.031 C 
ATOM     43  C   UNL A   1      39.788  26.538  28.904  1.00  0.00     0.029 A 
ATOM     44  N   UNL A   1      41.300  28.182  28.810  1.00  0.00    -0.354 N 
ATOM     45  C   UNL A   1      45.218  27.556  27.170  1.00  0.00     0.074 A 
ATOM     46  C   UNL A   1      45.382  26.197  26.699  1.00  0.00     0.031 C 
ATOM     47  C   UNL A   1      39.248  27.616  29.494  1.00  0.00     0.029 A 
ATOM     48  C   UNL A   1      40.222  28.703  29.487  1.00  0.00     0.049 A 
ATOM     49  H   UNL A   1      42.112  28.700  28.610  1.00  0.00     0.167 HD
ATOM     50  C   UNL A   1      46.185  28.503  27.107  1.00  0.00     0.034 A 
ATOM     51  C   UNL A   1      40.039  29.911  30.060  1.00  0.00     0.034 A 
ATOM     52  C   UNL A   1      46.018  29.867  27.536  1.00  0.00     0.049 A 
ATOM     53  C   UNL A   1      41.128  30.947  29.971  1.00  0.00     0.074 A 
ATOM     54  C   UNL A   1      46.915  30.916  27.428  1.00  0.00     0.029 A 
ATOM     55  N   UNL A   1      44.892  30.369  28.168  1.00  0.00    -0.354 N 
ATOM     56  N   UNL A   1      42.297  30.869  29.386  1.00  0.00    -0.248 NA
ATOM     57  C   UNL A   1      40.857  32.250  30.599  1.00  0.00     0.031 C 
ATOM     58  C   UNL A   1      46.346  32.044  28.032  1.00  0.00     0.029 A 
ATOM     59  C   UNL A   1      45.079  31.706  28.477  1.00  0.00     0.049 A 
ATOM     60  H   UNL A   1      44.078  29.851  28.367  1.00  0.00     0.167 HD
ATOM     61  C   UNL A   1      42.888  32.119  29.547  1.00  0.00     0.074 A 
ATOM     62  C   UNL A   1      41.936  32.943  30.261  1.00  0.00     0.031 C 
ATOM     63  C   UNL A   1      44.115  32.538  29.151  1.00  0.00     0.034 A 
BRANCH  50  64
ATOM     64  C   UNL A   1      47.517  28.110  26.515  1.00  0.00     0.023 A 
ATOM     65  C   UNL A   1      48.604  27.824  27.367  1.00  0.00     0.012 A 
ATOM     66  C   UNL A   1      47.673  27.956  25.123  1.00  0.00     0.148 A 
ATOM     67  C   UNL A   1      49.834  27.429  26.842  1.00  0.00     0.002 A 
ATOM     68  C   UNL A   1      48.888  27.515  24.611  1.00  0.00     0.091 A 
ATOM     69  F   UNL A   1      46.634  28.246  24.327  1.00  0.00    -0.205 F 
ATOM     70  C   UNL A   1      49.972  27.265  25.467  1.00  0.00     0.022 A 
BRANCH  68  71
ATOM     71  S   UNL A   1      49.146  27.192  22.863  1.00  0.00     0.127 S 
ATOM     72  O   UNL A   1      48.625  28.417  22.257  1.00  0.00    -0.237 OA
ATOM     73  O   UNL A   1      50.599  27.044  22.789  1.00  0.00    -0.237 OA
ATOM     74  O   UNL A   1      48.395  25.981  22.563  1.00  0.00    -0.744 OA
ENDBRANCH  68  71
ENDBRANCH  50  64
BRANCH  51  75
ATOM     75  C   UNL A   1      38.754  30.222  30.748  1.00  0.00     0.023 A 
ATOM     76  C   UNL A   1      38.536  29.759  32.060  1.00  0.00     0.012 A 
ATOM     77  C   UNL A   1      37.752  30.980  30.113  1.00  0.00     0.148 A 
ATOM     78  C   UNL A   1      37.330  30.014  32.714  1.00  0.00     0.002 A 
ATOM     79  C   UNL A   1      36.577  31.283  30.791  1.00  0.00     0.091 A 
ATOM     80  F   UNL A   1      37.974  31.401  28.860  1.00  0.00    -0.205 F 
ATOM     81  C   UNL A   1      36.356  30.785  32.085  1.00  0.00     0.022 A 
BRANCH  79  82
ATOM     82  S   UNL A   1      35.329  32.378  30.110  1.00  0.00     0.127 S 
ATOM     83  O   UNL A   1      34.867  31.619  28.950  1.00  0.00    -0.237 OA
ATOM     84  O   UNL A   1      34.372  32.464  31.213  1.00  0.00    -0.237 OA
ATOM     85  O   UNL A   1      36.019  33.627  29.814  1.00  0.00    -0.744 OA
ENDBRANCH  79  82
ENDBRANCH  51  75
BRANCH  63  86
ATOM     86  C   UNL A   1      44.500  33.966  29.451  1.00  0.00     0.023 A 
ATOM     87  C   UNL A   1      45.047  34.299  30.706  1.00  0.00     0.012 A 
ATOM     88  C   UNL A   1      44.380  34.965  28.464  1.00  0.00     0.148 A 
ATOM     89  C   UNL A   1      45.434  35.610  30.987  1.00  0.00     0.002 A 
ATOM     90  C   UNL A   1      44.816  36.257  28.733  1.00  0.00     0.091 A 
ATOM     91  F   UNL A   1      43.844  34.634  27.281  1.00  0.00    -0.205 F 
ATOM     92  C   UNL A   1      45.329  36.585  29.999  1.00  0.00     0.022 A 
BRANCH  90  93
ATOM     93  S   UNL A   1      44.810  37.558  27.494  1.00  0.00     0.127 S 
ATOM     94  O   UNL A   1      45.249  38.715  28.273  1.00  0.00    -0.237 OA
ATOM     95  O   UNL A   1      45.792  37.067  26.527  1.00  0.00    -0.237 OA
ATOM     96  O   UNL A   1      43.445  37.629  26.989  1.00  0.00    -0.744 OA
ENDBRANCH  90  93
ENDBRANCH  63  86
ENDBRANCH  37  38
ENDBRANCH  29  32
ENDBRANCH  27  28
ENDBRANCH   1  27
TORSDOF 16
ENDMDL
