MODEL 1
REMARK VINA RESULT:     -12.9      0.000      0.000
REMARK SMILES O=C(NCCCNC(=O)c1ccccc1NC(=S)NC(=O)c1ccc2ccccc2c1)c1ccc(-c2c3nc(c(-c4cccc(S(=O)(=O)[O-])c4F)c4ccc([nH]4)c(-c4cccc(S(=O)(=O)[O-])c4F)c4nc(c(-c5cccc(S(=O)(=O)[O-])c5F)c5ccc2[nH]5)C=C4)C=C3)cc1
REMARK SMILES IDX 5 1 4 2 3 3 1 4 2 5 32 7 33 8 94 9 34 10 93 11 35 12 36 13
REMARK SMILES IDX 37 14 87 15 38 16 92 17 86 18 88 19 39 20 91 21 85 22 84 23
REMARK SMILES IDX 40 25 72 26 52 27 71 28 53 29 56 30 70 31 89 32 54 33 55 34
REMARK SMILES IDX 69 36 90 37 57 38 41 39 42 40 50 41 43 42 45 43 51 44 44 45
REMARK SMILES IDX 46 46 47 47 48 48 49 49 73 50 74 51 82 52 75 53 77 54 83 55
REMARK SMILES IDX 76 56 78 57 79 58 80 59 81 60 58 61 59 62 67 63 60 64 62 65
REMARK SMILES IDX 68 66 61 67 63 68 64 69 65 70 66 71 6 72 7 73 8 74 9 76
REMARK SMILES IDX 10 77 11 78 15 79 12 80 14 81 13 82 16 83 17 85 18 86 19 87
REMARK SMILES IDX 20 88 21 90 22 91 23 92 31 93 24 94 30 95 25 96 29 97 26 98
REMARK SMILES IDX 28 99 27 100
REMARK H PARENT 3 6 88 24 56 35 7 75 16 84 19 89
REMARK Flexibility Score: inf
ROOT
ATOM      1  C   UNL A   1      31.775  31.938  26.870  1.00  0.00     0.042 C 
ENDROOT
BRANCH   1   2
ATOM      2  C   UNL A   1      32.985  32.707  27.356  1.00  0.00     0.118 C 
BRANCH   2   3
ATOM      3  N   UNL A   1      32.668  34.086  27.713  1.00  0.00    -0.352 N 
ATOM      4  O   UNL A   1      32.661  35.927  29.018  1.00  0.00    -0.269 OA
ATOM      5  C   UNL A   1      33.159  34.842  28.750  1.00  0.00     0.251 C 
ATOM      6  H   UNL A   1      32.013  34.536  27.133  1.00  0.00     0.163 HD
BRANCH   5   7
ATOM      7  C   UNL A   1      34.270  34.289  29.544  1.00  0.00     0.039 A 
ATOM      8  C   UNL A   1      35.584  34.516  29.133  1.00  0.00     0.014 A 
ATOM      9  C   UNL A   1      33.999  33.472  30.641  1.00  0.00     0.014 A 
ATOM     10  C   UNL A   1      36.604  33.753  29.667  1.00  0.00     0.010 A 
ATOM     11  C   UNL A   1      35.056  32.828  31.286  1.00  0.00     0.010 A 
ATOM     12  C   UNL A   1      36.362  32.933  30.779  1.00  0.00    -0.014 A 
BRANCH  12  13
ATOM     13  C   UNL A   1      37.520  32.284  31.439  1.00  0.00     0.031 A 
ATOM     14  C   UNL A   1      38.283  31.168  30.783  1.00  0.00     0.074 A 
ATOM     15  C   UNL A   1      37.890  32.742  32.652  1.00  0.00     0.049 A 
ATOM     16  N   UNL A   1      39.327  30.522  31.230  1.00  0.00    -0.248 NA
ATOM     17  C   UNL A   1      37.815  30.711  29.465  1.00  0.00     0.031 C 
ATOM     18  C   UNL A   1      37.204  33.805  33.395  1.00  0.00     0.029 A 
ATOM     19  N   UNL A   1      38.927  32.386  33.472  1.00  0.00    -0.354 N 
ATOM     20  C   UNL A   1      39.617  29.553  30.278  1.00  0.00     0.074 A 
ATOM     21  C   UNL A   1      38.632  29.693  29.226  1.00  0.00     0.031 C 
ATOM     22  C   UNL A   1      37.861  34.045  34.535  1.00  0.00     0.029 A 
ATOM     23  C   UNL A   1      38.955  33.092  34.650  1.00  0.00     0.049 A 
ATOM     24  H   UNL A   1      39.586  31.693  33.240  1.00  0.00     0.167 HD
ATOM     25  C   UNL A   1      40.615  28.637  30.281  1.00  0.00     0.034 A 
ATOM     26  C   UNL A   1      39.747  32.965  35.730  1.00  0.00     0.034 A 
ATOM     27  C   UNL A   1      41.590  28.511  31.334  1.00  0.00     0.049 A 
ATOM     28  C   UNL A   1      40.823  31.922  35.712  1.00  0.00     0.074 A 
ATOM     29  C   UNL A   1      42.670  27.648  31.406  1.00  0.00     0.029 A 
ATOM     30  N   UNL A   1      41.588  29.244  32.512  1.00  0.00    -0.354 N 
ATOM     31  N   UNL A   1      41.144  31.088  34.755  1.00  0.00    -0.248 NA
ATOM     32  C   UNL A   1      41.661  31.822  36.912  1.00  0.00     0.031 C 
ATOM     33  C   UNL A   1      43.284  27.819  32.650  1.00  0.00     0.029 A 
ATOM     34  C   UNL A   1      42.633  28.838  33.325  1.00  0.00     0.049 A 
ATOM     35  H   UNL A   1      40.939  29.949  32.737  1.00  0.00     0.167 HD
ATOM     36  C   UNL A   1      42.248  30.387  35.222  1.00  0.00     0.074 A 
ATOM     37  C   UNL A   1      42.550  30.914  36.537  1.00  0.00     0.031 C 
ATOM     38  C   UNL A   1      42.944  29.393  34.619  1.00  0.00     0.034 A 
BRANCH  25  39
ATOM     39  C   UNL A   1      40.705  27.687  29.112  1.00  0.00     0.023 A 
ATOM     40  C   UNL A   1      39.865  26.556  29.051  1.00  0.00     0.012 A 
ATOM     41  C   UNL A   1      41.583  27.952  28.042  1.00  0.00     0.148 A 
ATOM     42  C   UNL A   1      39.927  25.682  27.964  1.00  0.00     0.002 A 
ATOM     43  C   UNL A   1      41.603  27.106  26.940  1.00  0.00     0.091 A 
ATOM     44  F   UNL A   1      42.384  29.023  28.122  1.00  0.00    -0.205 F 
ATOM     45  C   UNL A   1      40.788  25.962  26.906  1.00  0.00     0.022 A 
BRANCH  43  46
ATOM     46  S   UNL A   1      42.614  27.423  25.489  1.00  0.00     0.127 S 
ATOM     47  O   UNL A   1      43.959  27.422  26.063  1.00  0.00    -0.237 OA
ATOM     48  O   UNL A   1      42.309  26.266  24.646  1.00  0.00    -0.237 OA
ATOM     49  O   UNL A   1      42.166  28.702  24.957  1.00  0.00    -0.744 OA
ENDBRANCH  43  46
ENDBRANCH  25  39
BRANCH  26  50
ATOM     50  C   UNL A   1      39.544  33.850  36.909  1.00  0.00     0.023 A 
ATOM     51  C   UNL A   1      39.916  35.205  36.838  1.00  0.00     0.012 A 
ATOM     52  C   UNL A   1      38.967  33.354  38.095  1.00  0.00     0.148 A 
ATOM     53  C   UNL A   1      39.756  36.042  37.942  1.00  0.00     0.002 A 
ATOM     54  C   UNL A   1      38.752  34.207  39.169  1.00  0.00     0.091 A 
ATOM     55  F   UNL A   1      38.620  32.060  38.139  1.00  0.00    -0.205 F 
ATOM     56  C   UNL A   1      39.166  35.546  39.103  1.00  0.00     0.022 A 
BRANCH  54  57
ATOM     57  S   UNL A   1      37.885  33.689  40.652  1.00  0.00     0.127 S 
ATOM     58  O   UNL A   1      37.811  34.939  41.404  1.00  0.00    -0.237 OA
ATOM     59  O   UNL A   1      36.612  33.222  40.104  1.00  0.00    -0.237 OA
ATOM     60  O   UNL A   1      38.706  32.644  41.247  1.00  0.00    -0.744 OA
ENDBRANCH  54  57
ENDBRANCH  26  50
BRANCH  38  61
ATOM     61  C   UNL A   1      44.146  28.851  35.347  1.00  0.00     0.023 A 
ATOM     62  C   UNL A   1      45.428  29.392  35.117  1.00  0.00     0.012 A 
ATOM     63  C   UNL A   1      43.992  27.825  36.299  1.00  0.00     0.148 A 
ATOM     64  C   UNL A   1      46.541  28.886  35.787  1.00  0.00     0.002 A 
ATOM     65  C   UNL A   1      45.094  27.369  37.008  1.00  0.00     0.091 A 
ATOM     66  F   UNL A   1      42.768  27.310  36.491  1.00  0.00    -0.205 F 
ATOM     67  C   UNL A   1      46.372  27.885  36.741  1.00  0.00     0.022 A 
BRANCH  65  68
ATOM     68  S   UNL A   1      44.959  26.154  38.322  1.00  0.00     0.127 S 
ATOM     69  O   UNL A   1      44.346  25.025  37.622  1.00  0.00    -0.237 OA
ATOM     70  O   UNL A   1      46.358  25.953  38.699  1.00  0.00    -0.237 OA
ATOM     71  O   UNL A   1      44.133  26.765  39.356  1.00  0.00    -0.744 OA
ENDBRANCH  65  68
ENDBRANCH  38  61
ENDBRANCH  12  13
ENDBRANCH   5   7
ENDBRANCH   2   3
ENDBRANCH   1   2
BRANCH   1  72
ATOM     72  C   UNL A   1      32.151  30.620  26.237  1.00  0.00     0.118 C 
BRANCH  72  73
ATOM     73  N   UNL A   1      31.726  29.484  27.032  1.00  0.00    -0.352 N 
ATOM     74  C   UNL A   1      31.926  28.147  26.844  1.00  0.00     0.253 C 
ATOM     75  H   UNL A   1      31.210  29.715  27.839  1.00  0.00     0.163 HD
ATOM     76  O   UNL A   1      31.433  27.317  27.547  1.00  0.00    -0.269 OA
BRANCH  74  77
ATOM     77  C   UNL A   1      32.423  27.749  25.551  1.00  0.00     0.063 A 
ATOM     78  C   UNL A   1      33.620  27.132  25.862  1.00  0.00     0.016 A 
ATOM     79  C   UNL A   1      31.769  27.548  24.300  1.00  0.00     0.053 A 
ATOM     80  C   UNL A   1      34.024  26.288  24.935  1.00  0.00     0.001 A 
ATOM     81  C   UNL A   1      32.491  27.170  23.233  1.00  0.00     0.027 A 
ATOM     82  C   UNL A   1      33.510  26.412  23.674  1.00  0.00     0.002 A 
BRANCH  79  83
ATOM     83  N   UNL A   1      30.398  27.399  24.137  1.00  0.00    -0.332 N 
ATOM     84  H   UNL A   1      29.957  28.116  23.627  1.00  0.00     0.169 HD
BRANCH  83  85
ATOM     85  C   UNL A   1      29.570  26.404  24.580  1.00  0.00     0.177 C 
ATOM     86  S   UNL A   1      27.992  26.488  23.993  1.00  0.00    -0.040 S 
BRANCH  85  87
ATOM     87  N   UNL A   1      29.931  25.311  25.497  1.00  0.00    -0.299 N 
ATOM     88  C   UNL A   1      30.575  24.033  26.150  1.00  0.00     0.257 C 
ATOM     89  H   UNL A   1      29.342  25.563  26.245  1.00  0.00     0.172 HD
ATOM     90  O   UNL A   1      29.914  23.635  27.124  1.00  0.00    -0.269 OA
BRANCH  88  91
ATOM     91  C   UNL A   1      31.862  23.138  25.734  1.00  0.00     0.040 A 
ATOM     92  C   UNL A   1      31.911  22.425  24.491  1.00  0.00     0.014 A 
ATOM     93  C   UNL A   1      33.142  23.241  26.381  1.00  0.00     0.022 A 
ATOM     94  C   UNL A   1      33.234  22.175  23.835  1.00  0.00     0.009 A 
ATOM     95  C   UNL A   1      34.488  22.935  25.769  1.00  0.00    -0.018 A 
ATOM     96  C   UNL A   1      34.542  22.477  24.424  1.00  0.00    -0.018 A 
ATOM     97  C   UNL A   1      35.755  23.391  26.327  1.00  0.00     0.009 A 
ATOM     98  C   UNL A   1      35.828  22.689  23.688  1.00  0.00     0.009 A 
ATOM     99  C   UNL A   1      36.984  23.523  25.613  1.00  0.00     0.001 A 
ATOM    100  C   UNL A   1      37.016  23.208  24.268  1.00  0.00     0.001 A 
ENDBRANCH  88  91
ENDBRANCH  85  87
ENDBRANCH  83  85
ENDBRANCH  79  83
ENDBRANCH  74  77
ENDBRANCH  72  73
ENDBRANCH   1  72
TORSDOF 17
ENDMDL
MODEL 2
REMARK VINA RESULT:     -12.4      1.528      7.432
REMARK SMILES O=C(NCCCNC(=O)c1ccccc1NC(=S)NC(=O)c1ccc2ccccc2c1)c1ccc(-c2c3nc(c(-c4cccc(S(=O)(=O)[O-])c4F)c4ccc([nH]4)c(-c4cccc(S(=O)(=O)[O-])c4F)c4nc(c(-c5cccc(S(=O)(=O)[O-])c5F)c5ccc2[nH]5)C=C4)C=C3)cc1
REMARK SMILES IDX 5 1 4 2 3 3 1 4 2 5 32 7 33 8 94 9 34 10 93 11 35 12 36 13
REMARK SMILES IDX 37 14 87 15 38 16 92 17 86 18 88 19 39 20 91 21 85 22 84 23
REMARK SMILES IDX 40 25 72 26 52 27 71 28 53 29 56 30 70 31 89 32 54 33 55 34
REMARK SMILES IDX 69 36 90 37 57 38 41 39 42 40 50 41 43 42 45 43 51 44 44 45
REMARK SMILES IDX 46 46 47 47 48 48 49 49 73 50 74 51 82 52 75 53 77 54 83 55
REMARK SMILES IDX 76 56 78 57 79 58 80 59 81 60 58 61 59 62 67 63 60 64 62 65
REMARK SMILES IDX 68 66 61 67 63 68 64 69 65 70 66 71 6 72 7 73 8 74 9 76
REMARK SMILES IDX 10 77 11 78 15 79 12 80 14 81 13 82 16 83 17 85 18 86 19 87
REMARK SMILES IDX 20 88 21 90 22 91 23 92 31 93 24 94 30 95 25 96 29 97 26 98
REMARK SMILES IDX 28 99 27 100
REMARK H PARENT 3 6 88 24 56 35 7 75 16 84 19 89
REMARK Flexibility Score: inf
ROOT
ATOM      1  C   UNL A   1      31.803  31.891  26.874  1.00  0.00     0.042 C 
ENDROOT
BRANCH   1   2
ATOM      2  C   UNL A   1      33.019  32.601  27.429  1.00  0.00     0.118 C 
BRANCH   2   3
ATOM      3  N   UNL A   1      32.740  33.984  27.802  1.00  0.00    -0.352 N 
ATOM      4  O   UNL A   1      32.807  35.818  29.116  1.00  0.00    -0.269 OA
ATOM      5  C   UNL A   1      33.276  34.725  28.827  1.00  0.00     0.251 C 
ATOM      6  H   UNL A   1      32.077  34.450  27.244  1.00  0.00     0.163 HD
BRANCH   5   7
ATOM      7  C   UNL A   1      34.400  34.147  29.584  1.00  0.00     0.039 A 
ATOM      8  C   UNL A   1      35.707  34.391  29.162  1.00  0.00     0.014 A 
ATOM      9  C   UNL A   1      34.147  33.291  30.656  1.00  0.00     0.014 A 
ATOM     10  C   UNL A   1      36.736  33.611  29.655  1.00  0.00     0.010 A 
ATOM     11  C   UNL A   1      35.214  32.627  31.263  1.00  0.00     0.010 A 
ATOM     12  C   UNL A   1      36.512  32.752  30.740  1.00  0.00    -0.014 A 
BRANCH  12  13
ATOM     13  C   UNL A   1      37.681  32.082  31.360  1.00  0.00     0.031 A 
ATOM     14  C   UNL A   1      38.227  32.513  32.691  1.00  0.00     0.074 A 
ATOM     15  C   UNL A   1      38.236  31.048  30.697  1.00  0.00     0.049 A 
ATOM     16  N   UNL A   1      39.227  32.008  33.363  1.00  0.00    -0.248 NA
ATOM     17  C   UNL A   1      37.579  33.658  33.351  1.00  0.00     0.031 C 
ATOM     18  C   UNL A   1      37.802  30.560  29.382  1.00  0.00     0.029 A 
ATOM     19  N   UNL A   1      39.271  30.216  31.029  1.00  0.00    -0.354 N 
ATOM     20  C   UNL A   1      39.363  32.794  34.500  1.00  0.00     0.074 A 
ATOM     21  C   UNL A   1      38.341  33.818  34.424  1.00  0.00     0.031 C 
ATOM     22  C   UNL A   1      38.533  29.492  29.043  1.00  0.00     0.029 A 
ATOM     23  C   UNL A   1      39.546  29.277  30.065  1.00  0.00     0.049 A 
ATOM     24  H   UNL A   1      39.769  30.284  31.876  1.00  0.00     0.167 HD
ATOM     25  C   UNL A   1      40.254  32.669  35.513  1.00  0.00     0.034 A 
ATOM     26  C   UNL A   1      40.531  28.365  29.984  1.00  0.00     0.034 A 
ATOM     27  C   UNL A   1      41.263  31.644  35.576  1.00  0.00     0.049 A 
ATOM     28  C   UNL A   1      41.517  28.273  31.108  1.00  0.00     0.074 A 
ATOM     29  C   UNL A   1      42.180  31.402  36.584  1.00  0.00     0.029 A 
ATOM     30  N   UNL A   1      41.511  30.710  34.581  1.00  0.00    -0.354 N 
ATOM     31  N   UNL A   1      41.561  28.959  32.223  1.00  0.00    -0.248 NA
ATOM     32  C   UNL A   1      42.573  27.262  30.975  1.00  0.00     0.031 C 
ATOM     33  C   UNL A   1      43.018  30.362  36.173  1.00  0.00     0.029 A 
ATOM     34  C   UNL A   1      42.580  29.906  34.941  1.00  0.00     0.049 A 
ATOM     35  H   UNL A   1      41.002  30.630  33.742  1.00  0.00     0.167 HD
ATOM     36  C   UNL A   1      42.628  28.438  32.944  1.00  0.00     0.074 A 
ATOM     37  C   UNL A   1      43.184  27.364  32.146  1.00  0.00     0.031 C 
ATOM     38  C   UNL A   1      43.105  28.818  34.154  1.00  0.00     0.034 A 
BRANCH  25  39
ATOM     39  C   UNL A   1      40.187  33.672  36.640  1.00  0.00     0.023 A 
ATOM     40  C   UNL A   1      39.154  33.596  37.597  1.00  0.00     0.012 A 
ATOM     41  C   UNL A   1      41.186  34.654  36.782  1.00  0.00     0.148 A 
ATOM     42  C   UNL A   1      39.095  34.506  38.653  1.00  0.00     0.002 A 
ATOM     43  C   UNL A   1      41.150  35.525  37.864  1.00  0.00     0.091 A 
ATOM     44  F   UNL A   1      42.153  34.722  35.855  1.00  0.00    -0.205 F 
ATOM     45  C   UNL A   1      40.097  35.463  38.792  1.00  0.00     0.022 A 
BRANCH  43  46
ATOM     46  S   UNL A   1      42.437  36.738  38.180  1.00  0.00     0.127 S 
ATOM     47  O   UNL A   1      42.736  37.207  36.827  1.00  0.00    -0.237 OA
ATOM     48  O   UNL A   1      41.739  37.710  39.022  1.00  0.00    -0.237 OA
ATOM     49  O   UNL A   1      43.516  36.019  38.842  1.00  0.00    -0.744 OA
ENDBRANCH  43  46
ENDBRANCH  25  39
BRANCH  26  50
ATOM     50  C   UNL A   1      40.625  27.475  28.795  1.00  0.00     0.023 A 
ATOM     51  C   UNL A   1      39.680  26.449  28.615  1.00  0.00     0.012 A 
ATOM     52  C   UNL A   1      41.639  27.655  27.834  1.00  0.00     0.148 A 
ATOM     53  C   UNL A   1      39.767  25.589  27.519  1.00  0.00     0.002 A 
ATOM     54  C   UNL A   1      41.684  26.837  26.714  1.00  0.00     0.091 A 
ATOM     55  F   UNL A   1      42.529  28.640  28.027  1.00  0.00    -0.205 F 
ATOM     56  C   UNL A   1      40.763  25.790  26.565  1.00  0.00     0.022 A 
BRANCH  54  57
ATOM     57  S   UNL A   1      42.848  27.102  25.374  1.00  0.00     0.127 S 
ATOM     58  O   UNL A   1      42.728  25.853  24.626  1.00  0.00    -0.237 OA
ATOM     59  O   UNL A   1      42.278  28.276  24.712  1.00  0.00    -0.237 OA
ATOM     60  O   UNL A   1      44.138  27.334  26.009  1.00  0.00    -0.744 OA
ENDBRANCH  54  57
ENDBRANCH  26  50
BRANCH  38  61
ATOM     61  C   UNL A   1      44.252  28.025  34.723  1.00  0.00     0.023 A 
ATOM     62  C   UNL A   1      45.581  28.466  34.559  1.00  0.00     0.012 A 
ATOM     63  C   UNL A   1      44.001  26.854  35.464  1.00  0.00     0.148 A 
ATOM     64  C   UNL A   1      46.642  27.728  35.081  1.00  0.00     0.002 A 
ATOM     65  C   UNL A   1      45.058  26.158  36.035  1.00  0.00     0.091 A 
ATOM     66  F   UNL A   1      42.732  26.440  35.595  1.00  0.00    -0.205 F 
ATOM     67  C   UNL A   1      46.380  26.583  35.829  1.00  0.00     0.022 A 
BRANCH  65  68
ATOM     68  S   UNL A   1      44.811  24.731  37.095  1.00  0.00     0.127 S 
ATOM     69  O   UNL A   1      44.282  23.747  36.151  1.00  0.00    -0.237 OA
ATOM     70  O   UNL A   1      46.168  24.459  37.564  1.00  0.00    -0.237 OA
ATOM     71  O   UNL A   1      43.881  25.154  38.135  1.00  0.00    -0.744 OA
ENDBRANCH  65  68
ENDBRANCH  38  61
ENDBRANCH  12  13
ENDBRANCH   5   7
ENDBRANCH   2   3
ENDBRANCH   1   2
BRANCH   1  72
ATOM     72  C   UNL A   1      32.156  30.570  26.232  1.00  0.00     0.118 C 
BRANCH  72  73
ATOM     73  N   UNL A   1      31.755  29.437  27.043  1.00  0.00    -0.352 N 
ATOM     74  C   UNL A   1      31.960  28.100  26.860  1.00  0.00     0.253 C 
ATOM     75  H   UNL A   1      31.254  29.670  27.859  1.00  0.00     0.163 HD
ATOM     76  O   UNL A   1      31.487  27.272  27.579  1.00  0.00    -0.269 OA
BRANCH  74  77
ATOM     77  C   UNL A   1      32.433  27.697  25.560  1.00  0.00     0.063 A 
ATOM     78  C   UNL A   1      33.638  27.085  25.850  1.00  0.00     0.016 A 
ATOM     79  C   UNL A   1      31.754  27.486  24.323  1.00  0.00     0.053 A 
ATOM     80  C   UNL A   1      34.026  26.238  24.920  1.00  0.00     0.001 A 
ATOM     81  C   UNL A   1      32.456  27.105  23.244  1.00  0.00     0.027 A 
ATOM     82  C   UNL A   1      33.486  26.353  23.669  1.00  0.00     0.002 A 
BRANCH  79  83
ATOM     83  N   UNL A   1      30.381  27.332  24.189  1.00  0.00    -0.332 N 
ATOM     84  H   UNL A   1      29.922  28.059  23.709  1.00  0.00     0.169 HD
BRANCH  83  85
ATOM     85  C   UNL A   1      29.571  26.319  24.623  1.00  0.00     0.177 C 
ATOM     86  S   UNL A   1      28.010  26.343  23.985  1.00  0.00    -0.040 S 
BRANCH  85  87
ATOM     87  N   UNL A   1      29.935  25.254  25.571  1.00  0.00    -0.299 N 
ATOM     88  C   UNL A   1      30.582  23.995  26.258  1.00  0.00     0.257 C 
ATOM     89  H   UNL A   1      29.351  25.529  26.314  1.00  0.00     0.172 HD
ATOM     90  O   UNL A   1      29.926  23.628  27.248  1.00  0.00    -0.269 OA
BRANCH  88  91
ATOM     91  C   UNL A   1      31.865  23.086  25.862  1.00  0.00     0.040 A 
ATOM     92  C   UNL A   1      31.913  22.350  24.633  1.00  0.00     0.014 A 
ATOM     93  C   UNL A   1      33.144  23.195  26.510  1.00  0.00     0.022 A 
ATOM     94  C   UNL A   1      33.236  22.081  23.985  1.00  0.00     0.009 A 
ATOM     95  C   UNL A   1      34.490  22.871  25.907  1.00  0.00    -0.018 A 
ATOM     96  C   UNL A   1      34.544  22.387  24.571  1.00  0.00    -0.018 A 
ATOM     97  C   UNL A   1      35.759  23.331  26.459  1.00  0.00     0.009 A 
ATOM     98  C   UNL A   1      35.833  22.579  23.833  1.00  0.00     0.009 A 
ATOM     99  C   UNL A   1      36.989  23.443  25.744  1.00  0.00     0.001 A 
ATOM    100  C   UNL A   1      37.022  23.103  24.406  1.00  0.00     0.001 A 
ENDBRANCH  88  91
ENDBRANCH  85  87
ENDBRANCH  83  85
ENDBRANCH  79  83
ENDBRANCH  74  77
ENDBRANCH  72  73
ENDBRANCH   1  72
TORSDOF 17
ENDMDL
MODEL 3
REMARK VINA RESULT:     -12.2      6.269     11.156
REMARK SMILES O=C(NCCCNC(=O)c1ccccc1NC(=S)NC(=O)c1ccc2ccccc2c1)c1ccc(-c2c3nc(c(-c4cccc(S(=O)(=O)[O-])c4F)c4ccc([nH]4)c(-c4cccc(S(=O)(=O)[O-])c4F)c4nc(c(-c5cccc(S(=O)(=O)[O-])c5F)c5ccc2[nH]5)C=C4)C=C3)cc1
REMARK SMILES IDX 5 1 4 2 3 3 1 4 2 5 32 7 33 8 94 9 34 10 93 11 35 12 36 13
REMARK SMILES IDX 37 14 87 15 38 16 92 17 86 18 88 19 39 20 91 21 85 22 84 23
REMARK SMILES IDX 40 25 72 26 52 27 71 28 53 29 56 30 70 31 89 32 54 33 55 34
REMARK SMILES IDX 69 36 90 37 57 38 41 39 42 40 50 41 43 42 45 43 51 44 44 45
REMARK SMILES IDX 46 46 47 47 48 48 49 49 73 50 74 51 82 52 75 53 77 54 83 55
REMARK SMILES IDX 76 56 78 57 79 58 80 59 81 60 58 61 59 62 67 63 60 64 62 65
REMARK SMILES IDX 68 66 61 67 63 68 64 69 65 70 66 71 6 72 7 73 8 74 9 76
REMARK SMILES IDX 10 77 11 78 15 79 12 80 14 81 13 82 16 83 17 85 18 86 19 87
REMARK SMILES IDX 20 88 21 90 22 91 23 92 31 93 24 94 30 95 25 96 29 97 26 98
REMARK SMILES IDX 28 99 27 100
REMARK H PARENT 3 6 88 24 56 35 7 75 16 84 19 89
REMARK Flexibility Score: inf
ROOT
ATOM      1  C   UNL A   1      38.607  21.823  26.400  1.00  0.00     0.042 C 
ENDROOT
BRANCH   1   2
ATOM      2  C   UNL A   1      39.047  20.812  25.364  1.00  0.00     0.118 C 
BRANCH   2   3
ATOM      3  N   UNL A   1      39.891  19.762  25.927  1.00  0.00    -0.352 N 
ATOM      4  O   UNL A   1      41.792  18.864  26.747  1.00  0.00    -0.269 OA
ATOM      5  C   UNL A   1      41.145  19.868  26.478  1.00  0.00     0.251 C 
ATOM      6  H   UNL A   1      39.509  18.855  25.911  1.00  0.00     0.163 HD
BRANCH   5   7
ATOM      7  C   UNL A   1      41.694  21.217  26.694  1.00  0.00     0.039 A 
ATOM      8  C   UNL A   1      41.819  21.705  27.996  1.00  0.00     0.014 A 
ATOM      9  C   UNL A   1      41.998  22.026  25.600  1.00  0.00     0.014 A 
ATOM     10  C   UNL A   1      42.023  23.055  28.198  1.00  0.00     0.010 A 
ATOM     11  C   UNL A   1      42.367  23.355  25.818  1.00  0.00     0.010 A 
ATOM     12  C   UNL A   1      42.343  23.890  27.117  1.00  0.00    -0.014 A 
BRANCH  12  13
ATOM     13  C   UNL A   1      42.743  25.289  27.403  1.00  0.00     0.031 A 
ATOM     14  C   UNL A   1      41.816  26.255  28.083  1.00  0.00     0.074 A 
ATOM     15  C   UNL A   1      43.987  25.670  27.049  1.00  0.00     0.049 A 
ATOM     16  N   UNL A   1      42.037  27.499  28.415  1.00  0.00    -0.248 NA
ATOM     17  C   UNL A   1      40.470  25.773  28.429  1.00  0.00     0.031 C 
ATOM     18  C   UNL A   1      44.964  24.821  26.358  1.00  0.00     0.029 A 
ATOM     19  N   UNL A   1      44.650  26.856  27.222  1.00  0.00    -0.354 N 
ATOM     20  C   UNL A   1      40.851  27.967  28.966  1.00  0.00     0.074 A 
ATOM     21  C   UNL A   1      39.907  26.870  28.918  1.00  0.00     0.031 C 
ATOM     22  C   UNL A   1      46.110  25.495  26.207  1.00  0.00     0.029 A 
ATOM     23  C   UNL A   1      45.921  26.850  26.702  1.00  0.00     0.049 A 
ATOM     24  H   UNL A   1      44.254  27.635  27.675  1.00  0.00     0.167 HD
ATOM     25  C   UNL A   1      40.578  29.195  29.467  1.00  0.00     0.034 A 
ATOM     26  C   UNL A   1      46.828  27.837  26.592  1.00  0.00     0.034 A 
ATOM     27  C   UNL A   1      41.528  30.277  29.511  1.00  0.00     0.049 A 
ATOM     28  C   UNL A   1      46.484  29.191  27.132  1.00  0.00     0.074 A 
ATOM     29  C   UNL A   1      41.365  31.543  30.045  1.00  0.00     0.029 A 
ATOM     30  N   UNL A   1      42.807  30.234  28.975  1.00  0.00    -0.354 N 
ATOM     31  N   UNL A   1      45.393  29.581  27.743  1.00  0.00    -0.248 NA
ATOM     32  C   UNL A   1      47.506  30.235  26.990  1.00  0.00     0.031 C 
ATOM     33  C   UNL A   1      42.521  32.283  29.780  1.00  0.00     0.029 A 
ATOM     34  C   UNL A   1      43.434  31.457  29.145  1.00  0.00     0.049 A 
ATOM     35  H   UNL A   1      43.210  29.450  28.538  1.00  0.00     0.167 HD
ATOM     36  C   UNL A   1      45.610  30.907  28.094  1.00  0.00     0.074 A 
ATOM     37  C   UNL A   1      46.947  31.242  27.645  1.00  0.00     0.031 C 
ATOM     38  C   UNL A   1      44.777  31.770  28.724  1.00  0.00     0.034 A 
BRANCH  25  39
ATOM     39  C   UNL A   1      39.191  29.446  30.007  1.00  0.00     0.023 A 
ATOM     40  C   UNL A   1      38.860  29.057  31.322  1.00  0.00     0.012 A 
ATOM     41  C   UNL A   1      38.232  30.122  29.227  1.00  0.00     0.148 A 
ATOM     42  C   UNL A   1      37.586  29.302  31.836  1.00  0.00     0.002 A 
ATOM     43  C   UNL A   1      36.983  30.408  29.763  1.00  0.00     0.091 A 
ATOM     44  F   UNL A   1      38.558  30.472  27.974  1.00  0.00    -0.205 F 
ATOM     45  C   UNL A   1      36.652  29.985  31.061  1.00  0.00     0.022 A 
BRANCH  43  46
ATOM     46  S   UNL A   1      35.738  31.355  28.878  1.00  0.00     0.127 S 
ATOM     47  O   UNL A   1      36.544  32.432  28.303  1.00  0.00    -0.237 OA
ATOM     48  O   UNL A   1      35.244  30.377  27.908  1.00  0.00    -0.237 OA
ATOM     49  O   UNL A   1      34.764  31.773  29.876  1.00  0.00    -0.744 OA
ENDBRANCH  43  46
ENDBRANCH  25  39
BRANCH  26  50
ATOM     50  C   UNL A   1      48.141  27.571  25.946  1.00  0.00     0.023 A 
ATOM     51  C   UNL A   1      49.250  27.217  26.736  1.00  0.00     0.012 A 
ATOM     52  C   UNL A   1      48.289  27.650  24.546  1.00  0.00     0.148 A 
ATOM     53  C   UNL A   1      50.495  26.989  26.148  1.00  0.00     0.002 A 
ATOM     54  C   UNL A   1      49.514  27.360  23.962  1.00  0.00     0.091 A 
ATOM     55  F   UNL A   1      47.218  27.988  23.814  1.00  0.00    -0.205 F 
ATOM     56  C   UNL A   1      50.624  27.051  24.762  1.00  0.00     0.022 A 
BRANCH  54  57
ATOM     57  S   UNL A   1      49.740  27.290  22.183  1.00  0.00     0.127 S 
ATOM     58  O   UNL A   1      48.765  26.273  21.800  1.00  0.00    -0.237 OA
ATOM     59  O   UNL A   1      49.397  28.656  21.786  1.00  0.00    -0.237 OA
ATOM     60  O   UNL A   1      51.137  26.934  21.975  1.00  0.00    -0.744 OA
ENDBRANCH  54  57
ENDBRANCH  26  50
BRANCH  38  61
ATOM     61  C   UNL A   1      45.309  33.146  29.028  1.00  0.00     0.023 A 
ATOM     62  C   UNL A   1      45.987  33.401  30.237  1.00  0.00     0.012 A 
ATOM     63  C   UNL A   1      45.170  34.181  28.084  1.00  0.00     0.148 A 
ATOM     64  C   UNL A   1      46.474  34.676  30.521  1.00  0.00     0.002 A 
ATOM     65  C   UNL A   1      45.712  35.432  28.345  1.00  0.00     0.091 A 
ATOM     66  F   UNL A   1      44.506  33.924  26.947  1.00  0.00    -0.205 F 
ATOM     67  C   UNL A   1      46.348  35.686  29.570  1.00  0.00     0.022 A 
BRANCH  65  68
ATOM     68  S   UNL A   1      45.685  36.764  27.143  1.00  0.00     0.127 S 
ATOM     69  O   UNL A   1      46.347  36.143  25.996  1.00  0.00    -0.237 OA
ATOM     70  O   UNL A   1      44.251  36.992  26.970  1.00  0.00    -0.237 OA
ATOM     71  O   UNL A   1      46.408  37.874  27.750  1.00  0.00    -0.744 OA
ENDBRANCH  65  68
ENDBRANCH  38  61
ENDBRANCH  12  13
ENDBRANCH   5   7
ENDBRANCH   2   3
ENDBRANCH   1   2
BRANCH   1  72
ATOM     72  C   UNL A   1      38.205  23.140  25.779  1.00  0.00     0.118 C 
BRANCH  72  73
ATOM     73  N   UNL A   1      37.408  22.964  24.580  1.00  0.00    -0.352 N 
ATOM     74  C   UNL A   1      36.053  22.928  24.415  1.00  0.00     0.253 C 
ATOM     75  H   UNL A   1      37.928  22.854  23.751  1.00  0.00     0.163 HD
ATOM     76  O   UNL A   1      35.539  22.685  23.365  1.00  0.00    -0.269 OA
BRANCH  74  77
ATOM     77  C   UNL A   1      35.265  22.804  25.616  1.00  0.00     0.063 A 
ATOM     78  C   UNL A   1      34.747  24.076  25.773  1.00  0.00     0.016 A 
ATOM     79  C   UNL A   1      34.701  21.669  26.271  1.00  0.00     0.053 A 
ATOM     80  C   UNL A   1      33.651  24.102  26.501  1.00  0.00     0.001 A 
ATOM     81  C   UNL A   1      33.997  21.845  27.400  1.00  0.00     0.027 A 
ATOM     82  C   UNL A   1      33.389  23.042  27.324  1.00  0.00     0.002 A 
BRANCH  79  83
ATOM     83  N   UNL A   1      34.539  20.418  25.691  1.00  0.00    -0.332 N 
ATOM     84  H   UNL A   1      35.259  19.773  25.879  1.00  0.00     0.169 HD
BRANCH  83  85
ATOM     85  C   UNL A   1      33.529  19.949  24.898  1.00  0.00     0.177 C 
ATOM     86  S   UNL A   1      32.921  18.442  25.349  1.00  0.00    -0.040 S 
BRANCH  85  87
ATOM     87  N   UNL A   1      32.955  20.624  23.723  1.00  0.00    -0.299 N 
ATOM     88  C   UNL A   1      32.240  21.644  22.762  1.00  0.00     0.257 C 
ATOM     89  H   UNL A   1      33.189  19.944  23.050  1.00  0.00     0.172 HD
ATOM     90  O   UNL A   1      31.937  21.116  21.679  1.00  0.00    -0.269 OA
BRANCH  88  91
ATOM     91  C   UNL A   1      31.780  23.185  22.970  1.00  0.00     0.040 A 
ATOM     92  C   UNL A   1      30.676  23.532  23.817  1.00  0.00     0.014 A 
ATOM     93  C   UNL A   1      32.599  24.312  22.614  1.00  0.00     0.022 A 
ATOM     94  C   UNL A   1      30.663  24.862  24.505  1.00  0.00     0.009 A 
ATOM     95  C   UNL A   1      32.567  25.684  23.244  1.00  0.00    -0.018 A 
ATOM     96  C   UNL A   1      31.634  25.939  24.285  1.00  0.00    -0.018 A 
ATOM     97  C   UNL A   1      33.637  26.665  23.107  1.00  0.00     0.009 A 
ATOM     98  C   UNL A   1      31.957  27.058  25.225  1.00  0.00     0.009 A 
ATOM     99  C   UNL A   1      33.883  27.761  23.987  1.00  0.00     0.001 A 
ATOM    100  C   UNL A   1      33.060  27.941  25.083  1.00  0.00     0.001 A 
ENDBRANCH  88  91
ENDBRANCH  85  87
ENDBRANCH  83  85
ENDBRANCH  79  83
ENDBRANCH  74  77
ENDBRANCH  72  73
ENDBRANCH   1  72
TORSDOF 17
ENDMDL
