MODEL 1
REMARK VINA RESULT:     -11.0      0.000      0.000
REMARK SMILES C[C@H](CO)CSc1cc(Cl)ccc1C(=O)NCCCNC(=O)c1ccc(-c2c3nc(c(-c4cccc(S(=O)(=O)[O-])c4F)c4ccc([nH]4)c(-c4cccc(S(=O)(=O)[O-])c4F)c4nc(c(-c5cccc(S(=O)(=O)[O-])c5F)c5ccc2[nH]5)C=C4)C=C3)cc1
REMARK SMILES IDX 17 1 16 2 14 3 15 4 13 6 7 7 8 8 9 9 12 10 10 11 11 12 6 13
REMARK SMILES IDX 5 14 2 15 1 16 3 17 4 18 18 20 19 21 20 22 21 23 22 25 23 26
REMARK SMILES IDX 24 27 85 28 25 29 84 30 26 31 27 32 28 33 78 34 29 35 83 36
REMARK SMILES IDX 77 37 79 38 30 39 82 40 76 41 75 42 31 44 63 45 43 46 62 47
REMARK SMILES IDX 44 48 47 49 61 50 80 51 45 52 46 53 60 55 81 56 48 57 32 58
REMARK SMILES IDX 33 59 41 60 34 61 36 62 42 63 35 64 37 65 38 66 39 67 40 68
REMARK SMILES IDX 64 69 65 70 73 71 66 72 68 73 74 74 67 75 69 76 70 77 71 78
REMARK SMILES IDX 72 79 49 80 50 81 58 82 51 83 53 84 59 85 52 86 54 87 55 88
REMARK SMILES IDX 56 89 57 90
REMARK H PARENT 16 5 4 19 20 24 79 43 47 54
REMARK Flexibility Score: inf
ROOT
ATOM      1  C   UNL A   1      31.898  28.199  27.253  1.00  0.00     0.118 C 
ENDROOT
BRANCH   1   2
ATOM      2  N   UNL A   1      31.013  27.084  27.042  1.00  0.00    -0.352 N 
ATOM      3  C   UNL A   1      30.650  26.343  25.954  1.00  0.00     0.252 C 
ATOM      4  O   UNL A   1      29.818  25.461  26.207  1.00  0.00    -0.269 OA
ATOM      5  H   UNL A   1      30.568  26.788  27.870  1.00  0.00     0.163 HD
BRANCH   3   6
ATOM      6  C   UNL A   1      31.187  26.399  24.546  1.00  0.00     0.053 A 
ATOM      7  C   UNL A   1      31.155  27.417  23.563  1.00  0.00     0.021 A 
ATOM      8  C   UNL A   1      31.544  27.104  22.236  1.00  0.00     0.036 A 
ATOM      9  C   UNL A   1      32.018  25.844  21.886  1.00  0.00     0.042 A 
ATOM     10  C   UNL A   1      31.706  25.136  24.150  1.00  0.00     0.016 A 
ATOM     11  Cl  UNL A   1      32.468  25.515  20.261  1.00  0.00    -0.084 Cl
ATOM     12  C   UNL A   1      32.119  24.858  22.846  1.00  0.00     0.021 A 
BRANCH   7  13
ATOM     13  S   UNL A   1      30.543  29.080  23.731  1.00  0.00    -0.125 SA
BRANCH  13  14
ATOM     14  C   UNL A   1      29.661  29.424  22.139  1.00  0.00     0.080 C 
BRANCH  14  15
ATOM     15  C   UNL A   1      28.375  30.279  22.183  1.00  0.00     0.022 C 
ATOM     16  C   UNL A   1      28.738  31.754  22.420  1.00  0.00     0.011 C 
BRANCH  15  17
ATOM     17  C   UNL A   1      27.353  29.844  23.240  1.00  0.00     0.160 C 
BRANCH  17  18
ATOM     18  O   UNL A   1      26.564  28.749  22.795  1.00  0.00    -0.396 OA
ATOM     19  H   UNL A   1      25.907  28.528  23.473  1.00  0.00     0.210 HD
ENDBRANCH  17  18
ENDBRANCH  15  17
ENDBRANCH  14  15
ENDBRANCH  13  14
ENDBRANCH   7  13
ENDBRANCH   3   6
ENDBRANCH   1   2
BRANCH   1  20
ATOM     20  C   UNL A   1      33.342  27.819  26.932  1.00  0.00     0.042 C 
BRANCH  20  21
ATOM     21  C   UNL A   1      34.048  28.832  26.048  1.00  0.00     0.118 C 
BRANCH  21  22
ATOM     22  N   UNL A   1      33.869  30.185  26.557  1.00  0.00    -0.352 N 
ATOM     23  C   UNL A   1      34.527  30.829  27.577  1.00  0.00     0.251 C 
ATOM     24  H   UNL A   1      33.173  30.716  26.105  1.00  0.00     0.163 HD
ATOM     25  O   UNL A   1      34.041  31.856  28.047  1.00  0.00    -0.269 OA
BRANCH  23  26
ATOM     26  C   UNL A   1      35.806  30.300  28.107  1.00  0.00     0.039 A 
ATOM     27  C   UNL A   1      35.816  29.673  29.358  1.00  0.00     0.014 A 
ATOM     28  C   UNL A   1      36.999  30.457  27.401  1.00  0.00     0.014 A 
ATOM     29  C   UNL A   1      37.014  29.169  29.874  1.00  0.00     0.010 A 
ATOM     30  C   UNL A   1      38.171  29.872  27.871  1.00  0.00     0.010 A 
ATOM     31  C   UNL A   1      38.197  29.242  29.123  1.00  0.00    -0.014 A 
BRANCH  31  32
ATOM     32  C   UNL A   1      39.481  28.691  29.628  1.00  0.00     0.031 A 
ATOM     33  C   UNL A   1      40.217  29.394  30.739  1.00  0.00     0.074 A 
ATOM     34  C   UNL A   1      40.030  27.617  29.026  1.00  0.00     0.049 A 
ATOM     35  N   UNL A   1      41.386  29.120  31.257  1.00  0.00    -0.248 NA
ATOM     36  C   UNL A   1      39.570  30.583  31.322  1.00  0.00     0.031 C 
ATOM     37  C   UNL A   1      39.453  26.899  27.887  1.00  0.00     0.029 A 
ATOM     38  N   UNL A   1      41.210  26.960  29.269  1.00  0.00    -0.354 N 
ATOM     39  C   UNL A   1      41.633  30.121  32.191  1.00  0.00     0.074 A 
ATOM     40  C   UNL A   1      40.510  31.031  32.142  1.00  0.00     0.031 C 
ATOM     41  C   UNL A   1      40.277  25.900  27.533  1.00  0.00     0.029 A 
ATOM     42  C   UNL A   1      41.452  25.923  28.398  1.00  0.00     0.049 A 
ATOM     43  H   UNL A   1      41.825  27.208  29.996  1.00  0.00     0.167 HD
ATOM     44  C   UNL A   1      42.682  30.254  33.036  1.00  0.00     0.034 A 
ATOM     45  C   UNL A   1      42.506  25.088  28.305  1.00  0.00     0.034 A 
ATOM     46  C   UNL A   1      43.767  29.315  33.121  1.00  0.00     0.049 A 
ATOM     47  C   UNL A   1      43.631  25.223  29.295  1.00  0.00     0.074 A 
ATOM     48  C   UNL A   1      44.830  29.305  34.007  1.00  0.00     0.029 A 
ATOM     49  N   UNL A   1      43.926  28.216  32.290  1.00  0.00    -0.354 N 
ATOM     50  N   UNL A   1      43.769  26.084  30.274  1.00  0.00    -0.248 NA
ATOM     51  C   UNL A   1      44.727  24.248  29.192  1.00  0.00     0.031 C 
ATOM     52  C   UNL A   1      45.641  28.207  33.700  1.00  0.00     0.029 A 
ATOM     53  C   UNL A   1      45.071  27.523  32.639  1.00  0.00     0.049 A 
ATOM     54  H   UNL A   1      43.315  27.967  31.561  1.00  0.00     0.167 HD
ATOM     55  C   UNL A   1      44.946  25.734  30.926  1.00  0.00     0.074 A 
ATOM     56  C   UNL A   1      45.471  24.569  30.243  1.00  0.00     0.031 C 
ATOM     57  C   UNL A   1      45.547  26.332  31.984  1.00  0.00     0.034 A 
BRANCH  44  58
ATOM     58  C   UNL A   1      42.675  31.427  33.983  1.00  0.00     0.023 A 
ATOM     59  C   UNL A   1      43.312  32.628  33.605  1.00  0.00     0.012 A 
ATOM     60  C   UNL A   1      42.000  31.364  35.218  1.00  0.00     0.148 A 
ATOM     61  C   UNL A   1      43.308  33.734  34.453  1.00  0.00     0.002 A 
ATOM     62  C   UNL A   1      41.961  32.487  36.038  1.00  0.00     0.091 A 
ATOM     63  F   UNL A   1      41.418  30.209  35.571  1.00  0.00    -0.205 F 
ATOM     64  C   UNL A   1      42.624  33.667  35.663  1.00  0.00     0.022 A 
BRANCH  62  65
ATOM     65  S   UNL A   1      41.042  32.528  37.582  1.00  0.00     0.127 S 
ATOM     66  O   UNL A   1      40.958  33.966  37.836  1.00  0.00    -0.237 OA
ATOM     67  O   UNL A   1      39.776  31.903  37.202  1.00  0.00    -0.237 OA
ATOM     68  O   UNL A   1      41.832  31.769  38.540  1.00  0.00    -0.744 OA
ENDBRANCH  62  65
ENDBRANCH  44  58
BRANCH  45  69
ATOM     69  C   UNL A   1      42.504  24.000  27.287  1.00  0.00     0.023 A 
ATOM     70  C   UNL A   1      43.087  24.236  26.027  1.00  0.00     0.012 A 
ATOM     71  C   UNL A   1      41.964  22.729  27.565  1.00  0.00     0.148 A 
ATOM     72  C   UNL A   1      43.106  23.238  25.051  1.00  0.00     0.002 A 
ATOM     73  C   UNL A   1      42.035  21.722  26.608  1.00  0.00     0.091 A 
ATOM     74  F   UNL A   1      41.403  22.526  28.766  1.00  0.00    -0.205 F 
ATOM     75  C   UNL A   1      42.589  21.979  25.345  1.00  0.00     0.022 A 
BRANCH  73  76
ATOM     76  S   UNL A   1      41.516  20.036  26.949  1.00  0.00     0.127 S 
ATOM     77  O   UNL A   1      40.720  20.209  28.164  1.00  0.00    -0.237 OA
ATOM     78  O   UNL A   1      40.740  19.711  25.750  1.00  0.00    -0.237 OA
ATOM     79  O   UNL A   1      42.741  19.270  27.095  1.00  0.00    -0.744 OA
ENDBRANCH  73  76
ENDBRANCH  45  69
BRANCH  57  80
ATOM     80  C   UNL A   1      46.824  25.721  32.498  1.00  0.00     0.023 A 
ATOM     81  C   UNL A   1      48.063  26.162  31.995  1.00  0.00     0.012 A 
ATOM     82  C   UNL A   1      46.797  24.767  33.536  1.00  0.00     0.148 A 
ATOM     83  C   UNL A   1      49.255  25.642  32.496  1.00  0.00     0.002 A 
ATOM     84  C   UNL A   1      47.990  24.290  34.063  1.00  0.00     0.091 A 
ATOM     85  F   UNL A   1      45.606  24.346  33.987  1.00  0.00    -0.205 F 
ATOM     86  C   UNL A   1      49.219  24.717  33.537  1.00  0.00     0.022 A 
BRANCH  84  87
ATOM     87  S   UNL A   1      48.039  23.171  35.468  1.00  0.00     0.127 S 
ATOM     88  O   UNL A   1      49.455  23.214  35.832  1.00  0.00    -0.237 OA
ATOM     89  O   UNL A   1      47.145  23.828  36.421  1.00  0.00    -0.237 OA
ATOM     90  O   UNL A   1      47.558  21.888  34.975  1.00  0.00    -0.744 OA
ENDBRANCH  84  87
ENDBRANCH  57  80
ENDBRANCH  31  32
ENDBRANCH  23  26
ENDBRANCH  21  22
ENDBRANCH  20  21
ENDBRANCH   1  20
TORSDOF 18
ENDMDL
MODEL 2
REMARK VINA RESULT:     -11.0      2.384      3.672
REMARK SMILES C[C@H](CO)CSc1cc(Cl)ccc1C(=O)NCCCNC(=O)c1ccc(-c2c3nc(c(-c4cccc(S(=O)(=O)[O-])c4F)c4ccc([nH]4)c(-c4cccc(S(=O)(=O)[O-])c4F)c4nc(c(-c5cccc(S(=O)(=O)[O-])c5F)c5ccc2[nH]5)C=C4)C=C3)cc1
REMARK SMILES IDX 17 1 16 2 14 3 15 4 13 6 7 7 8 8 9 9 12 10 10 11 11 12 6 13
REMARK SMILES IDX 5 14 2 15 1 16 3 17 4 18 18 20 19 21 20 22 21 23 22 25 23 26
REMARK SMILES IDX 24 27 85 28 25 29 84 30 26 31 27 32 28 33 78 34 29 35 83 36
REMARK SMILES IDX 77 37 79 38 30 39 82 40 76 41 75 42 31 44 63 45 43 46 62 47
REMARK SMILES IDX 44 48 47 49 61 50 80 51 45 52 46 53 60 55 81 56 48 57 32 58
REMARK SMILES IDX 33 59 41 60 34 61 36 62 42 63 35 64 37 65 38 66 39 67 40 68
REMARK SMILES IDX 64 69 65 70 73 71 66 72 68 73 74 74 67 75 69 76 70 77 71 78
REMARK SMILES IDX 72 79 49 80 50 81 58 82 51 83 53 84 59 85 52 86 54 87 55 88
REMARK SMILES IDX 56 89 57 90
REMARK H PARENT 16 5 4 19 20 24 79 43 47 54
REMARK Flexibility Score: inf
ROOT
ATOM      1  C   UNL A   1      31.785  26.916  26.025  1.00  0.00     0.118 C 
ENDROOT
BRANCH   1   2
ATOM      2  N   UNL A   1      31.467  25.688  26.704  1.00  0.00    -0.352 N 
ATOM      3  C   UNL A   1      31.915  24.401  26.614  1.00  0.00     0.252 C 
ATOM      4  O   UNL A   1      31.343  23.620  27.388  1.00  0.00    -0.269 OA
ATOM      5  H   UNL A   1      30.766  25.801  27.387  1.00  0.00     0.163 HD
BRANCH   3   6
ATOM      6  C   UNL A   1      33.047  23.847  25.788  1.00  0.00     0.053 A 
ATOM      7  C   UNL A   1      33.204  22.616  25.105  1.00  0.00     0.021 A 
ATOM      8  C   UNL A   1      34.481  22.271  24.595  1.00  0.00     0.036 A 
ATOM      9  C   UNL A   1      35.569  23.133  24.688  1.00  0.00     0.042 A 
ATOM     10  C   UNL A   1      34.178  24.707  25.833  1.00  0.00     0.016 A 
ATOM     11  Cl  UNL A   1      37.096  22.660  24.060  1.00  0.00    -0.084 Cl
ATOM     12  C   UNL A   1      35.418  24.364  25.291  1.00  0.00     0.021 A 
BRANCH   7  13
ATOM     13  S   UNL A   1      32.001  21.319  24.900  1.00  0.00    -0.125 SA
BRANCH  13  14
ATOM     14  C   UNL A   1      32.988  19.752  24.912  1.00  0.00     0.080 C 
BRANCH  14  15
ATOM     15  C   UNL A   1      32.324  18.465  24.373  1.00  0.00     0.022 C 
ATOM     16  C   UNL A   1      32.500  17.324  25.387  1.00  0.00     0.011 C 
BRANCH  15  17
ATOM     17  C   UNL A   1      32.844  18.000  23.008  1.00  0.00     0.160 C 
BRANCH  17  18
ATOM     18  O   UNL A   1      31.784  17.685  22.115  1.00  0.00    -0.396 OA
ATOM     19  H   UNL A   1      31.972  16.842  21.676  1.00  0.00     0.210 HD
ENDBRANCH  17  18
ENDBRANCH  15  17
ENDBRANCH  14  15
ENDBRANCH  13  14
ENDBRANCH   7  13
ENDBRANCH   3   6
ENDBRANCH   1   2
BRANCH   1  20
ATOM     20  C   UNL A   1      32.570  27.857  26.937  1.00  0.00     0.042 C 
BRANCH  20  21
ATOM     21  C   UNL A   1      33.633  28.656  26.204  1.00  0.00     0.118 C 
BRANCH  21  22
ATOM     22  N   UNL A   1      33.534  30.074  26.525  1.00  0.00    -0.352 N 
ATOM     23  C   UNL A   1      34.263  30.822  27.418  1.00  0.00     0.251 C 
ATOM     24  H   UNL A   1      32.843  30.571  26.028  1.00  0.00     0.163 HD
ATOM     25  O   UNL A   1      33.842  31.926  27.757  1.00  0.00    -0.269 OA
BRANCH  23  26
ATOM     26  C   UNL A   1      35.540  30.310  27.970  1.00  0.00     0.039 A 
ATOM     27  C   UNL A   1      35.537  29.671  29.215  1.00  0.00     0.014 A 
ATOM     28  C   UNL A   1      36.745  30.495  27.290  1.00  0.00     0.014 A 
ATOM     29  C   UNL A   1      36.732  29.184  29.750  1.00  0.00     0.010 A 
ATOM     30  C   UNL A   1      37.917  29.926  27.778  1.00  0.00     0.010 A 
ATOM     31  C   UNL A   1      37.929  29.285  29.024  1.00  0.00    -0.014 A 
BRANCH  31  32
ATOM     32  C   UNL A   1      39.212  28.752  29.551  1.00  0.00     0.031 A 
ATOM     33  C   UNL A   1      39.903  29.446  30.696  1.00  0.00     0.074 A 
ATOM     34  C   UNL A   1      39.801  27.705  28.940  1.00  0.00     0.049 A 
ATOM     35  N   UNL A   1      41.064  29.187  31.238  1.00  0.00    -0.248 NA
ATOM     36  C   UNL A   1      39.214  30.607  31.287  1.00  0.00     0.031 C 
ATOM     37  C   UNL A   1      39.270  27.000  27.770  1.00  0.00     0.029 A 
ATOM     38  N   UNL A   1      40.989  27.070  29.198  1.00  0.00    -0.354 N 
ATOM     39  C   UNL A   1      41.264  30.172  32.200  1.00  0.00     0.074 A 
ATOM     40  C   UNL A   1      40.121  31.057  32.142  1.00  0.00     0.031 C 
ATOM     41  C   UNL A   1      40.126  26.028  27.416  1.00  0.00     0.029 A 
ATOM     42  C   UNL A   1      41.278  26.058  28.312  1.00  0.00     0.049 A 
ATOM     43  H   UNL A   1      41.579  27.314  29.947  1.00  0.00     0.167 HD
ATOM     44  C   UNL A   1      42.287  30.310  33.074  1.00  0.00     0.034 A 
ATOM     45  C   UNL A   1      42.353  25.249  28.228  1.00  0.00     0.034 A 
ATOM     46  C   UNL A   1      43.391  29.394  33.167  1.00  0.00     0.049 A 
ATOM     47  C   UNL A   1      43.448  25.387  29.250  1.00  0.00     0.074 A 
ATOM     48  C   UNL A   1      44.431  29.388  34.080  1.00  0.00     0.029 A 
ATOM     49  N   UNL A   1      43.597  28.318  32.317  1.00  0.00    -0.354 N 
ATOM     50  N   UNL A   1      43.542  26.229  30.251  1.00  0.00    -0.248 NA
ATOM     51  C   UNL A   1      44.569  24.440  29.154  1.00  0.00     0.031 C 
ATOM     52  C   UNL A   1      45.275  28.316  33.771  1.00  0.00     0.029 A 
ATOM     53  C   UNL A   1      44.749  27.643  32.680  1.00  0.00     0.049 A 
ATOM     54  H   UNL A   1      43.011  28.071  31.567  1.00  0.00     0.167 HD
ATOM     55  C   UNL A   1      44.709  25.891  30.926  1.00  0.00     0.074 A 
ATOM     56  C   UNL A   1      45.278  24.754  30.231  1.00  0.00     0.031 C 
ATOM     57  C   UNL A   1      45.269  26.478  32.012  1.00  0.00     0.034 A 
BRANCH  44  58
ATOM     58  C   UNL A   1      42.229  31.461  34.047  1.00  0.00     0.023 A 
ATOM     59  C   UNL A   1      43.020  32.606  33.815  1.00  0.00     0.012 A 
ATOM     60  C   UNL A   1      41.360  31.436  35.155  1.00  0.00     0.148 A 
ATOM     61  C   UNL A   1      42.975  33.691  34.688  1.00  0.00     0.002 A 
ATOM     62  C   UNL A   1      41.287  32.542  35.996  1.00  0.00     0.091 A 
ATOM     63  F   UNL A   1      40.631  30.332  35.373  1.00  0.00    -0.205 F 
ATOM     64  C   UNL A   1      42.101  33.664  35.771  1.00  0.00     0.022 A 
BRANCH  62  65
ATOM     65  S   UNL A   1      40.137  32.638  37.373  1.00  0.00     0.127 S 
ATOM     66  O   UNL A   1      39.231  31.529  37.079  1.00  0.00    -0.237 OA
ATOM     67  O   UNL A   1      41.015  32.418  38.522  1.00  0.00    -0.237 OA
ATOM     68  O   UNL A   1      39.543  33.965  37.309  1.00  0.00    -0.744 OA
ENDBRANCH  62  65
ENDBRANCH  44  58
BRANCH  45  69
ATOM     69  C   UNL A   1      42.403  24.185  27.186  1.00  0.00     0.023 A 
ATOM     70  C   UNL A   1      43.264  24.341  26.083  1.00  0.00     0.012 A 
ATOM     71  C   UNL A   1      41.635  23.009  27.295  1.00  0.00     0.148 A 
ATOM     72  C   UNL A   1      43.338  23.362  25.091  1.00  0.00     0.002 A 
ATOM     73  C   UNL A   1      41.753  22.013  26.331  1.00  0.00     0.091 A 
ATOM     74  F   UNL A   1      40.811  22.883  28.345  1.00  0.00    -0.205 F 
ATOM     75  C   UNL A   1      42.591  22.195  25.220  1.00  0.00     0.022 A 
BRANCH  73  76
ATOM     76  S   UNL A   1      40.930  20.423  26.488  1.00  0.00     0.127 S 
ATOM     77  O   UNL A   1      39.595  20.728  25.975  1.00  0.00    -0.237 OA
ATOM     78  O   UNL A   1      41.744  19.576  25.612  1.00  0.00    -0.237 OA
ATOM     79  O   UNL A   1      41.008  20.078  27.896  1.00  0.00    -0.744 OA
ENDBRANCH  73  76
ENDBRANCH  45  69
BRANCH  57  80
ATOM     80  C   UNL A   1      46.546  25.885  32.546  1.00  0.00     0.023 A 
ATOM     81  C   UNL A   1      47.787  26.394  32.116  1.00  0.00     0.012 A 
ATOM     82  C   UNL A   1      46.513  24.878  33.532  1.00  0.00     0.148 A 
ATOM     83  C   UNL A   1      48.977  25.889  32.638  1.00  0.00     0.002 A 
ATOM     84  C   UNL A   1      47.701  24.415  34.082  1.00  0.00     0.091 A 
ATOM     85  F   UNL A   1      45.322  24.394  33.912  1.00  0.00    -0.205 F 
ATOM     86  C   UNL A   1      48.934  24.910  33.628  1.00  0.00     0.022 A 
BRANCH  84  87
ATOM     87  S   UNL A   1      47.737  23.226  35.429  1.00  0.00     0.127 S 
ATOM     88  O   UNL A   1      47.004  23.940  36.474  1.00  0.00    -0.237 OA
ATOM     89  O   UNL A   1      47.023  22.085  34.856  1.00  0.00    -0.237 OA
ATOM     90  O   UNL A   1      49.144  22.979  35.707  1.00  0.00    -0.744 OA
ENDBRANCH  84  87
ENDBRANCH  57  80
ENDBRANCH  31  32
ENDBRANCH  23  26
ENDBRANCH  21  22
ENDBRANCH  20  21
ENDBRANCH   1  20
TORSDOF 18
ENDMDL
MODEL 3
REMARK VINA RESULT:     -10.8      2.483      3.979
REMARK SMILES C[C@H](CO)CSc1cc(Cl)ccc1C(=O)NCCCNC(=O)c1ccc(-c2c3nc(c(-c4cccc(S(=O)(=O)[O-])c4F)c4ccc([nH]4)c(-c4cccc(S(=O)(=O)[O-])c4F)c4nc(c(-c5cccc(S(=O)(=O)[O-])c5F)c5ccc2[nH]5)C=C4)C=C3)cc1
REMARK SMILES IDX 17 1 16 2 14 3 15 4 13 6 7 7 8 8 9 9 12 10 10 11 11 12 6 13
REMARK SMILES IDX 5 14 2 15 1 16 3 17 4 18 18 20 19 21 20 22 21 23 22 25 23 26
REMARK SMILES IDX 24 27 85 28 25 29 84 30 26 31 27 32 28 33 78 34 29 35 83 36
REMARK SMILES IDX 77 37 79 38 30 39 82 40 76 41 75 42 31 44 63 45 43 46 62 47
REMARK SMILES IDX 44 48 47 49 61 50 80 51 45 52 46 53 60 55 81 56 48 57 32 58
REMARK SMILES IDX 33 59 41 60 34 61 36 62 42 63 35 64 37 65 38 66 39 67 40 68
REMARK SMILES IDX 64 69 65 70 73 71 66 72 68 73 74 74 67 75 69 76 70 77 71 78
REMARK SMILES IDX 72 79 49 80 50 81 58 82 51 83 53 84 59 85 52 86 54 87 55 88
REMARK SMILES IDX 56 89 57 90
REMARK H PARENT 16 5 4 19 20 24 79 43 47 54
REMARK Flexibility Score: inf
ROOT
ATOM      1  C   UNL A   1      32.192  27.589  26.877  1.00  0.00     0.118 C 
ENDROOT
BRANCH   1   2
ATOM      2  N   UNL A   1      31.113  26.637  26.906  1.00  0.00    -0.352 N 
ATOM      3  C   UNL A   1      30.564  25.784  25.990  1.00  0.00     0.252 C 
ATOM      4  O   UNL A   1      29.604  25.135  26.427  1.00  0.00    -0.269 OA
ATOM      5  H   UNL A   1      30.668  26.590  27.784  1.00  0.00     0.163 HD
BRANCH   3   6
ATOM      6  C   UNL A   1      31.025  25.473  24.589  1.00  0.00     0.053 A 
ATOM      7  C   UNL A   1      31.774  24.396  24.057  1.00  0.00     0.021 A 
ATOM      8  C   UNL A   1      32.257  24.484  22.728  1.00  0.00     0.036 A 
ATOM      9  C   UNL A   1      31.963  25.568  21.908  1.00  0.00     0.042 A 
ATOM     10  C   UNL A   1      30.725  26.547  23.706  1.00  0.00     0.016 A 
ATOM     11  Cl  UNL A   1      32.582  25.629  20.306  1.00  0.00    -0.084 Cl
ATOM     12  C   UNL A   1      31.179  26.598  22.387  1.00  0.00     0.021 A 
BRANCH   7  13
ATOM     13  S   UNL A   1      32.333  22.932  24.903  1.00  0.00    -0.125 SA
BRANCH  13  14
ATOM     14  C   UNL A   1      33.824  22.378  23.954  1.00  0.00     0.080 C 
BRANCH  14  15
ATOM     15  C   UNL A   1      35.208  22.491  24.633  1.00  0.00     0.022 C 
ATOM     16  C   UNL A   1      36.298  22.677  23.566  1.00  0.00     0.011 C 
BRANCH  15  17
ATOM     17  C   UNL A   1      35.583  21.302  25.524  1.00  0.00     0.160 C 
BRANCH  17  18
ATOM     18  O   UNL A   1      35.241  21.529  26.885  1.00  0.00    -0.396 OA
ATOM     19  H   UNL A   1      35.615  22.375  27.175  1.00  0.00     0.210 HD
ENDBRANCH  17  18
ENDBRANCH  15  17
ENDBRANCH  14  15
ENDBRANCH  13  14
ENDBRANCH   7  13
ENDBRANCH   3   6
ENDBRANCH   1   2
BRANCH   1  20
ATOM     20  C   UNL A   1      31.690  28.971  26.460  1.00  0.00     0.042 C 
BRANCH  20  21
ATOM     21  C   UNL A   1      32.754  29.818  25.787  1.00  0.00     0.118 C 
BRANCH  21  22
ATOM     22  N   UNL A   1      32.582  31.228  26.111  1.00  0.00    -0.352 N 
ATOM     23  C   UNL A   1      33.179  31.980  27.094  1.00  0.00     0.251 C 
ATOM     24  H   UNL A   1      31.942  31.715  25.542  1.00  0.00     0.163 HD
ATOM     25  O   UNL A   1      32.692  33.068  27.394  1.00  0.00    -0.269 OA
BRANCH  23  26
ATOM     26  C   UNL A   1      34.394  31.490  27.788  1.00  0.00     0.039 A 
ATOM     27  C   UNL A   1      35.416  32.396  28.091  1.00  0.00     0.014 A 
ATOM     28  C   UNL A   1      34.550  30.139  28.103  1.00  0.00     0.014 A 
ATOM     29  C   UNL A   1      36.570  31.952  28.744  1.00  0.00     0.010 A 
ATOM     30  C   UNL A   1      35.654  29.716  28.836  1.00  0.00     0.010 A 
ATOM     31  C   UNL A   1      36.687  30.612  29.144  1.00  0.00    -0.014 A 
BRANCH  31  32
ATOM     32  C   UNL A   1      37.886  30.112  29.866  1.00  0.00     0.031 A 
ATOM     33  C   UNL A   1      38.179  30.593  31.264  1.00  0.00     0.074 A 
ATOM     34  C   UNL A   1      38.758  29.304  29.232  1.00  0.00     0.049 A 
ATOM     35  N   UNL A   1      39.213  30.342  32.023  1.00  0.00    -0.248 NA
ATOM     36  C   UNL A   1      37.196  31.505  31.876  1.00  0.00     0.031 C 
ATOM     37  C   UNL A   1      38.627  28.836  27.850  1.00  0.00     0.029 A 
ATOM     38  N   UNL A   1      39.943  28.758  29.656  1.00  0.00    -0.354 N 
ATOM     39  C   UNL A   1      39.028  31.094  33.179  1.00  0.00     0.074 A 
ATOM     40  C   UNL A   1      37.802  31.841  33.006  1.00  0.00     0.031 C 
ATOM     41  C   UNL A   1      39.686  28.070  27.542  1.00  0.00     0.029 A 
ATOM     42  C   UNL A   1      40.584  28.015  28.691  1.00  0.00     0.049 A 
ATOM     43  H   UNL A   1      40.301  28.884  30.564  1.00  0.00     0.167 HD
ATOM     44  C   UNL A   1      39.791  31.135  34.296  1.00  0.00     0.034 A 
ATOM     45  C   UNL A   1      41.765  27.367  28.728  1.00  0.00     0.034 A 
ATOM     46  C   UNL A   1      40.978  30.347  34.485  1.00  0.00     0.049 A 
ATOM     47  C   UNL A   1      42.564  27.382  30.003  1.00  0.00     0.074 A 
ATOM     48  C   UNL A   1      41.771  30.242  35.615  1.00  0.00     0.029 A 
ATOM     49  N   UNL A   1      41.541  29.524  33.522  1.00  0.00    -0.354 N 
ATOM     50  N   UNL A   1      42.292  27.975  31.140  1.00  0.00    -0.248 NA
ATOM     51  C   UNL A   1      43.815  26.609  30.012  1.00  0.00     0.031 C 
ATOM     52  C   UNL A   1      42.824  29.367  35.327  1.00  0.00     0.029 A 
ATOM     53  C   UNL A   1      42.674  28.912  34.027  1.00  0.00     0.049 A 
ATOM     54  H   UNL A   1      41.187  29.396  32.613  1.00  0.00     0.167 HD
ATOM     55  C   UNL A   1      43.315  27.618  32.011  1.00  0.00     0.074 A 
ATOM     56  C   UNL A   1      44.201  26.740  31.275  1.00  0.00     0.031 C 
ATOM     57  C   UNL A   1      43.512  27.995  33.298  1.00  0.00     0.034 A 
BRANCH  44  58
ATOM     58  C   UNL A   1      39.330  32.017  35.429  1.00  0.00     0.023 A 
ATOM     59  C   UNL A   1      38.455  31.493  36.404  1.00  0.00     0.012 A 
ATOM     60  C   UNL A   1      39.798  33.339  35.562  1.00  0.00     0.148 A 
ATOM     61  C   UNL A   1      38.025  32.279  37.471  1.00  0.00     0.002 A 
ATOM     62  C   UNL A   1      39.400  34.102  36.655  1.00  0.00     0.091 A 
ATOM     63  F   UNL A   1      40.612  33.828  34.616  1.00  0.00    -0.205 F 
ATOM     64  C   UNL A   1      38.505  33.578  37.602  1.00  0.00     0.022 A 
BRANCH  62  65
ATOM     65  S   UNL A   1      40.023  35.760  36.958  1.00  0.00     0.127 S 
ATOM     66  O   UNL A   1      41.459  35.516  37.086  1.00  0.00    -0.237 OA
ATOM     67  O   UNL A   1      39.633  36.463  35.736  1.00  0.00    -0.237 OA
ATOM     68  O   UNL A   1      39.358  36.225  38.165  1.00  0.00    -0.744 OA
ENDBRANCH  62  65
ENDBRANCH  44  58
BRANCH  45  69
ATOM     69  C   UNL A   1      42.221  26.584  27.545  1.00  0.00     0.023 A 
ATOM     70  C   UNL A   1      42.999  27.219  26.557  1.00  0.00     0.012 A 
ATOM     71  C   UNL A   1      41.921  25.214  27.406  1.00  0.00     0.148 A 
ATOM     72  C   UNL A   1      43.444  26.513  25.437  1.00  0.00     0.002 A 
ATOM     73  C   UNL A   1      42.413  24.505  26.316  1.00  0.00     0.091 A 
ATOM     74  F   UNL A   1      41.169  24.630  28.350  1.00  0.00    -0.205 F 
ATOM     75  C   UNL A   1      43.160  25.156  25.322  1.00  0.00     0.022 A 
BRANCH  73  76
ATOM     76  S   UNL A   1      42.210  22.726  26.157  1.00  0.00     0.127 S 
ATOM     77  O   UNL A   1      42.877  22.241  27.365  1.00  0.00    -0.237 OA
ATOM     78  O   UNL A   1      40.751  22.588  26.165  1.00  0.00    -0.237 OA
ATOM     79  O   UNL A   1      42.838  22.371  24.898  1.00  0.00    -0.744 OA
ENDBRANCH  73  76
ENDBRANCH  45  69
BRANCH  57  80
ATOM     80  C   UNL A   1      44.713  27.435  34.013  1.00  0.00     0.023 A 
ATOM     81  C   UNL A   1      45.942  28.122  33.961  1.00  0.00     0.012 A 
ATOM     82  C   UNL A   1      44.602  26.272  34.801  1.00  0.00     0.148 A 
ATOM     83  C   UNL A   1      47.050  27.643  34.658  1.00  0.00     0.002 A 
ATOM     84  C   UNL A   1      45.697  25.828  35.531  1.00  0.00     0.091 A 
ATOM     85  F   UNL A   1      43.429  25.622  34.822  1.00  0.00    -0.205 F 
ATOM     86  C   UNL A   1      46.924  26.505  35.452  1.00  0.00     0.022 A 
BRANCH  84  87
ATOM     87  S   UNL A   1      45.599  24.429  36.655  1.00  0.00     0.127 S 
ATOM     88  O   UNL A   1      45.251  23.340  35.744  1.00  0.00    -0.237 OA
ATOM     89  O   UNL A   1      46.960  24.364  37.190  1.00  0.00    -0.237 OA
ATOM     90  O   UNL A   1      44.581  24.775  37.636  1.00  0.00    -0.744 OA
ENDBRANCH  84  87
ENDBRANCH  57  80
ENDBRANCH  31  32
ENDBRANCH  23  26
ENDBRANCH  21  22
ENDBRANCH  20  21
ENDBRANCH   1  20
TORSDOF 18
ENDMDL
