MODEL 1
REMARK VINA RESULT:     -12.1      0.000      0.000
REMARK SMILES Cn1ncc(C(=O)NCCCNC(=O)c2ccc(-c3c4nc(c(-c5cccc(S(=O)(=O)[O-])c5F)c5ccc([nH]5)c(-c5cccc(S(=O)(=O)[O-])c5F)c5nc(c(-c6cccc(S(=O)(=O)[O-])c6F)c6ccc3[nH]6)C=C5)C=C4)cc2)c1C(=O)Nc1ccccn1
REMARK SMILES IDX 10 1 9 2 8 3 6 4 7 5 5 7 1 8 2 9 3 10 78 11 4 12 79 13 80 14
REMARK SMILES IDX 81 15 82 17 83 18 87 19 84 20 86 21 85 22 11 23 12 24 13 25
REMARK SMILES IDX 14 27 15 28 16 29 77 30 17 31 76 32 18 33 19 34 20 35 70 36
REMARK SMILES IDX 21 37 75 38 69 39 71 40 22 41 74 42 68 43 67 44 23 46 55 47
REMARK SMILES IDX 35 48 54 49 36 50 39 51 53 52 72 53 37 54 38 55 52 57 73 58
REMARK SMILES IDX 40 59 24 60 25 61 33 62 26 63 28 64 34 65 27 66 29 67 30 68
REMARK SMILES IDX 31 69 32 70 56 71 57 72 65 73 58 74 60 75 66 76 59 77 61 78
REMARK SMILES IDX 62 79 63 80 64 81 41 82 42 83 50 84 43 85 45 86 51 87 44 88
REMARK SMILES IDX 46 89 47 90 48 91 49 92
REMARK H PARENT 8 6 81 16 12 26 71 45 39 56
REMARK Flexibility Score: inf
ROOT
ATOM      1  C   UNL A   1      31.585  32.392  26.800  1.00  0.00     0.042 C 
ENDROOT
BRANCH   1   2
ATOM      2  C   UNL A   1      31.522  30.878  26.843  1.00  0.00     0.118 C 
BRANCH   2   3
ATOM      3  N   UNL A   1      32.729  30.224  26.397  1.00  0.00    -0.352 N 
ATOM      4  C   UNL A   1      32.974  29.002  25.837  1.00  0.00     0.255 C 
ATOM      5  O   UNL A   1      34.167  28.757  25.630  1.00  0.00    -0.269 OA
ATOM      6  H   UNL A   1      33.539  30.770  26.519  1.00  0.00     0.163 HD
BRANCH   4   7
ATOM      7  C   UNL A   1      31.970  27.990  25.512  1.00  0.00     0.090 A 
ATOM      8  C   UNL A   1      30.154  25.306  23.918  1.00  0.00     0.174 C 
ATOM      9  N   UNL A   1      30.680  26.379  24.730  1.00  0.00    -0.262 N 
ATOM     10  N   UNL A   1      30.599  26.225  26.062  1.00  0.00    -0.180 NA
ATOM     11  C   UNL A   1      31.392  27.491  24.336  1.00  0.00     0.139 A 
ATOM     12  C   UNL A   1      31.417  27.163  26.527  1.00  0.00     0.149 A 
BRANCH  11  13
ATOM     13  C   UNL A   1      31.642  27.854  22.964  1.00  0.00     0.275 C 
ATOM     14  O   UNL A   1      32.219  27.090  22.189  1.00  0.00    -0.267 OA
ATOM     15  N   UNL A   1      31.395  29.144  22.528  1.00  0.00    -0.305 N 
ATOM     16  H   UNL A   1      32.140  29.649  22.131  1.00  0.00     0.171 HD
BRANCH  15  17
ATOM     17  C   UNL A   1      30.155  29.771  22.620  1.00  0.00     0.132 A 
ATOM     18  C   UNL A   1      29.799  30.592  23.677  1.00  0.00     0.047 A 
ATOM     19  N   UNL A   1      29.339  29.496  21.582  1.00  0.00    -0.239 NA
ATOM     20  C   UNL A   1      28.501  31.110  23.689  1.00  0.00     0.005 A 
ATOM     21  C   UNL A   1      28.091  30.000  21.624  1.00  0.00     0.113 A 
ATOM     22  C   UNL A   1      27.623  30.792  22.655  1.00  0.00     0.020 A 
ENDBRANCH  15  17
ENDBRANCH  11  13
ENDBRANCH   4   7
ENDBRANCH   2   3
ENDBRANCH   1   2
BRANCH   1  23
ATOM     23  C   UNL A   1      32.817  32.996  27.448  1.00  0.00     0.118 C 
BRANCH  23  24
ATOM     24  N   UNL A   1      32.637  34.391  27.841  1.00  0.00    -0.352 N 
ATOM     25  C   UNL A   1      33.216  35.116  28.858  1.00  0.00     0.251 C 
ATOM     26  H   UNL A   1      31.996  34.894  27.289  1.00  0.00     0.163 HD
ATOM     27  O   UNL A   1      32.797  36.243  29.117  1.00  0.00    -0.269 OA
BRANCH  25  28
ATOM     28  C   UNL A   1      34.315  34.536  29.659  1.00  0.00     0.039 A 
ATOM     29  C   UNL A   1      34.023  33.886  30.862  1.00  0.00     0.014 A 
ATOM     30  C   UNL A   1      35.635  34.618  29.217  1.00  0.00     0.014 A 
ATOM     31  C   UNL A   1      35.043  33.234  31.564  1.00  0.00     0.010 A 
ATOM     32  C   UNL A   1      36.620  33.870  29.846  1.00  0.00     0.010 A 
ATOM     33  C   UNL A   1      36.340  33.175  31.033  1.00  0.00    -0.014 A 
BRANCH  33  34
ATOM     34  C   UNL A   1      37.436  32.408  31.680  1.00  0.00     0.031 A 
ATOM     35  C   UNL A   1      37.986  32.871  33.003  1.00  0.00     0.074 A 
ATOM     36  C   UNL A   1      38.023  31.389  31.020  1.00  0.00     0.049 A 
ATOM     37  N   UNL A   1      39.043  32.455  33.648  1.00  0.00    -0.248 NA
ATOM     38  C   UNL A   1      37.282  33.983  33.665  1.00  0.00     0.031 C 
ATOM     39  C   UNL A   1      37.635  30.896  29.696  1.00  0.00     0.029 A 
ATOM     40  N   UNL A   1      39.102  30.608  31.357  1.00  0.00    -0.354 N 
ATOM     41  C   UNL A   1      39.163  33.288  34.756  1.00  0.00     0.074 A 
ATOM     42  C   UNL A   1      38.093  34.256  34.675  1.00  0.00     0.031 C 
ATOM     43  C   UNL A   1      38.460  29.902  29.334  1.00  0.00     0.029 A 
ATOM     44  C   UNL A   1      39.462  29.710  30.378  1.00  0.00     0.049 A 
ATOM     45  H   UNL A   1      39.575  30.685  32.217  1.00  0.00     0.167 HD
ATOM     46  C   UNL A   1      40.061  33.233  35.766  1.00  0.00     0.034 A 
ATOM     47  C   UNL A   1      40.491  28.842  30.320  1.00  0.00     0.034 A 
ATOM     48  C   UNL A   1      41.079  32.224  35.876  1.00  0.00     0.049 A 
ATOM     49  C   UNL A   1      41.440  28.760  31.485  1.00  0.00     0.074 A 
ATOM     50  C   UNL A   1      41.972  32.014  36.911  1.00  0.00     0.029 A 
ATOM     51  N   UNL A   1      41.337  31.256  34.918  1.00  0.00    -0.354 N 
ATOM     52  N   UNL A   1      41.445  29.458  32.596  1.00  0.00    -0.248 NA
ATOM     53  C   UNL A   1      42.505  27.749  31.408  1.00  0.00     0.031 C 
ATOM     54  C   UNL A   1      42.784  30.929  36.570  1.00  0.00     0.029 A 
ATOM     55  C   UNL A   1      42.379  30.448  35.335  1.00  0.00     0.049 A 
ATOM     56  H   UNL A   1      40.850  31.159  34.069  1.00  0.00     0.167 HD
ATOM     57  C   UNL A   1      42.483  28.945  33.365  1.00  0.00     0.074 A 
ATOM     58  C   UNL A   1      43.077  27.868  32.600  1.00  0.00     0.031 C 
ATOM     59  C   UNL A   1      42.915  29.339  34.588  1.00  0.00     0.034 A 
BRANCH  46  60
ATOM     60  C   UNL A   1      39.946  34.258  36.864  1.00  0.00     0.023 A 
ATOM     61  C   UNL A   1      40.327  35.593  36.615  1.00  0.00     0.012 A 
ATOM     62  C   UNL A   1      39.415  33.916  38.124  1.00  0.00     0.148 A 
ATOM     63  C   UNL A   1      40.218  36.562  37.612  1.00  0.00     0.002 A 
ATOM     64  C   UNL A   1      39.264  34.898  39.096  1.00  0.00     0.091 A 
ATOM     65  F   UNL A   1      39.078  32.638  38.350  1.00  0.00    -0.205 F 
ATOM     66  C   UNL A   1      39.677  36.217  38.847  1.00  0.00     0.022 A 
BRANCH  64  67
ATOM     67  S   UNL A   1      38.502  34.574  40.690  1.00  0.00     0.127 S 
ATOM     68  O   UNL A   1      39.572  33.867  41.391  1.00  0.00    -0.237 OA
ATOM     69  O   UNL A   1      38.238  35.925  41.184  1.00  0.00    -0.237 OA
ATOM     70  O   UNL A   1      37.309  33.787  40.413  1.00  0.00    -0.744 OA
ENDBRANCH  64  67
ENDBRANCH  46  60
BRANCH  47  71
ATOM     71  C   UNL A   1      40.637  27.933  29.146  1.00  0.00     0.023 A 
ATOM     72  C   UNL A   1      39.841  26.774  29.071  1.00  0.00     0.012 A 
ATOM     73  C   UNL A   1      41.526  28.222  28.094  1.00  0.00     0.148 A 
ATOM     74  C   UNL A   1      39.952  25.901  27.987  1.00  0.00     0.002 A 
ATOM     75  C   UNL A   1      41.593  27.380  26.990  1.00  0.00     0.091 A 
ATOM     76  F   UNL A   1      42.283  29.326  28.185  1.00  0.00    -0.205 F 
ATOM     77  C   UNL A   1      40.820  26.209  26.943  1.00  0.00     0.022 A 
BRANCH  75  78
ATOM     78  S   UNL A   1      42.580  27.764  25.539  1.00  0.00     0.127 S 
ATOM     79  O   UNL A   1      43.926  27.842  26.103  1.00  0.00    -0.237 OA
ATOM     80  O   UNL A   1      42.336  26.599  24.687  1.00  0.00    -0.237 OA
ATOM     81  O   UNL A   1      42.040  29.012  25.015  1.00  0.00    -0.744 OA
ENDBRANCH  75  78
ENDBRANCH  47  71
BRANCH  59  82
ATOM     82  C   UNL A   1      44.053  28.577  35.211  1.00  0.00     0.023 A 
ATOM     83  C   UNL A   1      45.382  28.956  34.942  1.00  0.00     0.012 A 
ATOM     84  C   UNL A   1      43.798  27.552  36.144  1.00  0.00     0.148 A 
ATOM     85  C   UNL A   1      46.443  28.310  35.575  1.00  0.00     0.002 A 
ATOM     86  C   UNL A   1      44.857  26.946  36.808  1.00  0.00     0.091 A 
ATOM     87  F   UNL A   1      42.525  27.197  36.371  1.00  0.00    -0.205 F 
ATOM     88  C   UNL A   1      46.181  27.317  36.517  1.00  0.00     0.022 A 
BRANCH  86  89
ATOM     89  S   UNL A   1      44.612  25.732  38.107  1.00  0.00     0.127 S 
ATOM     90  O   UNL A   1      43.805  26.483  39.068  1.00  0.00    -0.237 OA
ATOM     91  O   UNL A   1      43.893  24.668  37.405  1.00  0.00    -0.237 OA
ATOM     92  O   UNL A   1      45.942  25.360  38.569  1.00  0.00    -0.744 OA
ENDBRANCH  86  89
ENDBRANCH  59  82
ENDBRANCH  33  34
ENDBRANCH  25  28
ENDBRANCH  23  24
ENDBRANCH   1  23
TORSDOF 15
ENDMDL
MODEL 2
REMARK VINA RESULT:     -12.1      5.948      8.914
REMARK SMILES Cn1ncc(C(=O)NCCCNC(=O)c2ccc(-c3c4nc(c(-c5cccc(S(=O)(=O)[O-])c5F)c5ccc([nH]5)c(-c5cccc(S(=O)(=O)[O-])c5F)c5nc(c(-c6cccc(S(=O)(=O)[O-])c6F)c6ccc3[nH]6)C=C5)C=C4)cc2)c1C(=O)Nc1ccccn1
REMARK SMILES IDX 10 1 9 2 8 3 6 4 7 5 5 7 1 8 2 9 3 10 78 11 4 12 79 13 80 14
REMARK SMILES IDX 81 15 82 17 83 18 87 19 84 20 86 21 85 22 11 23 12 24 13 25
REMARK SMILES IDX 14 27 15 28 16 29 77 30 17 31 76 32 18 33 19 34 20 35 70 36
REMARK SMILES IDX 21 37 75 38 69 39 71 40 22 41 74 42 68 43 67 44 23 46 55 47
REMARK SMILES IDX 35 48 54 49 36 50 39 51 53 52 72 53 37 54 38 55 52 57 73 58
REMARK SMILES IDX 40 59 24 60 25 61 33 62 26 63 28 64 34 65 27 66 29 67 30 68
REMARK SMILES IDX 31 69 32 70 56 71 57 72 65 73 58 74 60 75 66 76 59 77 61 78
REMARK SMILES IDX 62 79 63 80 64 81 41 82 42 83 50 84 43 85 45 86 51 87 44 88
REMARK SMILES IDX 46 89 47 90 48 91 49 92
REMARK H PARENT 8 6 81 16 12 26 71 45 39 56
REMARK Flexibility Score: inf
ROOT
ATOM      1  C   UNL A   1      35.579  22.859  24.287  1.00  0.00     0.042 C 
ENDROOT
BRANCH   1   2
ATOM      2  C   UNL A   1      34.809  24.162  24.368  1.00  0.00     0.118 C 
BRANCH   2   3
ATOM      3  N   UNL A   1      34.233  24.587  23.116  1.00  0.00    -0.352 N 
ATOM      4  C   UNL A   1      33.504  25.683  22.749  1.00  0.00     0.255 C 
ATOM      5  O   UNL A   1      33.126  25.684  21.573  1.00  0.00    -0.269 OA
ATOM      6  H   UNL A   1      34.398  23.959  22.375  1.00  0.00     0.163 HD
BRANCH   4   7
ATOM      7  C   UNL A   1      33.128  26.794  23.622  1.00  0.00     0.090 A 
ATOM      8  C   UNL A   1      31.629  28.784  26.237  1.00  0.00     0.174 C 
ATOM      9  N   UNL A   1      32.349  28.214  25.121  1.00  0.00    -0.262 N 
ATOM     10  N   UNL A   1      33.630  28.589  24.973  1.00  0.00    -0.180 NA
ATOM     11  C   UNL A   1      31.951  27.220  24.254  1.00  0.00     0.139 A 
ATOM     12  C   UNL A   1      34.109  27.700  24.109  1.00  0.00     0.149 A 
BRANCH  11  13
ATOM     13  C   UNL A   1      30.636  26.631  24.238  1.00  0.00     0.275 C 
ATOM     14  O   UNL A   1      29.762  27.025  23.464  1.00  0.00    -0.267 OA
ATOM     15  N   UNL A   1      30.267  25.723  25.214  1.00  0.00    -0.305 N 
ATOM     16  H   UNL A   1      29.473  25.926  25.760  1.00  0.00     0.171 HD
BRANCH  15  17
ATOM     17  C   UNL A   1      30.952  24.539  25.473  1.00  0.00     0.132 A 
ATOM     18  C   UNL A   1      31.064  23.512  24.552  1.00  0.00     0.047 A 
ATOM     19  N   UNL A   1      31.492  24.493  26.709  1.00  0.00    -0.239 NA
ATOM     20  C   UNL A   1      31.719  22.346  24.955  1.00  0.00     0.005 A 
ATOM     21  C   UNL A   1      32.110  23.354  27.074  1.00  0.00     0.113 A 
ATOM     22  C   UNL A   1      32.234  22.256  26.246  1.00  0.00     0.020 A 
ENDBRANCH  15  17
ENDBRANCH  11  13
ENDBRANCH   4   7
ENDBRANCH   2   3
ENDBRANCH   1   2
BRANCH   1  23
ATOM     23  C   UNL A   1      36.067  22.324  25.620  1.00  0.00     0.118 C 
BRANCH  23  24
ATOM     24  N   UNL A   1      37.040  21.244  25.487  1.00  0.00    -0.352 N 
ATOM     25  C   UNL A   1      38.395  21.225  25.731  1.00  0.00     0.251 C 
ATOM     26  H   UNL A   1      36.667  20.390  25.171  1.00  0.00     0.163 HD
ATOM     27  O   UNL A   1      39.061  20.247  25.394  1.00  0.00    -0.269 OA
BRANCH  25  28
ATOM     28  C   UNL A   1      39.058  22.386  26.364  1.00  0.00     0.039 A 
ATOM     29  C   UNL A   1      40.149  22.178  27.214  1.00  0.00     0.014 A 
ATOM     30  C   UNL A   1      38.614  23.682  26.108  1.00  0.00     0.014 A 
ATOM     31  C   UNL A   1      40.852  23.276  27.721  1.00  0.00     0.010 A 
ATOM     32  C   UNL A   1      39.384  24.765  26.510  1.00  0.00     0.010 A 
ATOM     33  C   UNL A   1      40.507  24.578  27.329  1.00  0.00    -0.014 A 
BRANCH  33  34
ATOM     34  C   UNL A   1      41.284  25.773  27.751  1.00  0.00     0.031 A 
ATOM     35  C   UNL A   1      40.603  26.860  28.541  1.00  0.00     0.074 A 
ATOM     36  C   UNL A   1      42.546  25.943  27.309  1.00  0.00     0.049 A 
ATOM     37  N   UNL A   1      41.043  28.049  28.857  1.00  0.00    -0.248 NA
ATOM     38  C   UNL A   1      39.228  26.591  28.996  1.00  0.00     0.031 C 
ATOM     39  C   UNL A   1      43.289  25.001  26.469  1.00  0.00     0.029 A 
ATOM     40  N   UNL A   1      43.417  26.994  27.472  1.00  0.00    -0.354 N 
ATOM     41  C   UNL A   1      39.984  28.688  29.492  1.00  0.00     0.074 A 
ATOM     42  C   UNL A   1      38.869  27.769  29.484  1.00  0.00     0.031 C 
ATOM     43  C   UNL A   1      44.498  25.513  26.191  1.00  0.00     0.029 A 
ATOM     44  C   UNL A   1      44.606  26.836  26.796  1.00  0.00     0.049 A 
ATOM     45  H   UNL A   1      43.210  27.785  28.020  1.00  0.00     0.167 HD
ATOM     46  C   UNL A   1      39.950  29.916  30.060  1.00  0.00     0.034 A 
ATOM     47  C   UNL A   1      45.656  27.670  26.665  1.00  0.00     0.034 A 
ATOM     48  C   UNL A   1      41.084  30.797  30.125  1.00  0.00     0.049 A 
ATOM     49  C   UNL A   1      45.617  29.006  27.358  1.00  0.00     0.074 A 
ATOM     50  C   UNL A   1      41.187  32.016  30.769  1.00  0.00     0.029 A 
ATOM     51  N   UNL A   1      42.310  30.550  29.528  1.00  0.00    -0.354 N 
ATOM     52  N   UNL A   1      44.658  29.530  28.083  1.00  0.00    -0.248 NA
ATOM     53  C   UNL A   1      46.814  29.851  27.244  1.00  0.00     0.031 C 
ATOM     54  C   UNL A   1      42.473  32.517  30.544  1.00  0.00     0.029 A 
ATOM     55  C   UNL A   1      43.177  31.596  29.783  1.00  0.00     0.049 A 
ATOM     56  H   UNL A   1      42.530  29.748  29.001  1.00  0.00     0.167 HD
ATOM     57  C   UNL A   1      45.149  30.746  28.546  1.00  0.00     0.074 A 
ATOM     58  C   UNL A   1      46.497  30.874  28.029  1.00  0.00     0.031 C 
ATOM     59  C   UNL A   1      44.537  31.677  29.316  1.00  0.00     0.034 A 
BRANCH  46  60
ATOM     60  C   UNL A   1      38.663  30.355  30.707  1.00  0.00     0.023 A 
ATOM     61  C   UNL A   1      38.445  30.091  32.076  1.00  0.00     0.012 A 
ATOM     62  C   UNL A   1      37.692  31.072  29.980  1.00  0.00     0.148 A 
ATOM     63  C   UNL A   1      37.267  30.498  32.701  1.00  0.00     0.002 A 
ATOM     64  C   UNL A   1      36.542  31.517  30.623  1.00  0.00     0.091 A 
ATOM     65  F   UNL A   1      37.906  31.295  28.676  1.00  0.00    -0.205 F 
ATOM     66  C   UNL A   1      36.322  31.220  31.977  1.00  0.00     0.022 A 
BRANCH  64  67
ATOM     67  S   UNL A   1      35.302  32.525  29.802  1.00  0.00     0.127 S 
ATOM     68  O   UNL A   1      34.806  31.607  28.778  1.00  0.00    -0.237 OA
ATOM     69  O   UNL A   1      34.359  32.796  30.886  1.00  0.00    -0.237 OA
ATOM     70  O   UNL A   1      36.005  33.699  29.302  1.00  0.00    -0.744 OA
ENDBRANCH  64  67
ENDBRANCH  46  60
BRANCH  47  71
ATOM     71  C   UNL A   1      46.862  27.237  25.901  1.00  0.00     0.023 A 
ATOM     72  C   UNL A   1      47.777  26.351  26.503  1.00  0.00     0.012 A 
ATOM     73  C   UNL A   1      47.093  27.666  24.580  1.00  0.00     0.148 A 
ATOM     74  C   UNL A   1      48.915  25.927  25.817  1.00  0.00     0.002 A 
ATOM     75  C   UNL A   1      48.200  27.196  23.881  1.00  0.00     0.091 A 
ATOM     76  F   UNL A   1      46.216  28.516  24.024  1.00  0.00    -0.205 F 
ATOM     77  C   UNL A   1      49.122  26.341  24.504  1.00  0.00     0.022 A 
BRANCH  75  78
ATOM     78  S   UNL A   1      48.475  27.567  22.145  1.00  0.00     0.127 S 
ATOM     79  O   UNL A   1      49.654  28.429  22.205  1.00  0.00    -0.237 OA
ATOM     80  O   UNL A   1      48.712  26.237  21.583  1.00  0.00    -0.237 OA
ATOM     81  O   UNL A   1      47.249  28.203  21.680  1.00  0.00    -0.744 OA
ENDBRANCH  75  78
ENDBRANCH  47  71
BRANCH  59  82
ATOM     82  C   UNL A   1      45.323  32.901  29.699  1.00  0.00     0.023 A 
ATOM     83  C   UNL A   1      46.145  32.878  30.842  1.00  0.00     0.012 A 
ATOM     84  C   UNL A   1      45.324  34.037  28.866  1.00  0.00     0.148 A 
ATOM     85  C   UNL A   1      46.940  33.978  31.164  1.00  0.00     0.002 A 
ATOM     86  C   UNL A   1      46.155  35.110  29.165  1.00  0.00     0.091 A 
ATOM     87  F   UNL A   1      44.521  34.043  27.793  1.00  0.00    -0.205 F 
ATOM     88  C   UNL A   1      46.956  35.086  30.319  1.00  0.00     0.022 A 
BRANCH  86  89
ATOM     89  S   UNL A   1      46.317  36.534  28.083  1.00  0.00     0.127 S 
ATOM     90  O   UNL A   1      44.980  37.119  28.160  1.00  0.00    -0.237 OA
ATOM     91  O   UNL A   1      47.363  37.311  28.749  1.00  0.00    -0.237 OA
ATOM     92  O   UNL A   1      46.692  36.008  26.778  1.00  0.00    -0.744 OA
ENDBRANCH  86  89
ENDBRANCH  59  82
ENDBRANCH  33  34
ENDBRANCH  25  28
ENDBRANCH  23  24
ENDBRANCH   1  23
TORSDOF 15
ENDMDL
MODEL 3
REMARK VINA RESULT:     -12.0      6.050      8.940
REMARK SMILES Cn1ncc(C(=O)NCCCNC(=O)c2ccc(-c3c4nc(c(-c5cccc(S(=O)(=O)[O-])c5F)c5ccc([nH]5)c(-c5cccc(S(=O)(=O)[O-])c5F)c5nc(c(-c6cccc(S(=O)(=O)[O-])c6F)c6ccc3[nH]6)C=C5)C=C4)cc2)c1C(=O)Nc1ccccn1
REMARK SMILES IDX 10 1 9 2 8 3 6 4 7 5 5 7 1 8 2 9 3 10 78 11 4 12 79 13 80 14
REMARK SMILES IDX 81 15 82 17 83 18 87 19 84 20 86 21 85 22 11 23 12 24 13 25
REMARK SMILES IDX 14 27 15 28 16 29 77 30 17 31 76 32 18 33 19 34 20 35 70 36
REMARK SMILES IDX 21 37 75 38 69 39 71 40 22 41 74 42 68 43 67 44 23 46 55 47
REMARK SMILES IDX 35 48 54 49 36 50 39 51 53 52 72 53 37 54 38 55 52 57 73 58
REMARK SMILES IDX 40 59 24 60 25 61 33 62 26 63 28 64 34 65 27 66 29 67 30 68
REMARK SMILES IDX 31 69 32 70 56 71 57 72 65 73 58 74 60 75 66 76 59 77 61 78
REMARK SMILES IDX 62 79 63 80 64 81 41 82 42 83 50 84 43 85 45 86 51 87 44 88
REMARK SMILES IDX 46 89 47 90 48 91 49 92
REMARK H PARENT 8 6 81 16 12 26 71 45 39 56
REMARK Flexibility Score: inf
ROOT
ATOM      1  C   UNL A   1      36.088  22.658  23.857  1.00  0.00     0.042 C 
ENDROOT
BRANCH   1   2
ATOM      2  C   UNL A   1      34.615  22.734  23.506  1.00  0.00     0.118 C 
BRANCH   2   3
ATOM      3  N   UNL A   1      33.809  21.703  24.113  1.00  0.00    -0.352 N 
ATOM      4  C   UNL A   1      32.740  21.736  24.965  1.00  0.00     0.255 C 
ATOM      5  O   UNL A   1      32.331  20.627  25.325  1.00  0.00    -0.269 OA
ATOM      6  H   UNL A   1      34.084  20.792  23.863  1.00  0.00     0.163 HD
BRANCH   4   7
ATOM      7  C   UNL A   1      32.094  22.939  25.485  1.00  0.00     0.090 A 
ATOM      8  C   UNL A   1      29.813  25.691  26.008  1.00  0.00     0.174 C 
ATOM      9  N   UNL A   1      30.859  24.694  26.004  1.00  0.00    -0.262 N 
ATOM     10  N   UNL A   1      31.253  24.226  27.199  1.00  0.00    -0.180 NA
ATOM     11  C   UNL A   1      31.424  24.039  24.931  1.00  0.00     0.139 A 
ATOM     12  C   UNL A   1      31.953  23.140  26.886  1.00  0.00     0.149 A 
BRANCH  11  13
ATOM     13  C   UNL A   1      31.137  24.338  23.551  1.00  0.00     0.275 C 
ATOM     14  O   UNL A   1      30.250  23.747  22.933  1.00  0.00    -0.267 OA
ATOM     15  N   UNL A   1      31.968  25.179  22.832  1.00  0.00    -0.305 N 
ATOM     16  H   UNL A   1      32.378  24.830  22.008  1.00  0.00     0.171 HD
BRANCH  15  17
ATOM     17  C   UNL A   1      32.263  26.487  23.206  1.00  0.00     0.132 A 
ATOM     18  C   UNL A   1      31.343  27.519  23.134  1.00  0.00     0.047 A 
ATOM     19  N   UNL A   1      33.530  26.646  23.641  1.00  0.00    -0.239 NA
ATOM     20  C   UNL A   1      31.779  28.803  23.474  1.00  0.00     0.005 A 
ATOM     21  C   UNL A   1      33.926  27.895  23.954  1.00  0.00     0.113 A 
ATOM     22  C   UNL A   1      33.100  28.999  23.871  1.00  0.00     0.020 A 
ENDBRANCH  15  17
ENDBRANCH  11  13
ENDBRANCH   4   7
ENDBRANCH   2   3
ENDBRANCH   1   2
BRANCH   1  23
ATOM     23  C   UNL A   1      36.380  22.209  25.276  1.00  0.00     0.118 C 
BRANCH  23  24
ATOM     24  N   UNL A   1      37.314  21.089  25.346  1.00  0.00    -0.352 N 
ATOM     25  C   UNL A   1      38.628  21.043  25.754  1.00  0.00     0.251 C 
ATOM     26  H   UNL A   1      36.944  20.226  25.053  1.00  0.00     0.163 HD
ATOM     27  O   UNL A   1      39.285  20.019  25.577  1.00  0.00    -0.269 OA
BRANCH  25  28
ATOM     28  C   UNL A   1      39.261  22.228  26.373  1.00  0.00     0.039 A 
ATOM     29  C   UNL A   1      40.350  22.057  27.234  1.00  0.00     0.014 A 
ATOM     30  C   UNL A   1      38.791  23.510  26.094  1.00  0.00     0.014 A 
ATOM     31  C   UNL A   1      41.026  23.177  27.728  1.00  0.00     0.010 A 
ATOM     32  C   UNL A   1      39.534  24.615  26.484  1.00  0.00     0.010 A 
ATOM     33  C   UNL A   1      40.655  24.465  27.313  1.00  0.00    -0.014 A 
BRANCH  33  34
ATOM     34  C   UNL A   1      41.403  25.684  27.721  1.00  0.00     0.031 A 
ATOM     35  C   UNL A   1      40.698  26.759  28.506  1.00  0.00     0.074 A 
ATOM     36  C   UNL A   1      42.659  25.883  27.272  1.00  0.00     0.049 A 
ATOM     37  N   UNL A   1      41.109  27.962  28.809  1.00  0.00    -0.248 NA
ATOM     38  C   UNL A   1      39.333  26.459  28.969  1.00  0.00     0.031 C 
ATOM     39  C   UNL A   1      43.421  24.953  26.436  1.00  0.00     0.029 A 
ATOM     40  N   UNL A   1      43.503  26.957  27.423  1.00  0.00    -0.354 N 
ATOM     41  C   UNL A   1      40.036  28.579  29.444  1.00  0.00     0.074 A 
ATOM     42  C   UNL A   1      38.945  27.631  29.449  1.00  0.00     0.031 C 
ATOM     43  C   UNL A   1      44.615  25.494  26.149  1.00  0.00     0.029 A 
ATOM     44  C   UNL A   1      44.692  26.824  26.742  1.00  0.00     0.049 A 
ATOM     45  H   UNL A   1      43.278  27.747  27.965  1.00  0.00     0.167 HD
ATOM     46  C   UNL A   1      39.973  29.810  30.002  1.00  0.00     0.034 A 
ATOM     47  C   UNL A   1      45.720  27.683  26.599  1.00  0.00     0.034 A 
ATOM     48  C   UNL A   1      41.084  30.720  30.055  1.00  0.00     0.049 A 
ATOM     49  C   UNL A   1      45.649  29.023  27.281  1.00  0.00     0.074 A 
ATOM     50  C   UNL A   1      41.159  31.947  30.688  1.00  0.00     0.029 A 
ATOM     51  N   UNL A   1      42.314  30.500  29.454  1.00  0.00    -0.354 N 
ATOM     52  N   UNL A   1      44.680  29.529  28.006  1.00  0.00    -0.248 NA
ATOM     53  C   UNL A   1      46.823  29.899  27.155  1.00  0.00     0.031 C 
ATOM     54  C   UNL A   1      42.431  32.479  30.453  1.00  0.00     0.029 A 
ATOM     55  C   UNL A   1      43.155  31.571  29.696  1.00  0.00     0.049 A 
ATOM     56  H   UNL A   1      42.553  29.700  28.933  1.00  0.00     0.167 HD
ATOM     57  C   UNL A   1      45.143  30.761  28.456  1.00  0.00     0.074 A 
ATOM     58  C   UNL A   1      46.484  30.919  27.933  1.00  0.00     0.031 C 
ATOM     59  C   UNL A   1      44.510  31.682  29.222  1.00  0.00     0.034 A 
BRANCH  46  60
ATOM     60  C   UNL A   1      38.678  30.221  30.652  1.00  0.00     0.023 A 
ATOM     61  C   UNL A   1      38.445  29.900  32.006  1.00  0.00     0.012 A 
ATOM     62  C   UNL A   1      37.716  30.969  29.944  1.00  0.00     0.148 A 
ATOM     63  C   UNL A   1      37.259  30.281  32.633  1.00  0.00     0.002 A 
ATOM     64  C   UNL A   1      36.558  31.386  30.591  1.00  0.00     0.091 A 
ATOM     65  F   UNL A   1      37.945  31.246  28.654  1.00  0.00    -0.205 F 
ATOM     66  C   UNL A   1      36.322  31.032  31.929  1.00  0.00     0.022 A 
BRANCH  64  67
ATOM     67  S   UNL A   1      35.328  32.428  29.798  1.00  0.00     0.127 S 
ATOM     68  O   UNL A   1      34.833  31.548  28.741  1.00  0.00    -0.237 OA
ATOM     69  O   UNL A   1      34.380  32.666  30.887  1.00  0.00    -0.237 OA
ATOM     70  O   UNL A   1      36.039  33.615  29.343  1.00  0.00    -0.744 OA
ENDBRANCH  64  67
ENDBRANCH  46  60
BRANCH  47  71
ATOM     71  C   UNL A   1      46.933  27.275  25.833  1.00  0.00     0.023 A 
ATOM     72  C   UNL A   1      47.878  26.427  26.441  1.00  0.00     0.012 A 
ATOM     73  C   UNL A   1      47.142  27.690  24.503  1.00  0.00     0.148 A 
ATOM     74  C   UNL A   1      49.025  26.027  25.754  1.00  0.00     0.002 A 
ATOM     75  C   UNL A   1      48.257  27.243  23.804  1.00  0.00     0.091 A 
ATOM     76  F   UNL A   1      46.236  28.505  23.942  1.00  0.00    -0.205 F 
ATOM     77  C   UNL A   1      49.210  26.426  24.434  1.00  0.00     0.022 A 
BRANCH  75  78
ATOM     78  S   UNL A   1      48.510  27.596  22.061  1.00  0.00     0.127 S 
ATOM     79  O   UNL A   1      48.760  26.263  21.517  1.00  0.00    -0.237 OA
ATOM     80  O   UNL A   1      47.226  28.186  21.680  1.00  0.00    -0.237 OA
ATOM     81  O   UNL A   1      49.633  28.523  22.006  1.00  0.00    -0.744 OA
ENDBRANCH  75  78
ENDBRANCH  47  71
BRANCH  59  82
ATOM     82  C   UNL A   1      45.266  32.930  29.591  1.00  0.00     0.023 A 
ATOM     83  C   UNL A   1      46.090  32.939  30.733  1.00  0.00     0.012 A 
ATOM     84  C   UNL A   1      45.238  34.057  28.746  1.00  0.00     0.148 A 
ATOM     85  C   UNL A   1      46.857  34.062  31.043  1.00  0.00     0.002 A 
ATOM     86  C   UNL A   1      46.043  35.153  29.033  1.00  0.00     0.091 A 
ATOM     87  F   UNL A   1      44.433  34.032  27.674  1.00  0.00    -0.205 F 
ATOM     88  C   UNL A   1      46.845  35.161  30.186  1.00  0.00     0.022 A 
BRANCH  86  89
ATOM     89  S   UNL A   1      46.168  36.569  27.936  1.00  0.00     0.127 S 
ATOM     90  O   UNL A   1      44.834  37.156  28.055  1.00  0.00    -0.237 OA
ATOM     91  O   UNL A   1      47.236  37.350  28.560  1.00  0.00    -0.237 OA
ATOM     92  O   UNL A   1      46.498  36.034  26.622  1.00  0.00    -0.744 OA
ENDBRANCH  86  89
ENDBRANCH  59  82
ENDBRANCH  33  34
ENDBRANCH  25  28
ENDBRANCH  23  24
ENDBRANCH   1  23
TORSDOF 15
ENDMDL
