MODEL 1
REMARK VINA RESULT:     -10.0      0.000      0.000
REMARK SMILES C#CC[N@H+](CC(=O)NCCCNC(=O)c1ccc(-c2c3nc(c(-c4cccc(S(=O)(=O)[O-])c4F)c4ccc([nH]4)c(-c4cccc(S(=O)(=O)[O-])c4F)c4nc(c(-c5cccc(S(=O)(=O)[O-])c5F)c5ccc2[nH]5)C=C4)C=C3)cc1)[C@H](C)[C@@H](C)O
REMARK SMILES IDX 9 1 8 2 6 3 7 4 5 6 4 7 3 9 2 10 1 11 78 12 79 13 80 14
REMARK SMILES IDX 81 15 82 16 10 18 11 19 12 20 13 21 14 23 15 24 16 25 77 26
REMARK SMILES IDX 17 27 76 28 18 29 19 30 20 31 70 32 21 33 75 34 69 35 71 36
REMARK SMILES IDX 22 37 74 38 68 39 67 40 23 42 55 43 35 44 54 45 36 46 39 47
REMARK SMILES IDX 53 48 72 49 37 50 38 51 52 53 73 54 40 55 24 56 25 57 33 58
REMARK SMILES IDX 26 59 28 60 34 61 27 62 29 63 30 64 31 65 32 66 56 67 57 68
REMARK SMILES IDX 65 69 58 70 60 71 66 72 59 73 61 74 62 75 63 76 64 77 41 78
REMARK SMILES IDX 42 79 50 80 43 81 45 82 51 83 44 84 46 85 47 86 48 87 49 88
REMARK H PARENT 8 5 4 8 82 17 12 22 71 41 39 52
REMARK Flexibility Score: inf
ROOT
ATOM      1  C   UNL A   1      32.185  26.983  25.995  1.00  0.00     0.118 C 
ENDROOT
BRANCH   1   2
ATOM      2  N   UNL A   1      31.561  25.878  26.718  1.00  0.00    -0.351 N 
ATOM      3  C   UNL A   1      31.338  24.567  26.375  1.00  0.00     0.275 C 
ATOM      4  O   UNL A   1      30.773  23.851  27.205  1.00  0.00    -0.269 OA
ATOM      5  H   UNL A   1      31.239  26.118  27.618  1.00  0.00     0.163 HD
BRANCH   3   6
ATOM      6  C   UNL A   1      31.831  24.004  25.028  1.00  0.00     0.364 C 
BRANCH   6   7
ATOM      7  N   UNL A   1      33.038  23.104  25.100  1.00  0.00    -0.313 N 
ATOM      8  H   UNL A   1      32.836  22.212  25.551  1.00  0.00     0.349 HD
BRANCH   7   9
ATOM      9  C   UNL A   1      33.449  22.773  23.731  1.00  0.00     0.354 C 
BRANCH   9  10
ATOM     10  C   UNL A   1      32.616  21.934  22.865  1.00  0.00    -0.047 C 
ATOM     11  C   UNL A   1      31.938  21.137  22.278  1.00  0.00     0.010 C 
ENDBRANCH   9  10
ENDBRANCH   7   9
BRANCH   7  12
ATOM     12  C   UNL A   1      34.092  23.732  25.980  1.00  0.00     0.210 C 
ATOM     13  C   UNL A   1      35.217  24.452  25.217  1.00  0.00     0.078 C 
BRANCH  12  14
ATOM     14  C   UNL A   1      34.651  22.766  27.073  1.00  0.00     0.169 C 
ATOM     15  C   UNL A   1      33.688  21.712  27.599  1.00  0.00     0.045 C 
BRANCH  14  16
ATOM     16  O   UNL A   1      35.771  22.062  26.527  1.00  0.00    -0.387 OA
ATOM     17  H   UNL A   1      35.844  22.257  25.580  1.00  0.00     0.211 HD
ENDBRANCH  14  16
ENDBRANCH  12  14
ENDBRANCH   7  12
ENDBRANCH   6   7
ENDBRANCH   3   6
ENDBRANCH   1   2
BRANCH   1  18
ATOM     18  C   UNL A   1      33.036  27.891  26.892  1.00  0.00     0.042 C 
BRANCH  18  19
ATOM     19  C   UNL A   1      33.967  28.825  26.137  1.00  0.00     0.118 C 
BRANCH  19  20
ATOM     20  N   UNL A   1      33.832  30.189  26.611  1.00  0.00    -0.352 N 
ATOM     21  C   UNL A   1      34.527  30.832  27.608  1.00  0.00     0.251 C 
ATOM     22  H   UNL A   1      33.147  30.730  26.155  1.00  0.00     0.163 HD
ATOM     23  O   UNL A   1      34.066  31.869  28.078  1.00  0.00    -0.269 OA
BRANCH  21  24
ATOM     24  C   UNL A   1      35.808  30.286  28.120  1.00  0.00     0.039 A 
ATOM     25  C   UNL A   1      36.954  30.401  27.326  1.00  0.00     0.014 A 
ATOM     26  C   UNL A   1      35.886  29.618  29.346  1.00  0.00     0.014 A 
ATOM     27  C   UNL A   1      38.172  29.882  27.778  1.00  0.00     0.010 A 
ATOM     28  C   UNL A   1      37.118  29.186  29.835  1.00  0.00     0.010 A 
ATOM     29  C   UNL A   1      38.273  29.293  29.048  1.00  0.00    -0.014 A 
BRANCH  29  30
ATOM     30  C   UNL A   1      39.573  28.774  29.557  1.00  0.00     0.031 A 
ATOM     31  C   UNL A   1      40.290  29.479  30.680  1.00  0.00     0.074 A 
ATOM     32  C   UNL A   1      40.141  27.703  28.966  1.00  0.00     0.049 A 
ATOM     33  N   UNL A   1      41.444  29.195  31.227  1.00  0.00    -0.248 NA
ATOM     34  C   UNL A   1      39.640  30.672  31.253  1.00  0.00     0.031 C 
ATOM     35  C   UNL A   1      39.589  26.975  27.821  1.00  0.00     0.029 A 
ATOM     36  N   UNL A   1      41.323  27.054  29.228  1.00  0.00    -0.354 N 
ATOM     37  C   UNL A   1      41.677  30.188  32.171  1.00  0.00     0.074 A 
ATOM     38  C   UNL A   1      40.556  31.099  32.110  1.00  0.00     0.031 C 
ATOM     39  C   UNL A   1      40.427  25.983  27.481  1.00  0.00     0.029 A 
ATOM     40  C   UNL A   1      41.595  26.026  28.353  1.00  0.00     0.049 A 
ATOM     41  H   UNL A   1      41.920  27.300  29.971  1.00  0.00     0.167 HD
ATOM     42  C   UNL A   1      42.718  30.321  33.025  1.00  0.00     0.034 A 
ATOM     43  C   UNL A   1      42.674  25.224  28.248  1.00  0.00     0.034 A 
ATOM     44  C   UNL A   1      43.812  29.391  33.115  1.00  0.00     0.049 A 
ATOM     45  C   UNL A   1      43.801  25.379  29.234  1.00  0.00     0.074 A 
ATOM     46  C   UNL A   1      44.860  29.387  34.019  1.00  0.00     0.029 A 
ATOM     47  N   UNL A   1      44.012  28.319  32.263  1.00  0.00    -0.354 N 
ATOM     48  N   UNL A   1      43.917  26.224  30.229  1.00  0.00    -0.248 NA
ATOM     49  C   UNL A   1      44.931  24.446  29.105  1.00  0.00     0.031 C 
ATOM     50  C   UNL A   1      45.721  28.338  33.683  1.00  0.00     0.029 A 
ATOM     51  C   UNL A   1      45.180  27.658  32.605  1.00  0.00     0.049 A 
ATOM     52  H   UNL A   1      43.414  28.063  31.525  1.00  0.00     0.167 HD
ATOM     53  C   UNL A   1      45.109  25.900  30.866  1.00  0.00     0.074 A 
ATOM     54  C   UNL A   1      45.666  24.766  30.160  1.00  0.00     0.031 C 
ATOM     55  C   UNL A   1      45.699  26.498  31.929  1.00  0.00     0.034 A 
BRANCH  42  56
ATOM     56  C   UNL A   1      42.726  31.498  33.967  1.00  0.00     0.023 A 
ATOM     57  C   UNL A   1      43.200  32.749  33.523  1.00  0.00     0.012 A 
ATOM     58  C   UNL A   1      42.163  31.388  35.253  1.00  0.00     0.148 A 
ATOM     59  C   UNL A   1      43.130  33.868  34.353  1.00  0.00     0.002 A 
ATOM     60  C   UNL A   1      42.052  32.516  36.055  1.00  0.00     0.091 A 
ATOM     61  F   UNL A   1      41.733  30.184  35.660  1.00  0.00    -0.205 F 
ATOM     62  C   UNL A   1      42.545  33.754  35.612  1.00  0.00     0.022 A 
BRANCH  60  63
ATOM     63  S   UNL A   1      41.236  32.495  37.655  1.00  0.00     0.127 S 
ATOM     64  O   UNL A   1      41.261  33.913  38.016  1.00  0.00    -0.237 OA
ATOM     65  O   UNL A   1      39.912  31.976  37.315  1.00  0.00    -0.237 OA
ATOM     66  O   UNL A   1      42.035  31.626  38.507  1.00  0.00    -0.744 OA
ENDBRANCH  60  63
ENDBRANCH  42  56
BRANCH  43  67
ATOM     67  C   UNL A   1      42.740  24.185  27.179  1.00  0.00     0.023 A 
ATOM     68  C   UNL A   1      43.432  24.452  25.983  1.00  0.00     0.012 A 
ATOM     69  C   UNL A   1      42.103  22.939  27.340  1.00  0.00     0.148 A 
ATOM     70  C   UNL A   1      43.445  23.518  24.944  1.00  0.00     0.002 A 
ATOM     71  C   UNL A   1      42.175  21.989  26.329  1.00  0.00     0.091 A 
ATOM     72  F   UNL A   1      41.439  22.707  28.480  1.00  0.00    -0.205 F 
ATOM     73  C   UNL A   1      42.824  22.284  25.121  1.00  0.00     0.022 A 
BRANCH  71  74
ATOM     74  S   UNL A   1      41.524  20.328  26.531  1.00  0.00     0.127 S 
ATOM     75  O   UNL A   1      42.083  19.943  27.824  1.00  0.00    -0.237 OA
ATOM     76  O   UNL A   1      40.080  20.568  26.529  1.00  0.00    -0.237 OA
ATOM     77  O   UNL A   1      42.005  19.577  25.379  1.00  0.00    -0.744 OA
ENDBRANCH  71  74
ENDBRANCH  43  67
BRANCH  55  78
ATOM     78  C   UNL A   1      46.988  25.910  32.442  1.00  0.00     0.023 A 
ATOM     79  C   UNL A   1      48.223  26.371  31.946  1.00  0.00     0.012 A 
ATOM     80  C   UNL A   1      46.970  24.948  33.470  1.00  0.00     0.148 A 
ATOM     81  C   UNL A   1      49.420  25.853  32.440  1.00  0.00     0.002 A 
ATOM     82  C   UNL A   1      48.166  24.478  33.996  1.00  0.00     0.091 A 
ATOM     83  F   UNL A   1      45.784  24.512  33.917  1.00  0.00    -0.205 F 
ATOM     84  C   UNL A   1      49.393  24.919  33.471  1.00  0.00     0.022 A 
BRANCH  82  85
ATOM     85  S   UNL A   1      48.231  23.351  35.392  1.00  0.00     0.127 S 
ATOM     86  O   UNL A   1      47.618  22.147  34.832  1.00  0.00    -0.237 OA
ATOM     87  O   UNL A   1      49.669  23.247  35.639  1.00  0.00    -0.237 OA
ATOM     88  O   UNL A   1      47.477  23.991  36.463  1.00  0.00    -0.744 OA
ENDBRANCH  82  85
ENDBRANCH  55  78
ENDBRANCH  29  30
ENDBRANCH  21  24
ENDBRANCH  19  20
ENDBRANCH  18  19
ENDBRANCH   1  18
TORSDOF 19
ENDMDL
MODEL 2
REMARK VINA RESULT:      -9.6      4.877      9.870
REMARK SMILES C#CC[N@H+](CC(=O)NCCCNC(=O)c1ccc(-c2c3nc(c(-c4cccc(S(=O)(=O)[O-])c4F)c4ccc([nH]4)c(-c4cccc(S(=O)(=O)[O-])c4F)c4nc(c(-c5cccc(S(=O)(=O)[O-])c5F)c5ccc2[nH]5)C=C4)C=C3)cc1)[C@H](C)[C@@H](C)O
REMARK SMILES IDX 9 1 8 2 6 3 7 4 5 6 4 7 3 9 2 10 1 11 78 12 79 13 80 14
REMARK SMILES IDX 81 15 82 16 10 18 11 19 12 20 13 21 14 23 15 24 16 25 77 26
REMARK SMILES IDX 17 27 76 28 18 29 19 30 20 31 70 32 21 33 75 34 69 35 71 36
REMARK SMILES IDX 22 37 74 38 68 39 67 40 23 42 55 43 35 44 54 45 36 46 39 47
REMARK SMILES IDX 53 48 72 49 37 50 38 51 52 53 73 54 40 55 24 56 25 57 33 58
REMARK SMILES IDX 26 59 28 60 34 61 27 62 29 63 30 64 31 65 32 66 56 67 57 68
REMARK SMILES IDX 65 69 58 70 60 71 66 72 59 73 61 74 62 75 63 76 64 77 41 78
REMARK SMILES IDX 42 79 50 80 43 81 45 82 51 83 44 84 46 85 47 86 48 87 49 88
REMARK H PARENT 8 5 4 8 82 17 12 22 71 41 39 52
REMARK Flexibility Score: inf
ROOT
ATOM      1  C   UNL A   1      34.281  24.004  24.690  1.00  0.00     0.118 C 
ENDROOT
BRANCH   1   2
ATOM      2  N   UNL A   1      34.104  24.584  23.361  1.00  0.00    -0.351 N 
ATOM      3  C   UNL A   1      33.748  25.845  22.950  1.00  0.00     0.275 C 
ATOM      4  O   UNL A   1      33.674  26.047  21.736  1.00  0.00    -0.269 OA
ATOM      5  H   UNL A   1      34.271  23.953  22.622  1.00  0.00     0.163 HD
BRANCH   3   6
ATOM      6  C   UNL A   1      33.511  26.974  23.972  1.00  0.00     0.364 C 
BRANCH   6   7
ATOM      7  N   UNL A   1      32.353  26.768  24.914  1.00  0.00    -0.313 N 
ATOM      8  H   UNL A   1      32.010  25.807  24.912  1.00  0.00     0.349 HD
BRANCH   7   9
ATOM      9  C   UNL A   1      32.820  27.020  26.282  1.00  0.00     0.354 C 
BRANCH   9  10
ATOM     10  C   UNL A   1      33.816  28.057  26.569  1.00  0.00    -0.047 C 
ATOM     11  C   UNL A   1      34.514  28.976  26.896  1.00  0.00     0.010 C 
ENDBRANCH   9  10
ENDBRANCH   7   9
BRANCH   7  12
ATOM     12  C   UNL A   1      31.168  27.583  24.454  1.00  0.00     0.210 C 
ATOM     13  C   UNL A   1      30.026  26.758  23.836  1.00  0.00     0.078 C 
BRANCH  12  14
ATOM     14  C   UNL A   1      31.556  28.805  23.562  1.00  0.00     0.169 C 
ATOM     15  C   UNL A   1      30.514  29.263  22.553  1.00  0.00     0.045 C 
BRANCH  14  16
ATOM     16  O   UNL A   1      31.820  29.923  24.415  1.00  0.00    -0.387 OA
ATOM     17  H   UNL A   1      31.146  29.966  25.111  1.00  0.00     0.211 HD
ENDBRANCH  14  16
ENDBRANCH  12  14
ENDBRANCH   7  12
ENDBRANCH   6   7
ENDBRANCH   3   6
ENDBRANCH   1   2
BRANCH   1  18
ATOM     18  C   UNL A   1      35.533  23.126  24.808  1.00  0.00     0.042 C 
BRANCH  18  19
ATOM     19  C   UNL A   1      36.514  23.571  25.880  1.00  0.00     0.118 C 
BRANCH  19  20
ATOM     20  N   UNL A   1      37.582  22.603  26.042  1.00  0.00    -0.352 N 
ATOM     21  C   UNL A   1      38.908  22.819  26.333  1.00  0.00     0.251 C 
ATOM     22  H   UNL A   1      37.320  21.661  25.929  1.00  0.00     0.163 HD
ATOM     23  O   UNL A   1      39.716  21.918  26.120  1.00  0.00    -0.269 OA
BRANCH  21  24
ATOM     24  C   UNL A   1      39.368  24.117  26.886  1.00  0.00     0.039 A 
ATOM     25  C   UNL A   1      39.985  25.033  26.028  1.00  0.00     0.014 A 
ATOM     26  C   UNL A   1      39.250  24.420  28.246  1.00  0.00     0.014 A 
ATOM     27  C   UNL A   1      40.442  26.258  26.526  1.00  0.00     0.010 A 
ATOM     28  C   UNL A   1      39.619  25.678  28.721  1.00  0.00     0.010 A 
ATOM     29  C   UNL A   1      40.241  26.604  27.872  1.00  0.00    -0.014 A 
BRANCH  29  30
ATOM     30  C   UNL A   1      40.686  27.922  28.404  1.00  0.00     0.031 A 
ATOM     31  C   UNL A   1      42.155  28.223  28.568  1.00  0.00     0.074 A 
ATOM     32  C   UNL A   1      39.768  28.827  28.798  1.00  0.00     0.049 A 
ATOM     33  N   UNL A   1      42.727  29.297  29.047  1.00  0.00    -0.248 NA
ATOM     34  C   UNL A   1      43.108  27.174  28.163  1.00  0.00     0.031 C 
ATOM     35  C   UNL A   1      38.317  28.632  28.763  1.00  0.00     0.029 A 
ATOM     36  N   UNL A   1      39.917  30.085  29.332  1.00  0.00    -0.354 N 
ATOM     37  C   UNL A   1      44.093  29.041  29.041  1.00  0.00     0.074 A 
ATOM     38  C   UNL A   1      44.268  27.700  28.532  1.00  0.00     0.031 C 
ATOM     39  C   UNL A   1      37.711  29.726  29.251  1.00  0.00     0.029 A 
ATOM     40  C   UNL A   1      38.726  30.685  29.673  1.00  0.00     0.049 A 
ATOM     41  H   UNL A   1      40.793  30.516  29.460  1.00  0.00     0.167 HD
ATOM     42  C   UNL A   1      45.111  29.854  29.407  1.00  0.00     0.034 A 
ATOM     43  C   UNL A   1      38.477  31.864  30.279  1.00  0.00     0.034 A 
ATOM     44  C   UNL A   1      44.939  31.204  29.873  1.00  0.00     0.049 A 
ATOM     45  C   UNL A   1      39.632  32.757  30.644  1.00  0.00     0.074 A 
ATOM     46  C   UNL A   1      45.916  32.139  30.170  1.00  0.00     0.029 A 
ATOM     47  N   UNL A   1      43.718  31.803  30.132  1.00  0.00    -0.354 N 
ATOM     48  N   UNL A   1      40.916  32.559  30.470  1.00  0.00    -0.248 NA
ATOM     49  C   UNL A   1      39.304  34.052  31.258  1.00  0.00     0.031 C 
ATOM     50  C   UNL A   1      45.286  33.288  30.654  1.00  0.00     0.029 A 
ATOM     51  C   UNL A   1      43.916  33.088  30.607  1.00  0.00     0.049 A 
ATOM     52  H   UNL A   1      42.840  31.379  29.997  1.00  0.00     0.167 HD
ATOM     53  C   UNL A   1      41.543  33.717  30.916  1.00  0.00     0.074 A 
ATOM     54  C   UNL A   1      40.498  34.621  31.343  1.00  0.00     0.031 C 
ATOM     55  C   UNL A   1      42.867  34.000  30.980  1.00  0.00     0.034 A 
BRANCH  42  56
ATOM     56  C   UNL A   1      46.520  29.332  29.294  1.00  0.00     0.023 A 
ATOM     57  C   UNL A   1      47.116  28.674  30.388  1.00  0.00     0.012 A 
ATOM     58  C   UNL A   1      47.209  29.397  28.067  1.00  0.00     0.148 A 
ATOM     59  C   UNL A   1      48.384  28.107  30.269  1.00  0.00     0.002 A 
ATOM     60  C   UNL A   1      48.451  28.787  27.941  1.00  0.00     0.091 A 
ATOM     61  F   UNL A   1      46.631  30.042  27.043  1.00  0.00    -0.205 F 
ATOM     62  C   UNL A   1      49.045  28.152  29.044  1.00  0.00     0.022 A 
BRANCH  60  63
ATOM     63  S   UNL A   1      49.344  28.712  26.385  1.00  0.00     0.127 S 
ATOM     64  O   UNL A   1      50.261  27.597  26.626  1.00  0.00    -0.237 OA
ATOM     65  O   UNL A   1      48.272  28.424  25.432  1.00  0.00    -0.237 OA
ATOM     66  O   UNL A   1      49.980  30.010  26.219  1.00  0.00    -0.744 OA
ENDBRANCH  60  63
ENDBRANCH  42  56
BRANCH  43  67
ATOM     67  C   UNL A   1      37.075  32.283  30.567  1.00  0.00     0.023 A 
ATOM     68  C   UNL A   1      36.544  32.121  31.860  1.00  0.00     0.012 A 
ATOM     69  C   UNL A   1      36.260  32.827  29.555  1.00  0.00     0.148 A 
ATOM     70  C   UNL A   1      35.212  32.444  32.130  1.00  0.00     0.002 A 
ATOM     71  C   UNL A   1      34.956  33.207  29.845  1.00  0.00     0.091 A 
ATOM     72  F   UNL A   1      36.777  32.964  28.326  1.00  0.00    -0.205 F 
ATOM     73  C   UNL A   1      34.421  32.994  31.124  1.00  0.00     0.022 A 
BRANCH  71  74
ATOM     74  S   UNL A   1      33.917  34.051  28.648  1.00  0.00     0.127 S 
ATOM     75  O   UNL A   1      32.853  34.580  29.497  1.00  0.00    -0.237 OA
ATOM     76  O   UNL A   1      34.834  35.056  28.109  1.00  0.00    -0.237 OA
ATOM     77  O   UNL A   1      33.518  33.031  27.687  1.00  0.00    -0.744 OA
ENDBRANCH  71  74
ENDBRANCH  43  67
BRANCH  55  78
ATOM     78  C   UNL A   1      43.271  35.363  31.478  1.00  0.00     0.023 A 
ATOM     79  C   UNL A   1      43.502  35.577  32.851  1.00  0.00     0.012 A 
ATOM     80  C   UNL A   1      43.491  36.415  30.568  1.00  0.00     0.148 A 
ATOM     81  C   UNL A   1      43.907  36.828  33.314  1.00  0.00     0.002 A 
ATOM     82  C   UNL A   1      43.949  37.643  31.029  1.00  0.00     0.091 A 
ATOM     83  F   UNL A   1      43.251  36.196  29.267  1.00  0.00    -0.205 F 
ATOM     84  C   UNL A   1      44.143  37.855  32.404  1.00  0.00     0.022 A 
BRANCH  82  85
ATOM     85  S   UNL A   1      44.376  38.991  29.924  1.00  0.00     0.127 S 
ATOM     86  O   UNL A   1      45.398  38.373  29.080  1.00  0.00    -0.237 OA
ATOM     87  O   UNL A   1      43.105  39.253  29.251  1.00  0.00    -0.237 OA
ATOM     88  O   UNL A   1      44.848  40.077  30.774  1.00  0.00    -0.744 OA
ENDBRANCH  82  85
ENDBRANCH  55  78
ENDBRANCH  29  30
ENDBRANCH  21  24
ENDBRANCH  19  20
ENDBRANCH  18  19
ENDBRANCH   1  18
TORSDOF 19
ENDMDL
MODEL 3
REMARK VINA RESULT:      -9.5      1.572      1.920
REMARK SMILES C#CC[N@H+](CC(=O)NCCCNC(=O)c1ccc(-c2c3nc(c(-c4cccc(S(=O)(=O)[O-])c4F)c4ccc([nH]4)c(-c4cccc(S(=O)(=O)[O-])c4F)c4nc(c(-c5cccc(S(=O)(=O)[O-])c5F)c5ccc2[nH]5)C=C4)C=C3)cc1)[C@H](C)[C@@H](C)O
REMARK SMILES IDX 9 1 8 2 6 3 7 4 5 6 4 7 3 9 2 10 1 11 78 12 79 13 80 14
REMARK SMILES IDX 81 15 82 16 10 18 11 19 12 20 13 21 14 23 15 24 16 25 77 26
REMARK SMILES IDX 17 27 76 28 18 29 19 30 20 31 70 32 21 33 75 34 69 35 71 36
REMARK SMILES IDX 22 37 74 38 68 39 67 40 23 42 55 43 35 44 54 45 36 46 39 47
REMARK SMILES IDX 53 48 72 49 37 50 38 51 52 53 73 54 40 55 24 56 25 57 33 58
REMARK SMILES IDX 26 59 28 60 34 61 27 62 29 63 30 64 31 65 32 66 56 67 57 68
REMARK SMILES IDX 65 69 58 70 60 71 66 72 59 73 61 74 62 75 63 76 64 77 41 78
REMARK SMILES IDX 42 79 50 80 43 81 45 82 51 83 44 84 46 85 47 86 48 87 49 88
REMARK H PARENT 8 5 4 8 82 17 12 22 71 41 39 52
REMARK Flexibility Score: inf
ROOT
ATOM      1  C   UNL A   1      32.881  26.556  25.120  1.00  0.00     0.118 C 
ENDROOT
BRANCH   1   2
ATOM      2  N   UNL A   1      32.362  25.704  26.187  1.00  0.00    -0.351 N 
ATOM      3  C   UNL A   1      32.008  24.377  26.211  1.00  0.00     0.275 C 
ATOM      4  O   UNL A   1      31.589  23.921  27.277  1.00  0.00    -0.269 OA
ATOM      5  H   UNL A   1      32.243  26.168  27.048  1.00  0.00     0.163 HD
BRANCH   3   6
ATOM      6  C   UNL A   1      32.188  23.485  24.967  1.00  0.00     0.364 C 
BRANCH   6   7
ATOM      7  N   UNL A   1      33.278  22.449  25.060  1.00  0.00    -0.313 N 
ATOM      8  H   UNL A   1      33.359  22.046  25.994  1.00  0.00     0.349 HD
BRANCH   7   9
ATOM      9  C   UNL A   1      32.931  21.332  24.174  1.00  0.00     0.354 C 
BRANCH   9  10
ATOM     10  C   UNL A   1      32.787  19.967  24.688  1.00  0.00    -0.047 C 
ATOM     11  C   UNL A   1      32.725  18.910  25.251  1.00  0.00     0.010 C 
ENDBRANCH   9  10
ENDBRANCH   7   9
BRANCH   7  12
ATOM     12  C   UNL A   1      34.621  23.097  24.821  1.00  0.00     0.210 C 
ATOM     13  C   UNL A   1      34.747  23.832  23.476  1.00  0.00     0.078 C 
BRANCH  12  14
ATOM     14  C   UNL A   1      35.831  22.145  25.084  1.00  0.00     0.169 C 
ATOM     15  C   UNL A   1      37.026  22.300  24.155  1.00  0.00     0.045 C 
BRANCH  14  16
ATOM     16  O   UNL A   1      36.311  22.376  26.412  1.00  0.00    -0.387 OA
ATOM     17  H   UNL A   1      37.183  21.962  26.516  1.00  0.00     0.211 HD
ENDBRANCH  14  16
ENDBRANCH  12  14
ENDBRANCH   7  12
ENDBRANCH   6   7
ENDBRANCH   3   6
ENDBRANCH   1   2
BRANCH   1  18
ATOM     18  C   UNL A   1      32.830  28.051  25.457  1.00  0.00     0.042 C 
BRANCH  18  19
ATOM     19  C   UNL A   1      33.662  28.452  26.664  1.00  0.00     0.118 C 
BRANCH  19  20
ATOM     20  N   UNL A   1      33.650  29.890  26.850  1.00  0.00    -0.352 N 
ATOM     21  C   UNL A   1      34.475  30.669  27.627  1.00  0.00     0.251 C 
ATOM     22  H   UNL A   1      32.956  30.376  26.349  1.00  0.00     0.163 HD
ATOM     23  O   UNL A   1      34.120  31.812  27.906  1.00  0.00    -0.269 OA
BRANCH  21  24
ATOM     24  C   UNL A   1      35.768  30.145  28.134  1.00  0.00     0.039 A 
ATOM     25  C   UNL A   1      36.885  30.185  27.294  1.00  0.00     0.014 A 
ATOM     26  C   UNL A   1      35.881  29.568  29.402  1.00  0.00     0.014 A 
ATOM     27  C   UNL A   1      38.113  29.685  27.739  1.00  0.00     0.010 A 
ATOM     28  C   UNL A   1      37.125  29.157  29.879  1.00  0.00     0.010 A 
ATOM     29  C   UNL A   1      38.253  29.189  29.046  1.00  0.00    -0.014 A 
BRANCH  29  30
ATOM     30  C   UNL A   1      39.564  28.691  29.546  1.00  0.00     0.031 A 
ATOM     31  C   UNL A   1      40.281  29.413  30.659  1.00  0.00     0.074 A 
ATOM     32  C   UNL A   1      40.142  27.625  28.956  1.00  0.00     0.049 A 
ATOM     33  N   UNL A   1      41.443  29.148  31.197  1.00  0.00    -0.248 NA
ATOM     34  C   UNL A   1      39.619  30.600  31.231  1.00  0.00     0.031 C 
ATOM     35  C   UNL A   1      39.590  26.884  27.820  1.00  0.00     0.029 A 
ATOM     36  N   UNL A   1      41.336  26.994  29.211  1.00  0.00    -0.354 N 
ATOM     37  C   UNL A   1      41.671  30.150  32.133  1.00  0.00     0.074 A 
ATOM     38  C   UNL A   1      40.537  31.045  32.077  1.00  0.00     0.031 C 
ATOM     39  C   UNL A   1      40.439  25.901  27.478  1.00  0.00     0.029 A 
ATOM     40  C   UNL A   1      41.614  25.965  28.340  1.00  0.00     0.049 A 
ATOM     41  H   UNL A   1      41.936  27.253  29.947  1.00  0.00     0.167 HD
ATOM     42  C   UNL A   1      42.718  30.302  32.977  1.00  0.00     0.034 A 
ATOM     43  C   UNL A   1      42.703  25.178  28.230  1.00  0.00     0.034 A 
ATOM     44  C   UNL A   1      43.825  29.389  33.063  1.00  0.00     0.049 A 
ATOM     45  C   UNL A   1      43.836  25.354  29.204  1.00  0.00     0.074 A 
ATOM     46  C   UNL A   1      44.882  29.403  33.958  1.00  0.00     0.029 A 
ATOM     47  N   UNL A   1      44.033  28.314  32.215  1.00  0.00    -0.354 N 
ATOM     48  N   UNL A   1      43.949  26.206  30.193  1.00  0.00    -0.248 NA
ATOM     49  C   UNL A   1      44.978  24.436  29.070  1.00  0.00     0.031 C 
ATOM     50  C   UNL A   1      45.754  28.366  33.620  1.00  0.00     0.029 A 
ATOM     51  C   UNL A   1      45.213  27.672  32.550  1.00  0.00     0.049 A 
ATOM     52  H   UNL A   1      43.432  28.046  31.483  1.00  0.00     0.167 HD
ATOM     53  C   UNL A   1      45.152  25.903  30.821  1.00  0.00     0.074 A 
ATOM     54  C   UNL A   1      45.718  24.773  30.117  1.00  0.00     0.031 C 
ATOM     55  C   UNL A   1      45.742  26.515  31.876  1.00  0.00     0.034 A 
BRANCH  42  56
ATOM     56  C   UNL A   1      42.718  31.485  33.912  1.00  0.00     0.023 A 
ATOM     57  C   UNL A   1      43.192  32.734  33.464  1.00  0.00     0.012 A 
ATOM     58  C   UNL A   1      42.147  31.380  35.195  1.00  0.00     0.148 A 
ATOM     59  C   UNL A   1      43.115  33.857  34.287  1.00  0.00     0.002 A 
ATOM     60  C   UNL A   1      42.029  32.513  35.990  1.00  0.00     0.091 A 
ATOM     61  F   UNL A   1      41.717  30.178  35.607  1.00  0.00    -0.205 F 
ATOM     62  C   UNL A   1      42.522  33.749  35.543  1.00  0.00     0.022 A 
BRANCH  60  63
ATOM     63  S   UNL A   1      41.203  32.500  37.586  1.00  0.00     0.127 S 
ATOM     64  O   UNL A   1      39.883  31.978  37.229  1.00  0.00    -0.237 OA
ATOM     65  O   UNL A   1      42.037  31.575  38.352  1.00  0.00    -0.237 OA
ATOM     66  O   UNL A   1      41.216  33.875  38.061  1.00  0.00    -0.744 OA
ENDBRANCH  60  63
ENDBRANCH  42  56
BRANCH  43  67
ATOM     67  C   UNL A   1      42.774  24.134  27.165  1.00  0.00     0.023 A 
ATOM     68  C   UNL A   1      43.448  24.405  25.959  1.00  0.00     0.012 A 
ATOM     69  C   UNL A   1      42.161  22.878  27.341  1.00  0.00     0.148 A 
ATOM     70  C   UNL A   1      43.465  23.465  24.926  1.00  0.00     0.002 A 
ATOM     71  C   UNL A   1      42.237  21.924  26.335  1.00  0.00     0.091 A 
ATOM     72  F   UNL A   1      41.514  22.641  28.491  1.00  0.00    -0.205 F 
ATOM     73  C   UNL A   1      42.866  22.223  25.118  1.00  0.00     0.022 A 
BRANCH  71  74
ATOM     74  S   UNL A   1      41.617  20.253  26.554  1.00  0.00     0.127 S 
ATOM     75  O   UNL A   1      40.174  20.473  26.600  1.00  0.00    -0.237 OA
ATOM     76  O   UNL A   1      42.102  19.591  25.342  1.00  0.00    -0.237 OA
ATOM     77  O   UNL A   1      42.228  19.767  27.784  1.00  0.00    -0.744 OA
ENDBRANCH  71  74
ENDBRANCH  43  67
BRANCH  55  78
ATOM     78  C   UNL A   1      47.044  25.948  32.380  1.00  0.00     0.023 A 
ATOM     79  C   UNL A   1      47.057  25.089  33.496  1.00  0.00     0.012 A 
ATOM     80  C   UNL A   1      48.246  26.215  31.697  1.00  0.00     0.148 A 
ATOM     81  C   UNL A   1      48.255  24.535  33.947  1.00  0.00     0.002 A 
ATOM     82  C   UNL A   1      49.426  25.615  32.117  1.00  0.00     0.091 A 
ATOM     83  F   UNL A   1      48.214  27.047  30.646  1.00  0.00    -0.205 F 
ATOM     84  C   UNL A   1      49.435  24.787  33.252  1.00  0.00     0.022 A 
BRANCH  82  85
ATOM     85  S   UNL A   1      50.974  25.800  31.227  1.00  0.00     0.127 S 
ATOM     86  O   UNL A   1      50.605  25.338  29.889  1.00  0.00    -0.237 OA
ATOM     87  O   UNL A   1      51.220  27.238  31.331  1.00  0.00    -0.237 OA
ATOM     88  O   UNL A   1      51.944  24.966  31.925  1.00  0.00    -0.744 OA
ENDBRANCH  82  85
ENDBRANCH  55  78
ENDBRANCH  29  30
ENDBRANCH  21  24
ENDBRANCH  19  20
ENDBRANCH  18  19
ENDBRANCH   1  18
TORSDOF 19
ENDMDL
