MODEL 1
REMARK VINA RESULT:     -12.7      0.000      0.000
REMARK SMILES CC1(C)CC[N@H+](CCC(=O)NCCCNC(=O)c2ccc(-c3c4nc(c(-c5cccc(S(=O)(=O)[O-])c5F)c5ccc([nH]5)c(-c5cccc(S(=O)(=O)[O-])c5F)c5nc(c(-c6cccc(S(=O)(=O)[O-])c6F)c6ccc3[nH]6)C=C5)C=C4)cc2)C1
REMARK SMILES IDX 13 1 12 2 11 3 9 4 10 5 8 7 7 8 6 9 1 10 2 11 3 12 4 13
REMARK SMILES IDX 81 14 5 15 14 17 15 18 16 19 17 21 18 22 19 23 80 24 20 25
REMARK SMILES IDX 79 26 21 27 22 28 23 29 73 30 24 31 78 32 72 33 74 34 25 35
REMARK SMILES IDX 77 36 71 37 70 38 26 40 58 41 38 42 57 43 39 44 42 45 56 46
REMARK SMILES IDX 75 47 40 48 41 49 55 51 76 52 43 53 27 54 28 55 36 56 29 57
REMARK SMILES IDX 31 58 37 59 30 60 32 61 33 62 34 63 35 64 59 65 60 66 68 67
REMARK SMILES IDX 61 68 63 69 69 70 62 71 64 72 65 73 66 74 67 75 44 76 45 77
REMARK SMILES IDX 53 78 46 79 48 80 54 81 47 82 49 83 50 84 51 85 52 86
REMARK H PARENT 11 6 6 16 15 20 74 39 42 50
REMARK Flexibility Score: inf
ROOT
ATOM      1  C   UNL A   1      31.505  29.434  24.956  1.00  0.00     0.042 C 
ENDROOT
BRANCH   1   2
ATOM      2  C   UNL A   1      31.403  28.269  23.106  1.00  0.00     0.117 C 
BRANCH   2   3
ATOM      3  N   UNL A   1      32.501  27.623  22.197  1.00  0.00    -0.356 N 
ATOM      4  C   UNL A   1      32.595  26.291  21.901  1.00  0.00     0.225 C 
ATOM      5  O   UNL A   1      33.482  25.881  21.158  1.00  0.00    -0.275 OA
ATOM      6  H   UNL A   1      33.178  28.222  21.808  1.00  0.00     0.163 HD
BRANCH   4   7
ATOM      7  C   UNL A   1      31.522  25.412  22.480  1.00  0.00     0.161 C 
BRANCH   7   8
ATOM      8  C   UNL A   1      32.041  24.348  23.448  1.00  0.00     0.272 C 
BRANCH   8   9
ATOM      9  N   UNL A   1      33.427  24.360  23.926  1.00  0.00    -0.334 N 
ATOM     10  C   UNL A   1      37.190  22.283  24.419  1.00  0.00     0.017 C 
ATOM     11  C   UNL A   1      35.636  22.214  24.844  1.00  0.00     0.019 C 
ATOM     12  C   UNL A   1      35.558  20.630  24.970  1.00  0.00     0.017 C 
ATOM     13  C   UNL A   1      34.912  23.181  26.505  1.00  0.00     0.073 C 
ATOM     14  C   UNL A   1      34.585  22.972  23.295  1.00  0.00     0.268 C 
ATOM     15  C   UNL A   1      33.636  24.612  25.826  1.00  0.00     0.263 C 
ATOM     16  H   UNL A   1      33.755  25.208  23.463  1.00  0.00     0.348 HD
ENDBRANCH   8   9
ENDBRANCH   7   8
ENDBRANCH   4   7
ENDBRANCH   2   3
ENDBRANCH   1   2
BRANCH   1  17
ATOM     17  C   UNL A   1      32.786  30.038  25.984  1.00  0.00     0.118 C 
BRANCH  17  18
ATOM     18  N   UNL A   1      32.636  31.339  26.674  1.00  0.00    -0.352 N 
ATOM     19  C   UNL A   1      33.485  32.080  27.436  1.00  0.00     0.251 C 
ATOM     20  H   UNL A   1      31.748  31.748  26.559  1.00  0.00     0.163 HD
ATOM     21  O   UNL A   1      33.154  33.201  27.807  1.00  0.00    -0.269 OA
BRANCH  19  22
ATOM     22  C   UNL A   1      34.728  31.477  27.900  1.00  0.00     0.039 A 
ATOM     23  C   UNL A   1      35.820  32.335  28.053  1.00  0.00     0.014 A 
ATOM     24  C   UNL A   1      34.789  30.134  28.264  1.00  0.00     0.014 A 
ATOM     25  C   UNL A   1      36.971  31.854  28.651  1.00  0.00     0.010 A 
ATOM     26  C   UNL A   1      35.912  29.675  28.926  1.00  0.00     0.010 A 
ATOM     27  C   UNL A   1      37.002  30.537  29.128  1.00  0.00    -0.014 A 
BRANCH  27  28
ATOM     28  C   UNL A   1      38.176  30.053  29.871  1.00  0.00     0.031 A 
ATOM     29  C   UNL A   1      38.403  30.525  31.271  1.00  0.00     0.074 A 
ATOM     30  C   UNL A   1      39.047  29.244  29.241  1.00  0.00     0.049 A 
ATOM     31  N   UNL A   1      39.380  30.232  32.084  1.00  0.00    -0.248 NA
ATOM     32  C   UNL A   1      37.418  31.472  31.824  1.00  0.00     0.031 C 
ATOM     33  C   UNL A   1      38.928  28.795  27.849  1.00  0.00     0.029 A 
ATOM     34  N   UNL A   1      40.207  28.668  29.677  1.00  0.00    -0.354 N 
ATOM     35  C   UNL A   1      39.150  30.983  33.229  1.00  0.00     0.074 A 
ATOM     36  C   UNL A   1      37.961  31.771  32.994  1.00  0.00     0.031 C 
ATOM     37  C   UNL A   1      39.968  28.000  27.553  1.00  0.00     0.029 A 
ATOM     38  C   UNL A   1      40.840  27.913  28.718  1.00  0.00     0.049 A 
ATOM     39  H   UNL A   1      40.556  28.782  30.590  1.00  0.00     0.167 HD
ATOM     40  C   UNL A   1      39.859  30.989  34.380  1.00  0.00     0.034 A 
ATOM     41  C   UNL A   1      42.000  27.235  28.780  1.00  0.00     0.034 A 
ATOM     42  C   UNL A   1      41.023  30.174  34.591  1.00  0.00     0.049 A 
ATOM     43  C   UNL A   1      42.752  27.240  30.082  1.00  0.00     0.074 A 
ATOM     44  C   UNL A   1      41.780  30.035  35.738  1.00  0.00     0.029 A 
ATOM     45  N   UNL A   1      41.607  29.372  33.621  1.00  0.00    -0.354 N 
ATOM     46  N   UNL A   1      42.442  27.834  31.210  1.00  0.00    -0.248 NA
ATOM     47  C   UNL A   1      43.993  26.459  30.132  1.00  0.00     0.031 C 
ATOM     48  C   UNL A   1      42.845  29.175  35.450  1.00  0.00     0.029 A 
ATOM     49  C   UNL A   1      42.727  28.745  34.136  1.00  0.00     0.049 A 
ATOM     50  H   UNL A   1      41.273  29.263  32.701  1.00  0.00     0.167 HD
ATOM     51  C   UNL A   1      43.428  27.470  32.116  1.00  0.00     0.074 A 
ATOM     52  C   UNL A   1      44.335  26.587  31.408  1.00  0.00     0.031 C 
ATOM     53  C   UNL A   1      43.582  27.837  33.413  1.00  0.00     0.034 A 
BRANCH  40  54
ATOM     54  C   UNL A   1      39.375  31.882  35.490  1.00  0.00     0.023 A 
ATOM     55  C   UNL A   1      38.441  31.395  36.429  1.00  0.00     0.012 A 
ATOM     56  C   UNL A   1      39.860  33.198  35.619  1.00  0.00     0.148 A 
ATOM     57  C   UNL A   1      37.966  32.216  37.452  1.00  0.00     0.002 A 
ATOM     58  C   UNL A   1      39.420  33.993  36.670  1.00  0.00     0.091 A 
ATOM     59  F   UNL A   1      40.725  33.653  34.701  1.00  0.00    -0.205 F 
ATOM     60  C   UNL A   1      38.463  33.510  37.578  1.00  0.00     0.022 A 
BRANCH  58  61
ATOM     61  S   UNL A   1      40.057  35.645  36.966  1.00  0.00     0.127 S 
ATOM     62  O   UNL A   1      39.580  36.363  35.785  1.00  0.00    -0.237 OA
ATOM     63  O   UNL A   1      39.387  36.012  38.215  1.00  0.00    -0.237 OA
ATOM     64  O   UNL A   1      41.503  35.506  37.070  1.00  0.00    -0.744 OA
ENDBRANCH  58  61
ENDBRANCH  40  54
BRANCH  41  65
ATOM     65  C   UNL A   1      42.474  26.449  27.606  1.00  0.00     0.023 A 
ATOM     66  C   UNL A   1      43.323  27.060  26.663  1.00  0.00     0.012 A 
ATOM     67  C   UNL A   1      42.123  25.097  27.438  1.00  0.00     0.148 A 
ATOM     68  C   UNL A   1      43.782  26.349  25.553  1.00  0.00     0.002 A 
ATOM     69  C   UNL A   1      42.628  24.378  26.360  1.00  0.00     0.091 A 
ATOM     70  F   UNL A   1      41.312  24.532  28.346  1.00  0.00    -0.205 F 
ATOM     71  C   UNL A   1      43.443  25.008  25.406  1.00  0.00     0.022 A 
BRANCH  69  72
ATOM     72  S   UNL A   1      42.349  22.615  26.158  1.00  0.00     0.127 S 
ATOM     73  O   UNL A   1      40.891  22.539  26.183  1.00  0.00    -0.237 OA
ATOM     74  O   UNL A   1      42.958  22.362  24.852  1.00  0.00    -0.237 OA
ATOM     75  O   UNL A   1      43.035  21.976  27.273  1.00  0.00    -0.744 OA
ENDBRANCH  69  72
ENDBRANCH  41  65
BRANCH  53  76
ATOM     76  C   UNL A   1      44.751  27.255  34.161  1.00  0.00     0.023 A 
ATOM     77  C   UNL A   1      45.990  27.926  34.164  1.00  0.00     0.012 A 
ATOM     78  C   UNL A   1      44.591  26.084  34.926  1.00  0.00     0.148 A 
ATOM     79  C   UNL A   1      47.064  27.419  34.894  1.00  0.00     0.002 A 
ATOM     80  C   UNL A   1      45.648  25.617  35.695  1.00  0.00     0.091 A 
ATOM     81  F   UNL A   1      43.407  25.455  34.893  1.00  0.00    -0.205 F 
ATOM     82  C   UNL A   1      46.888  26.275  35.669  1.00  0.00     0.022 A 
BRANCH  80  83
ATOM     83  S   UNL A   1      45.484  24.216  36.806  1.00  0.00     0.127 S 
ATOM     84  O   UNL A   1      44.454  24.688  37.729  1.00  0.00    -0.237 OA
ATOM     85  O   UNL A   1      45.052  23.153  35.898  1.00  0.00    -0.237 OA
ATOM     86  O   UNL A   1      46.801  24.012  37.395  1.00  0.00    -0.744 OA
ENDBRANCH  80  83
ENDBRANCH  53  76
ENDBRANCH  27  28
ENDBRANCH  19  22
ENDBRANCH  17  18
ENDBRANCH   1  17
TORSDOF 15
ENDMDL
MODEL 2
REMARK VINA RESULT:     -12.7      1.458      3.031
REMARK SMILES CC1(C)CC[N@H+](CCC(=O)NCCCNC(=O)c2ccc(-c3c4nc(c(-c5cccc(S(=O)(=O)[O-])c5F)c5ccc([nH]5)c(-c5cccc(S(=O)(=O)[O-])c5F)c5nc(c(-c6cccc(S(=O)(=O)[O-])c6F)c6ccc3[nH]6)C=C5)C=C4)cc2)C1
REMARK SMILES IDX 13 1 12 2 11 3 9 4 10 5 8 7 7 8 6 9 1 10 2 11 3 12 4 13
REMARK SMILES IDX 81 14 5 15 14 17 15 18 16 19 17 21 18 22 19 23 80 24 20 25
REMARK SMILES IDX 79 26 21 27 22 28 23 29 73 30 24 31 78 32 72 33 74 34 25 35
REMARK SMILES IDX 77 36 71 37 70 38 26 40 58 41 38 42 57 43 39 44 42 45 56 46
REMARK SMILES IDX 75 47 40 48 41 49 55 51 76 52 43 53 27 54 28 55 36 56 29 57
REMARK SMILES IDX 31 58 37 59 30 60 32 61 33 62 34 63 35 64 59 65 60 66 68 67
REMARK SMILES IDX 61 68 63 69 69 70 62 71 64 72 65 73 66 74 67 75 44 76 45 77
REMARK SMILES IDX 53 78 46 79 48 80 54 81 47 82 49 83 50 84 51 85 52 86
REMARK H PARENT 11 6 6 16 15 20 74 39 42 50
REMARK Flexibility Score: inf
ROOT
ATOM      1  C   UNL A   1      32.932  29.699  24.855  1.00  0.00     0.042 C 
ENDROOT
BRANCH   1   2
ATOM      2  C   UNL A   1      33.838  27.971  23.860  1.00  0.00     0.117 C 
BRANCH   2   3
ATOM      3  N   UNL A   1      33.270  26.895  22.877  1.00  0.00    -0.356 N 
ATOM      4  C   UNL A   1      32.361  25.929  23.206  1.00  0.00     0.225 C 
ATOM      5  O   UNL A   1      31.957  25.140  22.357  1.00  0.00    -0.275 OA
ATOM      6  H   UNL A   1      33.595  26.914  21.948  1.00  0.00     0.163 HD
BRANCH   4   7
ATOM      7  C   UNL A   1      31.858  25.955  24.622  1.00  0.00     0.161 C 
BRANCH   7   8
ATOM      8  C   UNL A   1      30.621  26.831  24.830  1.00  0.00     0.272 C 
BRANCH   8   9
ATOM      9  N   UNL A   1      29.760  27.217  23.707  1.00  0.00    -0.334 N 
ATOM     10  C   UNL A   1      28.028  30.351  21.278  1.00  0.00     0.017 C 
ATOM     11  C   UNL A   1      28.073  29.794  22.791  1.00  0.00     0.019 C 
ATOM     12  C   UNL A   1      27.853  31.200  23.502  1.00  0.00     0.017 C 
ATOM     13  C   UNL A   1      26.777  28.351  23.465  1.00  0.00     0.073 C 
ATOM     14  C   UNL A   1      29.915  29.012  23.059  1.00  0.00     0.268 C 
ATOM     15  C   UNL A   1      27.908  26.713  23.884  1.00  0.00     0.263 C 
ATOM     16  H   UNL A   1      30.170  26.636  22.976  1.00  0.00     0.348 HD
ENDBRANCH   8   9
ENDBRANCH   7   8
ENDBRANCH   4   7
ENDBRANCH   2   3
ENDBRANCH   1   2
BRANCH   1  17
ATOM     17  C   UNL A   1      32.453  30.089  26.491  1.00  0.00     0.118 C 
BRANCH  17  18
ATOM     18  N   UNL A   1      32.459  31.495  26.953  1.00  0.00    -0.352 N 
ATOM     19  C   UNL A   1      33.426  32.279  27.502  1.00  0.00     0.251 C 
ATOM     20  H   UNL A   1      31.594  31.952  26.842  1.00  0.00     0.163 HD
ATOM     21  O   UNL A   1      33.210  33.471  27.697  1.00  0.00    -0.269 OA
BRANCH  19  22
ATOM     22  C   UNL A   1      34.663  31.660  27.960  1.00  0.00     0.039 A 
ATOM     23  C   UNL A   1      35.753  32.512  28.155  1.00  0.00     0.014 A 
ATOM     24  C   UNL A   1      34.719  30.306  28.281  1.00  0.00     0.014 A 
ATOM     25  C   UNL A   1      36.897  32.010  28.750  1.00  0.00     0.010 A 
ATOM     26  C   UNL A   1      35.834  29.824  28.941  1.00  0.00     0.010 A 
ATOM     27  C   UNL A   1      36.922  30.678  29.184  1.00  0.00    -0.014 A 
BRANCH  27  28
ATOM     28  C   UNL A   1      38.087  30.169  29.924  1.00  0.00     0.031 A 
ATOM     29  C   UNL A   1      38.332  30.643  31.321  1.00  0.00     0.074 A 
ATOM     30  C   UNL A   1      38.933  29.334  29.295  1.00  0.00     0.049 A 
ATOM     31  N   UNL A   1      39.306  30.331  32.131  1.00  0.00    -0.248 NA
ATOM     32  C   UNL A   1      37.375  31.619  31.872  1.00  0.00     0.031 C 
ATOM     33  C   UNL A   1      38.796  28.880  27.907  1.00  0.00     0.029 A 
ATOM     34  N   UNL A   1      40.081  28.731  29.729  1.00  0.00    -0.354 N 
ATOM     35  C   UNL A   1      39.100  31.094  33.271  1.00  0.00     0.074 A 
ATOM     36  C   UNL A   1      37.930  31.911  33.038  1.00  0.00     0.031 C 
ATOM     37  C   UNL A   1      39.815  28.056  27.611  1.00  0.00     0.029 A 
ATOM     38  C   UNL A   1      40.689  27.954  28.773  1.00  0.00     0.049 A 
ATOM     39  H   UNL A   1      40.437  28.842  30.640  1.00  0.00     0.167 HD
ATOM     40  C   UNL A   1      39.814  31.089  34.419  1.00  0.00     0.034 A 
ATOM     41  C   UNL A   1      41.832  27.247  28.833  1.00  0.00     0.034 A 
ATOM     42  C   UNL A   1      40.958  30.247  34.630  1.00  0.00     0.049 A 
ATOM     43  C   UNL A   1      42.590  27.241  30.131  1.00  0.00     0.074 A 
ATOM     44  C   UNL A   1      41.717  30.095  35.774  1.00  0.00     0.029 A 
ATOM     45  N   UNL A   1      41.517  29.423  33.663  1.00  0.00    -0.354 N 
ATOM     46  N   UNL A   1      42.301  27.850  31.258  1.00  0.00    -0.248 NA
ATOM     47  C   UNL A   1      43.812  26.429  30.181  1.00  0.00     0.031 C 
ATOM     48  C   UNL A   1      42.758  29.206  35.487  1.00  0.00     0.029 A 
ATOM     49  C   UNL A   1      42.623  28.772  34.176  1.00  0.00     0.049 A 
ATOM     50  H   UNL A   1      41.176  29.317  32.745  1.00  0.00     0.167 HD
ATOM     51  C   UNL A   1      43.282  27.466  32.162  1.00  0.00     0.074 A 
ATOM     52  C   UNL A   1      44.162  26.556  31.454  1.00  0.00     0.031 C 
ATOM     53  C   UNL A   1      43.452  27.838  33.455  1.00  0.00     0.034 A 
BRANCH  40  54
ATOM     54  C   UNL A   1      39.359  32.002  35.526  1.00  0.00     0.023 A 
ATOM     55  C   UNL A   1      38.463  31.525  36.507  1.00  0.00     0.012 A 
ATOM     56  C   UNL A   1      39.833  33.325  35.610  1.00  0.00     0.148 A 
ATOM     57  C   UNL A   1      38.014  32.364  37.528  1.00  0.00     0.002 A 
ATOM     58  C   UNL A   1      39.421  34.138  36.658  1.00  0.00     0.091 A 
ATOM     59  F   UNL A   1      40.662  33.768  34.654  1.00  0.00    -0.205 F 
ATOM     60  C   UNL A   1      38.501  33.665  37.609  1.00  0.00     0.022 A 
BRANCH  58  61
ATOM     61  S   UNL A   1      40.050  35.803  36.897  1.00  0.00     0.127 S 
ATOM     62  O   UNL A   1      39.653  36.451  35.648  1.00  0.00    -0.237 OA
ATOM     63  O   UNL A   1      39.305  36.244  38.077  1.00  0.00    -0.237 OA
ATOM     64  O   UNL A   1      41.485  35.665  37.101  1.00  0.00    -0.744 OA
ENDBRANCH  58  61
ENDBRANCH  40  54
BRANCH  41  65
ATOM     65  C   UNL A   1      42.281  26.443  27.663  1.00  0.00     0.023 A 
ATOM     66  C   UNL A   1      43.119  27.034  26.698  1.00  0.00     0.012 A 
ATOM     67  C   UNL A   1      41.915  25.091  27.518  1.00  0.00     0.148 A 
ATOM     68  C   UNL A   1      43.554  26.305  25.590  1.00  0.00     0.002 A 
ATOM     69  C   UNL A   1      42.397  24.354  26.441  1.00  0.00     0.091 A 
ATOM     70  F   UNL A   1      41.115  24.546  28.445  1.00  0.00    -0.205 F 
ATOM     71  C   UNL A   1      43.201  24.965  25.466  1.00  0.00     0.022 A 
BRANCH  69  72
ATOM     72  S   UNL A   1      42.099  22.591  26.266  1.00  0.00     0.127 S 
ATOM     73  O   UNL A   1      42.717  22.063  27.480  1.00  0.00    -0.237 OA
ATOM     74  O   UNL A   1      40.637  22.535  26.243  1.00  0.00    -0.237 OA
ATOM     75  O   UNL A   1      42.735  22.206  25.014  1.00  0.00    -0.744 OA
ENDBRANCH  69  72
ENDBRANCH  41  65
BRANCH  53  76
ATOM     76  C   UNL A   1      44.608  27.230  34.201  1.00  0.00     0.023 A 
ATOM     77  C   UNL A   1      45.877  27.841  34.151  1.00  0.00     0.012 A 
ATOM     78  C   UNL A   1      44.412  26.100  35.017  1.00  0.00     0.148 A 
ATOM     79  C   UNL A   1      46.943  27.313  34.878  1.00  0.00     0.002 A 
ATOM     80  C   UNL A   1      45.463  25.613  35.782  1.00  0.00     0.091 A 
ATOM     81  F   UNL A   1      43.199  25.527  35.034  1.00  0.00    -0.205 F 
ATOM     82  C   UNL A   1      46.732  26.210  35.703  1.00  0.00     0.022 A 
BRANCH  80  83
ATOM     83  S   UNL A   1      45.259  24.267  36.951  1.00  0.00     0.127 S 
ATOM     84  O   UNL A   1      46.583  24.206  37.568  1.00  0.00    -0.237 OA
ATOM     85  O   UNL A   1      44.200  24.774  37.824  1.00  0.00    -0.237 OA
ATOM     86  O   UNL A   1      44.887  23.099  36.162  1.00  0.00    -0.744 OA
ENDBRANCH  80  83
ENDBRANCH  53  76
ENDBRANCH  27  28
ENDBRANCH  19  22
ENDBRANCH  17  18
ENDBRANCH   1  17
TORSDOF 15
ENDMDL
MODEL 3
REMARK VINA RESULT:     -12.5      3.394      6.194
REMARK SMILES CC1(C)CC[N@H+](CCC(=O)NCCCNC(=O)c2ccc(-c3c4nc(c(-c5cccc(S(=O)(=O)[O-])c5F)c5ccc([nH]5)c(-c5cccc(S(=O)(=O)[O-])c5F)c5nc(c(-c6cccc(S(=O)(=O)[O-])c6F)c6ccc3[nH]6)C=C5)C=C4)cc2)C1
REMARK SMILES IDX 13 1 12 2 11 3 9 4 10 5 8 7 7 8 6 9 1 10 2 11 3 12 4 13
REMARK SMILES IDX 81 14 5 15 14 17 15 18 16 19 17 21 18 22 19 23 80 24 20 25
REMARK SMILES IDX 79 26 21 27 22 28 23 29 73 30 24 31 78 32 72 33 74 34 25 35
REMARK SMILES IDX 77 36 71 37 70 38 26 40 58 41 38 42 57 43 39 44 42 45 56 46
REMARK SMILES IDX 75 47 40 48 41 49 55 51 76 52 43 53 27 54 28 55 36 56 29 57
REMARK SMILES IDX 31 58 37 59 30 60 32 61 33 62 34 63 35 64 59 65 60 66 68 67
REMARK SMILES IDX 61 68 63 69 69 70 62 71 64 72 65 73 66 74 67 75 44 76 45 77
REMARK SMILES IDX 53 78 46 79 48 80 54 81 47 82 49 83 50 84 51 85 52 86
REMARK H PARENT 11 6 6 16 15 20 74 39 42 50
REMARK Flexibility Score: inf
ROOT
ATOM      1  C   UNL A   1      33.427  34.383  28.493  1.00  0.00     0.042 C 
ENDROOT
BRANCH   1   2
ATOM      2  C   UNL A   1      33.628  36.530  28.871  1.00  0.00     0.117 C 
BRANCH   2   3
ATOM      3  N   UNL A   1      33.148  37.451  30.041  1.00  0.00    -0.356 N 
ATOM      4  C   UNL A   1      33.315  37.186  31.372  1.00  0.00     0.225 C 
ATOM      5  O   UNL A   1      32.922  37.984  32.218  1.00  0.00    -0.275 OA
ATOM      6  H   UNL A   1      32.688  38.287  29.799  1.00  0.00     0.163 HD
BRANCH   4   7
ATOM      7  C   UNL A   1      34.057  35.922  31.702  1.00  0.00     0.161 C 
BRANCH   7   8
ATOM      8  C   UNL A   1      33.466  35.140  32.876  1.00  0.00     0.272 C 
BRANCH   8   9
ATOM      9  N   UNL A   1      34.149  33.968  33.435  1.00  0.00    -0.334 N 
ATOM     10  C   UNL A   1      37.567  32.319  35.514  1.00  0.00     0.017 C 
ATOM     11  C   UNL A   1      37.157  33.104  34.165  1.00  0.00     0.019 C 
ATOM     12  C   UNL A   1      38.535  33.879  33.987  1.00  0.00     0.017 C 
ATOM     13  C   UNL A   1      36.572  32.118  32.461  1.00  0.00     0.073 C 
ATOM     14  C   UNL A   1      35.596  34.292  34.646  1.00  0.00     0.268 C 
ATOM     15  C   UNL A   1      34.622  32.608  32.155  1.00  0.00     0.263 C 
ATOM     16  H   UNL A   1      33.397  33.599  34.016  1.00  0.00     0.348 HD
ENDBRANCH   8   9
ENDBRANCH   7   8
ENDBRANCH   4   7
ENDBRANCH   2   3
ENDBRANCH   1   2
BRANCH   1  17
ATOM     17  C   UNL A   1      34.529  33.034  28.325  1.00  0.00     0.118 C 
BRANCH  17  18
ATOM     18  N   UNL A   1      34.103  31.809  27.614  1.00  0.00    -0.352 N 
ATOM     19  C   UNL A   1      34.581  30.535  27.607  1.00  0.00     0.251 C 
ATOM     20  H   UNL A   1      33.319  31.941  27.032  1.00  0.00     0.163 HD
ATOM     21  O   UNL A   1      33.970  29.655  27.010  1.00  0.00    -0.269 OA
BRANCH  19  22
ATOM     22  C   UNL A   1      35.879  30.264  28.211  1.00  0.00     0.039 A 
ATOM     23  C   UNL A   1      35.868  29.698  29.488  1.00  0.00     0.014 A 
ATOM     24  C   UNL A   1      37.062  30.469  27.505  1.00  0.00     0.014 A 
ATOM     25  C   UNL A   1      37.060  29.262  30.038  1.00  0.00     0.010 A 
ATOM     26  C   UNL A   1      38.241  29.966  28.025  1.00  0.00     0.010 A 
ATOM     27  C   UNL A   1      38.241  29.355  29.289  1.00  0.00    -0.014 A 
BRANCH  27  28
ATOM     28  C   UNL A   1      39.491  28.786  29.816  1.00  0.00     0.031 A 
ATOM     29  C   UNL A   1      40.114  29.387  31.034  1.00  0.00     0.074 A 
ATOM     30  C   UNL A   1      40.068  27.773  29.144  1.00  0.00     0.049 A 
ATOM     31  N   UNL A   1      41.216  29.045  31.641  1.00  0.00    -0.248 NA
ATOM     32  C   UNL A   1      39.425  30.544  31.634  1.00  0.00     0.031 C 
ATOM     33  C   UNL A   1      39.553  27.177  27.907  1.00  0.00     0.029 A 
ATOM     34  N   UNL A   1      41.217  27.076  29.394  1.00  0.00    -0.354 N 
ATOM     35  C   UNL A   1      41.373  29.962  32.672  1.00  0.00     0.074 A 
ATOM     36  C   UNL A   1      40.273  30.896  32.587  1.00  0.00     0.031 C 
ATOM     37  C   UNL A   1      40.378  26.193  27.516  1.00  0.00     0.029 A 
ATOM     38  C   UNL A   1      41.492  26.114  28.452  1.00  0.00     0.049 A 
ATOM     39  H   UNL A   1      41.793  27.247  30.175  1.00  0.00     0.167 HD
ATOM     40  C   UNL A   1      42.339  29.998  33.617  1.00  0.00     0.034 A 
ATOM     41  C   UNL A   1      42.535  25.270  28.359  1.00  0.00     0.034 A 
ATOM     42  C   UNL A   1      43.406  29.039  33.688  1.00  0.00     0.049 A 
ATOM     43  C   UNL A   1      43.580  25.317  29.439  1.00  0.00     0.074 A 
ATOM     44  C   UNL A   1      44.398  28.925  34.642  1.00  0.00     0.029 A 
ATOM     45  N   UNL A   1      43.626  28.036  32.754  1.00  0.00    -0.354 N 
ATOM     46  N   UNL A   1      43.637  26.092  30.498  1.00  0.00    -0.248 NA
ATOM     47  C   UNL A   1      44.686  24.358  29.334  1.00  0.00     0.031 C 
ATOM     48  C   UNL A   1      45.241  27.874  34.264  1.00  0.00     0.029 A 
ATOM     49  C   UNL A   1      44.749  27.307  33.098  1.00  0.00     0.049 A 
ATOM     50  H   UNL A   1      43.063  27.868  31.963  1.00  0.00     0.167 HD
ATOM     51  C   UNL A   1      44.761  25.690  31.205  1.00  0.00     0.074 A 
ATOM     52  C   UNL A   1      45.345  24.589  30.462  1.00  0.00     0.031 C 
ATOM     53  C   UNL A   1      45.276  26.188  32.356  1.00  0.00     0.034 A 
BRANCH  40  54
ATOM     54  C   UNL A   1      42.262  31.091  34.649  1.00  0.00     0.023 A 
ATOM     55  C   UNL A   1      41.540  30.882  35.843  1.00  0.00     0.012 A 
ATOM     56  C   UNL A   1      42.923  32.319  34.448  1.00  0.00     0.148 A 
ATOM     57  C   UNL A   1      41.440  31.892  36.800  1.00  0.00     0.002 A 
ATOM     58  C   UNL A   1      42.861  33.300  35.428  1.00  0.00     0.091 A 
ATOM     59  F   UNL A   1      43.581  32.509  33.296  1.00  0.00    -0.205 F 
ATOM     60  C   UNL A   1      42.109  33.096  36.597  1.00  0.00     0.022 A 
BRANCH  58  61
ATOM     61  S   UNL A   1      43.751  34.855  35.300  1.00  0.00     0.127 S 
ATOM     62  O   UNL A   1      43.195  35.413  34.069  1.00  0.00    -0.237 OA
ATOM     63  O   UNL A   1      43.340  35.545  36.523  1.00  0.00    -0.237 OA
ATOM     64  O   UNL A   1      45.164  34.505  35.244  1.00  0.00    -0.744 OA
ENDBRANCH  58  61
ENDBRANCH  40  54
BRANCH  41  65
ATOM     65  C   UNL A   1      42.602  24.276  27.252  1.00  0.00     0.023 A 
ATOM     66  C   UNL A   1      43.281  24.608  26.064  1.00  0.00     0.012 A 
ATOM     67  C   UNL A   1      42.031  22.995  27.379  1.00  0.00     0.148 A 
ATOM     68  C   UNL A   1      43.359  23.698  25.009  1.00  0.00     0.002 A 
ATOM     69  C   UNL A   1      42.159  22.073  26.346  1.00  0.00     0.091 A 
ATOM     70  F   UNL A   1      41.386  22.697  28.517  1.00  0.00    -0.205 F 
ATOM     71  C   UNL A   1      42.806  22.429  25.153  1.00  0.00     0.022 A 
BRANCH  69  72
ATOM     72  S   UNL A   1      41.590  20.375  26.491  1.00  0.00     0.127 S 
ATOM     73  O   UNL A   1      42.157  19.767  25.290  1.00  0.00    -0.237 OA
ATOM     74  O   UNL A   1      42.213  19.957  27.748  1.00  0.00    -0.237 OA
ATOM     75  O   UNL A   1      40.136  20.448  26.537  1.00  0.00    -0.744 OA
ENDBRANCH  69  72
ENDBRANCH  41  65
BRANCH  53  76
ATOM     76  C   UNL A   1      46.509  25.523  32.905  1.00  0.00     0.023 A 
ATOM     77  C   UNL A   1      47.785  26.025  32.579  1.00  0.00     0.012 A 
ATOM     78  C   UNL A   1      46.394  24.451  33.810  1.00  0.00     0.148 A 
ATOM     79  C   UNL A   1      48.931  25.446  33.122  1.00  0.00     0.002 A 
ATOM     80  C   UNL A   1      47.536  23.916  34.390  1.00  0.00     0.091 A 
ATOM     81  F   UNL A   1      45.170  23.981  34.092  1.00  0.00    -0.205 F 
ATOM     82  C   UNL A   1      48.805  24.403  34.037  1.00  0.00     0.022 A 
BRANCH  80  83
ATOM     83  S   UNL A   1      47.468  22.646  35.657  1.00  0.00     0.127 S 
ATOM     84  O   UNL A   1      48.869  22.242  35.749  1.00  0.00    -0.237 OA
ATOM     85  O   UNL A   1      46.968  23.390  36.813  1.00  0.00    -0.237 OA
ATOM     86  O   UNL A   1      46.558  21.624  35.155  1.00  0.00    -0.744 OA
ENDBRANCH  80  83
ENDBRANCH  53  76
ENDBRANCH  27  28
ENDBRANCH  19  22
ENDBRANCH  17  18
ENDBRANCH   1  17
TORSDOF 15
ENDMDL
