MODEL 1
REMARK VINA RESULT:     -12.4      0.000      0.000
REMARK SMILES COc1ccccc1CCNC(=O)[C@@H]1[C@@H](C(=O)NCCCNC(=O)c2ccc(-c3c4nc(c(-c5cccc(S(=O)(=O)[O-])c5F)c5ccc([nH]5)c(-c5cccc(S(=O)(=O)[O-])c5F)c5nc(c(-c6cccc(S(=O)(=O)[O-])c6F)c6ccc3[nH]6)C=C5)C=C4)cc2)[C@H]2C=C[C@@H]1CC2
REMARK SMILES IDX 19 1 18 2 16 3 17 4 15 6 14 7 91 8 88 9 90 10 92 11 89 12
REMARK SMILES IDX 93 13 12 14 11 15 13 17 10 18 9 19 8 20 3 21 4 22 5 23 7 24
REMARK SMILES IDX 6 25 2 26 1 27 20 28 21 29 22 30 23 31 24 33 25 34 26 35
REMARK SMILES IDX 87 36 27 37 86 38 28 39 29 40 30 41 80 42 31 43 85 44 79 45
REMARK SMILES IDX 81 46 32 47 84 48 78 49 77 50 33 52 65 53 45 54 64 55 46 56
REMARK SMILES IDX 49 57 63 58 82 59 47 60 48 61 62 63 83 64 50 65 34 66 35 67
REMARK SMILES IDX 43 68 36 69 38 70 44 71 37 72 39 73 40 74 41 75 42 76 66 77
REMARK SMILES IDX 67 78 75 79 68 80 70 81 76 82 69 83 71 84 72 85 73 86 74 87
REMARK SMILES IDX 51 88 52 89 60 90 53 91 55 92 61 93 54 94 56 95 57 96 58 97
REMARK SMILES IDX 59 98
REMARK H PARENT 18 5 11 16 22 32 81 51 49 62
REMARK Flexibility Score: inf
ROOT
ATOM      1  C   UNL A   1      34.779  22.033  24.206  1.00  0.00     0.117 C 
ENDROOT
BRANCH   1   2
ATOM      2  N   UNL A   1      33.874  21.018  24.707  1.00  0.00    -0.356 N 
ATOM      3  C   UNL A   1      32.547  20.952  24.948  1.00  0.00     0.224 C 
ATOM      4  O   UNL A   1      32.144  19.798  25.156  1.00  0.00    -0.275 OA
ATOM      5  H   UNL A   1      34.336  20.176  24.922  1.00  0.00     0.163 HD
BRANCH   3   6
ATOM      6  C   UNL A   1      31.584  22.152  25.122  1.00  0.00     0.098 C 
ATOM      7  C   UNL A   1      32.206  23.400  24.376  1.00  0.00     0.098 C 
ATOM      8  C   UNL A   1      32.471  24.527  25.439  1.00  0.00     0.025 C 
ATOM      9  C   UNL A   1      31.221  22.571  26.569  1.00  0.00     0.025 C 
ATOM     10  C   UNL A   1      33.201  23.918  26.627  1.00  0.00    -0.027 C 
ATOM     11  C   UNL A   1      31.122  25.028  26.015  1.00  0.00     0.009 C 
ATOM     12  C   UNL A   1      32.520  22.946  27.254  1.00  0.00    -0.027 C 
ATOM     13  C   UNL A   1      30.319  23.825  26.530  1.00  0.00     0.009 C 
BRANCH   7  14
ATOM     14  C   UNL A   1      31.437  24.010  23.188  1.00  0.00     0.224 C 
ATOM     15  N   UNL A   1      31.973  24.857  22.279  1.00  0.00    -0.355 N 
ATOM     16  H   UNL A   1      31.314  25.215  21.642  1.00  0.00     0.163 HD
ATOM     17  O   UNL A   1      30.219  23.826  23.064  1.00  0.00    -0.275 OA
BRANCH  15  18
ATOM     18  C   UNL A   1      33.320  25.346  22.048  1.00  0.00     0.120 C 
BRANCH  18  19
ATOM     19  C   UNL A   1      33.367  26.876  22.020  1.00  0.00     0.060 C 
BRANCH  19  20
ATOM     20  C   UNL A   1      32.928  27.497  23.324  1.00  0.00    -0.004 A 
ATOM     21  C   UNL A   1      31.601  27.880  23.563  1.00  0.00     0.122 A 
ATOM     22  C   UNL A   1      31.248  28.521  24.752  1.00  0.00     0.047 A 
ATOM     23  C   UNL A   1      32.214  28.768  25.727  1.00  0.00     0.004 A 
ATOM     24  C   UNL A   1      33.889  27.749  24.319  1.00  0.00     0.007 A 
ATOM     25  C   UNL A   1      33.535  28.382  25.510  1.00  0.00     0.001 A 
BRANCH  21  26
ATOM     26  O   UNL A   1      30.626  27.751  22.609  1.00  0.00    -0.496 OA
ATOM     27  C   UNL A   1      29.315  27.966  23.137  1.00  0.00     0.278 C 
ENDBRANCH  21  26
ENDBRANCH  19  20
ENDBRANCH  18  19
ENDBRANCH  15  18
ENDBRANCH   7  14
ENDBRANCH   3   6
ENDBRANCH   1   2
BRANCH   1  28
ATOM     28  C   UNL A   1      35.901  22.345  25.178  1.00  0.00     0.042 C 
BRANCH  28  29
ATOM     29  C   UNL A   1      37.280  22.021  24.622  1.00  0.00     0.118 C 
BRANCH  29  30
ATOM     30  N   UNL A   1      37.967  21.008  25.418  1.00  0.00    -0.352 N 
ATOM     31  C   UNL A   1      39.134  21.078  26.137  1.00  0.00     0.251 C 
ATOM     32  H   UNL A   1      37.520  20.131  25.443  1.00  0.00     0.163 HD
ATOM     33  O   UNL A   1      39.697  20.040  26.473  1.00  0.00    -0.269 OA
BRANCH  31  34
ATOM     34  C   UNL A   1      39.704  22.388  26.514  1.00  0.00     0.039 A 
ATOM     35  C   UNL A   1      40.836  22.436  27.332  1.00  0.00     0.014 A 
ATOM     36  C   UNL A   1      39.090  23.573  26.106  1.00  0.00     0.014 A 
ATOM     37  C   UNL A   1      41.373  23.673  27.699  1.00  0.00     0.010 A 
ATOM     38  C   UNL A   1      39.688  24.796  26.375  1.00  0.00     0.010 A 
ATOM     39  C   UNL A   1      40.816  24.862  27.202  1.00  0.00    -0.014 A 
BRANCH  39  40
ATOM     40  C   UNL A   1      41.368  26.193  27.557  1.00  0.00     0.031 A 
ATOM     41  C   UNL A   1      42.777  26.552  27.163  1.00  0.00     0.074 A 
ATOM     42  C   UNL A   1      40.637  27.034  28.314  1.00  0.00     0.049 A 
ATOM     43  N   UNL A   1      43.462  27.631  27.440  1.00  0.00    -0.248 NA
ATOM     44  C   UNL A   1      43.533  25.550  26.391  1.00  0.00     0.031 C 
ATOM     45  C   UNL A   1      39.299  26.755  28.841  1.00  0.00     0.029 A 
ATOM     46  N   UNL A   1      40.928  28.285  28.795  1.00  0.00    -0.354 N 
ATOM     47  C   UNL A   1      44.734  27.417  26.922  1.00  0.00     0.074 A 
ATOM     48  C   UNL A   1      44.743  26.088  26.353  1.00  0.00     0.031 C 
ATOM     49  C   UNL A   1      38.880  27.809  29.559  1.00  0.00     0.029 A 
ATOM     50  C   UNL A   1      39.925  28.826  29.566  1.00  0.00     0.049 A 
ATOM     51  H   UNL A   1      41.773  28.752  28.606  1.00  0.00     0.167 HD
ATOM     52  C   UNL A   1      45.790  28.264  26.885  1.00  0.00     0.034 A 
ATOM     53  C   UNL A   1      39.859  30.010  30.203  1.00  0.00     0.034 A 
ATOM     54  C   UNL A   1      45.749  29.610  27.389  1.00  0.00     0.049 A 
ATOM     55  C   UNL A   1      41.012  30.968  30.073  1.00  0.00     0.074 A 
ATOM     56  C   UNL A   1      46.721  30.589  27.308  1.00  0.00     0.029 A 
ATOM     57  N   UNL A   1      44.673  30.165  28.065  1.00  0.00    -0.354 N 
ATOM     58  N   UNL A   1      42.146  30.811  29.433  1.00  0.00    -0.248 NA
ATOM     59  C   UNL A   1      40.861  32.280  30.717  1.00  0.00     0.031 C 
ATOM     60  C   UNL A   1      46.238  31.736  27.948  1.00  0.00     0.029 A 
ATOM     61  C   UNL A   1      44.957  31.474  28.411  1.00  0.00     0.049 A 
ATOM     62  H   UNL A   1      43.832  29.697  28.269  1.00  0.00     0.167 HD
ATOM     63  C   UNL A   1      42.831  32.013  29.571  1.00  0.00     0.074 A 
ATOM     64  C   UNL A   1      41.970  32.897  30.331  1.00  0.00     0.031 C 
ATOM     65  C   UNL A   1      44.066  32.352  29.125  1.00  0.00     0.034 A 
BRANCH  52  66
ATOM     66  C   UNL A   1      47.051  27.783  26.216  1.00  0.00     0.023 A 
ATOM     67  C   UNL A   1      48.043  27.138  26.983  1.00  0.00     0.012 A 
ATOM     68  C   UNL A   1      47.239  27.925  24.827  1.00  0.00     0.148 A 
ATOM     69  C   UNL A   1      49.218  26.680  26.390  1.00  0.00     0.002 A 
ATOM     70  C   UNL A   1      48.394  27.424  24.234  1.00  0.00     0.091 A 
ATOM     71  F   UNL A   1      46.298  28.560  24.115  1.00  0.00    -0.205 F 
ATOM     72  C   UNL A   1      49.388  26.813  25.015  1.00  0.00     0.022 A 
BRANCH  70  73
ATOM     73  S   UNL A   1      48.673  27.475  22.460  1.00  0.00     0.127 S 
ATOM     74  O   UNL A   1      48.660  26.054  22.118  1.00  0.00    -0.237 OA
ATOM     75  O   UNL A   1      47.510  28.227  21.987  1.00  0.00    -0.237 OA
ATOM     76  O   UNL A   1      49.949  28.152  22.275  1.00  0.00    -0.744 OA
ENDBRANCH  70  73
ENDBRANCH  52  66
BRANCH  53  77
ATOM     77  C   UNL A   1      38.622  30.388  30.943  1.00  0.00     0.023 A 
ATOM     78  C   UNL A   1      38.497  30.034  32.301  1.00  0.00     0.012 A 
ATOM     79  C   UNL A   1      37.592  31.126  30.329  1.00  0.00     0.148 A 
ATOM     80  C   UNL A   1      37.356  30.381  33.025  1.00  0.00     0.002 A 
ATOM     81  C   UNL A   1      36.483  31.516  31.071  1.00  0.00     0.091 A 
ATOM     82  F   UNL A   1      37.723  31.445  29.034  1.00  0.00    -0.205 F 
ATOM     83  C   UNL A   1      36.355  31.129  32.415  1.00  0.00     0.022 A 
BRANCH  81  84
ATOM     84  S   UNL A   1      35.213  32.597  30.403  1.00  0.00     0.127 S 
ATOM     85  O   UNL A   1      35.983  33.787  30.056  1.00  0.00    -0.237 OA
ATOM     86  O   UNL A   1      34.726  31.822  29.261  1.00  0.00    -0.237 OA
ATOM     87  O   UNL A   1      34.236  32.760  31.472  1.00  0.00    -0.744 OA
ENDBRANCH  81  84
ENDBRANCH  53  77
BRANCH  65  88
ATOM     88  C   UNL A   1      44.554  33.743  29.429  1.00  0.00     0.023 A 
ATOM     89  C   UNL A   1      45.298  33.980  30.601  1.00  0.00     0.012 A 
ATOM     90  C   UNL A   1      44.332  34.797  28.522  1.00  0.00     0.148 A 
ATOM     91  C   UNL A   1      45.783  35.255  30.885  1.00  0.00     0.002 A 
ATOM     92  C   UNL A   1      44.862  36.054  28.788  1.00  0.00     0.091 A 
ATOM     93  F   UNL A   1      43.604  34.556  27.422  1.00  0.00    -0.205 F 
ATOM     94  C   UNL A   1      45.575  36.289  29.973  1.00  0.00     0.022 A 
BRANCH  92  95
ATOM     95  S   UNL A   1      44.724  37.415  27.623  1.00  0.00     0.127 S 
ATOM     96  O   UNL A   1      45.148  38.551  28.439  1.00  0.00    -0.237 OA
ATOM     97  O   UNL A   1      45.672  37.028  26.577  1.00  0.00    -0.237 OA
ATOM     98  O   UNL A   1      43.332  37.432  27.194  1.00  0.00    -0.744 OA
ENDBRANCH  92  95
ENDBRANCH  65  88
ENDBRANCH  39  40
ENDBRANCH  31  34
ENDBRANCH  29  30
ENDBRANCH  28  29
ENDBRANCH   1  28
TORSDOF 18
ENDMDL
MODEL 2
REMARK VINA RESULT:     -12.4      4.932     10.024
REMARK SMILES COc1ccccc1CCNC(=O)[C@@H]1[C@@H](C(=O)NCCCNC(=O)c2ccc(-c3c4nc(c(-c5cccc(S(=O)(=O)[O-])c5F)c5ccc([nH]5)c(-c5cccc(S(=O)(=O)[O-])c5F)c5nc(c(-c6cccc(S(=O)(=O)[O-])c6F)c6ccc3[nH]6)C=C5)C=C4)cc2)[C@H]2C=C[C@@H]1CC2
REMARK SMILES IDX 19 1 18 2 16 3 17 4 15 6 14 7 91 8 88 9 90 10 92 11 89 12
REMARK SMILES IDX 93 13 12 14 11 15 13 17 10 18 9 19 8 20 3 21 4 22 5 23 7 24
REMARK SMILES IDX 6 25 2 26 1 27 20 28 21 29 22 30 23 31 24 33 25 34 26 35
REMARK SMILES IDX 87 36 27 37 86 38 28 39 29 40 30 41 80 42 31 43 85 44 79 45
REMARK SMILES IDX 81 46 32 47 84 48 78 49 77 50 33 52 65 53 45 54 64 55 46 56
REMARK SMILES IDX 49 57 63 58 82 59 47 60 48 61 62 63 83 64 50 65 34 66 35 67
REMARK SMILES IDX 43 68 36 69 38 70 44 71 37 72 39 73 40 74 41 75 42 76 66 77
REMARK SMILES IDX 67 78 75 79 68 80 70 81 76 82 69 83 71 84 72 85 73 86 74 87
REMARK SMILES IDX 51 88 52 89 60 90 53 91 55 92 61 93 54 94 56 95 57 96 58 97
REMARK SMILES IDX 59 98
REMARK H PARENT 18 5 11 16 22 32 81 51 49 62
REMARK Flexibility Score: inf
ROOT
ATOM      1  C   UNL A   1      31.299  27.679  25.720  1.00  0.00     0.117 C 
ENDROOT
BRANCH   1   2
ATOM      2  N   UNL A   1      30.751  28.062  24.433  1.00  0.00    -0.356 N 
ATOM      3  C   UNL A   1      30.533  27.434  23.258  1.00  0.00     0.224 C 
ATOM      4  O   UNL A   1      29.817  28.083  22.482  1.00  0.00    -0.275 OA
ATOM      5  H   UNL A   1      30.470  29.006  24.412  1.00  0.00     0.163 HD
BRANCH   3   6
ATOM      6  C   UNL A   1      31.194  26.116  22.786  1.00  0.00     0.098 C 
ATOM      7  C   UNL A   1      31.708  25.332  24.059  1.00  0.00     0.098 C 
ATOM      8  C   UNL A   1      33.269  25.184  23.948  1.00  0.00     0.025 C 
ATOM      9  C   UNL A   1      32.360  26.228  21.770  1.00  0.00     0.025 C 
ATOM     10  C   UNL A   1      33.868  26.539  23.605  1.00  0.00    -0.027 C 
ATOM     11  C   UNL A   1      33.621  24.275  22.743  1.00  0.00     0.009 C 
ATOM     12  C   UNL A   1      33.444  27.050  22.438  1.00  0.00    -0.027 C 
ATOM     13  C   UNL A   1      32.930  24.821  21.485  1.00  0.00     0.009 C 
BRANCH   7  14
ATOM     14  C   UNL A   1      31.099  23.953  24.374  1.00  0.00     0.224 C 
ATOM     15  N   UNL A   1      31.171  23.338  25.577  1.00  0.00    -0.355 N 
ATOM     16  H   UNL A   1      30.803  22.425  25.571  1.00  0.00     0.163 HD
ATOM     17  O   UNL A   1      30.584  23.272  23.478  1.00  0.00    -0.275 OA
BRANCH  15  18
ATOM     18  C   UNL A   1      31.677  23.746  26.875  1.00  0.00     0.120 C 
BRANCH  18  19
ATOM     19  C   UNL A   1      32.720  22.760  27.408  1.00  0.00     0.060 C 
BRANCH  19  20
ATOM     20  C   UNL A   1      33.832  22.497  26.422  1.00  0.00    -0.004 A 
ATOM     21  C   UNL A   1      33.762  21.471  25.470  1.00  0.00     0.122 A 
ATOM     22  C   UNL A   1      34.843  21.210  24.625  1.00  0.00     0.047 A 
ATOM     23  C   UNL A   1      35.999  21.985  24.707  1.00  0.00     0.004 A 
ATOM     24  C   UNL A   1      35.003  23.273  26.489  1.00  0.00     0.007 A 
ATOM     25  C   UNL A   1      36.079  23.017  25.640  1.00  0.00     0.001 A 
BRANCH  21  26
ATOM     26  O   UNL A   1      32.694  20.616  25.402  1.00  0.00    -0.496 OA
ATOM     27  C   UNL A   1      32.528  20.053  24.099  1.00  0.00     0.278 C 
ENDBRANCH  21  26
ENDBRANCH  19  20
ENDBRANCH  18  19
ENDBRANCH  15  18
ENDBRANCH   7  14
ENDBRANCH   3   6
ENDBRANCH   1   2
BRANCH   1  28
ATOM     28  C   UNL A   1      31.756  28.872  26.538  1.00  0.00     0.042 C 
BRANCH  28  29
ATOM     29  C   UNL A   1      32.818  29.705  25.836  1.00  0.00     0.118 C 
BRANCH  29  30
ATOM     30  N   UNL A   1      32.687  31.127  26.139  1.00  0.00    -0.352 N 
ATOM     31  C   UNL A   1      33.255  31.884  27.134  1.00  0.00     0.251 C 
ATOM     32  H   UNL A   1      32.094  31.625  25.531  1.00  0.00     0.163 HD
ATOM     33  O   UNL A   1      32.775  32.982  27.403  1.00  0.00    -0.269 OA
BRANCH  31  34
ATOM     34  C   UNL A   1      34.438  31.390  27.867  1.00  0.00     0.039 A 
ATOM     35  C   UNL A   1      34.438  30.087  28.376  1.00  0.00     0.014 A 
ATOM     36  C   UNL A   1      35.528  32.228  28.103  1.00  0.00     0.014 A 
ATOM     37  C   UNL A   1      35.551  29.619  29.078  1.00  0.00     0.010 A 
ATOM     38  C   UNL A   1      36.677  31.726  28.699  1.00  0.00     0.010 A 
ATOM     39  C   UNL A   1      36.689  30.428  29.224  1.00  0.00    -0.014 A 
BRANCH  39  40
ATOM     40  C   UNL A   1      37.895  29.959  29.950  1.00  0.00     0.031 A 
ATOM     41  C   UNL A   1      38.182  30.467  31.339  1.00  0.00     0.074 A 
ATOM     42  C   UNL A   1      38.777  29.156  29.323  1.00  0.00     0.049 A 
ATOM     43  N   UNL A   1      39.214  30.233  32.106  1.00  0.00    -0.248 NA
ATOM     44  C   UNL A   1      37.200  31.394  31.929  1.00  0.00     0.031 C 
ATOM     45  C   UNL A   1      38.657  28.680  27.942  1.00  0.00     0.029 A 
ATOM     46  N   UNL A   1      39.962  28.619  29.756  1.00  0.00    -0.354 N 
ATOM     47  C   UNL A   1      39.030  31.016  33.240  1.00  0.00     0.074 A 
ATOM     48  C   UNL A   1      37.811  31.768  33.044  1.00  0.00     0.031 C 
ATOM     49  C   UNL A   1      39.718  27.911  27.648  1.00  0.00     0.029 A 
ATOM     50  C   UNL A   1      40.604  27.860  28.806  1.00  0.00     0.049 A 
ATOM     51  H   UNL A   1      40.319  28.763  30.663  1.00  0.00     0.167 HD
ATOM     52  C   UNL A   1      39.784  31.076  34.363  1.00  0.00     0.034 A 
ATOM     53  C   UNL A   1      41.774  27.196  28.866  1.00  0.00     0.034 A 
ATOM     54  C   UNL A   1      40.955  30.271  34.580  1.00  0.00     0.049 A 
ATOM     55  C   UNL A   1      42.549  27.209  30.155  1.00  0.00     0.074 A 
ATOM     56  C   UNL A   1      41.732  30.171  35.719  1.00  0.00     0.029 A 
ATOM     57  N   UNL A   1      41.514  29.424  33.635  1.00  0.00    -0.354 N 
ATOM     58  N   UNL A   1      42.269  27.824  31.279  1.00  0.00    -0.248 NA
ATOM     59  C   UNL A   1      43.777  26.404  30.200  1.00  0.00     0.031 C 
ATOM     60  C   UNL A   1      42.772  29.271  35.458  1.00  0.00     0.029 A 
ATOM     61  C   UNL A   1      42.630  28.799  34.162  1.00  0.00     0.049 A 
ATOM     62  H   UNL A   1      41.168  29.288  32.723  1.00  0.00     0.167 HD
ATOM     63  C   UNL A   1      43.268  27.459  32.173  1.00  0.00     0.074 A 
ATOM     64  C   UNL A   1      44.143  26.545  31.467  1.00  0.00     0.031 C 
ATOM     65  C   UNL A   1      43.457  27.854  33.457  1.00  0.00     0.034 A 
BRANCH  52  66
ATOM     66  C   UNL A   1      39.323  31.990  35.469  1.00  0.00     0.023 A 
ATOM     67  C   UNL A   1      38.421  31.508  36.439  1.00  0.00     0.012 A 
ATOM     68  C   UNL A   1      39.811  33.307  35.576  1.00  0.00     0.148 A 
ATOM     69  C   UNL A   1      37.980  32.331  37.474  1.00  0.00     0.002 A 
ATOM     70  C   UNL A   1      39.403  34.108  36.638  1.00  0.00     0.091 A 
ATOM     71  F   UNL A   1      40.650  33.759  34.633  1.00  0.00    -0.205 F 
ATOM     72  C   UNL A   1      38.478  33.626  37.579  1.00  0.00     0.022 A 
BRANCH  70  73
ATOM     73  S   UNL A   1      40.046  35.763  36.908  1.00  0.00     0.127 S 
ATOM     74  O   UNL A   1      41.480  35.506  37.031  1.00  0.00    -0.237 OA
ATOM     75  O   UNL A   1      39.653  36.450  35.677  1.00  0.00    -0.237 OA
ATOM     76  O   UNL A   1      39.392  36.256  38.112  1.00  0.00    -0.744 OA
ENDBRANCH  70  73
ENDBRANCH  52  66
BRANCH  53  77
ATOM     77  C   UNL A   1      42.233  26.393  27.697  1.00  0.00     0.023 A 
ATOM     78  C   UNL A   1      43.117  26.974  26.768  1.00  0.00     0.012 A 
ATOM     79  C   UNL A   1      41.838  25.053  27.523  1.00  0.00     0.148 A 
ATOM     80  C   UNL A   1      43.574  26.247  25.668  1.00  0.00     0.002 A 
ATOM     81  C   UNL A   1      42.340  24.317  26.456  1.00  0.00     0.091 A 
ATOM     82  F   UNL A   1      40.988  24.520  28.412  1.00  0.00    -0.205 F 
ATOM     83  C   UNL A   1      43.194  24.917  25.517  1.00  0.00     0.022 A 
BRANCH  81  84
ATOM     84  S   UNL A   1      42.013  22.561  26.263  1.00  0.00     0.127 S 
ATOM     85  O   UNL A   1      42.688  22.266  25.003  1.00  0.00    -0.237 OA
ATOM     86  O   UNL A   1      42.654  22.000  27.453  1.00  0.00    -0.237 OA
ATOM     87  O   UNL A   1      40.561  22.433  26.253  1.00  0.00    -0.744 OA
ENDBRANCH  81  84
ENDBRANCH  53  77
BRANCH  65  88
ATOM     88  C   UNL A   1      44.643  27.285  34.188  1.00  0.00     0.023 A 
ATOM     89  C   UNL A   1      45.874  27.970  34.160  1.00  0.00     0.012 A 
ATOM     90  C   UNL A   1      44.520  26.111  34.956  1.00  0.00     0.148 A 
ATOM     91  C   UNL A   1      46.976  27.475  34.855  1.00  0.00     0.002 A 
ATOM     92  C   UNL A   1      45.609  25.651  35.686  1.00  0.00     0.091 A 
ATOM     93  F   UNL A   1      43.346  25.463  34.954  1.00  0.00    -0.205 F 
ATOM     94  C   UNL A   1      46.840  26.322  35.627  1.00  0.00     0.022 A 
BRANCH  92  95
ATOM     95  S   UNL A   1      45.494  24.231  36.781  1.00  0.00     0.127 S 
ATOM     96  O   UNL A   1      46.866  24.120  37.272  1.00  0.00    -0.237 OA
ATOM     97  O   UNL A   1      44.524  24.685  37.780  1.00  0.00    -0.237 OA
ATOM     98  O   UNL A   1      45.030  23.126  35.953  1.00  0.00    -0.744 OA
ENDBRANCH  92  95
ENDBRANCH  65  88
ENDBRANCH  39  40
ENDBRANCH  31  34
ENDBRANCH  29  30
ENDBRANCH  28  29
ENDBRANCH   1  28
TORSDOF 18
ENDMDL
MODEL 3
REMARK VINA RESULT:     -12.2      1.381      3.583
REMARK SMILES COc1ccccc1CCNC(=O)[C@@H]1[C@@H](C(=O)NCCCNC(=O)c2ccc(-c3c4nc(c(-c5cccc(S(=O)(=O)[O-])c5F)c5ccc([nH]5)c(-c5cccc(S(=O)(=O)[O-])c5F)c5nc(c(-c6cccc(S(=O)(=O)[O-])c6F)c6ccc3[nH]6)C=C5)C=C4)cc2)[C@H]2C=C[C@@H]1CC2
REMARK SMILES IDX 19 1 18 2 16 3 17 4 15 6 14 7 91 8 88 9 90 10 92 11 89 12
REMARK SMILES IDX 93 13 12 14 11 15 13 17 10 18 9 19 8 20 3 21 4 22 5 23 7 24
REMARK SMILES IDX 6 25 2 26 1 27 20 28 21 29 22 30 23 31 24 33 25 34 26 35
REMARK SMILES IDX 87 36 27 37 86 38 28 39 29 40 30 41 80 42 31 43 85 44 79 45
REMARK SMILES IDX 81 46 32 47 84 48 78 49 77 50 33 52 65 53 45 54 64 55 46 56
REMARK SMILES IDX 49 57 63 58 82 59 47 60 48 61 62 63 83 64 50 65 34 66 35 67
REMARK SMILES IDX 43 68 36 69 38 70 44 71 37 72 39 73 40 74 41 75 42 76 66 77
REMARK SMILES IDX 67 78 75 79 68 80 70 81 76 82 69 83 71 84 72 85 73 86 74 87
REMARK SMILES IDX 51 88 52 89 60 90 53 91 55 92 61 93 54 94 56 95 57 96 58 97
REMARK SMILES IDX 59 98
REMARK H PARENT 18 5 11 16 22 32 81 51 49 62
REMARK Flexibility Score: inf
ROOT
ATOM      1  C   UNL A   1      36.157  23.281  23.512  1.00  0.00     0.117 C 
ENDROOT
BRANCH   1   2
ATOM      2  N   UNL A   1      34.785  23.173  23.054  1.00  0.00    -0.356 N 
ATOM      3  C   UNL A   1      33.609  23.731  23.413  1.00  0.00     0.224 C 
ATOM      4  O   UNL A   1      32.703  23.531  22.590  1.00  0.00    -0.275 OA
ATOM      5  H   UNL A   1      34.688  22.543  22.304  1.00  0.00     0.163 HD
BRANCH   3   6
ATOM      6  C   UNL A   1      33.295  24.426  24.760  1.00  0.00     0.098 C 
ATOM      7  C   UNL A   1      31.803  24.088  25.159  1.00  0.00     0.098 C 
ATOM      8  C   UNL A   1      30.994  25.435  25.226  1.00  0.00     0.025 C 
ATOM      9  C   UNL A   1      33.490  25.962  24.832  1.00  0.00     0.025 C 
ATOM     10  C   UNL A   1      31.274  26.239  23.966  1.00  0.00    -0.027 C 
ATOM     11  C   UNL A   1      31.537  26.309  26.385  1.00  0.00     0.009 C 
ATOM     12  C   UNL A   1      32.565  26.569  23.797  1.00  0.00    -0.027 C 
ATOM     13  C   UNL A   1      33.055  26.470  26.224  1.00  0.00     0.009 C 
BRANCH   7  14
ATOM     14  C   UNL A   1      31.545  23.290  26.450  1.00  0.00     0.224 C 
ATOM     15  N   UNL A   1      32.248  22.197  26.831  1.00  0.00    -0.355 N 
ATOM     16  H   UNL A   1      31.888  21.764  27.639  1.00  0.00     0.163 HD
ATOM     17  O   UNL A   1      30.581  23.560  27.177  1.00  0.00    -0.275 OA
BRANCH  15  18
ATOM     18  C   UNL A   1      33.422  21.533  26.296  1.00  0.00     0.120 C 
BRANCH  18  19
ATOM     19  C   UNL A   1      33.244  20.012  26.267  1.00  0.00     0.060 C 
BRANCH  19  20
ATOM     20  C   UNL A   1      32.899  19.492  24.893  1.00  0.00    -0.004 A 
ATOM     21  C   UNL A   1      33.068  18.147  24.537  1.00  0.00     0.122 A 
ATOM     22  C   UNL A   1      32.810  17.718  23.233  1.00  0.00     0.047 A 
ATOM     23  C   UNL A   1      32.358  18.625  22.275  1.00  0.00     0.004 A 
ATOM     24  C   UNL A   1      32.438  20.392  23.917  1.00  0.00     0.007 A 
ATOM     25  C   UNL A   1      32.172  19.962  22.617  1.00  0.00     0.001 A 
BRANCH  21  26
ATOM     26  O   UNL A   1      33.598  17.228  25.404  1.00  0.00    -0.496 OA
ATOM     27  C   UNL A   1      32.720  16.123  25.630  1.00  0.00     0.278 C 
ENDBRANCH  21  26
ENDBRANCH  19  20
ENDBRANCH  18  19
ENDBRANCH  15  18
ENDBRANCH   7  14
ENDBRANCH   3   6
ENDBRANCH   1   2
BRANCH   1  28
ATOM     28  C   UNL A   1      36.652  22.010  24.176  1.00  0.00     0.042 C 
BRANCH  28  29
ATOM     29  C   UNL A   1      37.078  22.220  25.622  1.00  0.00     0.118 C 
BRANCH  29  30
ATOM     30  N   UNL A   1      38.076  21.242  26.045  1.00  0.00    -0.352 N 
ATOM     31  C   UNL A   1      39.395  21.406  26.392  1.00  0.00     0.251 C 
ATOM     32  H   UNL A   1      37.750  20.314  26.090  1.00  0.00     0.163 HD
ATOM     33  O   UNL A   1      40.136  20.427  26.413  1.00  0.00    -0.269 OA
BRANCH  31  34
ATOM     34  C   UNL A   1      39.915  22.742  26.747  1.00  0.00     0.039 A 
ATOM     35  C   UNL A   1      39.401  23.873  26.107  1.00  0.00     0.014 A 
ATOM     36  C   UNL A   1      40.951  22.876  27.672  1.00  0.00     0.014 A 
ATOM     37  C   UNL A   1      39.897  25.138  26.433  1.00  0.00     0.010 A 
ATOM     38  C   UNL A   1      41.363  24.138  28.078  1.00  0.00     0.010 A 
ATOM     39  C   UNL A   1      40.865  25.281  27.439  1.00  0.00    -0.014 A 
BRANCH  39  40
ATOM     40  C   UNL A   1      41.404  26.609  27.823  1.00  0.00     0.031 A 
ATOM     41  C   UNL A   1      42.843  26.949  27.532  1.00  0.00     0.074 A 
ATOM     42  C   UNL A   1      40.629  27.466  28.516  1.00  0.00     0.049 A 
ATOM     43  N   UNL A   1      43.517  28.023  27.850  1.00  0.00    -0.248 NA
ATOM     44  C   UNL A   1      43.643  25.931  26.828  1.00  0.00     0.031 C 
ATOM     45  C   UNL A   1      39.252  27.206  28.943  1.00  0.00     0.029 A 
ATOM     46  N   UNL A   1      40.897  28.718  29.006  1.00  0.00    -0.354 N 
ATOM     47  C   UNL A   1      44.822  27.790  27.431  1.00  0.00     0.074 A 
ATOM     48  C   UNL A   1      44.859  26.456  26.876  1.00  0.00     0.031 C 
ATOM     49  C   UNL A   1      38.792  28.272  29.618  1.00  0.00     0.029 A 
ATOM     50  C   UNL A   1      39.846  29.277  29.695  1.00  0.00     0.049 A 
ATOM     51  H   UNL A   1      41.760  29.174  28.876  1.00  0.00     0.167 HD
ATOM     52  C   UNL A   1      45.888  28.626  27.465  1.00  0.00     0.034 A 
ATOM     53  C   UNL A   1      39.746  30.469  30.314  1.00  0.00     0.034 A 
ATOM     54  C   UNL A   1      45.825  29.977  27.953  1.00  0.00     0.049 A 
ATOM     55  C   UNL A   1      40.916  31.412  30.263  1.00  0.00     0.074 A 
ATOM     56  C   UNL A   1      46.811  30.945  27.936  1.00  0.00     0.029 A 
ATOM     57  N   UNL A   1      44.708  30.551  28.542  1.00  0.00    -0.354 N 
ATOM     58  N   UNL A   1      42.093  31.237  29.711  1.00  0.00    -0.248 NA
ATOM     59  C   UNL A   1      40.733  32.732  30.882  1.00  0.00     0.031 C 
ATOM     60  C   UNL A   1      46.295  32.103  28.528  1.00  0.00     0.029 A 
ATOM     61  C   UNL A   1      44.980  31.859  28.896  1.00  0.00     0.049 A 
ATOM     62  H   UNL A   1      43.848  30.093  28.686  1.00  0.00     0.167 HD
ATOM     63  C   UNL A   1      42.779  32.432  29.888  1.00  0.00     0.074 A 
ATOM     64  C   UNL A   1      41.874  33.333  30.574  1.00  0.00     0.031 C 
ATOM     65  C   UNL A   1      44.048  32.754  29.533  1.00  0.00     0.034 A 
BRANCH  52  66
ATOM     66  C   UNL A   1      47.190  28.124  26.897  1.00  0.00     0.023 A 
ATOM     67  C   UNL A   1      48.217  27.711  27.770  1.00  0.00     0.012 A 
ATOM     68  C   UNL A   1      47.385  28.019  25.506  1.00  0.00     0.148 A 
ATOM     69  C   UNL A   1      49.430  27.239  27.272  1.00  0.00     0.002 A 
ATOM     70  C   UNL A   1      48.581  27.505  25.015  1.00  0.00     0.091 A 
ATOM     71  F   UNL A   1      46.409  28.438  24.688  1.00  0.00    -0.205 F 
ATOM     72  C   UNL A   1      49.608  27.127  25.896  1.00  0.00     0.022 A 
BRANCH  70  73
ATOM     73  S   UNL A   1      48.879  27.246  23.263  1.00  0.00     0.127 S 
ATOM     74  O   UNL A   1      50.341  27.231  23.212  1.00  0.00    -0.237 OA
ATOM     75  O   UNL A   1      48.248  25.946  23.032  1.00  0.00    -0.237 OA
ATOM     76  O   UNL A   1      48.240  28.361  22.579  1.00  0.00    -0.744 OA
ENDBRANCH  70  73
ENDBRANCH  52  66
BRANCH  53  77
ATOM     77  C   UNL A   1      38.461  30.867  30.956  1.00  0.00     0.023 A 
ATOM     78  C   UNL A   1      38.284  30.648  32.337  1.00  0.00     0.012 A 
ATOM     79  C   UNL A   1      37.435  31.495  30.225  1.00  0.00     0.148 A 
ATOM     80  C   UNL A   1      37.098  31.017  32.970  1.00  0.00     0.002 A 
ATOM     81  C   UNL A   1      36.278  31.911  30.873  1.00  0.00     0.091 A 
ATOM     82  F   UNL A   1      37.617  31.686  28.910  1.00  0.00    -0.205 F 
ATOM     83  C   UNL A   1      36.100  31.657  32.242  1.00  0.00     0.022 A 
BRANCH  81  84
ATOM     84  S   UNL A   1      35.002  32.864  30.042  1.00  0.00     0.127 S 
ATOM     85  O   UNL A   1      34.096  33.177  31.142  1.00  0.00    -0.237 OA
ATOM     86  O   UNL A   1      35.761  34.003  29.525  1.00  0.00    -0.237 OA
ATOM     87  O   UNL A   1      34.469  31.985  29.008  1.00  0.00    -0.744 OA
ENDBRANCH  81  84
ENDBRANCH  53  77
BRANCH  65  88
ATOM     88  C   UNL A   1      44.528  34.142  29.860  1.00  0.00     0.023 A 
ATOM     89  C   UNL A   1      45.334  34.352  30.996  1.00  0.00     0.012 A 
ATOM     90  C   UNL A   1      44.235  35.224  29.008  1.00  0.00     0.148 A 
ATOM     91  C   UNL A   1      45.813  35.625  31.300  1.00  0.00     0.002 A 
ATOM     92  C   UNL A   1      44.757  36.481  29.290  1.00  0.00     0.091 A 
ATOM     93  F   UNL A   1      43.449  35.008  27.943  1.00  0.00    -0.205 F 
ATOM     94  C   UNL A   1      45.534  36.687  30.441  1.00  0.00     0.022 A 
BRANCH  92  95
ATOM     95  S   UNL A   1      44.528  37.880  28.186  1.00  0.00     0.127 S 
ATOM     96  O   UNL A   1      45.175  38.957  28.932  1.00  0.00    -0.237 OA
ATOM     97  O   UNL A   1      45.247  37.452  26.986  1.00  0.00    -0.237 OA
ATOM     98  O   UNL A   1      43.089  38.014  28.008  1.00  0.00    -0.744 OA
ENDBRANCH  92  95
ENDBRANCH  65  88
ENDBRANCH  39  40
ENDBRANCH  31  34
ENDBRANCH  29  30
ENDBRANCH  28  29
ENDBRANCH   1  28
TORSDOF 18
ENDMDL
