MODEL 1
REMARK VINA RESULT:     -12.2      0.000      0.000
REMARK SMILES NS(=O)(=O)c1ccc(-n2nc(C(F)(F)F)cc2-c2ccc(CC(=O)NCCCNC(=O)c3ccc(-c4c5nc(c(-c6cccc(S(=O)(=O)[O-])c6F)c6ccc([nH]6)c(-c6cccc(S(=O)(=O)[O-])c6F)c6nc(c(-c7cccc(S(=O)(=O)[O-])c7F)c7ccc4[nH]7)C=C6)C=C5)cc3)cc2)cc1
REMARK SMILES IDX 26 1 25 2 23 3 24 4 22 6 21 7 18 8 19 9 96 10 20 11 95 12
REMARK SMILES IDX 17 13 9 14 10 15 11 16 16 17 8 18 5 19 6 20 98 21 7 22 97 23
REMARK SMILES IDX 2 24 3 25 4 26 1 27 12 30 13 31 14 32 15 33 27 34 28 35
REMARK SMILES IDX 29 36 30 37 31 39 32 40 33 41 94 42 34 43 93 44 35 45 36 46
REMARK SMILES IDX 37 47 87 48 38 49 92 50 86 51 88 52 39 53 91 54 85 55 84 56
REMARK SMILES IDX 40 58 72 59 52 60 71 61 53 62 56 63 70 64 89 65 54 66 55 67
REMARK SMILES IDX 69 69 90 70 57 71 41 72 42 73 50 74 43 75 45 76 51 77 44 78
REMARK SMILES IDX 46 79 47 80 48 81 49 82 73 83 74 84 82 85 75 86 77 87 83 88
REMARK SMILES IDX 76 89 78 90 79 91 80 92 81 93 58 94 59 95 67 96 60 97 62 98
REMARK SMILES IDX 68 99 61 100 63 101 64 102 65 103 66 104
REMARK H PARENT 25 5 1 28 1 29 29 38 88 57 56 68
REMARK Flexibility Score: inf
ROOT
ATOM      1  C   UNL A   1      35.603  21.911  25.949  1.00  0.00     0.117 C 
ENDROOT
BRANCH   1   2
ATOM      2  N   UNL A   1      34.813  22.275  27.112  1.00  0.00    -0.356 N 
ATOM      3  C   UNL A   1      33.468  22.482  27.211  1.00  0.00     0.224 C 
ATOM      4  O   UNL A   1      32.982  22.653  28.329  1.00  0.00    -0.275 OA
ATOM      5  H   UNL A   1      35.320  22.389  27.948  1.00  0.00     0.163 HD
BRANCH   3   6
ATOM      6  C   UNL A   1      32.584  22.398  25.983  1.00  0.00     0.135 C 
BRANCH   6   7
ATOM      7  C   UNL A   1      32.057  23.719  25.476  1.00  0.00    -0.039 A 
ATOM      8  C   UNL A   1      31.066  26.180  24.504  1.00  0.00     0.000 A 
ATOM      9  C   UNL A   1      30.582  25.630  25.702  1.00  0.00     0.010 A 
ATOM     10  C   UNL A   1      32.037  25.475  23.787  1.00  0.00     0.010 A 
ATOM     11  C   UNL A   1      31.081  24.420  26.192  1.00  0.00     0.005 A 
ATOM     12  C   UNL A   1      32.517  24.251  24.264  1.00  0.00     0.005 A 
BRANCH   8  13
ATOM     13  C   UNL A   1      30.599  27.487  24.023  1.00  0.00     0.075 A 
ATOM     14  N   UNL A   1      31.020  28.714  24.524  1.00  0.00    -0.233 N 
ATOM     15  N   UNL A   1      30.277  29.746  24.061  1.00  0.00    -0.163 NA
ATOM     16  C   UNL A   1      29.516  29.209  23.090  1.00  0.00     0.167 A 
ATOM     17  C   UNL A   1      29.667  27.798  23.054  1.00  0.00     0.064 A 
BRANCH  14  18
ATOM     18  C   UNL A   1      32.121  28.941  25.372  1.00  0.00     0.065 A 
ATOM     19  C   UNL A   1      34.301  29.713  26.850  1.00  0.00     0.082 A 
ATOM     20  C   UNL A   1      33.025  30.099  27.264  1.00  0.00     0.024 A 
ATOM     21  C   UNL A   1      34.499  28.885  25.746  1.00  0.00     0.024 A 
ATOM     22  C   UNL A   1      31.928  29.713  26.523  1.00  0.00     0.030 A 
ATOM     23  C   UNL A   1      33.391  28.475  25.007  1.00  0.00     0.030 A 
BRANCH  19  24
ATOM     24  S   UNL A   1      35.634  30.159  27.892  1.00  0.00     0.238 S 
ATOM     25  O   UNL A   1      35.770  29.226  28.975  1.00  0.00    -0.207 OA
ATOM     26  O   UNL A   1      35.484  31.583  28.055  1.00  0.00    -0.207 OA
BRANCH  24  27
ATOM     27  N   UNL A   1      36.990  29.910  26.922  1.00  0.00    -0.225 NA
ATOM     28  H   UNL A   1      37.019  28.935  26.624  1.00  0.00     0.137 HD
ATOM     29  H   UNL A   1      37.833  30.128  27.454  1.00  0.00     0.137 HD
ENDBRANCH  24  27
ENDBRANCH  19  24
ENDBRANCH  14  18
BRANCH  16  30
ATOM     30  C   UNL A   1      28.638  30.036  22.197  1.00  0.00     0.435 C 
ATOM     31  F   UNL A   1      28.118  31.130  22.812  1.00  0.00    -0.164 F 
ATOM     32  F   UNL A   1      29.298  30.475  21.091  1.00  0.00    -0.164 F 
ATOM     33  F   UNL A   1      27.575  29.316  21.736  1.00  0.00    -0.164 F 
ENDBRANCH  16  30
ENDBRANCH   8  13
ENDBRANCH   6   7
ENDBRANCH   3   6
ENDBRANCH   1   2
BRANCH   1  34
ATOM     34  C   UNL A   1      37.100  22.181  26.124  1.00  0.00     0.042 C 
BRANCH  34  35
ATOM     35  C   UNL A   1      37.924  21.599  24.988  1.00  0.00     0.118 C 
BRANCH  35  36
ATOM     36  N   UNL A   1      38.550  20.306  25.314  1.00  0.00    -0.352 N 
ATOM     37  C   UNL A   1      39.852  20.056  25.731  1.00  0.00     0.251 C 
ATOM     38  H   UNL A   1      37.970  19.516  25.226  1.00  0.00     0.163 HD
ATOM     39  O   UNL A   1      40.327  18.927  25.652  1.00  0.00    -0.269 OA
BRANCH  37  40
ATOM     40  C   UNL A   1      40.647  21.167  26.290  1.00  0.00     0.039 A 
ATOM     41  C   UNL A   1      41.506  21.978  25.539  1.00  0.00     0.014 A 
ATOM     42  C   UNL A   1      40.476  21.411  27.638  1.00  0.00     0.014 A 
ATOM     43  C   UNL A   1      42.138  23.060  26.168  1.00  0.00     0.010 A 
ATOM     44  C   UNL A   1      40.822  22.625  28.140  1.00  0.00     0.010 A 
ATOM     45  C   UNL A   1      41.779  23.385  27.484  1.00  0.00    -0.014 A 
BRANCH  45  46
ATOM     46  C   UNL A   1      42.255  24.562  28.220  1.00  0.00     0.031 A 
ATOM     47  C   UNL A   1      41.374  25.778  28.161  1.00  0.00     0.074 A 
ATOM     48  C   UNL A   1      43.215  24.400  29.174  1.00  0.00     0.049 A 
ATOM     49  N   UNL A   1      41.697  27.023  28.264  1.00  0.00    -0.248 NA
ATOM     50  C   UNL A   1      39.932  25.590  27.971  1.00  0.00     0.031 C 
ATOM     51  C   UNL A   1      43.946  23.164  29.534  1.00  0.00     0.029 A 
ATOM     52  N   UNL A   1      43.618  25.250  30.160  1.00  0.00    -0.354 N 
ATOM     53  C   UNL A   1      40.497  27.743  28.349  1.00  0.00     0.074 A 
ATOM     54  C   UNL A   1      39.430  26.802  28.196  1.00  0.00     0.031 C 
ATOM     55  C   UNL A   1      44.471  23.276  30.773  1.00  0.00     0.029 A 
ATOM     56  C   UNL A   1      44.288  24.638  31.226  1.00  0.00     0.049 A 
ATOM     57  H   UNL A   1      43.451  26.219  30.125  1.00  0.00     0.167 HD
ATOM     58  C   UNL A   1      40.482  29.072  28.622  1.00  0.00     0.034 A 
ATOM     59  C   UNL A   1      44.651  25.194  32.411  1.00  0.00     0.034 A 
ATOM     60  C   UNL A   1      41.721  29.677  28.210  1.00  0.00     0.049 A 
ATOM     61  C   UNL A   1      44.616  26.657  32.220  1.00  0.00     0.074 A 
ATOM     62  C   UNL A   1      42.368  29.771  26.992  1.00  0.00     0.029 A 
ATOM     63  N   UNL A   1      42.684  29.873  29.166  1.00  0.00    -0.354 N 
ATOM     64  N   UNL A   1      45.405  27.287  31.398  1.00  0.00    -0.248 NA
ATOM     65  C   UNL A   1      43.390  27.345  32.587  1.00  0.00     0.031 C 
ATOM     66  C   UNL A   1      43.726  29.460  27.293  1.00  0.00     0.029 A 
ATOM     67  C   UNL A   1      43.833  29.304  28.677  1.00  0.00     0.049 A 
ATOM     68  H   UNL A   1      42.574  30.331  30.030  1.00  0.00     0.167 HD
ATOM     69  C   UNL A   1      44.576  28.214  30.784  1.00  0.00     0.074 A 
ATOM     70  C   UNL A   1      43.371  28.261  31.615  1.00  0.00     0.031 C 
ATOM     71  C   UNL A   1      44.808  28.637  29.508  1.00  0.00     0.034 A 
BRANCH  58  72
ATOM     72  C   UNL A   1      39.510  29.768  29.545  1.00  0.00     0.023 A 
ATOM     73  C   UNL A   1      39.168  31.098  29.204  1.00  0.00     0.012 A 
ATOM     74  C   UNL A   1      39.195  29.331  30.854  1.00  0.00     0.148 A 
ATOM     75  C   UNL A   1      38.656  31.989  30.148  1.00  0.00     0.002 A 
ATOM     76  C   UNL A   1      38.643  30.216  31.781  1.00  0.00     0.091 A 
ATOM     77  F   UNL A   1      39.521  28.093  31.237  1.00  0.00    -0.205 F 
ATOM     78  C   UNL A   1      38.409  31.552  31.441  1.00  0.00     0.022 A 
BRANCH  76  79
ATOM     79  S   UNL A   1      38.252  29.740  33.472  1.00  0.00     0.127 S 
ATOM     80  O   UNL A   1      37.363  28.601  33.257  1.00  0.00    -0.237 OA
ATOM     81  O   UNL A   1      39.571  29.393  34.003  1.00  0.00    -0.237 OA
ATOM     82  O   UNL A   1      37.667  30.919  34.091  1.00  0.00    -0.744 OA
ENDBRANCH  76  79
ENDBRANCH  58  72
BRANCH  59  83
ATOM     83  C   UNL A   1      44.801  24.599  33.764  1.00  0.00     0.023 A 
ATOM     84  C   UNL A   1      43.665  24.155  34.476  1.00  0.00     0.012 A 
ATOM     85  C   UNL A   1      46.070  24.191  34.226  1.00  0.00     0.148 A 
ATOM     86  C   UNL A   1      43.789  23.311  35.589  1.00  0.00     0.002 A 
ATOM     87  C   UNL A   1      46.189  23.351  35.331  1.00  0.00     0.091 A 
ATOM     88  F   UNL A   1      47.151  24.555  33.523  1.00  0.00    -0.205 F 
ATOM     89  C   UNL A   1      45.049  22.900  36.011  1.00  0.00     0.022 A 
BRANCH  87  90
ATOM     90  S   UNL A   1      47.780  22.734  35.899  1.00  0.00     0.127 S 
ATOM     91  O   UNL A   1      47.433  22.169  37.203  1.00  0.00    -0.237 OA
ATOM     92  O   UNL A   1      48.108  21.748  34.872  1.00  0.00    -0.237 OA
ATOM     93  O   UNL A   1      48.657  23.896  35.949  1.00  0.00    -0.744 OA
ENDBRANCH  87  90
ENDBRANCH  59  83
BRANCH  71  94
ATOM     94  C   UNL A   1      46.069  28.178  28.813  1.00  0.00     0.023 A 
ATOM     95  C   UNL A   1      47.346  28.702  29.113  1.00  0.00     0.012 A 
ATOM     96  C   UNL A   1      45.985  27.043  27.994  1.00  0.00     0.148 A 
ATOM     97  C   UNL A   1      48.507  28.117  28.599  1.00  0.00     0.002 A 
ATOM     98  C   UNL A   1      47.142  26.432  27.527  1.00  0.00     0.091 A 
ATOM     99  F   UNL A   1      44.767  26.551  27.722  1.00  0.00    -0.205 F 
ATOM    100  C   UNL A   1      48.405  26.970  27.818  1.00  0.00     0.022 A 
BRANCH  98 101
ATOM    101  S   UNL A   1      47.080  24.879  26.634  1.00  0.00     0.127 S 
ATOM    102  O   UNL A   1      46.297  25.240  25.454  1.00  0.00    -0.237 OA
ATOM    103  O   UNL A   1      48.496  24.613  26.373  1.00  0.00    -0.237 OA
ATOM    104  O   UNL A   1      46.450  23.921  27.535  1.00  0.00    -0.744 OA
ENDBRANCH  98 101
ENDBRANCH  71  94
ENDBRANCH  45  46
ENDBRANCH  37  40
ENDBRANCH  35  36
ENDBRANCH  34  35
ENDBRANCH   1  34
TORSDOF 19
ENDMDL
MODEL 2
REMARK VINA RESULT:     -12.1      4.948     10.370
REMARK SMILES NS(=O)(=O)c1ccc(-n2nc(C(F)(F)F)cc2-c2ccc(CC(=O)NCCCNC(=O)c3ccc(-c4c5nc(c(-c6cccc(S(=O)(=O)[O-])c6F)c6ccc([nH]6)c(-c6cccc(S(=O)(=O)[O-])c6F)c6nc(c(-c7cccc(S(=O)(=O)[O-])c7F)c7ccc4[nH]7)C=C6)C=C5)cc3)cc2)cc1
REMARK SMILES IDX 26 1 25 2 23 3 24 4 22 6 21 7 18 8 19 9 96 10 20 11 95 12
REMARK SMILES IDX 17 13 9 14 10 15 11 16 16 17 8 18 5 19 6 20 98 21 7 22 97 23
REMARK SMILES IDX 2 24 3 25 4 26 1 27 12 30 13 31 14 32 15 33 27 34 28 35
REMARK SMILES IDX 29 36 30 37 31 39 32 40 33 41 94 42 34 43 93 44 35 45 36 46
REMARK SMILES IDX 37 47 87 48 38 49 92 50 86 51 88 52 39 53 91 54 85 55 84 56
REMARK SMILES IDX 40 58 72 59 52 60 71 61 53 62 56 63 70 64 89 65 54 66 55 67
REMARK SMILES IDX 69 69 90 70 57 71 41 72 42 73 50 74 43 75 45 76 51 77 44 78
REMARK SMILES IDX 46 79 47 80 48 81 49 82 73 83 74 84 82 85 75 86 77 87 83 88
REMARK SMILES IDX 76 89 78 90 79 91 80 92 81 93 58 94 59 95 67 96 60 97 62 98
REMARK SMILES IDX 68 99 61 100 63 101 64 102 65 103 66 104
REMARK H PARENT 25 5 1 28 1 29 29 38 88 57 56 68
REMARK Flexibility Score: inf
ROOT
ATOM      1  C   UNL A   1      32.334  29.695  25.084  1.00  0.00     0.117 C 
ENDROOT
BRANCH   1   2
ATOM      2  N   UNL A   1      31.425  28.850  24.331  1.00  0.00    -0.356 N 
ATOM      3  C   UNL A   1      31.693  27.732  23.597  1.00  0.00     0.224 C 
ATOM      4  O   UNL A   1      30.748  27.086  23.145  1.00  0.00    -0.275 OA
ATOM      5  H   UNL A   1      30.478  29.124  24.353  1.00  0.00     0.163 HD
BRANCH   3   6
ATOM      6  C   UNL A   1      33.118  27.243  23.433  1.00  0.00     0.135 C 
BRANCH   6   7
ATOM      7  C   UNL A   1      33.332  25.774  23.709  1.00  0.00    -0.039 A 
ATOM      8  C   UNL A   1      33.756  23.026  24.214  1.00  0.00     0.000 A 
ATOM      9  C   UNL A   1      33.332  23.891  25.236  1.00  0.00     0.010 A 
ATOM     10  C   UNL A   1      33.986  23.556  22.941  1.00  0.00     0.010 A 
ATOM     11  C   UNL A   1      33.107  25.248  24.985  1.00  0.00     0.005 A 
ATOM     12  C   UNL A   1      33.787  24.918  22.696  1.00  0.00     0.005 A 
BRANCH   8  13
ATOM     13  C   UNL A   1      33.921  21.587  24.455  1.00  0.00     0.075 A 
ATOM     14  N   UNL A   1      35.129  20.965  24.755  1.00  0.00    -0.233 N 
ATOM     15  N   UNL A   1      35.042  19.616  24.713  1.00  0.00    -0.163 NA
ATOM     16  C   UNL A   1      33.726  19.363  24.601  1.00  0.00     0.167 A 
ATOM     17  C   UNL A   1      32.996  20.565  24.410  1.00  0.00     0.064 A 
BRANCH  14  18
ATOM     18  C   UNL A   1      36.330  21.600  25.128  1.00  0.00     0.065 A 
ATOM     19  C   UNL A   1      38.633  22.657  26.180  1.00  0.00     0.082 A 
ATOM     20  C   UNL A   1      38.683  21.418  25.538  1.00  0.00     0.024 A 
ATOM     21  C   UNL A   1      37.461  23.410  26.241  1.00  0.00     0.024 A 
ATOM     22  C   UNL A   1      37.527  20.884  25.009  1.00  0.00     0.030 A 
ATOM     23  C   UNL A   1      36.296  22.883  25.689  1.00  0.00     0.030 A 
BRANCH  19  24
ATOM     24  S   UNL A   1      40.156  23.313  26.742  1.00  0.00     0.238 S 
ATOM     25  O   UNL A   1      40.500  22.774  28.028  1.00  0.00    -0.207 OA
ATOM     26  O   UNL A   1      40.056  24.719  26.446  1.00  0.00    -0.207 OA
BRANCH  24  27
ATOM     27  N   UNL A   1      41.282  22.657  25.674  1.00  0.00    -0.225 NA
ATOM     28  H   UNL A   1      40.830  21.947  25.098  1.00  0.00     0.137 HD
ATOM     29  H   UNL A   1      42.044  22.233  26.202  1.00  0.00     0.137 HD
ENDBRANCH  24  27
ENDBRANCH  19  24
ENDBRANCH  14  18
BRANCH  16  30
ATOM     30  C   UNL A   1      33.158  17.975  24.671  1.00  0.00     0.435 C 
ATOM     31  F   UNL A   1      31.887  17.933  25.150  1.00  0.00    -0.164 F 
ATOM     32  F   UNL A   1      33.148  17.362  23.456  1.00  0.00    -0.164 F 
ATOM     33  F   UNL A   1      33.899  17.172  25.487  1.00  0.00    -0.164 F 
ENDBRANCH  16  30
ENDBRANCH   8  13
ENDBRANCH   6   7
ENDBRANCH   3   6
ENDBRANCH   1   2
BRANCH   1  34
ATOM     34  C   UNL A   1      31.814  30.057  26.478  1.00  0.00     0.042 C 
BRANCH  34  35
ATOM     35  C   UNL A   1      32.791  30.929  27.247  1.00  0.00     0.118 C 
BRANCH  35  36
ATOM     36  N   UNL A   1      32.440  32.360  27.238  1.00  0.00    -0.352 N 
ATOM     37  C   UNL A   1      32.965  33.384  28.017  1.00  0.00     0.251 C 
ATOM     38  H   UNL A   1      31.744  32.625  26.595  1.00  0.00     0.163 HD
ATOM     39  O   UNL A   1      32.365  34.447  28.137  1.00  0.00    -0.269 OA
BRANCH  37  40
ATOM     40  C   UNL A   1      34.267  33.178  28.680  1.00  0.00     0.039 A 
ATOM     41  C   UNL A   1      34.420  32.710  29.990  1.00  0.00     0.014 A 
ATOM     42  C   UNL A   1      35.383  33.444  27.912  1.00  0.00     0.014 A 
ATOM     43  C   UNL A   1      35.713  32.470  30.477  1.00  0.00     0.010 A 
ATOM     44  C   UNL A   1      36.578  32.906  28.270  1.00  0.00     0.010 A 
ATOM     45  C   UNL A   1      36.800  32.563  29.596  1.00  0.00    -0.014 A 
BRANCH  45  46
ATOM     46  C   UNL A   1      38.186  32.214  29.928  1.00  0.00     0.031 A 
ATOM     47  C   UNL A   1      38.578  30.782  29.700  1.00  0.00     0.074 A 
ATOM     48  C   UNL A   1      39.105  33.213  30.058  1.00  0.00     0.049 A 
ATOM     49  N   UNL A   1      39.480  30.079  30.297  1.00  0.00    -0.248 NA
ATOM     50  C   UNL A   1      37.880  30.022  28.658  1.00  0.00     0.031 C 
ATOM     51  C   UNL A   1      38.881  34.674  29.996  1.00  0.00     0.029 A 
ATOM     52  N   UNL A   1      40.466  33.147  30.085  1.00  0.00    -0.354 N 
ATOM     53  C   UNL A   1      39.593  28.879  29.583  1.00  0.00     0.074 A 
ATOM     54  C   UNL A   1      38.600  28.907  28.553  1.00  0.00     0.031 C 
ATOM     55  C   UNL A   1      40.040  35.314  29.727  1.00  0.00     0.029 A 
ATOM     56  C   UNL A   1      41.118  34.349  29.784  1.00  0.00     0.049 A 
ATOM     57  H   UNL A   1      40.953  32.319  30.300  1.00  0.00     0.167 HD
ATOM     58  C   UNL A   1      40.567  27.976  29.858  1.00  0.00     0.034 A 
ATOM     59  C   UNL A   1      42.445  34.547  29.570  1.00  0.00     0.034 A 
ATOM     60  C   UNL A   1      40.993  28.105  31.226  1.00  0.00     0.049 A 
ATOM     61  C   UNL A   1      43.142  33.375  30.137  1.00  0.00     0.074 A 
ATOM     62  C   UNL A   1      40.331  28.000  32.436  1.00  0.00     0.029 A 
ATOM     63  N   UNL A   1      42.123  28.840  31.476  1.00  0.00    -0.354 N 
ATOM     64  N   UNL A   1      43.135  33.088  31.407  1.00  0.00    -0.248 NA
ATOM     65  C   UNL A   1      43.440  32.279  29.233  1.00  0.00     0.031 C 
ATOM     66  C   UNL A   1      40.796  29.119  33.187  1.00  0.00     0.029 A 
ATOM     67  C   UNL A   1      41.779  29.763  32.431  1.00  0.00     0.049 A 
ATOM     68  H   UNL A   1      43.005  28.727  31.055  1.00  0.00     0.167 HD
ATOM     69  C   UNL A   1      42.958  31.712  31.437  1.00  0.00     0.074 A 
ATOM     70  C   UNL A   1      43.238  31.260  30.072  1.00  0.00     0.031 C 
ATOM     71  C   UNL A   1      42.316  31.103  32.475  1.00  0.00     0.034 A 
BRANCH  58  72
ATOM     72  C   UNL A   1      41.367  27.207  28.833  1.00  0.00     0.023 A 
ATOM     73  C   UNL A   1      41.833  25.932  29.231  1.00  0.00     0.012 A 
ATOM     74  C   UNL A   1      41.951  27.781  27.677  1.00  0.00     0.148 A 
ATOM     75  C   UNL A   1      42.909  25.312  28.595  1.00  0.00     0.002 A 
ATOM     76  C   UNL A   1      42.998  27.135  27.019  1.00  0.00     0.091 A 
ATOM     77  F   UNL A   1      41.566  28.995  27.272  1.00  0.00    -0.205 F 
ATOM     78  C   UNL A   1      43.502  25.921  27.498  1.00  0.00     0.022 A 
BRANCH  76  79
ATOM     79  S   UNL A   1      43.812  27.822  25.568  1.00  0.00     0.127 S 
ATOM     80  O   UNL A   1      44.759  26.761  25.234  1.00  0.00    -0.237 OA
ATOM     81  O   UNL A   1      42.695  27.962  24.632  1.00  0.00    -0.237 OA
ATOM     82  O   UNL A   1      44.376  29.093  25.996  1.00  0.00    -0.744 OA
ENDBRANCH  76  79
ENDBRANCH  58  72
BRANCH  59  83
ATOM     83  C   UNL A   1      43.161  35.530  28.720  1.00  0.00     0.023 A 
ATOM     84  C   UNL A   1      43.154  35.395  27.314  1.00  0.00     0.012 A 
ATOM     85  C   UNL A   1      43.592  36.760  29.261  1.00  0.00     0.148 A 
ATOM     86  C   UNL A   1      43.534  36.456  26.479  1.00  0.00     0.002 A 
ATOM     87  C   UNL A   1      43.966  37.812  28.429  1.00  0.00     0.091 A 
ATOM     88  F   UNL A   1      43.545  36.922  30.590  1.00  0.00    -0.205 F 
ATOM     89  C   UNL A   1      43.929  37.668  27.036  1.00  0.00     0.022 A 
BRANCH  87  90
ATOM     90  S   UNL A   1      44.435  39.425  29.074  1.00  0.00     0.127 S 
ATOM     91  O   UNL A   1      44.877  40.114  27.862  1.00  0.00    -0.237 OA
ATOM     92  O   UNL A   1      43.173  39.909  29.628  1.00  0.00    -0.237 OA
ATOM     93  O   UNL A   1      45.485  39.168  30.050  1.00  0.00    -0.744 OA
ENDBRANCH  87  90
ENDBRANCH  59  83
BRANCH  71  94
ATOM     94  C   UNL A   1      41.916  31.940  33.668  1.00  0.00     0.023 A 
ATOM     95  C   UNL A   1      42.835  32.362  34.653  1.00  0.00     0.012 A 
ATOM     96  C   UNL A   1      40.625  32.488  33.675  1.00  0.00     0.148 A 
ATOM     97  C   UNL A   1      42.472  33.297  35.628  1.00  0.00     0.002 A 
ATOM     98  C   UNL A   1      40.282  33.455  34.612  1.00  0.00     0.091 A 
ATOM     99  F   UNL A   1      39.764  32.083  32.730  1.00  0.00    -0.205 F 
ATOM    100  C   UNL A   1      41.199  33.856  35.597  1.00  0.00     0.022 A 
BRANCH  98 101
ATOM    101  S   UNL A   1      38.708  34.308  34.537  1.00  0.00     0.127 S 
ATOM    102  O   UNL A   1      37.785  33.281  35.014  1.00  0.00    -0.237 OA
ATOM    103  O   UNL A   1      38.915  35.425  35.461  1.00  0.00    -0.237 OA
ATOM    104  O   UNL A   1      38.533  34.710  33.146  1.00  0.00    -0.744 OA
ENDBRANCH  98 101
ENDBRANCH  71  94
ENDBRANCH  45  46
ENDBRANCH  37  40
ENDBRANCH  35  36
ENDBRANCH  34  35
ENDBRANCH   1  34
TORSDOF 19
ENDMDL
MODEL 3
REMARK VINA RESULT:     -12.0      3.411      7.200
REMARK SMILES NS(=O)(=O)c1ccc(-n2nc(C(F)(F)F)cc2-c2ccc(CC(=O)NCCCNC(=O)c3ccc(-c4c5nc(c(-c6cccc(S(=O)(=O)[O-])c6F)c6ccc([nH]6)c(-c6cccc(S(=O)(=O)[O-])c6F)c6nc(c(-c7cccc(S(=O)(=O)[O-])c7F)c7ccc4[nH]7)C=C6)C=C5)cc3)cc2)cc1
REMARK SMILES IDX 26 1 25 2 23 3 24 4 22 6 21 7 18 8 19 9 96 10 20 11 95 12
REMARK SMILES IDX 17 13 9 14 10 15 11 16 16 17 8 18 5 19 6 20 98 21 7 22 97 23
REMARK SMILES IDX 2 24 3 25 4 26 1 27 12 30 13 31 14 32 15 33 27 34 28 35
REMARK SMILES IDX 29 36 30 37 31 39 32 40 33 41 94 42 34 43 93 44 35 45 36 46
REMARK SMILES IDX 37 47 87 48 38 49 92 50 86 51 88 52 39 53 91 54 85 55 84 56
REMARK SMILES IDX 40 58 72 59 52 60 71 61 53 62 56 63 70 64 89 65 54 66 55 67
REMARK SMILES IDX 69 69 90 70 57 71 41 72 42 73 50 74 43 75 45 76 51 77 44 78
REMARK SMILES IDX 46 79 47 80 48 81 49 82 73 83 74 84 82 85 75 86 77 87 83 88
REMARK SMILES IDX 76 89 78 90 79 91 80 92 81 93 58 94 59 95 67 96 60 97 62 98
REMARK SMILES IDX 68 99 61 100 63 101 64 102 65 103 66 104
REMARK H PARENT 25 5 1 28 1 29 29 38 88 57 56 68
REMARK Flexibility Score: inf
ROOT
ATOM      1  C   UNL A   1      35.449  22.447  26.157  1.00  0.00     0.117 C 
ENDROOT
BRANCH   1   2
ATOM      2  N   UNL A   1      34.497  22.517  27.251  1.00  0.00    -0.356 N 
ATOM      3  C   UNL A   1      33.133  22.522  27.211  1.00  0.00     0.224 C 
ATOM      4  O   UNL A   1      32.515  22.451  28.273  1.00  0.00    -0.275 OA
ATOM      5  H   UNL A   1      34.893  22.570  28.152  1.00  0.00     0.163 HD
BRANCH   3   6
ATOM      6  C   UNL A   1      32.403  22.507  25.883  1.00  0.00     0.135 C 
BRANCH   6   7
ATOM      7  C   UNL A   1      31.887  23.848  25.416  1.00  0.00    -0.039 A 
ATOM      8  C   UNL A   1      30.915  26.344  24.519  1.00  0.00     0.000 A 
ATOM      9  C   UNL A   1      30.551  25.838  25.778  1.00  0.00     0.010 A 
ATOM     10  C   UNL A   1      31.755  25.578  23.706  1.00  0.00     0.010 A 
ATOM     11  C   UNL A   1      31.042  24.610  26.229  1.00  0.00     0.005 A 
ATOM     12  C   UNL A   1      32.226  24.337  24.146  1.00  0.00     0.005 A 
BRANCH   8  13
ATOM     13  C   UNL A   1      30.461  27.667  24.071  1.00  0.00     0.075 A 
ATOM     14  N   UNL A   1      30.924  28.878  24.575  1.00  0.00    -0.233 N 
ATOM     15  N   UNL A   1      30.190  29.932  24.150  1.00  0.00    -0.163 NA
ATOM     16  C   UNL A   1      29.388  29.425  23.196  1.00  0.00     0.167 A 
ATOM     17  C   UNL A   1      29.508  28.012  23.135  1.00  0.00     0.064 A 
BRANCH  14  18
ATOM     18  C   UNL A   1      32.056  29.070  25.392  1.00  0.00     0.065 A 
ATOM     19  C   UNL A   1      34.365  29.701  26.733  1.00  0.00     0.082 A 
ATOM     20  C   UNL A   1      33.210  30.447  26.976  1.00  0.00     0.024 A 
ATOM     21  C   UNL A   1      34.364  28.597  25.882  1.00  0.00     0.024 A 
ATOM     22  C   UNL A   1      32.048  30.133  26.303  1.00  0.00     0.030 A 
ATOM     23  C   UNL A   1      33.187  28.263  25.217  1.00  0.00     0.030 A 
BRANCH  19  24
ATOM     24  S   UNL A   1      35.773  30.099  27.694  1.00  0.00     0.238 S 
ATOM     25  O   UNL A   1      36.978  29.698  27.023  1.00  0.00    -0.207 OA
ATOM     26  O   UNL A   1      35.408  29.693  29.027  1.00  0.00    -0.207 OA
BRANCH  24  27
ATOM     27  N   UNL A   1      35.797  31.783  27.674  1.00  0.00    -0.225 NA
ATOM     28  H   UNL A   1      36.656  32.105  27.230  1.00  0.00     0.137 HD
ATOM     29  H   UNL A   1      35.757  32.135  28.631  1.00  0.00     0.137 HD
ENDBRANCH  24  27
ENDBRANCH  19  24
ENDBRANCH  14  18
BRANCH  16  30
ATOM     30  C   UNL A   1      28.501  30.284  22.342  1.00  0.00     0.435 C 
ATOM     31  F   UNL A   1      27.319  30.598  22.934  1.00  0.00    -0.164 F 
ATOM     32  F   UNL A   1      29.099  31.456  21.995  1.00  0.00    -0.164 F 
ATOM     33  F   UNL A   1      28.186  29.664  21.168  1.00  0.00    -0.164 F 
ENDBRANCH  16  30
ENDBRANCH   8  13
ENDBRANCH   6   7
ENDBRANCH   3   6
ENDBRANCH   1   2
BRANCH   1  34
ATOM     34  C   UNL A   1      35.976  23.816  25.722  1.00  0.00     0.042 C 
BRANCH  34  35
ATOM     35  C   UNL A   1      37.449  23.774  25.354  1.00  0.00     0.118 C 
BRANCH  35  36
ATOM     36  N   UNL A   1      38.208  22.733  26.070  1.00  0.00    -0.352 N 
ATOM     37  C   UNL A   1      39.357  22.875  26.838  1.00  0.00     0.251 C 
ATOM     38  H   UNL A   1      37.852  21.819  25.996  1.00  0.00     0.163 HD
ATOM     39  O   UNL A   1      40.056  21.902  27.100  1.00  0.00    -0.269 OA
BRANCH  37  40
ATOM     40  C   UNL A   1      39.711  24.213  27.350  1.00  0.00     0.039 A 
ATOM     41  C   UNL A   1      38.860  25.324  27.307  1.00  0.00     0.014 A 
ATOM     42  C   UNL A   1      40.958  24.326  27.932  1.00  0.00     0.014 A 
ATOM     43  C   UNL A   1      39.278  26.520  27.908  1.00  0.00     0.010 A 
ATOM     44  C   UNL A   1      41.203  25.361  28.778  1.00  0.00     0.010 A 
ATOM     45  C   UNL A   1      40.462  26.527  28.659  1.00  0.00    -0.014 A 
BRANCH  45  46
ATOM     46  C   UNL A   1      40.952  27.663  29.449  1.00  0.00     0.031 A 
ATOM     47  C   UNL A   1      42.044  28.481  28.819  1.00  0.00     0.074 A 
ATOM     48  C   UNL A   1      40.190  28.127  30.478  1.00  0.00     0.049 A 
ATOM     49  N   UNL A   1      42.968  29.180  29.387  1.00  0.00    -0.248 NA
ATOM     50  C   UNL A   1      42.118  28.544  27.356  1.00  0.00     0.031 C 
ATOM     51  C   UNL A   1      38.920  27.573  30.998  1.00  0.00     0.029 A 
ATOM     52  N   UNL A   1      40.276  29.300  31.167  1.00  0.00    -0.354 N 
ATOM     53  C   UNL A   1      43.600  29.911  28.372  1.00  0.00     0.074 A 
ATOM     54  C   UNL A   1      43.012  29.505  27.132  1.00  0.00     0.031 C 
ATOM     55  C   UNL A   1      38.250  28.515  31.698  1.00  0.00     0.029 A 
ATOM     56  C   UNL A   1      39.108  29.672  31.844  1.00  0.00     0.049 A 
ATOM     57  H   UNL A   1      41.096  29.844  31.187  1.00  0.00     0.167 HD
ATOM     58  C   UNL A   1      44.521  30.867  28.651  1.00  0.00     0.034 A 
ATOM     59  C   UNL A   1      38.843  30.851  32.464  1.00  0.00     0.034 A 
ATOM     60  C   UNL A   1      45.150  30.595  29.916  1.00  0.00     0.049 A 
ATOM     61  C   UNL A   1      40.144  31.513  32.686  1.00  0.00     0.074 A 
ATOM     62  C   UNL A   1      45.879  29.524  30.399  1.00  0.00     0.029 A 
ATOM     63  N   UNL A   1      44.678  31.259  31.019  1.00  0.00    -0.354 N 
ATOM     64  N   UNL A   1      41.067  31.024  33.464  1.00  0.00    -0.248 NA
ATOM     65  C   UNL A   1      40.588  32.458  31.678  1.00  0.00     0.031 C 
ATOM     66  C   UNL A   1      45.343  29.294  31.700  1.00  0.00     0.029 A 
ATOM     67  C   UNL A   1      44.406  30.298  31.960  1.00  0.00     0.049 A 
ATOM     68  H   UNL A   1      44.558  32.231  31.117  1.00  0.00     0.167 HD
ATOM     69  C   UNL A   1      42.242  31.226  32.755  1.00  0.00     0.074 A 
ATOM     70  C   UNL A   1      41.896  32.187  31.705  1.00  0.00     0.031 C 
ATOM     71  C   UNL A   1      43.305  30.382  32.891  1.00  0.00     0.034 A 
BRANCH  58  72
ATOM     72  C   UNL A   1      44.630  32.208  27.966  1.00  0.00     0.023 A 
ATOM     73  C   UNL A   1      45.829  32.451  27.255  1.00  0.00     0.012 A 
ATOM     74  C   UNL A   1      43.807  33.324  28.252  1.00  0.00     0.148 A 
ATOM     75  C   UNL A   1      46.255  33.745  26.953  1.00  0.00     0.002 A 
ATOM     76  C   UNL A   1      44.218  34.612  27.910  1.00  0.00     0.091 A 
ATOM     77  F   UNL A   1      42.677  33.154  28.945  1.00  0.00    -0.205 F 
ATOM     78  C   UNL A   1      45.456  34.827  27.296  1.00  0.00     0.022 A 
BRANCH  76  79
ATOM     79  S   UNL A   1      43.241  36.079  28.276  1.00  0.00     0.127 S 
ATOM     80  O   UNL A   1      43.495  36.250  29.704  1.00  0.00    -0.237 OA
ATOM     81  O   UNL A   1      43.872  37.085  27.419  1.00  0.00    -0.237 OA
ATOM     82  O   UNL A   1      41.878  35.754  27.887  1.00  0.00    -0.744 OA
ENDBRANCH  76  79
ENDBRANCH  58  72
BRANCH  59  83
ATOM     83  C   UNL A   1      37.565  31.577  32.676  1.00  0.00     0.023 A 
ATOM     84  C   UNL A   1      37.201  32.015  33.968  1.00  0.00     0.012 A 
ATOM     85  C   UNL A   1      36.854  32.102  31.577  1.00  0.00     0.148 A 
ATOM     86  C   UNL A   1      36.186  32.966  34.154  1.00  0.00     0.002 A 
ATOM     87  C   UNL A   1      35.847  33.047  31.766  1.00  0.00     0.091 A 
ATOM     88  F   UNL A   1      37.230  31.741  30.343  1.00  0.00    -0.205 F 
ATOM     89  C   UNL A   1      35.516  33.489  33.054  1.00  0.00     0.022 A 
BRANCH  87  90
ATOM     90  S   UNL A   1      34.977  33.810  30.388  1.00  0.00     0.127 S 
ATOM     91  O   UNL A   1      34.150  32.703  29.907  1.00  0.00    -0.237 OA
ATOM     92  O   UNL A   1      34.240  34.883  31.051  1.00  0.00    -0.237 OA
ATOM     93  O   UNL A   1      36.014  34.247  29.463  1.00  0.00    -0.744 OA
ENDBRANCH  87  90
ENDBRANCH  59  83
BRANCH  71  94
ATOM     94  C   UNL A   1      43.233  29.291  33.934  1.00  0.00     0.023 A 
ATOM     95  C   UNL A   1      42.799  27.979  33.645  1.00  0.00     0.012 A 
ATOM     96  C   UNL A   1      43.818  29.545  35.182  1.00  0.00     0.148 A 
ATOM     97  C   UNL A   1      42.935  26.949  34.582  1.00  0.00     0.002 A 
ATOM     98  C   UNL A   1      44.000  28.510  36.092  1.00  0.00     0.091 A 
ATOM     99  F   UNL A   1      44.232  30.794  35.442  1.00  0.00    -0.205 F 
ATOM    100  C   UNL A   1      43.552  27.213  35.800  1.00  0.00     0.022 A 
BRANCH  98 101
ATOM    101  S   UNL A   1      44.909  28.758  37.617  1.00  0.00     0.127 S 
ATOM    102  O   UNL A   1      46.240  29.103  37.122  1.00  0.00    -0.237 OA
ATOM    103  O   UNL A   1      44.179  29.865  38.238  1.00  0.00    -0.237 OA
ATOM    104  O   UNL A   1      44.819  27.500  38.348  1.00  0.00    -0.744 OA
ENDBRANCH  98 101
ENDBRANCH  71  94
ENDBRANCH  45  46
ENDBRANCH  37  40
ENDBRANCH  35  36
ENDBRANCH  34  35
ENDBRANCH   1  34
TORSDOF 19
ENDMDL
