MODEL 1
REMARK VINA RESULT:     -11.2      0.000      0.000
REMARK SMILES CCc1nc(=O)n([C@@H](CC)C(C)C)c(CC)c1CC(=O)NCCCNC(=O)c1ccc(-c2c3nc(c(-c4cccc(S(=O)(=O)[O-])c4F)c4ccc([nH]4)c(-c4cccc(S(=O)(=O)[O-])c4F)c4nc(c(-c5cccc(S(=O)(=O)[O-])c5F)c5ccc2[nH]5)C=C4)C=C3)cc1
REMARK SMILES IDX 23 1 22 2 21 3 19 4 20 5 18 7 17 8 3 9 4 10 5 11 14 12 6 13
REMARK SMILES IDX 7 14 2 15 1 16 15 17 16 18 8 19 9 20 10 21 11 22 12 23 13 24
REMARK SMILES IDX 24 25 25 26 26 27 27 29 28 30 29 31 90 32 30 33 89 34 31 35
REMARK SMILES IDX 32 36 33 37 83 38 34 39 88 40 82 41 84 42 35 43 87 44 81 45
REMARK SMILES IDX 80 46 36 48 68 49 48 50 67 51 49 52 52 53 66 54 85 55 50 56
REMARK SMILES IDX 51 57 65 59 86 60 53 61 37 62 38 63 46 64 39 65 41 66 47 67
REMARK SMILES IDX 40 68 42 69 43 70 44 71 45 72 69 73 70 74 78 75 71 76 73 77
REMARK SMILES IDX 79 78 72 79 74 80 75 81 76 82 77 83 54 84 55 85 63 86 56 87
REMARK SMILES IDX 58 88 64 89 57 90 59 91 60 92 61 93 62 94
REMARK H PARENT 21 6 25 28 84 47 52 58
REMARK Flexibility Score: inf
ROOT
ATOM      1  C   UNL A   1      31.183  31.724  26.461  1.00  0.00     0.042 C 
ENDROOT
BRANCH   1   2
ATOM      2  C   UNL A   1      31.330  30.354  25.824  1.00  0.00     0.117 C 
BRANCH   2   3
ATOM      3  N   UNL A   1      32.628  29.764  26.067  1.00  0.00    -0.356 N 
ATOM      4  C   UNL A   1      32.999  28.456  25.983  1.00  0.00     0.224 C 
ATOM      5  O   UNL A   1      34.177  28.166  26.189  1.00  0.00    -0.275 OA
ATOM      6  H   UNL A   1      33.340  30.392  26.327  1.00  0.00     0.163 HD
BRANCH   4   7
ATOM      7  C   UNL A   1      31.974  27.392  25.593  1.00  0.00     0.139 C 
BRANCH   7   8
ATOM      8  C   UNL A   1      32.354  26.515  24.422  1.00  0.00     0.003 A 
ATOM      9  C   UNL A   1      32.107  27.010  23.033  1.00  0.00     0.051 A 
ATOM     10  N   UNL A   1      32.410  26.355  21.970  1.00  0.00    -0.198 NA
ATOM     11  C   UNL A   1      32.995  25.129  22.047  1.00  0.00     0.348 A 
ATOM     12  C   UNL A   1      32.964  25.303  24.496  1.00  0.00     0.028 A 
ATOM     13  O   UNL A   1      33.294  24.554  21.005  1.00  0.00    -0.246 OA
ATOM     14  N   UNL A   1      33.258  24.580  23.317  1.00  0.00    -0.293 N 
BRANCH   9  15
ATOM     15  C   UNL A   1      31.466  28.376  22.753  1.00  0.00     0.053 C 
ATOM     16  C   UNL A   1      29.955  28.343  22.642  1.00  0.00     0.011 C 
ENDBRANCH   9  15
BRANCH  12  17
ATOM     17  C   UNL A   1      33.430  24.746  25.843  1.00  0.00     0.051 C 
ATOM     18  C   UNL A   1      32.365  23.995  26.637  1.00  0.00     0.010 C 
ENDBRANCH  12  17
BRANCH  14  19
ATOM     19  C   UNL A   1      33.860  23.206  23.352  1.00  0.00     0.094 C 
BRANCH  19  20
ATOM     20  C   UNL A   1      35.253  23.190  24.041  1.00  0.00     0.022 C 
ATOM     21  C   UNL A   1      36.480  22.982  23.169  1.00  0.00     0.006 C 
ENDBRANCH  19  20
BRANCH  19  22
ATOM     22  C   UNL A   1      32.870  22.077  23.784  1.00  0.00     0.006 C 
ATOM     23  C   UNL A   1      32.115  21.513  22.570  1.00  0.00     0.009 C 
ATOM     24  C   UNL A   1      33.594  20.919  24.486  1.00  0.00     0.009 C 
ENDBRANCH  19  22
ENDBRANCH  14  19
ENDBRANCH   7   8
ENDBRANCH   4   7
ENDBRANCH   2   3
ENDBRANCH   1   2
BRANCH   1  25
ATOM     25  C   UNL A   1      32.514  32.445  26.601  1.00  0.00     0.118 C 
BRANCH  25  26
ATOM     26  N   UNL A   1      32.404  33.680  27.375  1.00  0.00    -0.352 N 
ATOM     27  C   UNL A   1      33.170  34.129  28.426  1.00  0.00     0.251 C 
ATOM     28  H   UNL A   1      31.674  34.281  27.102  1.00  0.00     0.163 HD
ATOM     29  O   UNL A   1      32.808  35.111  29.066  1.00  0.00    -0.269 OA
BRANCH  27  30
ATOM     30  C   UNL A   1      34.398  33.396  28.786  1.00  0.00     0.039 A 
ATOM     31  C   UNL A   1      34.320  32.056  29.161  1.00  0.00     0.014 A 
ATOM     32  C   UNL A   1      35.621  34.069  28.815  1.00  0.00     0.014 A 
ATOM     33  C   UNL A   1      35.404  31.460  29.784  1.00  0.00     0.010 A 
ATOM     34  C   UNL A   1      36.747  33.421  29.330  1.00  0.00     0.010 A 
ATOM     35  C   UNL A   1      36.632  32.135  29.878  1.00  0.00    -0.014 A 
BRANCH  35  36
ATOM     36  C   UNL A   1      37.771  31.470  30.560  1.00  0.00     0.031 A 
ATOM     37  C   UNL A   1      38.651  30.493  29.825  1.00  0.00     0.074 A 
ATOM     38  C   UNL A   1      38.040  31.792  31.842  1.00  0.00     0.049 A 
ATOM     39  N   UNL A   1      39.682  29.825  30.274  1.00  0.00    -0.248 NA
ATOM     40  C   UNL A   1      38.340  30.225  28.411  1.00  0.00     0.031 C 
ATOM     41  C   UNL A   1      37.260  32.725  32.659  1.00  0.00     0.029 A 
ATOM     42  N   UNL A   1      39.048  31.384  32.677  1.00  0.00    -0.354 N 
ATOM     43  C   UNL A   1      40.113  29.029  29.220  1.00  0.00     0.074 A 
ATOM     44  C   UNL A   1      39.232  29.292  28.104  1.00  0.00     0.031 C 
ATOM     45  C   UNL A   1      37.841  32.853  33.859  1.00  0.00     0.029 A 
ATOM     46  C   UNL A   1      38.990  31.958  33.924  1.00  0.00     0.049 A 
ATOM     47  H   UNL A   1      39.745  30.743  32.409  1.00  0.00     0.167 HD
ATOM     48  C   UNL A   1      41.159  28.171  29.181  1.00  0.00     0.034 A 
ATOM     49  C   UNL A   1      39.758  31.772  35.014  1.00  0.00     0.034 A 
ATOM     50  C   UNL A   1      42.065  27.952  30.276  1.00  0.00     0.049 A 
ATOM     51  C   UNL A   1      40.901  30.807  34.946  1.00  0.00     0.074 A 
ATOM     52  C   UNL A   1      43.181  27.134  30.310  1.00  0.00     0.029 A 
ATOM     53  N   UNL A   1      41.966  28.550  31.521  1.00  0.00    -0.354 N 
ATOM     54  N   UNL A   1      41.323  30.108  33.921  1.00  0.00    -0.248 NA
ATOM     55  C   UNL A   1      41.683  30.611  36.174  1.00  0.00     0.031 C 
ATOM     56  C   UNL A   1      43.745  27.221  31.584  1.00  0.00     0.029 A 
ATOM     57  C   UNL A   1      42.996  28.113  32.334  1.00  0.00     0.049 A 
ATOM     58  H   UNL A   1      41.267  29.190  31.787  1.00  0.00     0.167 HD
ATOM     59  C   UNL A   1      42.429  29.402  34.373  1.00  0.00     0.074 A 
ATOM     60  C   UNL A   1      42.622  29.769  35.761  1.00  0.00     0.031 C 
ATOM     61  C   UNL A   1      43.203  28.520  33.699  1.00  0.00     0.034 A 
BRANCH  48  62
ATOM     62  C   UNL A   1      41.422  27.421  27.904  1.00  0.00     0.023 A 
ATOM     63  C   UNL A   1      41.991  28.098  26.809  1.00  0.00     0.012 A 
ATOM     64  C   UNL A   1      41.226  26.027  27.836  1.00  0.00     0.148 A 
ATOM     65  C   UNL A   1      42.359  27.398  25.659  1.00  0.00     0.002 A 
ATOM     66  C   UNL A   1      41.623  25.333  26.699  1.00  0.00     0.091 A 
ATOM     67  F   UNL A   1      40.675  25.410  28.890  1.00  0.00    -0.205 F 
ATOM     68  C   UNL A   1      42.186  26.017  25.610  1.00  0.00     0.022 A 
BRANCH  66  69
ATOM     69  S   UNL A   1      41.493  23.547  26.555  1.00  0.00     0.127 S 
ATOM     70  O   UNL A   1      42.262  23.293  25.336  1.00  0.00    -0.237 OA
ATOM     71  O   UNL A   1      42.135  23.092  27.787  1.00  0.00    -0.237 OA
ATOM     72  O   UNL A   1      40.071  23.250  26.457  1.00  0.00    -0.744 OA
ENDBRANCH  66  69
ENDBRANCH  48  62
BRANCH  49  73
ATOM     73  C   UNL A   1      39.467  32.551  36.246  1.00  0.00     0.023 A 
ATOM     74  C   UNL A   1      40.071  33.809  36.425  1.00  0.00     0.012 A 
ATOM     75  C   UNL A   1      38.527  32.092  37.189  1.00  0.00     0.148 A 
ATOM     76  C   UNL A   1      39.747  34.597  37.530  1.00  0.00     0.002 A 
ATOM     77  C   UNL A   1      38.179  32.899  38.264  1.00  0.00     0.091 A 
ATOM     78  F   UNL A   1      37.964  30.893  36.988  1.00  0.00    -0.205 F 
ATOM     79  C   UNL A   1      38.795  34.148  38.442  1.00  0.00     0.022 A 
BRANCH  77  80
ATOM     80  S   UNL A   1      36.893  32.452  39.434  1.00  0.00     0.127 S 
ATOM     81  O   UNL A   1      37.269  31.085  39.783  1.00  0.00    -0.237 OA
ATOM     82  O   UNL A   1      37.101  33.439  40.495  1.00  0.00    -0.237 OA
ATOM     83  O   UNL A   1      35.634  32.590  38.715  1.00  0.00    -0.744 OA
ENDBRANCH  77  80
ENDBRANCH  49  73
BRANCH  61  84
ATOM     84  C   UNL A   1      44.356  27.889  34.429  1.00  0.00     0.023 A 
ATOM     85  C   UNL A   1      45.583  28.572  34.506  1.00  0.00     0.012 A 
ATOM     86  C   UNL A   1      44.176  26.689  35.143  1.00  0.00     0.148 A 
ATOM     87  C   UNL A   1      46.623  28.065  35.284  1.00  0.00     0.002 A 
ATOM     88  C   UNL A   1      45.204  26.208  35.943  1.00  0.00     0.091 A 
ATOM     89  F   UNL A   1      42.997  26.058  35.045  1.00  0.00    -0.205 F 
ATOM     90  C   UNL A   1      46.429  26.892  36.012  1.00  0.00     0.022 A 
BRANCH  88  91
ATOM     91  S   UNL A   1      45.030  24.744  36.969  1.00  0.00     0.127 S 
ATOM     92  O   UNL A   1      43.989  25.162  37.909  1.00  0.00    -0.237 OA
ATOM     93  O   UNL A   1      44.605  23.737  35.997  1.00  0.00    -0.237 OA
ATOM     94  O   UNL A   1      46.338  24.505  37.563  1.00  0.00    -0.744 OA
ENDBRANCH  88  91
ENDBRANCH  61  84
ENDBRANCH  35  36
ENDBRANCH  27  30
ENDBRANCH  25  26
ENDBRANCH   1  25
TORSDOF 19
ENDMDL
MODEL 2
REMARK VINA RESULT:     -10.9      0.788      7.518
REMARK SMILES CCc1nc(=O)n([C@@H](CC)C(C)C)c(CC)c1CC(=O)NCCCNC(=O)c1ccc(-c2c3nc(c(-c4cccc(S(=O)(=O)[O-])c4F)c4ccc([nH]4)c(-c4cccc(S(=O)(=O)[O-])c4F)c4nc(c(-c5cccc(S(=O)(=O)[O-])c5F)c5ccc2[nH]5)C=C4)C=C3)cc1
REMARK SMILES IDX 23 1 22 2 21 3 19 4 20 5 18 7 17 8 3 9 4 10 5 11 14 12 6 13
REMARK SMILES IDX 7 14 2 15 1 16 15 17 16 18 8 19 9 20 10 21 11 22 12 23 13 24
REMARK SMILES IDX 24 25 25 26 26 27 27 29 28 30 29 31 90 32 30 33 89 34 31 35
REMARK SMILES IDX 32 36 33 37 83 38 34 39 88 40 82 41 84 42 35 43 87 44 81 45
REMARK SMILES IDX 80 46 36 48 68 49 48 50 67 51 49 52 52 53 66 54 85 55 50 56
REMARK SMILES IDX 51 57 65 59 86 60 53 61 37 62 38 63 46 64 39 65 41 66 47 67
REMARK SMILES IDX 40 68 42 69 43 70 44 71 45 72 69 73 70 74 78 75 71 76 73 77
REMARK SMILES IDX 79 78 72 79 74 80 75 81 76 82 77 83 54 84 55 85 63 86 56 87
REMARK SMILES IDX 58 88 64 89 57 90 59 91 60 92 61 93 62 94
REMARK H PARENT 21 6 25 28 84 47 52 58
REMARK Flexibility Score: inf
ROOT
ATOM      1  C   UNL A   1      31.760  31.226  26.742  1.00  0.00     0.042 C 
ENDROOT
BRANCH   1   2
ATOM      2  C   UNL A   1      32.121  30.035  25.873  1.00  0.00     0.117 C 
BRANCH   2   3
ATOM      3  N   UNL A   1      31.566  28.796  26.370  1.00  0.00    -0.356 N 
ATOM      4  C   UNL A   1      32.092  27.540  26.307  1.00  0.00     0.224 C 
ATOM      5  O   UNL A   1      31.471  26.618  26.836  1.00  0.00    -0.275 OA
ATOM      6  H   UNL A   1      30.690  28.869  26.814  1.00  0.00     0.163 HD
BRANCH   4   7
ATOM      7  C   UNL A   1      33.443  27.308  25.635  1.00  0.00     0.139 C 
BRANCH   7   8
ATOM      8  C   UNL A   1      33.428  26.389  24.434  1.00  0.00     0.003 A 
ATOM      9  C   UNL A   1      33.128  26.961  23.085  1.00  0.00     0.051 A 
ATOM     10  N   UNL A   1      33.111  26.273  21.999  1.00  0.00    -0.198 NA
ATOM     11  C   UNL A   1      33.373  24.938  22.013  1.00  0.00     0.348 A 
ATOM     12  C   UNL A   1      33.718  25.062  24.441  1.00  0.00     0.028 A 
ATOM     13  O   UNL A   1      33.375  24.330  20.947  1.00  0.00    -0.246 OA
ATOM     14  N   UNL A   1      33.660  24.313  23.242  1.00  0.00    -0.293 N 
BRANCH   9  15
ATOM     15  C   UNL A   1      32.820  28.449  22.877  1.00  0.00     0.053 C 
ATOM     16  C   UNL A   1      31.359  28.749  22.607  1.00  0.00     0.011 C 
ENDBRANCH   9  15
BRANCH  12  17
ATOM     17  C   UNL A   1      34.207  24.377  25.719  1.00  0.00     0.051 C 
ATOM     18  C   UNL A   1      35.686  24.578  26.036  1.00  0.00     0.010 C 
ENDBRANCH  12  17
BRANCH  14  19
ATOM     19  C   UNL A   1      33.896  22.833  23.213  1.00  0.00     0.094 C 
BRANCH  19  20
ATOM     20  C   UNL A   1      35.292  22.447  23.776  1.00  0.00     0.022 C 
ATOM     21  C   UNL A   1      36.520  22.815  22.961  1.00  0.00     0.006 C 
ENDBRANCH  19  20
BRANCH  19  22
ATOM     22  C   UNL A   1      32.692  21.975  23.722  1.00  0.00     0.006 C 
ATOM     23  C   UNL A   1      31.970  21.293  22.549  1.00  0.00     0.009 C 
ATOM     24  C   UNL A   1      33.140  20.891  24.712  1.00  0.00     0.009 C 
ENDBRANCH  19  22
ENDBRANCH  14  19
ENDBRANCH   7   8
ENDBRANCH   4   7
ENDBRANCH   2   3
ENDBRANCH   1   2
BRANCH   1  25
ATOM     25  C   UNL A   1      32.983  31.999  27.206  1.00  0.00     0.118 C 
BRANCH  25  26
ATOM     26  N   UNL A   1      32.693  33.408  27.464  1.00  0.00    -0.352 N 
ATOM     27  C   UNL A   1      33.218  34.255  28.412  1.00  0.00     0.251 C 
ATOM     28  H   UNL A   1      32.021  33.812  26.869  1.00  0.00     0.163 HD
ATOM     29  O   UNL A   1      32.714  35.358  28.589  1.00  0.00    -0.269 OA
BRANCH  27  30
ATOM     30  C   UNL A   1      34.363  33.802  29.225  1.00  0.00     0.039 A 
ATOM     31  C   UNL A   1      35.657  34.179  28.869  1.00  0.00     0.014 A 
ATOM     32  C   UNL A   1      34.147  32.942  30.303  1.00  0.00     0.014 A 
ATOM     33  C   UNL A   1      36.736  33.519  29.434  1.00  0.00     0.010 A 
ATOM     34  C   UNL A   1      35.244  32.372  30.954  1.00  0.00     0.010 A 
ATOM     35  C   UNL A   1      36.545  32.605  30.482  1.00  0.00    -0.014 A 
BRANCH  35  36
ATOM     36  C   UNL A   1      37.723  31.909  31.058  1.00  0.00     0.031 A 
ATOM     37  C   UNL A   1      38.150  32.155  32.481  1.00  0.00     0.074 A 
ATOM     38  C   UNL A   1      38.382  31.009  30.300  1.00  0.00     0.049 A 
ATOM     39  N   UNL A   1      39.156  31.632  33.134  1.00  0.00    -0.248 NA
ATOM     40  C   UNL A   1      37.356  33.107  33.276  1.00  0.00     0.031 C 
ATOM     41  C   UNL A   1      38.063  30.684  28.907  1.00  0.00     0.029 A 
ATOM     42  N   UNL A   1      39.444  30.194  30.594  1.00  0.00    -0.354 N 
ATOM     43  C   UNL A   1      39.144  32.220  34.393  1.00  0.00     0.074 A 
ATOM     44  C   UNL A   1      38.032  33.145  34.417  1.00  0.00     0.031 C 
ATOM     45  C   UNL A   1      38.879  29.710  28.483  1.00  0.00     0.029 A 
ATOM     46  C   UNL A   1      39.825  29.392  29.545  1.00  0.00     0.049 A 
ATOM     47  H   UNL A   1      39.890  30.183  31.472  1.00  0.00     0.167 HD
ATOM     48  C   UNL A   1      39.973  31.996  35.439  1.00  0.00     0.034 A 
ATOM     49  C   UNL A   1      40.839  28.514  29.432  1.00  0.00     0.034 A 
ATOM     50  C   UNL A   1      41.044  31.037  35.429  1.00  0.00     0.049 A 
ATOM     51  C   UNL A   1      41.749  28.295  30.602  1.00  0.00     0.074 A 
ATOM     52  C   UNL A   1      41.907  30.711  36.460  1.00  0.00     0.029 A 
ATOM     53  N   UNL A   1      41.398  30.252  34.344  1.00  0.00    -0.354 N 
ATOM     54  N   UNL A   1      41.683  28.822  31.800  1.00  0.00    -0.248 NA
ATOM     55  C   UNL A   1      42.862  27.355  30.414  1.00  0.00     0.031 C 
ATOM     56  C   UNL A   1      42.797  29.742  35.992  1.00  0.00     0.029 A 
ATOM     57  C   UNL A   1      42.471  29.447  34.679  1.00  0.00     0.049 A 
ATOM     58  H   UNL A   1      40.951  30.265  33.467  1.00  0.00     0.167 HD
ATOM     59  C   UNL A   1      42.735  28.266  32.516  1.00  0.00     0.074 A 
ATOM     60  C   UNL A   1      43.414  27.350  31.622  1.00  0.00     0.031 C 
ATOM     61  C   UNL A   1      43.109  28.508  33.794  1.00  0.00     0.034 A 
BRANCH  48  62
ATOM     62  C   UNL A   1      39.747  32.767  36.710  1.00  0.00     0.023 A 
ATOM     63  C   UNL A   1      40.414  33.991  36.906  1.00  0.00     0.012 A 
ATOM     64  C   UNL A   1      38.782  32.343  37.646  1.00  0.00     0.148 A 
ATOM     65  C   UNL A   1      40.127  34.784  38.018  1.00  0.00     0.002 A 
ATOM     66  C   UNL A   1      38.479  33.152  38.735  1.00  0.00     0.091 A 
ATOM     67  F   UNL A   1      38.168  31.170  37.439  1.00  0.00    -0.205 F 
ATOM     68  C   UNL A   1      39.153  34.370  38.924  1.00  0.00     0.022 A 
BRANCH  66  69
ATOM     69  S   UNL A   1      37.205  32.737  39.931  1.00  0.00     0.127 S 
ATOM     70  O   UNL A   1      37.714  31.481  40.481  1.00  0.00    -0.237 OA
ATOM     71  O   UNL A   1      37.266  33.873  40.850  1.00  0.00    -0.237 OA
ATOM     72  O   UNL A   1      35.964  32.621  39.179  1.00  0.00    -0.744 OA
ENDBRANCH  66  69
ENDBRANCH  48  62
BRANCH  49  73
ATOM     73  C   UNL A   1      41.009  27.764  28.160  1.00  0.00     0.023 A 
ATOM     74  C   UNL A   1      41.602  28.405  27.056  1.00  0.00     0.012 A 
ATOM     75  C   UNL A   1      40.671  26.400  28.073  1.00  0.00     0.148 A 
ATOM     76  C   UNL A   1      41.850  27.697  25.880  1.00  0.00     0.002 A 
ATOM     77  C   UNL A   1      40.960  25.692  26.913  1.00  0.00     0.091 A 
ATOM     78  F   UNL A   1      40.114  25.816  29.142  1.00  0.00    -0.205 F 
ATOM     79  C   UNL A   1      41.541  26.340  25.812  1.00  0.00     0.022 A 
BRANCH  77  80
ATOM     80  S   UNL A   1      40.691  23.923  26.766  1.00  0.00     0.127 S 
ATOM     81  O   UNL A   1      39.281  23.866  26.389  1.00  0.00    -0.237 OA
ATOM     82  O   UNL A   1      41.630  23.568  25.702  1.00  0.00    -0.237 OA
ATOM     83  O   UNL A   1      41.011  23.360  28.071  1.00  0.00    -0.744 OA
ENDBRANCH  77  80
ENDBRANCH  49  73
BRANCH  61  84
ATOM     84  C   UNL A   1      44.296  27.762  34.336  1.00  0.00     0.023 A 
ATOM     85  C   UNL A   1      45.574  28.348  34.264  1.00  0.00     0.012 A 
ATOM     86  C   UNL A   1      44.120  26.550  35.030  1.00  0.00     0.148 A 
ATOM     87  C   UNL A   1      46.665  27.731  34.874  1.00  0.00     0.002 A 
ATOM     88  C   UNL A   1      45.205  25.959  35.664  1.00  0.00     0.091 A 
ATOM     89  F   UNL A   1      42.892  26.014  35.076  1.00  0.00    -0.205 F 
ATOM     90  C   UNL A   1      46.479  26.546  35.584  1.00  0.00     0.022 A 
BRANCH  88  91
ATOM     91  S   UNL A   1      45.055  24.470  36.657  1.00  0.00     0.127 S 
ATOM     92  O   UNL A   1      44.136  24.906  37.709  1.00  0.00    -0.237 OA
ATOM     93  O   UNL A   1      44.483  23.521  35.702  1.00  0.00    -0.237 OA
ATOM     94  O   UNL A   1      46.401  24.145  37.109  1.00  0.00    -0.744 OA
ENDBRANCH  88  91
ENDBRANCH  61  84
ENDBRANCH  35  36
ENDBRANCH  27  30
ENDBRANCH  25  26
ENDBRANCH   1  25
TORSDOF 19
ENDMDL
MODEL 3
REMARK VINA RESULT:     -10.5      2.124      2.524
REMARK SMILES CCc1nc(=O)n([C@@H](CC)C(C)C)c(CC)c1CC(=O)NCCCNC(=O)c1ccc(-c2c3nc(c(-c4cccc(S(=O)(=O)[O-])c4F)c4ccc([nH]4)c(-c4cccc(S(=O)(=O)[O-])c4F)c4nc(c(-c5cccc(S(=O)(=O)[O-])c5F)c5ccc2[nH]5)C=C4)C=C3)cc1
REMARK SMILES IDX 23 1 22 2 21 3 19 4 20 5 18 7 17 8 3 9 4 10 5 11 14 12 6 13
REMARK SMILES IDX 7 14 2 15 1 16 15 17 16 18 8 19 9 20 10 21 11 22 12 23 13 24
REMARK SMILES IDX 24 25 25 26 26 27 27 29 28 30 29 31 90 32 30 33 89 34 31 35
REMARK SMILES IDX 32 36 33 37 83 38 34 39 88 40 82 41 84 42 35 43 87 44 81 45
REMARK SMILES IDX 80 46 36 48 68 49 48 50 67 51 49 52 52 53 66 54 85 55 50 56
REMARK SMILES IDX 51 57 65 59 86 60 53 61 37 62 38 63 46 64 39 65 41 66 47 67
REMARK SMILES IDX 40 68 42 69 43 70 44 71 45 72 69 73 70 74 78 75 71 76 73 77
REMARK SMILES IDX 79 78 72 79 74 80 75 81 76 82 77 83 54 84 55 85 63 86 56 87
REMARK SMILES IDX 58 88 64 89 57 90 59 91 60 92 61 93 62 94
REMARK H PARENT 21 6 25 28 84 47 52 58
REMARK Flexibility Score: inf
ROOT
ATOM      1  C   UNL A   1      31.903  31.123  26.752  1.00  0.00     0.042 C 
ENDROOT
BRANCH   1   2
ATOM      2  C   UNL A   1      31.809  29.660  27.144  1.00  0.00     0.117 C 
BRANCH   2   3
ATOM      3  N   UNL A   1      33.067  28.963  26.995  1.00  0.00    -0.356 N 
ATOM      4  C   UNL A   1      33.319  27.785  26.359  1.00  0.00     0.224 C 
ATOM      5  O   UNL A   1      34.482  27.382  26.309  1.00  0.00    -0.275 OA
ATOM      6  H   UNL A   1      33.848  29.398  27.409  1.00  0.00     0.163 HD
BRANCH   4   7
ATOM      7  C   UNL A   1      32.182  27.019  25.687  1.00  0.00     0.139 C 
BRANCH   7   8
ATOM      8  C   UNL A   1      32.600  26.008  24.643  1.00  0.00     0.003 A 
ATOM      9  C   UNL A   1      32.781  26.457  23.228  1.00  0.00     0.051 A 
ATOM     10  N   UNL A   1      33.153  25.686  22.269  1.00  0.00    -0.198 NA
ATOM     11  C   UNL A   1      33.414  24.370  22.492  1.00  0.00     0.348 A 
ATOM     12  C   UNL A   1      32.889  24.700  24.868  1.00  0.00     0.028 A 
ATOM     13  O   UNL A   1      33.796  23.680  21.552  1.00  0.00    -0.246 OA
ATOM     14  N   UNL A   1      33.264  23.857  23.795  1.00  0.00    -0.293 N 
BRANCH   9  15
ATOM     15  C   UNL A   1      32.542  27.909  22.794  1.00  0.00     0.053 C 
ATOM     16  C   UNL A   1      33.782  28.779  22.823  1.00  0.00     0.011 C 
ENDBRANCH   9  15
BRANCH  12  17
ATOM     17  C   UNL A   1      32.913  24.140  26.292  1.00  0.00     0.051 C 
ATOM     18  C   UNL A   1      31.550  23.748  26.856  1.00  0.00     0.010 C 
ENDBRANCH  12  17
BRANCH  14  19
ATOM     19  C   UNL A   1      33.517  22.391  23.983  1.00  0.00     0.094 C 
BRANCH  19  20
ATOM     20  C   UNL A   1      34.547  22.110  25.111  1.00  0.00     0.022 C 
ATOM     21  C   UNL A   1      35.802  21.330  24.757  1.00  0.00     0.006 C 
ENDBRANCH  19  20
BRANCH  19  22
ATOM     22  C   UNL A   1      32.228  21.508  23.998  1.00  0.00     0.006 C 
ATOM     23  C   UNL A   1      32.047  20.776  22.659  1.00  0.00     0.009 C 
ATOM     24  C   UNL A   1      32.264  20.463  25.122  1.00  0.00     0.009 C 
ENDBRANCH  19  22
ENDBRANCH  14  19
ENDBRANCH   7   8
ENDBRANCH   4   7
ENDBRANCH   2   3
ENDBRANCH   1   2
BRANCH   1  25
ATOM     25  C   UNL A   1      32.999  31.858  27.507  1.00  0.00     0.118 C 
BRANCH  25  26
ATOM     26  N   UNL A   1      32.748  33.294  27.603  1.00  0.00    -0.352 N 
ATOM     27  C   UNL A   1      33.290  34.226  28.458  1.00  0.00     0.251 C 
ATOM     28  H   UNL A   1      32.094  33.649  26.959  1.00  0.00     0.163 HD
ATOM     29  O   UNL A   1      32.818  35.356  28.506  1.00  0.00    -0.269 OA
BRANCH  27  30
ATOM     30  C   UNL A   1      34.413  33.833  29.330  1.00  0.00     0.039 A 
ATOM     31  C   UNL A   1      35.722  34.123  28.947  1.00  0.00     0.014 A 
ATOM     32  C   UNL A   1      34.162  33.112  30.499  1.00  0.00     0.014 A 
ATOM     33  C   UNL A   1      36.775  33.498  29.596  1.00  0.00     0.010 A 
ATOM     34  C   UNL A   1      35.234  32.586  31.223  1.00  0.00     0.010 A 
ATOM     35  C   UNL A   1      36.545  32.720  30.741  1.00  0.00    -0.014 A 
BRANCH  35  36
ATOM     36  C   UNL A   1      37.695  32.057  31.406  1.00  0.00     0.031 A 
ATOM     37  C   UNL A   1      38.436  30.932  30.733  1.00  0.00     0.074 A 
ATOM     38  C   UNL A   1      38.102  32.510  32.609  1.00  0.00     0.049 A 
ATOM     39  N   UNL A   1      39.458  30.245  31.177  1.00  0.00    -0.248 NA
ATOM     40  C   UNL A   1      37.980  30.518  29.395  1.00  0.00     0.031 C 
ATOM     41  C   UNL A   1      37.464  33.594  33.362  1.00  0.00     0.029 A 
ATOM     42  N   UNL A   1      39.152  32.130  33.403  1.00  0.00    -0.354 N 
ATOM     43  C   UNL A   1      39.736  29.296  30.201  1.00  0.00     0.074 A 
ATOM     44  C   UNL A   1      38.775  29.488  29.138  1.00  0.00     0.031 C 
ATOM     45  C   UNL A   1      38.160  33.821  34.484  1.00  0.00     0.029 A 
ATOM     46  C   UNL A   1      39.248  32.855  34.568  1.00  0.00     0.049 A 
ATOM     47  H   UNL A   1      39.778  31.409  33.164  1.00  0.00     0.167 HD
ATOM     48  C   UNL A   1      40.714  28.360  30.186  1.00  0.00     0.034 A 
ATOM     49  C   UNL A   1      40.098  32.743  35.605  1.00  0.00     0.034 A 
ATOM     50  C   UNL A   1      41.700  28.206  31.221  1.00  0.00     0.049 A 
ATOM     51  C   UNL A   1      41.163  31.691  35.567  1.00  0.00     0.074 A 
ATOM     52  C   UNL A   1      42.757  27.314  31.267  1.00  0.00     0.029 A 
ATOM     53  N   UNL A   1      41.756  28.957  32.384  1.00  0.00    -0.354 N 
ATOM     54  N   UNL A   1      41.441  30.842  34.609  1.00  0.00    -0.248 NA
ATOM     55  C   UNL A   1      42.040  31.586  36.741  1.00  0.00     0.031 C 
ATOM     56  C   UNL A   1      43.440  27.511  32.469  1.00  0.00     0.029 A 
ATOM     57  C   UNL A   1      42.824  28.544  33.158  1.00  0.00     0.049 A 
ATOM     58  H   UNL A   1      41.129  29.677  32.622  1.00  0.00     0.167 HD
ATOM     59  C   UNL A   1      42.535  30.112  35.055  1.00  0.00     0.074 A 
ATOM     60  C   UNL A   1      42.878  30.629  36.364  1.00  0.00     0.031 C 
ATOM     61  C   UNL A   1      43.182  29.096  34.438  1.00  0.00     0.034 A 
BRANCH  48  62
ATOM     62  C   UNL A   1      40.808  27.442  28.999  1.00  0.00     0.023 A 
ATOM     63  C   UNL A   1      39.869  26.403  28.850  1.00  0.00     0.012 A 
ATOM     64  C   UNL A   1      41.743  27.686  27.973  1.00  0.00     0.148 A 
ATOM     65  C   UNL A   1      39.859  25.618  27.697  1.00  0.00     0.002 A 
ATOM     66  C   UNL A   1      41.708  26.920  26.815  1.00  0.00     0.091 A 
ATOM     67  F   UNL A   1      42.631  28.676  28.145  1.00  0.00    -0.205 F 
ATOM     68  C   UNL A   1      40.770  25.884  26.677  1.00  0.00     0.022 A 
BRANCH  66  69
ATOM     69  S   UNL A   1      42.801  27.213  25.419  1.00  0.00     0.127 S 
ATOM     70  O   UNL A   1      42.667  25.963  24.672  1.00  0.00    -0.237 OA
ATOM     71  O   UNL A   1      42.179  28.374  24.783  1.00  0.00    -0.237 OA
ATOM     72  O   UNL A   1      44.122  27.455  25.982  1.00  0.00    -0.744 OA
ENDBRANCH  66  69
ENDBRANCH  48  62
BRANCH  49  73
ATOM     73  C   UNL A   1      39.974  33.687  36.747  1.00  0.00     0.023 A 
ATOM     74  C   UNL A   1      38.914  33.530  37.659  1.00  0.00     0.012 A 
ATOM     75  C   UNL A   1      40.950  34.675  36.979  1.00  0.00     0.148 A 
ATOM     76  C   UNL A   1      38.826  34.348  38.785  1.00  0.00     0.002 A 
ATOM     77  C   UNL A   1      40.878  35.459  38.123  1.00  0.00     0.091 A 
ATOM     78  F   UNL A   1      41.950  34.797  36.095  1.00  0.00    -0.205 F 
ATOM     79  C   UNL A   1      39.812  35.304  39.023  1.00  0.00     0.022 A 
BRANCH  77  80
ATOM     80  S   UNL A   1      42.151  36.644  38.567  1.00  0.00     0.127 S 
ATOM     81  O   UNL A   1      41.472  37.445  39.582  1.00  0.00    -0.237 OA
ATOM     82  O   UNL A   1      43.207  35.768  39.077  1.00  0.00    -0.237 OA
ATOM     83  O   UNL A   1      42.488  37.348  37.337  1.00  0.00    -0.744 OA
ENDBRANCH  77  80
ENDBRANCH  49  73
BRANCH  61  84
ATOM     84  C   UNL A   1      44.353  28.472  35.144  1.00  0.00     0.023 A 
ATOM     85  C   UNL A   1      45.652  28.947  34.887  1.00  0.00     0.012 A 
ATOM     86  C   UNL A   1      44.146  27.512  36.153  1.00  0.00     0.148 A 
ATOM     87  C   UNL A   1      46.734  28.470  35.623  1.00  0.00     0.002 A 
ATOM     88  C   UNL A   1      45.225  27.066  36.907  1.00  0.00     0.091 A 
ATOM     89  F   UNL A   1      42.898  27.074  36.372  1.00  0.00    -0.205 F 
ATOM     90  C   UNL A   1      46.520  27.541  36.641  1.00  0.00     0.022 A 
BRANCH  88  91
ATOM     91  S   UNL A   1      45.041  25.924  38.280  1.00  0.00     0.127 S 
ATOM     92  O   UNL A   1      44.521  24.733  37.608  1.00  0.00    -0.237 OA
ATOM     93  O   UNL A   1      46.417  25.800  38.763  1.00  0.00    -0.237 OA
ATOM     94  O   UNL A   1      44.120  26.556  39.215  1.00  0.00    -0.744 OA
ENDBRANCH  88  91
ENDBRANCH  61  84
ENDBRANCH  35  36
ENDBRANCH  27  30
ENDBRANCH  25  26
ENDBRANCH   1  25
TORSDOF 19
ENDMDL
