MODEL 1
REMARK VINA RESULT:     -12.9      0.000      0.000
REMARK SMILES C[C@@H](Oc1ccc(-c2ccccc2)cc1)C(=O)N1CCC[C@H](C(=O)NCCCNC(=O)c2ccc(-c3c4nc(c(-c5cccc(S(=O)(=O)[O-])c5F)c5ccc([nH]5)c(-c5cccc(S(=O)(=O)[O-])c5F)c5nc(c(-c6cccc(S(=O)(=O)[O-])c6F)c6ccc3[nH]6)C=C5)C=C4)cc2)C1
REMARK SMILES IDX 26 1 25 2 23 3 24 4 22 6 18 7 19 8 95 9 20 10 21 11 16 12
REMARK SMILES IDX 17 13 2 14 1 15 3 16 4 17 5 18 15 19 6 20 14 21 7 22 8 23
REMARK SMILES IDX 9 24 13 25 10 26 12 27 11 28 27 29 28 30 29 31 30 32 31 34
REMARK SMILES IDX 32 35 33 36 94 37 34 38 93 39 35 40 36 41 37 42 87 43 38 44
REMARK SMILES IDX 92 45 86 46 88 47 39 48 91 49 85 50 84 51 40 53 72 54 52 55
REMARK SMILES IDX 71 56 53 57 56 58 70 59 89 60 54 61 55 62 69 64 90 65 57 66
REMARK SMILES IDX 41 67 42 68 50 69 43 70 45 71 51 72 44 73 46 74 47 75 48 76
REMARK SMILES IDX 49 77 73 78 74 79 82 80 75 81 77 82 83 83 76 84 78 85 79 86
REMARK SMILES IDX 80 87 81 88 58 89 59 90 67 91 60 92 62 93 68 94 61 95 63 96
REMARK SMILES IDX 64 97 65 98 66 99
REMARK H PARENT 25 5 29 33 88 52 56 63
REMARK Flexibility Score: inf
ROOT
ATOM      1  C   UNL A   1      30.687  31.672  24.985  1.00  0.00     0.117 C 
ENDROOT
BRANCH   1   2
ATOM      2  N   UNL A   1      30.341  30.383  24.433  1.00  0.00    -0.356 N 
ATOM      3  C   UNL A   1      31.074  29.254  24.262  1.00  0.00     0.224 C 
ATOM      4  O   UNL A   1      30.440  28.241  23.939  1.00  0.00    -0.275 OA
ATOM      5  H   UNL A   1      29.408  30.310  24.126  1.00  0.00     0.163 HD
BRANCH   3   6
ATOM      6  C   UNL A   1      32.594  29.148  24.462  1.00  0.00     0.098 C 
ATOM      7  N   UNL A   1      33.481  26.958  23.657  1.00  0.00    -0.339 N 
ATOM      8  C   UNL A   1      34.034  26.617  24.966  1.00  0.00     0.119 C 
ATOM      9  C   UNL A   1      33.327  28.375  23.367  1.00  0.00     0.133 C 
ATOM     10  C   UNL A   1      33.383  27.352  26.136  1.00  0.00     0.022 C 
ATOM     11  C   UNL A   1      33.069  28.819  25.875  1.00  0.00     0.017 C 
BRANCH   7  12
ATOM     12  C   UNL A   1      33.196  25.923  22.764  1.00  0.00     0.263 C 
ATOM     13  O   UNL A   1      33.562  25.983  21.585  1.00  0.00    -0.271 OA
BRANCH  12  14
ATOM     14  C   UNL A   1      32.284  24.772  23.211  1.00  0.00     0.259 C 
ATOM     15  C   UNL A   1      30.784  24.984  23.069  1.00  0.00     0.064 C 
BRANCH  14  16
ATOM     16  O   UNL A   1      32.768  23.692  22.398  1.00  0.00    -0.481 OA
BRANCH  16  17
ATOM     17  C   UNL A   1      32.710  22.477  23.007  1.00  0.00     0.120 A 
ATOM     18  C   UNL A   1      33.441  22.227  24.164  1.00  0.00     0.047 A 
ATOM     19  C   UNL A   1      32.068  21.452  22.331  1.00  0.00     0.047 A 
ATOM     20  C   UNL A   1      33.548  20.913  24.634  1.00  0.00     0.012 A 
ATOM     21  C   UNL A   1      32.161  20.154  22.809  1.00  0.00     0.012 A 
ATOM     22  C   UNL A   1      32.933  19.853  23.943  1.00  0.00    -0.018 A 
BRANCH  22  23
ATOM     23  C   UNL A   1      33.134  18.447  24.320  1.00  0.00    -0.018 A 
ATOM     24  C   UNL A   1      32.551  17.891  25.465  1.00  0.00     0.009 A 
ATOM     25  C   UNL A   1      33.909  17.609  23.494  1.00  0.00     0.009 A 
ATOM     26  C   UNL A   1      32.715  16.534  25.760  1.00  0.00     0.001 A 
ATOM     27  C   UNL A   1      34.070  16.255  23.784  1.00  0.00     0.001 A 
ATOM     28  C   UNL A   1      33.468  15.718  24.917  1.00  0.00     0.000 A 
ENDBRANCH  22  23
ENDBRANCH  16  17
ENDBRANCH  14  16
ENDBRANCH  12  14
ENDBRANCH   7  12
ENDBRANCH   3   6
ENDBRANCH   1   2
BRANCH   1  29
ATOM     29  C   UNL A   1      30.982  31.651  26.472  1.00  0.00     0.042 C 
BRANCH  29  30
ATOM     30  C   UNL A   1      32.365  32.167  26.807  1.00  0.00     0.118 C 
BRANCH  30  31
ATOM     31  N   UNL A   1      32.351  33.550  27.279  1.00  0.00    -0.352 N 
ATOM     32  C   UNL A   1      33.180  34.198  28.162  1.00  0.00     0.251 C 
ATOM     33  H   UNL A   1      31.630  34.107  26.905  1.00  0.00     0.163 HD
ATOM     34  O   UNL A   1      32.907  35.341  28.527  1.00  0.00    -0.269 OA
BRANCH  32  35
ATOM     35  C   UNL A   1      34.382  33.521  28.693  1.00  0.00     0.039 A 
ATOM     36  C   UNL A   1      35.600  34.204  28.706  1.00  0.00     0.014 A 
ATOM     37  C   UNL A   1      34.305  32.222  29.196  1.00  0.00     0.014 A 
ATOM     38  C   UNL A   1      36.721  33.606  29.289  1.00  0.00     0.010 A 
ATOM     39  C   UNL A   1      35.380  31.685  29.889  1.00  0.00     0.010 A 
ATOM     40  C   UNL A   1      36.609  32.358  29.922  1.00  0.00    -0.014 A 
BRANCH  40  41
ATOM     41  C   UNL A   1      37.763  31.717  30.603  1.00  0.00     0.031 A 
ATOM     42  C   UNL A   1      38.556  30.653  29.885  1.00  0.00     0.074 A 
ATOM     43  C   UNL A   1      38.033  32.016  31.890  1.00  0.00     0.049 A 
ATOM     44  N   UNL A   1      39.540  29.917  30.334  1.00  0.00    -0.248 NA
ATOM     45  C   UNL A   1      38.172  30.346  28.494  1.00  0.00     0.031 C 
ATOM     46  C   UNL A   1      37.279  32.958  32.721  1.00  0.00     0.029 A 
ATOM     47  N   UNL A   1      38.999  31.533  32.738  1.00  0.00    -0.354 N 
ATOM     48  C   UNL A   1      39.844  29.028  29.309  1.00  0.00     0.074 A 
ATOM     49  C   UNL A   1      38.927  29.292  28.226  1.00  0.00     0.031 C 
ATOM     50  C   UNL A   1      37.814  32.990  33.952  1.00  0.00     0.029 A 
ATOM     51  C   UNL A   1      38.924  32.048  34.013  1.00  0.00     0.049 A 
ATOM     52  H   UNL A   1      39.682  30.880  32.460  1.00  0.00     0.167 HD
ATOM     53  C   UNL A   1      40.821  28.094  29.264  1.00  0.00     0.034 A 
ATOM     54  C   UNL A   1      39.663  31.780  35.108  1.00  0.00     0.034 A 
ATOM     55  C   UNL A   1      41.782  27.892  30.311  1.00  0.00     0.049 A 
ATOM     56  C   UNL A   1      40.792  30.789  34.996  1.00  0.00     0.074 A 
ATOM     57  C   UNL A   1      42.892  27.066  30.309  1.00  0.00     0.029 A 
ATOM     58  N   UNL A   1      41.745  28.515  31.548  1.00  0.00    -0.354 N 
ATOM     59  N   UNL A   1      41.182  30.095  33.955  1.00  0.00    -0.248 NA
ATOM     60  C   UNL A   1      41.608  30.571  36.200  1.00  0.00     0.031 C 
ATOM     61  C   UNL A   1      43.508  27.164  31.559  1.00  0.00     0.029 A 
ATOM     62  C   UNL A   1      42.802  28.079  32.325  1.00  0.00     0.049 A 
ATOM     63  H   UNL A   1      41.067  29.170  31.830  1.00  0.00     0.167 HD
ATOM     64  C   UNL A   1      42.310  29.394  34.365  1.00  0.00     0.074 A 
ATOM     65  C   UNL A   1      42.555  29.766  35.742  1.00  0.00     0.031 C 
ATOM     66  C   UNL A   1      43.067  28.510  33.671  1.00  0.00     0.034 A 
BRANCH  53  67
ATOM     67  C   UNL A   1      40.945  27.248  28.025  1.00  0.00     0.023 A 
ATOM     68  C   UNL A   1      41.598  27.760  26.885  1.00  0.00     0.012 A 
ATOM     69  C   UNL A   1      40.504  25.909  28.028  1.00  0.00     0.148 A 
ATOM     70  C   UNL A   1      41.792  26.960  25.760  1.00  0.00     0.002 A 
ATOM     71  C   UNL A   1      40.743  25.105  26.921  1.00  0.00     0.091 A 
ATOM     72  F   UNL A   1      39.866  25.450  29.114  1.00  0.00    -0.205 F 
ATOM     73  C   UNL A   1      41.377  25.631  25.784  1.00  0.00     0.022 A 
BRANCH  71  74
ATOM     74  S   UNL A   1      40.329  23.357  26.884  1.00  0.00     0.127 S 
ATOM     75  O   UNL A   1      41.151  22.884  25.770  1.00  0.00    -0.237 OA
ATOM     76  O   UNL A   1      40.775  22.910  28.204  1.00  0.00    -0.237 OA
ATOM     77  O   UNL A   1      38.892  23.286  26.667  1.00  0.00    -0.744 OA
ENDBRANCH  71  74
ENDBRANCH  53  67
BRANCH  54  78
ATOM     78  C   UNL A   1      39.400  32.489  36.394  1.00  0.00     0.023 A 
ATOM     79  C   UNL A   1      40.130  33.653  36.707  1.00  0.00     0.012 A 
ATOM     80  C   UNL A   1      38.447  32.013  37.314  1.00  0.00     0.148 A 
ATOM     81  C   UNL A   1      39.955  34.297  37.932  1.00  0.00     0.002 A 
ATOM     82  C   UNL A   1      38.235  32.693  38.508  1.00  0.00     0.091 A 
ATOM     83  F   UNL A   1      37.769  30.897  37.009  1.00  0.00    -0.205 F 
ATOM     84  C   UNL A   1      39.004  33.822  38.829  1.00  0.00     0.022 A 
BRANCH  82  85
ATOM     85  S   UNL A   1      36.936  32.224  39.658  1.00  0.00     0.127 S 
ATOM     86  O   UNL A   1      37.046  33.266  40.674  1.00  0.00    -0.237 OA
ATOM     87  O   UNL A   1      35.740  32.306  38.818  1.00  0.00    -0.237 OA
ATOM     88  O   UNL A   1      37.269  30.873  40.088  1.00  0.00    -0.744 OA
ENDBRANCH  82  85
ENDBRANCH  54  78
BRANCH  66  89
ATOM     89  C   UNL A   1      44.267  27.919  34.363  1.00  0.00     0.023 A 
ATOM     90  C   UNL A   1      45.490  28.617  34.370  1.00  0.00     0.012 A 
ATOM     91  C   UNL A   1      44.153  26.709  35.074  1.00  0.00     0.148 A 
ATOM     92  C   UNL A   1      46.593  28.100  35.047  1.00  0.00     0.002 A 
ATOM     93  C   UNL A   1      45.241  26.228  35.791  1.00  0.00     0.091 A 
ATOM     94  F   UNL A   1      42.984  26.054  35.040  1.00  0.00    -0.205 F 
ATOM     95  C   UNL A   1      46.465  26.914  35.767  1.00  0.00     0.022 A 
BRANCH  93  96
ATOM     96  S   UNL A   1      45.135  24.768  36.831  1.00  0.00     0.127 S 
ATOM     97  O   UNL A   1      44.276  25.237  37.916  1.00  0.00    -0.237 OA
ATOM     98  O   UNL A   1      44.511  23.793  35.935  1.00  0.00    -0.237 OA
ATOM     99  O   UNL A   1      46.504  24.446  37.214  1.00  0.00    -0.744 OA
ENDBRANCH  93  96
ENDBRANCH  66  89
ENDBRANCH  40  41
ENDBRANCH  32  35
ENDBRANCH  30  31
ENDBRANCH  29  30
ENDBRANCH   1  29
TORSDOF 18
ENDMDL
MODEL 2
REMARK VINA RESULT:     -12.2      0.730      7.324
REMARK SMILES C[C@@H](Oc1ccc(-c2ccccc2)cc1)C(=O)N1CCC[C@H](C(=O)NCCCNC(=O)c2ccc(-c3c4nc(c(-c5cccc(S(=O)(=O)[O-])c5F)c5ccc([nH]5)c(-c5cccc(S(=O)(=O)[O-])c5F)c5nc(c(-c6cccc(S(=O)(=O)[O-])c6F)c6ccc3[nH]6)C=C5)C=C4)cc2)C1
REMARK SMILES IDX 26 1 25 2 23 3 24 4 22 6 18 7 19 8 95 9 20 10 21 11 16 12
REMARK SMILES IDX 17 13 2 14 1 15 3 16 4 17 5 18 15 19 6 20 14 21 7 22 8 23
REMARK SMILES IDX 9 24 13 25 10 26 12 27 11 28 27 29 28 30 29 31 30 32 31 34
REMARK SMILES IDX 32 35 33 36 94 37 34 38 93 39 35 40 36 41 37 42 87 43 38 44
REMARK SMILES IDX 92 45 86 46 88 47 39 48 91 49 85 50 84 51 40 53 72 54 52 55
REMARK SMILES IDX 71 56 53 57 56 58 70 59 89 60 54 61 55 62 69 64 90 65 57 66
REMARK SMILES IDX 41 67 42 68 50 69 43 70 45 71 51 72 44 73 46 74 47 75 48 76
REMARK SMILES IDX 49 77 73 78 74 79 82 80 75 81 77 82 83 83 76 84 78 85 79 86
REMARK SMILES IDX 80 87 81 88 58 89 59 90 67 91 60 92 62 93 68 94 61 95 63 96
REMARK SMILES IDX 64 97 65 98 66 99
REMARK H PARENT 25 5 29 33 88 52 56 63
REMARK Flexibility Score: inf
ROOT
ATOM      1  C   UNL A   1      30.925  31.391  24.949  1.00  0.00     0.117 C 
ENDROOT
BRANCH   1   2
ATOM      2  N   UNL A   1      30.458  30.067  24.608  1.00  0.00    -0.356 N 
ATOM      3  C   UNL A   1      31.115  28.886  24.497  1.00  0.00     0.224 C 
ATOM      4  O   UNL A   1      30.404  27.880  24.380  1.00  0.00    -0.275 OA
ATOM      5  H   UNL A   1      29.493  30.012  24.423  1.00  0.00     0.163 HD
BRANCH   3   6
ATOM      6  C   UNL A   1      32.643  28.716  24.531  1.00  0.00     0.098 C 
ATOM      7  N   UNL A   1      33.333  26.422  23.831  1.00  0.00    -0.339 N 
ATOM      8  C   UNL A   1      34.022  26.164  25.094  1.00  0.00     0.119 C 
ATOM      9  C   UNL A   1      33.207  27.815  23.434  1.00  0.00     0.133 C 
ATOM     10  C   UNL A   1      33.547  27.029  26.259  1.00  0.00     0.022 C 
ATOM     11  C   UNL A   1      33.266  28.483  25.905  1.00  0.00     0.017 C 
BRANCH   7  12
ATOM     12  C   UNL A   1      32.901  25.332  23.073  1.00  0.00     0.263 C 
ATOM     13  O   UNL A   1      32.956  25.355  21.839  1.00  0.00    -0.271 OA
BRANCH  12  14
ATOM     14  C   UNL A   1      32.204  24.157  23.773  1.00  0.00     0.259 C 
ATOM     15  C   UNL A   1      30.894  24.456  24.488  1.00  0.00     0.064 C 
BRANCH  14  16
ATOM     16  O   UNL A   1      32.041  23.233  22.686  1.00  0.00    -0.481 OA
BRANCH  16  17
ATOM     17  C   UNL A   1      32.493  21.979  22.959  1.00  0.00     0.120 A 
ATOM     18  C   UNL A   1      31.966  20.873  22.299  1.00  0.00     0.047 A 
ATOM     19  C   UNL A   1      33.336  21.826  24.049  1.00  0.00     0.047 A 
ATOM     20  C   UNL A   1      32.276  19.590  22.760  1.00  0.00     0.012 A 
ATOM     21  C   UNL A   1      33.655  20.553  24.493  1.00  0.00     0.012 A 
ATOM     22  C   UNL A   1      33.101  19.413  23.886  1.00  0.00    -0.018 A 
BRANCH  22  23
ATOM     23  C   UNL A   1      33.339  18.094  24.488  1.00  0.00    -0.018 A 
ATOM     24  C   UNL A   1      32.334  17.392  25.166  1.00  0.00     0.009 A 
ATOM     25  C   UNL A   1      34.604  17.488  24.359  1.00  0.00     0.009 A 
ATOM     26  C   UNL A   1      32.581  16.113  25.674  1.00  0.00     0.001 A 
ATOM     27  C   UNL A   1      34.849  16.211  24.862  1.00  0.00     0.001 A 
ATOM     28  C   UNL A   1      33.834  15.522  25.516  1.00  0.00     0.000 A 
ENDBRANCH  22  23
ENDBRANCH  16  17
ENDBRANCH  14  16
ENDBRANCH  12  14
ENDBRANCH   7  12
ENDBRANCH   3   6
ENDBRANCH   1   2
BRANCH   1  29
ATOM     29  C   UNL A   1      31.051  31.640  26.439  1.00  0.00     0.042 C 
BRANCH  29  30
ATOM     30  C   UNL A   1      32.455  32.019  26.858  1.00  0.00     0.118 C 
BRANCH  30  31
ATOM     31  N   UNL A   1      32.552  33.405  27.313  1.00  0.00    -0.352 N 
ATOM     32  C   UNL A   1      33.455  34.004  28.157  1.00  0.00     0.251 C 
ATOM     33  H   UNL A   1      31.857  34.005  26.959  1.00  0.00     0.163 HD
ATOM     34  O   UNL A   1      33.273  35.167  28.518  1.00  0.00    -0.269 OA
BRANCH  32  35
ATOM     35  C   UNL A   1      34.626  33.251  28.654  1.00  0.00     0.039 A 
ATOM     36  C   UNL A   1      35.899  33.816  28.538  1.00  0.00     0.014 A 
ATOM     37  C   UNL A   1      34.470  32.000  29.251  1.00  0.00     0.014 A 
ATOM     38  C   UNL A   1      37.001  33.153  29.085  1.00  0.00     0.010 A 
ATOM     39  C   UNL A   1      35.540  31.410  29.907  1.00  0.00     0.010 A 
ATOM     40  C   UNL A   1      36.824  31.964  29.811  1.00  0.00    -0.014 A 
BRANCH  40  41
ATOM     41  C   UNL A   1      37.962  31.263  30.456  1.00  0.00     0.031 A 
ATOM     42  C   UNL A   1      38.333  31.595  31.881  1.00  0.00     0.074 A 
ATOM     43  C   UNL A   1      38.720  30.409  29.737  1.00  0.00     0.049 A 
ATOM     44  N   UNL A   1      39.340  31.160  32.592  1.00  0.00    -0.248 NA
ATOM     45  C   UNL A   1      37.486  32.575  32.588  1.00  0.00     0.031 C 
ATOM     46  C   UNL A   1      38.519  30.079  28.324  1.00  0.00     0.029 A 
ATOM     47  N   UNL A   1      39.833  29.687  30.088  1.00  0.00    -0.354 N 
ATOM     48  C   UNL A   1      39.281  31.853  33.796  1.00  0.00     0.074 A 
ATOM     49  C   UNL A   1      38.160  32.759  33.713  1.00  0.00     0.031 C 
ATOM     50  C   UNL A   1      39.470  29.214  27.932  1.00  0.00     0.029 A 
ATOM     51  C   UNL A   1      40.368  28.956  29.051  1.00  0.00     0.049 A 
ATOM     52  H   UNL A   1      40.213  29.690  30.997  1.00  0.00     0.167 HD
ATOM     53  C   UNL A   1      40.073  31.725  34.884  1.00  0.00     0.034 A 
ATOM     54  C   UNL A   1      41.466  28.175  29.007  1.00  0.00     0.034 A 
ATOM     55  C   UNL A   1      41.135  30.764  34.991  1.00  0.00     0.049 A 
ATOM     56  C   UNL A   1      42.279  27.997  30.263  1.00  0.00     0.074 A 
ATOM     57  C   UNL A   1      41.908  30.461  36.096  1.00  0.00     0.029 A 
ATOM     58  N   UNL A   1      41.576  29.958  33.955  1.00  0.00    -0.354 N 
ATOM     59  N   UNL A   1      42.092  28.520  31.450  1.00  0.00    -0.248 NA
ATOM     60  C   UNL A   1      43.434  27.090  30.185  1.00  0.00     0.031 C 
ATOM     61  C   UNL A   1      42.843  29.493  35.719  1.00  0.00     0.029 A 
ATOM     62  C   UNL A   1      42.625  29.168  34.390  1.00  0.00     0.049 A 
ATOM     63  H   UNL A   1      41.199  29.948  33.046  1.00  0.00     0.167 HD
ATOM     64  C   UNL A   1      43.075  27.975  32.267  1.00  0.00     0.074 A 
ATOM     65  C   UNL A   1      43.841  27.062  31.445  1.00  0.00     0.031 C 
ATOM     66  C   UNL A   1      43.333  28.218  33.575  1.00  0.00     0.034 A 
BRANCH  53  67
ATOM     67  C   UNL A   1      39.798  32.603  36.076  1.00  0.00     0.023 A 
ATOM     68  C   UNL A   1      40.378  33.885  36.153  1.00  0.00     0.012 A 
ATOM     69  C   UNL A   1      38.883  32.196  37.067  1.00  0.00     0.148 A 
ATOM     70  C   UNL A   1      40.068  34.741  37.209  1.00  0.00     0.002 A 
ATOM     71  C   UNL A   1      38.543  33.072  38.090  1.00  0.00     0.091 A 
ATOM     72  F   UNL A   1      38.360  30.964  36.986  1.00  0.00    -0.205 F 
ATOM     73  C   UNL A   1      39.142  34.340  38.168  1.00  0.00     0.022 A 
BRANCH  71  74
ATOM     74  S   UNL A   1      37.296  32.687  39.324  1.00  0.00     0.127 S 
ATOM     75  O   UNL A   1      37.481  33.779  40.279  1.00  0.00    -0.237 OA
ATOM     76  O   UNL A   1      36.061  32.762  38.543  1.00  0.00    -0.237 OA
ATOM     77  O   UNL A   1      37.621  31.361  39.828  1.00  0.00    -0.744 OA
ENDBRANCH  71  74
ENDBRANCH  53  67
BRANCH  54  78
ATOM     78  C   UNL A   1      41.841  27.460  27.752  1.00  0.00     0.023 A 
ATOM     79  C   UNL A   1      42.321  28.197  26.651  1.00  0.00     0.012 A 
ATOM     80  C   UNL A   1      41.711  26.064  27.635  1.00  0.00     0.148 A 
ATOM     81  C   UNL A   1      42.611  27.565  25.442  1.00  0.00     0.002 A 
ATOM     82  C   UNL A   1      42.059  25.432  26.447  1.00  0.00     0.091 A 
ATOM     83  F   UNL A   1      41.241  25.377  28.687  1.00  0.00    -0.205 F 
ATOM     84  C   UNL A   1      42.489  26.183  25.342  1.00  0.00     0.022 A 
BRANCH  82  85
ATOM     85  S   UNL A   1      42.056  23.643  26.279  1.00  0.00     0.127 S 
ATOM     86  O   UNL A   1      40.629  23.339  26.342  1.00  0.00    -0.237 OA
ATOM     87  O   UNL A   1      42.667  23.459  24.962  1.00  0.00    -0.237 OA
ATOM     88  O   UNL A   1      42.864  23.148  27.385  1.00  0.00    -0.744 OA
ENDBRANCH  82  85
ENDBRANCH  54  78
BRANCH  66  89
ATOM     89  C   UNL A   1      44.454  27.451  34.223  1.00  0.00     0.023 A 
ATOM     90  C   UNL A   1      45.773  27.938  34.153  1.00  0.00     0.012 A 
ATOM     91  C   UNL A   1      44.181  26.288  34.971  1.00  0.00     0.148 A 
ATOM     92  C   UNL A   1      46.811  27.258  34.789  1.00  0.00     0.002 A 
ATOM     93  C   UNL A   1      45.211  25.648  35.647  1.00  0.00     0.091 A 
ATOM     94  F   UNL A   1      42.920  25.835  35.011  1.00  0.00    -0.205 F 
ATOM     95  C   UNL A   1      46.529  26.123  35.545  1.00  0.00     0.022 A 
BRANCH  93  96
ATOM     96  S   UNL A   1      44.923  24.244  36.729  1.00  0.00     0.127 S 
ATOM     97  O   UNL A   1      46.271  23.971  37.226  1.00  0.00    -0.237 OA
ATOM     98  O   UNL A   1      44.007  24.803  37.724  1.00  0.00    -0.237 OA
ATOM     99  O   UNL A   1      44.343  23.202  35.892  1.00  0.00    -0.744 OA
ENDBRANCH  93  96
ENDBRANCH  66  89
ENDBRANCH  40  41
ENDBRANCH  32  35
ENDBRANCH  30  31
ENDBRANCH  29  30
ENDBRANCH   1  29
TORSDOF 18
ENDMDL
MODEL 3
REMARK VINA RESULT:     -11.8      2.187      2.589
REMARK SMILES C[C@@H](Oc1ccc(-c2ccccc2)cc1)C(=O)N1CCC[C@H](C(=O)NCCCNC(=O)c2ccc(-c3c4nc(c(-c5cccc(S(=O)(=O)[O-])c5F)c5ccc([nH]5)c(-c5cccc(S(=O)(=O)[O-])c5F)c5nc(c(-c6cccc(S(=O)(=O)[O-])c6F)c6ccc3[nH]6)C=C5)C=C4)cc2)C1
REMARK SMILES IDX 26 1 25 2 23 3 24 4 22 6 18 7 19 8 95 9 20 10 21 11 16 12
REMARK SMILES IDX 17 13 2 14 1 15 3 16 4 17 5 18 15 19 6 20 14 21 7 22 8 23
REMARK SMILES IDX 9 24 13 25 10 26 12 27 11 28 27 29 28 30 29 31 30 32 31 34
REMARK SMILES IDX 32 35 33 36 94 37 34 38 93 39 35 40 36 41 37 42 87 43 38 44
REMARK SMILES IDX 92 45 86 46 88 47 39 48 91 49 85 50 84 51 40 53 72 54 52 55
REMARK SMILES IDX 71 56 53 57 56 58 70 59 89 60 54 61 55 62 69 64 90 65 57 66
REMARK SMILES IDX 41 67 42 68 50 69 43 70 45 71 51 72 44 73 46 74 47 75 48 76
REMARK SMILES IDX 49 77 73 78 74 79 82 80 75 81 77 82 83 83 76 84 78 85 79 86
REMARK SMILES IDX 80 87 81 88 58 89 59 90 67 91 60 92 62 93 68 94 61 95 63 96
REMARK SMILES IDX 64 97 65 98 66 99
REMARK H PARENT 25 5 29 33 88 52 56 63
REMARK Flexibility Score: inf
ROOT
ATOM      1  C   UNL A   1      32.586  30.702  26.964  1.00  0.00     0.117 C 
ENDROOT
BRANCH   1   2
ATOM      2  N   UNL A   1      33.478  30.017  26.058  1.00  0.00    -0.356 N 
ATOM      3  C   UNL A   1      33.240  29.088  25.098  1.00  0.00     0.224 C 
ATOM      4  O   UNL A   1      34.191  28.832  24.347  1.00  0.00    -0.275 OA
ATOM      5  H   UNL A   1      34.425  30.267  26.153  1.00  0.00     0.163 HD
BRANCH   3   6
ATOM      6  C   UNL A   1      31.900  28.371  24.871  1.00  0.00     0.098 C 
ATOM      7  N   UNL A   1      32.050  26.689  23.035  1.00  0.00    -0.339 N 
ATOM      8  C   UNL A   1      30.988  27.331  22.261  1.00  0.00     0.119 C 
ATOM      9  C   UNL A   1      32.024  26.902  24.473  1.00  0.00     0.133 C 
ATOM     10  C   UNL A   1      30.766  28.803  22.596  1.00  0.00     0.022 C 
ATOM     11  C   UNL A   1      30.847  29.142  24.078  1.00  0.00     0.017 C 
BRANCH   7  12
ATOM     12  C   UNL A   1      32.968  25.881  22.362  1.00  0.00     0.263 C 
ATOM     13  O   UNL A   1      33.364  26.177  21.229  1.00  0.00    -0.271 OA
BRANCH  12  14
ATOM     14  C   UNL A   1      33.370  24.530  22.971  1.00  0.00     0.259 C 
ATOM     15  C   UNL A   1      34.482  24.544  24.010  1.00  0.00     0.064 C 
BRANCH  14  16
ATOM     16  O   UNL A   1      32.119  24.074  23.507  1.00  0.00    -0.481 OA
BRANCH  16  17
ATOM     17  C   UNL A   1      32.083  22.737  23.754  1.00  0.00     0.120 A 
ATOM     18  C   UNL A   1      32.027  22.256  25.059  1.00  0.00     0.047 A 
ATOM     19  C   UNL A   1      32.308  21.883  22.686  1.00  0.00     0.047 A 
ATOM     20  C   UNL A   1      32.226  20.891  25.293  1.00  0.00     0.012 A 
ATOM     21  C   UNL A   1      32.488  20.529  22.920  1.00  0.00     0.012 A 
ATOM     22  C   UNL A   1      32.491  20.012  24.227  1.00  0.00    -0.018 A 
BRANCH  22  23
ATOM     23  C   UNL A   1      32.844  18.602  24.438  1.00  0.00    -0.018 A 
ATOM     24  C   UNL A   1      32.589  17.943  25.648  1.00  0.00     0.009 A 
ATOM     25  C   UNL A   1      33.428  17.865  23.390  1.00  0.00     0.009 A 
ATOM     26  C   UNL A   1      32.885  16.584  25.793  1.00  0.00     0.001 A 
ATOM     27  C   UNL A   1      33.719  16.509  23.531  1.00  0.00     0.001 A 
ATOM     28  C   UNL A   1      33.442  15.868  24.734  1.00  0.00     0.000 A 
ENDBRANCH  22  23
ENDBRANCH  16  17
ENDBRANCH  14  16
ENDBRANCH  12  14
ENDBRANCH   7  12
ENDBRANCH   3   6
ENDBRANCH   1   2
BRANCH   1  29
ATOM     29  C   UNL A   1      33.244  31.811  27.761  1.00  0.00     0.042 C 
BRANCH  29  30
ATOM     30  C   UNL A   1      33.168  33.157  27.073  1.00  0.00     0.118 C 
BRANCH  30  31
ATOM     31  N   UNL A   1      32.775  34.233  27.981  1.00  0.00    -0.352 N 
ATOM     32  C   UNL A   1      33.260  34.573  29.220  1.00  0.00     0.251 C 
ATOM     33  H   UNL A   1      32.044  34.805  27.652  1.00  0.00     0.163 HD
ATOM     34  O   UNL A   1      32.690  35.443  29.880  1.00  0.00    -0.269 OA
BRANCH  32  35
ATOM     35  C   UNL A   1      34.444  33.884  29.774  1.00  0.00     0.039 A 
ATOM     36  C   UNL A   1      35.717  34.255  29.334  1.00  0.00     0.014 A 
ATOM     37  C   UNL A   1      34.303  32.888  30.740  1.00  0.00     0.014 A 
ATOM     38  C   UNL A   1      36.846  33.673  29.917  1.00  0.00     0.010 A 
ATOM     39  C   UNL A   1      35.421  32.410  31.407  1.00  0.00     0.010 A 
ATOM     40  C   UNL A   1      36.708  32.775  30.988  1.00  0.00    -0.014 A 
BRANCH  40  41
ATOM     41  C   UNL A   1      37.884  32.182  31.671  1.00  0.00     0.031 A 
ATOM     42  C   UNL A   1      38.674  31.093  30.988  1.00  0.00     0.074 A 
ATOM     43  C   UNL A   1      38.181  32.546  32.936  1.00  0.00     0.049 A 
ATOM     44  N   UNL A   1      39.676  30.390  31.447  1.00  0.00    -0.248 NA
ATOM     45  C   UNL A   1      38.260  30.714  29.623  1.00  0.00     0.031 C 
ATOM     46  C   UNL A   1      37.435  33.519  33.737  1.00  0.00     0.029 A 
ATOM     47  N   UNL A   1      39.172  32.115  33.782  1.00  0.00    -0.354 N 
ATOM     48  C   UNL A   1      39.967  29.455  30.460  1.00  0.00     0.074 A 
ATOM     49  C   UNL A   1      39.022  29.657  29.388  1.00  0.00     0.031 C 
ATOM     50  C   UNL A   1      37.998  33.617  34.952  1.00  0.00     0.029 A 
ATOM     51  C   UNL A   1      39.121  32.691  35.032  1.00  0.00     0.049 A 
ATOM     52  H   UNL A   1      39.856  31.457  33.521  1.00  0.00     0.167 HD
ATOM     53  C   UNL A   1      40.954  28.531  30.437  1.00  0.00     0.034 A 
ATOM     54  C   UNL A   1      39.888  32.485  36.122  1.00  0.00     0.034 A 
ATOM     55  C   UNL A   1      41.941  28.391  31.470  1.00  0.00     0.049 A 
ATOM     56  C   UNL A   1      41.026  31.502  36.031  1.00  0.00     0.074 A 
ATOM     57  C   UNL A   1      43.061  27.578  31.481  1.00  0.00     0.029 A 
ATOM     58  N   UNL A   1      41.925  29.073  32.675  1.00  0.00    -0.354 N 
ATOM     59  N   UNL A   1      41.400  30.762  35.016  1.00  0.00    -0.248 NA
ATOM     60  C   UNL A   1      41.872  31.352  37.224  1.00  0.00     0.031 C 
ATOM     61  C   UNL A   1      43.704  27.744  32.710  1.00  0.00     0.029 A 
ATOM     62  C   UNL A   1      43.006  28.687  33.447  1.00  0.00     0.049 A 
ATOM     63  H   UNL A   1      41.246  29.734  32.941  1.00  0.00     0.167 HD
ATOM     64  C   UNL A   1      42.545  30.095  35.432  1.00  0.00     0.074 A 
ATOM     65  C   UNL A   1      42.819  30.536  36.783  1.00  0.00     0.031 C 
ATOM     66  C   UNL A   1      43.297  29.186  34.764  1.00  0.00     0.034 A 
BRANCH  53  67
ATOM     67  C   UNL A   1      41.059  27.626  29.238  1.00  0.00     0.023 A 
ATOM     68  C   UNL A   1      40.273  26.458  29.168  1.00  0.00     0.012 A 
ATOM     69  C   UNL A   1      41.859  27.991  28.137  1.00  0.00     0.148 A 
ATOM     70  C   UNL A   1      40.298  25.655  28.029  1.00  0.00     0.002 A 
ATOM     71  C   UNL A   1      41.842  27.211  26.987  1.00  0.00     0.091 A 
ATOM     72  F   UNL A   1      42.614  29.094  28.234  1.00  0.00    -0.205 F 
ATOM     73  C   UNL A   1      41.070  26.038  26.936  1.00  0.00     0.022 A 
BRANCH  71  74
ATOM     74  S   UNL A   1      42.731  27.663  25.493  1.00  0.00     0.127 S 
ATOM     75  O   UNL A   1      44.094  27.821  25.999  1.00  0.00    -0.237 OA
ATOM     76  O   UNL A   1      42.525  26.487  24.649  1.00  0.00    -0.237 OA
ATOM     77  O   UNL A   1      42.106  28.884  25.004  1.00  0.00    -0.744 OA
ENDBRANCH  71  74
ENDBRANCH  53  67
BRANCH  54  78
ATOM     78  C   UNL A   1      39.646  33.253  37.378  1.00  0.00     0.023 A 
ATOM     79  C   UNL A   1      38.730  32.758  38.328  1.00  0.00     0.012 A 
ATOM     80  C   UNL A   1      40.301  34.473  37.631  1.00  0.00     0.148 A 
ATOM     81  C   UNL A   1      38.431  33.489  39.478  1.00  0.00     0.002 A 
ATOM     82  C   UNL A   1      40.043  35.167  38.807  1.00  0.00     0.091 A 
ATOM     83  F   UNL A   1      41.160  34.937  36.712  1.00  0.00    -0.205 F 
ATOM     84  C   UNL A   1      39.093  34.689  39.721  1.00  0.00     0.022 A 
BRANCH  82  85
ATOM     85  S   UNL A   1      40.949  36.652  39.259  1.00  0.00     0.127 S 
ATOM     86  O   UNL A   1      42.221  36.447  38.572  1.00  0.00    -0.237 OA
ATOM     87  O   UNL A   1      40.107  37.707  38.694  1.00  0.00    -0.237 OA
ATOM     88  O   UNL A   1      41.000  36.646  40.714  1.00  0.00    -0.744 OA
ENDBRANCH  82  85
ENDBRANCH  54  78
BRANCH  66  89
ATOM     89  C   UNL A   1      44.519  28.643  35.455  1.00  0.00     0.023 A 
ATOM     90  C   UNL A   1      45.782  29.212  35.202  1.00  0.00     0.012 A 
ATOM     91  C   UNL A   1      44.398  27.620  36.416  1.00  0.00     0.148 A 
ATOM     92  C   UNL A   1      46.912  28.746  35.872  1.00  0.00     0.002 A 
ATOM     93  C   UNL A   1      45.519  27.199  37.118  1.00  0.00     0.091 A 
ATOM     94  F   UNL A   1      43.188  27.082  36.628  1.00  0.00    -0.205 F 
ATOM     95  C   UNL A   1      46.780  27.751  36.837  1.00  0.00     0.022 A 
BRANCH  93  96
ATOM     96  S   UNL A   1      45.424  26.000  38.451  1.00  0.00     0.127 S 
ATOM     97  O   UNL A   1      44.224  26.441  39.162  1.00  0.00    -0.237 OA
ATOM     98  O   UNL A   1      45.275  24.739  37.724  1.00  0.00    -0.237 OA
ATOM     99  O   UNL A   1      46.671  26.125  39.195  1.00  0.00    -0.744 OA
ENDBRANCH  93  96
ENDBRANCH  66  89
ENDBRANCH  40  41
ENDBRANCH  32  35
ENDBRANCH  30  31
ENDBRANCH  29  30
ENDBRANCH   1  29
TORSDOF 18
ENDMDL
