MODEL 1
REMARK VINA RESULT:     -12.3      0.000      0.000
REMARK SMILES O=C(C[C@@H]([NH2+]Cc1cccnc1)C(=O)NCCCNC(=O)c1ccc(-c2c3nc(c(-c4cccc(S(=O)(=O)[O-])c4F)c4ccc([nH]4)c(-c4cccc(S(=O)(=O)[O-])c4F)c4nc(c(-c5cccc(S(=O)(=O)[O-])c5F)c5ccc2[nH]5)C=C4)C=C3)cc1)Nc1ccc2ccccc2c1
REMARK SMILES IDX 17 1 16 2 15 3 13 4 14 5 4 7 3 8 2 9 1 10 85 11 86 13 87 14
REMARK SMILES IDX 95 15 88 16 94 17 89 18 93 19 90 20 92 21 91 22 5 23 6 26
REMARK SMILES IDX 7 27 8 28 12 29 9 30 11 31 10 32 18 33 19 34 20 35 21 37
REMARK SMILES IDX 22 38 23 39 84 40 24 41 83 42 25 43 26 44 27 45 77 46 28 47
REMARK SMILES IDX 82 48 76 49 78 50 29 51 81 52 75 53 74 54 30 56 62 57 42 58
REMARK SMILES IDX 61 59 43 60 46 61 60 62 79 63 44 64 45 65 59 67 80 68 47 69
REMARK SMILES IDX 31 70 32 71 40 72 33 73 35 74 41 75 34 76 36 77 37 78 38 79
REMARK SMILES IDX 39 80 63 81 64 82 72 83 65 84 67 85 73 86 66 87 68 88 69 89
REMARK SMILES IDX 70 90 71 91 48 92 49 93 57 94 50 95 52 96 58 97 51 98 53 99
REMARK SMILES IDX 54 100 55 101 56 102
REMARK H PARENT 15 6 85 12 5 24 5 25 19 36 78 55 46 66
REMARK Flexibility Score: inf
ROOT
ATOM      1  C   UNL A   1      33.291  28.049  26.973  1.00  0.00     0.042 C 
ENDROOT
BRANCH   1   2
ATOM      2  C   UNL A   1      31.783  28.227  27.109  1.00  0.00     0.118 C 
BRANCH   2   3
ATOM      3  N   UNL A   1      31.084  26.963  26.963  1.00  0.00    -0.351 N 
ATOM      4  C   UNL A   1      30.677  26.307  25.839  1.00  0.00     0.278 C 
ATOM      5  O   UNL A   1      30.135  25.208  25.985  1.00  0.00    -0.268 OA
ATOM      6  H   UNL A   1      30.870  26.507  27.808  1.00  0.00     0.163 HD
BRANCH   4   7
ATOM      7  C   UNL A   1      30.949  26.873  24.432  1.00  0.00     0.282 C 
BRANCH   7   8
ATOM      8  C   UNL A   1      31.076  25.723  23.411  1.00  0.00     0.175 C 
BRANCH   8   9
ATOM      9  C   UNL A   1      32.475  25.150  23.319  1.00  0.00     0.230 C 
ATOM     10  O   UNL A   1      33.117  25.163  22.275  1.00  0.00    -0.274 OA
ATOM     11  N   UNL A   1      32.881  24.567  24.509  1.00  0.00    -0.326 N 
ATOM     12  H   UNL A   1      32.323  24.699  25.310  1.00  0.00     0.169 HD
BRANCH  11  13
ATOM     13  C   UNL A   1      34.045  23.800  24.626  1.00  0.00     0.041 A 
ATOM     14  C   UNL A   1      33.981  22.454  24.271  1.00  0.00     0.027 A 
ATOM     15  C   UNL A   1      35.224  24.336  25.141  1.00  0.00     0.034 A 
ATOM     16  C   UNL A   1      35.126  21.664  24.323  1.00  0.00     0.011 A 
ATOM     17  C   UNL A   1      36.343  23.507  25.341  1.00  0.00    -0.016 A 
ATOM     18  C   UNL A   1      36.311  22.173  24.870  1.00  0.00    -0.018 A 
ATOM     19  C   UNL A   1      37.481  23.952  26.032  1.00  0.00     0.009 A 
ATOM     20  C   UNL A   1      37.448  21.362  24.997  1.00  0.00     0.009 A 
ATOM     21  C   UNL A   1      38.572  23.102  26.231  1.00  0.00     0.001 A 
ATOM     22  C   UNL A   1      38.569  21.821  25.686  1.00  0.00     0.001 A 
ENDBRANCH  11  13
ENDBRANCH   8   9
ENDBRANCH   7   8
BRANCH   7  23
ATOM     23  N   UNL A   1      29.929  27.905  24.055  1.00  0.00    -0.332 N 
ATOM     24  H   UNL A   1      29.211  27.927  24.780  1.00  0.00     0.347 HD
ATOM     25  H   UNL A   1      29.557  27.638  23.144  1.00  0.00     0.347 HD
BRANCH  23  26
ATOM     26  C   UNL A   1      30.484  29.265  23.910  1.00  0.00     0.299 C 
BRANCH  26  27
ATOM     27  C   UNL A   1      29.608  30.183  23.102  1.00  0.00     0.024 A 
ATOM     28  C   UNL A   1      28.939  31.265  23.687  1.00  0.00     0.013 A 
ATOM     29  C   UNL A   1      29.424  29.982  21.739  1.00  0.00     0.120 A 
ATOM     30  C   UNL A   1      28.094  32.057  22.918  1.00  0.00     0.021 A 
ATOM     31  N   UNL A   1      28.636  30.759  20.960  1.00  0.00    -0.264 NA
ATOM     32  C   UNL A   1      27.976  31.765  21.571  1.00  0.00     0.111 A 
ENDBRANCH  26  27
ENDBRANCH  23  26
ENDBRANCH   7  23
ENDBRANCH   4   7
ENDBRANCH   2   3
ENDBRANCH   1   2
BRANCH   1  33
ATOM     33  C   UNL A   1      33.950  29.108  26.098  1.00  0.00     0.118 C 
BRANCH  33  34
ATOM     34  N   UNL A   1      33.874  30.438  26.688  1.00  0.00    -0.352 N 
ATOM     35  C   UNL A   1      34.628  31.000  27.690  1.00  0.00     0.251 C 
ATOM     36  H   UNL A   1      33.176  31.023  26.313  1.00  0.00     0.163 HD
ATOM     37  O   UNL A   1      34.273  32.059  28.193  1.00  0.00    -0.269 OA
BRANCH  35  38
ATOM     38  C   UNL A   1      35.854  30.320  28.166  1.00  0.00     0.039 A 
ATOM     39  C   UNL A   1      37.004  30.370  27.374  1.00  0.00     0.014 A 
ATOM     40  C   UNL A   1      35.868  29.628  29.379  1.00  0.00     0.014 A 
ATOM     41  C   UNL A   1      38.185  29.780  27.830  1.00  0.00     0.010 A 
ATOM     42  C   UNL A   1      37.065  29.117  29.870  1.00  0.00     0.010 A 
ATOM     43  C   UNL A   1      38.235  29.179  29.099  1.00  0.00    -0.014 A 
BRANCH  43  44
ATOM     44  C   UNL A   1      39.502  28.625  29.642  1.00  0.00     0.031 A 
ATOM     45  C   UNL A   1      40.228  29.336  30.754  1.00  0.00     0.074 A 
ATOM     46  C   UNL A   1      40.051  27.535  29.068  1.00  0.00     0.049 A 
ATOM     47  N   UNL A   1      41.377  29.043  31.305  1.00  0.00    -0.248 NA
ATOM     48  C   UNL A   1      39.596  30.549  31.301  1.00  0.00     0.031 C 
ATOM     49  C   UNL A   1      39.488  26.805  27.929  1.00  0.00     0.029 A 
ATOM     50  N   UNL A   1      41.221  26.870  29.341  1.00  0.00    -0.354 N 
ATOM     51  C   UNL A   1      41.628  30.055  32.224  1.00  0.00     0.074 A 
ATOM     52  C   UNL A   1      40.521  30.982  32.145  1.00  0.00     0.031 C 
ATOM     53  C   UNL A   1      40.315  25.801  27.596  1.00  0.00     0.029 A 
ATOM     54  C   UNL A   1      41.483  25.836  28.471  1.00  0.00     0.049 A 
ATOM     55  H   UNL A   1      41.817  27.110  30.086  1.00  0.00     0.167 HD
ATOM     56  C   UNL A   1      42.675  30.190  33.071  1.00  0.00     0.034 A 
ATOM     57  C   UNL A   1      42.552  25.021  28.372  1.00  0.00     0.034 A 
ATOM     58  C   UNL A   1      43.750  29.242  33.181  1.00  0.00     0.049 A 
ATOM     59  C   UNL A   1      43.679  25.169  29.359  1.00  0.00     0.074 A 
ATOM     60  C   UNL A   1      44.794  29.231  34.087  1.00  0.00     0.029 A 
ATOM     61  N   UNL A   1      43.933  28.151  32.346  1.00  0.00    -0.354 N 
ATOM     62  N   UNL A   1      43.808  26.028  30.340  1.00  0.00    -0.248 NA
ATOM     63  C   UNL A   1      44.791  24.214  29.248  1.00  0.00     0.031 C 
ATOM     64  C   UNL A   1      45.633  28.158  33.775  1.00  0.00     0.029 A 
ATOM     65  C   UNL A   1      45.086  27.473  32.703  1.00  0.00     0.049 A 
ATOM     66  H   UNL A   1      43.332  27.896  31.609  1.00  0.00     0.167 HD
ATOM     67  C   UNL A   1      44.993  25.693  30.986  1.00  0.00     0.074 A 
ATOM     68  C   UNL A   1      45.532  24.540  30.297  1.00  0.00     0.031 C 
ATOM     69  C   UNL A   1      45.586  26.295  32.045  1.00  0.00     0.034 A 
BRANCH  56  70
ATOM     70  C   UNL A   1      42.704  31.391  33.980  1.00  0.00     0.023 A 
ATOM     71  C   UNL A   1      43.265  32.602  33.528  1.00  0.00     0.012 A 
ATOM     72  C   UNL A   1      42.090  31.343  35.247  1.00  0.00     0.148 A 
ATOM     73  C   UNL A   1      43.240  33.740  34.334  1.00  0.00     0.002 A 
ATOM     74  C   UNL A   1      42.026  32.492  36.024  1.00  0.00     0.091 A 
ATOM     75  F   UNL A   1      41.581  30.176  35.666  1.00  0.00    -0.205 F 
ATOM     76  C   UNL A   1      42.609  33.688  35.575  1.00  0.00     0.022 A 
BRANCH  74  77
ATOM     77  S   UNL A   1      41.160  32.553  37.597  1.00  0.00     0.127 S 
ATOM     78  O   UNL A   1      41.999  31.692  38.428  1.00  0.00    -0.237 OA
ATOM     79  O   UNL A   1      41.229  33.977  37.929  1.00  0.00    -0.237 OA
ATOM     80  O   UNL A   1      39.817  32.051  37.339  1.00  0.00    -0.744 OA
ENDBRANCH  74  77
ENDBRANCH  56  70
BRANCH  57  81
ATOM     81  C   UNL A   1      42.599  23.971  27.315  1.00  0.00     0.023 A 
ATOM     82  C   UNL A   1      43.128  24.277  26.046  1.00  0.00     0.012 A 
ATOM     83  C   UNL A   1      42.125  22.668  27.563  1.00  0.00     0.148 A 
ATOM     84  C   UNL A   1      43.144  23.320  25.031  1.00  0.00     0.002 A 
ATOM     85  C   UNL A   1      42.200  21.702  26.568  1.00  0.00     0.091 A 
ATOM     86  F   UNL A   1      41.614  22.398  28.773  1.00  0.00    -0.205 F 
ATOM     87  C   UNL A   1      42.689  22.031  25.294  1.00  0.00     0.022 A 
BRANCH  85  88
ATOM     88  S   UNL A   1      41.766  19.984  26.862  1.00  0.00     0.127 S 
ATOM     89  O   UNL A   1      40.408  20.104  27.382  1.00  0.00    -0.237 OA
ATOM     90  O   UNL A   1      41.866  19.413  25.519  1.00  0.00    -0.237 OA
ATOM     91  O   UNL A   1      42.764  19.484  27.800  1.00  0.00    -0.744 OA
ENDBRANCH  85  88
ENDBRANCH  57  81
BRANCH  69  92
ATOM     92  C   UNL A   1      46.865  25.695  32.569  1.00  0.00     0.023 A 
ATOM     93  C   UNL A   1      48.107  26.120  32.059  1.00  0.00     0.012 A 
ATOM     94  C   UNL A   1      46.833  24.765  33.627  1.00  0.00     0.148 A 
ATOM     95  C   UNL A   1      49.297  25.603  32.571  1.00  0.00     0.002 A 
ATOM     96  C   UNL A   1      48.023  24.295  34.169  1.00  0.00     0.091 A 
ATOM     97  F   UNL A   1      45.640  24.361  34.087  1.00  0.00    -0.205 F 
ATOM     98  C   UNL A   1      49.255  24.702  33.633  1.00  0.00     0.022 A 
BRANCH  96  99
ATOM     99  S   UNL A   1      48.068  23.214  35.602  1.00  0.00     0.127 S 
ATOM    100  O   UNL A   1      47.491  21.982  35.064  1.00  0.00    -0.237 OA
ATOM    101  O   UNL A   1      49.500  23.142  35.889  1.00  0.00    -0.237 OA
ATOM    102  O   UNL A   1      47.276  23.874  36.631  1.00  0.00    -0.744 OA
ENDBRANCH  96  99
ENDBRANCH  69  92
ENDBRANCH  43  44
ENDBRANCH  35  38
ENDBRANCH  33  34
ENDBRANCH   1  33
TORSDOF 19
ENDMDL
MODEL 2
REMARK VINA RESULT:     -12.0      1.336      2.138
REMARK SMILES O=C(C[C@@H]([NH2+]Cc1cccnc1)C(=O)NCCCNC(=O)c1ccc(-c2c3nc(c(-c4cccc(S(=O)(=O)[O-])c4F)c4ccc([nH]4)c(-c4cccc(S(=O)(=O)[O-])c4F)c4nc(c(-c5cccc(S(=O)(=O)[O-])c5F)c5ccc2[nH]5)C=C4)C=C3)cc1)Nc1ccc2ccccc2c1
REMARK SMILES IDX 17 1 16 2 15 3 13 4 14 5 4 7 3 8 2 9 1 10 85 11 86 13 87 14
REMARK SMILES IDX 95 15 88 16 94 17 89 18 93 19 90 20 92 21 91 22 5 23 6 26
REMARK SMILES IDX 7 27 8 28 12 29 9 30 11 31 10 32 18 33 19 34 20 35 21 37
REMARK SMILES IDX 22 38 23 39 84 40 24 41 83 42 25 43 26 44 27 45 77 46 28 47
REMARK SMILES IDX 82 48 76 49 78 50 29 51 81 52 75 53 74 54 30 56 62 57 42 58
REMARK SMILES IDX 61 59 43 60 46 61 60 62 79 63 44 64 45 65 59 67 80 68 47 69
REMARK SMILES IDX 31 70 32 71 40 72 33 73 35 74 41 75 34 76 36 77 37 78 38 79
REMARK SMILES IDX 39 80 63 81 64 82 72 83 65 84 67 85 73 86 66 87 68 88 69 89
REMARK SMILES IDX 70 90 71 91 48 92 49 93 57 94 50 95 52 96 58 97 51 98 53 99
REMARK SMILES IDX 54 100 55 101 56 102
REMARK H PARENT 15 6 85 12 5 24 5 25 19 36 78 55 46 66
REMARK Flexibility Score: inf
ROOT
ATOM      1  C   UNL A   1      34.053  28.541  25.584  1.00  0.00     0.042 C 
ENDROOT
BRANCH   1   2
ATOM      2  C   UNL A   1      32.970  28.523  24.510  1.00  0.00     0.118 C 
BRANCH   2   3
ATOM      3  N   UNL A   1      33.185  27.449  23.557  1.00  0.00    -0.351 N 
ATOM      4  C   UNL A   1      32.620  26.211  23.483  1.00  0.00     0.278 C 
ATOM      5  O   UNL A   1      32.943  25.492  22.535  1.00  0.00    -0.268 OA
ATOM      6  H   UNL A   1      33.841  27.647  22.851  1.00  0.00     0.163 HD
BRANCH   4   7
ATOM      7  C   UNL A   1      31.557  25.747  24.499  1.00  0.00     0.282 C 
BRANCH   7   8
ATOM      8  C   UNL A   1      32.238  25.251  25.791  1.00  0.00     0.175 C 
BRANCH   8   9
ATOM      9  C   UNL A   1      32.366  23.744  25.865  1.00  0.00     0.230 C 
ATOM     10  O   UNL A   1      31.983  23.104  26.836  1.00  0.00    -0.274 OA
ATOM     11  N   UNL A   1      33.018  23.220  24.759  1.00  0.00    -0.326 N 
ATOM     12  H   UNL A   1      33.197  23.815  23.995  1.00  0.00     0.169 HD
BRANCH  11  13
ATOM     13  C   UNL A   1      33.434  21.887  24.677  1.00  0.00     0.041 A 
ATOM     14  C   UNL A   1      34.726  21.577  25.099  1.00  0.00     0.027 A 
ATOM     15  C   UNL A   1      32.616  20.898  24.133  1.00  0.00     0.034 A 
ATOM     16  C   UNL A   1      35.165  20.256  25.084  1.00  0.00     0.011 A 
ATOM     17  C   UNL A   1      33.108  19.591  23.973  1.00  0.00    -0.016 A 
ATOM     18  C   UNL A   1      34.374  19.254  24.510  1.00  0.00    -0.018 A 
ATOM     19  C   UNL A   1      32.397  18.614  23.257  1.00  0.00     0.009 A 
ATOM     20  C   UNL A   1      34.839  17.935  24.420  1.00  0.00     0.009 A 
ATOM     21  C   UNL A   1      32.917  17.327  23.098  1.00  0.00     0.001 A 
ATOM     22  C   UNL A   1      34.120  16.978  23.706  1.00  0.00     0.001 A 
ENDBRANCH  11  13
ENDBRANCH   8   9
ENDBRANCH   7   8
BRANCH   7  23
ATOM     23  N   UNL A   1      30.526  26.811  24.729  1.00  0.00    -0.332 N 
ATOM     24  H   UNL A   1      30.966  27.722  24.593  1.00  0.00     0.347 HD
ATOM     25  H   UNL A   1      30.175  26.685  25.678  1.00  0.00     0.347 HD
BRANCH  23  26
ATOM     26  C   UNL A   1      29.363  26.718  23.825  1.00  0.00     0.299 C 
BRANCH  26  27
ATOM     27  C   UNL A   1      29.068  28.003  23.100  1.00  0.00     0.024 A 
ATOM     28  C   UNL A   1      27.815  28.623  23.184  1.00  0.00     0.013 A 
ATOM     29  C   UNL A   1      30.032  28.619  22.309  1.00  0.00     0.120 A 
ATOM     30  C   UNL A   1      27.564  29.780  22.455  1.00  0.00     0.021 A 
ATOM     31  N   UNL A   1      29.824  29.763  21.618  1.00  0.00    -0.264 NA
ATOM     32  C   UNL A   1      28.590  30.306  21.692  1.00  0.00     0.111 A 
ENDBRANCH  26  27
ENDBRANCH  23  26
ENDBRANCH   7  23
ENDBRANCH   4   7
ENDBRANCH   2   3
ENDBRANCH   1   2
BRANCH   1  33
ATOM     33  C   UNL A   1      33.531  28.913  26.965  1.00  0.00     0.118 C 
BRANCH  33  34
ATOM     34  N   UNL A   1      33.628  30.343  27.226  1.00  0.00    -0.352 N 
ATOM     35  C   UNL A   1      34.568  31.045  27.942  1.00  0.00     0.251 C 
ATOM     36  H   UNL A   1      32.911  30.890  26.830  1.00  0.00     0.163 HD
ATOM     37  O   UNL A   1      34.360  32.219  28.225  1.00  0.00    -0.269 OA
BRANCH  35  38
ATOM     38  C   UNL A   1      35.816  30.380  28.379  1.00  0.00     0.039 A 
ATOM     39  C   UNL A   1      36.937  30.436  27.548  1.00  0.00     0.014 A 
ATOM     40  C   UNL A   1      35.878  29.695  29.595  1.00  0.00     0.014 A 
ATOM     41  C   UNL A   1      38.139  29.860  27.966  1.00  0.00     0.010 A 
ATOM     42  C   UNL A   1      37.096  29.198  30.048  1.00  0.00     0.010 A 
ATOM     43  C   UNL A   1      38.239  29.268  29.236  1.00  0.00    -0.014 A 
BRANCH  43  44
ATOM     44  C   UNL A   1      39.529  28.729  29.738  1.00  0.00     0.031 A 
ATOM     45  C   UNL A   1      40.271  29.436  30.841  1.00  0.00     0.074 A 
ATOM     46  C   UNL A   1      40.082  27.657  29.134  1.00  0.00     0.049 A 
ATOM     47  N   UNL A   1      41.439  29.157  31.359  1.00  0.00    -0.248 NA
ATOM     48  C   UNL A   1      39.631  30.629  31.422  1.00  0.00     0.031 C 
ATOM     49  C   UNL A   1      39.503  26.934  27.999  1.00  0.00     0.029 A 
ATOM     50  N   UNL A   1      41.271  27.009  29.367  1.00  0.00    -0.354 N 
ATOM     51  C   UNL A   1      41.695  30.159  32.286  1.00  0.00     0.074 A 
ATOM     52  C   UNL A   1      40.570  31.067  32.249  1.00  0.00     0.031 C 
ATOM     53  C   UNL A   1      40.339  25.949  27.630  1.00  0.00     0.029 A 
ATOM     54  C   UNL A   1      41.528  25.993  28.475  1.00  0.00     0.049 A 
ATOM     55  H   UNL A   1      41.881  27.250  30.100  1.00  0.00     0.167 HD
ATOM     56  C   UNL A   1      42.761  30.301  33.108  1.00  0.00     0.034 A 
ATOM     57  C   UNL A   1      42.608  25.200  28.337  1.00  0.00     0.034 A 
ATOM     58  C   UNL A   1      43.855  29.371  33.176  1.00  0.00     0.049 A 
ATOM     59  C   UNL A   1      43.758  25.354  29.296  1.00  0.00     0.074 A 
ATOM     60  C   UNL A   1      44.923  29.366  34.055  1.00  0.00     0.029 A 
ATOM     61  N   UNL A   1      44.036  28.296  32.320  1.00  0.00    -0.354 N 
ATOM     62  N   UNL A   1      43.897  26.200  30.287  1.00  0.00    -0.248 NA
ATOM     63  C   UNL A   1      44.884  24.420  29.143  1.00  0.00     0.031 C 
ATOM     64  C   UNL A   1      45.772  28.313  33.705  1.00  0.00     0.029 A 
ATOM     65  C   UNL A   1      45.210  27.634  32.637  1.00  0.00     0.049 A 
ATOM     66  H   UNL A   1      43.420  28.041  31.595  1.00  0.00     0.167 HD
ATOM     67  C   UNL A   1      45.104  25.877  30.897  1.00  0.00     0.074 A 
ATOM     68  C   UNL A   1      45.646  24.744  30.178  1.00  0.00     0.031 C 
ATOM     69  C   UNL A   1      45.714  26.475  31.949  1.00  0.00     0.034 A 
BRANCH  56  70
ATOM     70  C   UNL A   1      42.792  31.489  34.033  1.00  0.00     0.023 A 
ATOM     71  C   UNL A   1      43.304  32.721  33.580  1.00  0.00     0.012 A 
ATOM     72  C   UNL A   1      42.228  31.406  35.322  1.00  0.00     0.148 A 
ATOM     73  C   UNL A   1      43.278  33.846  34.404  1.00  0.00     0.002 A 
ATOM     74  C   UNL A   1      42.162  32.542  36.118  1.00  0.00     0.091 A 
ATOM     75  F   UNL A   1      41.765  30.220  35.741  1.00  0.00    -0.205 F 
ATOM     76  C   UNL A   1      42.697  33.760  35.666  1.00  0.00     0.022 A 
BRANCH  74  77
ATOM     77  S   UNL A   1      41.354  32.557  37.723  1.00  0.00     0.127 S 
ATOM     78  O   UNL A   1      41.467  33.965  38.096  1.00  0.00    -0.237 OA
ATOM     79  O   UNL A   1      39.998  32.122  37.386  1.00  0.00    -0.237 OA
ATOM     80  O   UNL A   1      42.102  31.630  38.560  1.00  0.00    -0.744 OA
ENDBRANCH  74  77
ENDBRANCH  56  70
BRANCH  57  81
ATOM     81  C   UNL A   1      42.647  24.166  27.263  1.00  0.00     0.023 A 
ATOM     82  C   UNL A   1      43.301  24.442  26.048  1.00  0.00     0.012 A 
ATOM     83  C   UNL A   1      42.040  22.907  27.444  1.00  0.00     0.148 A 
ATOM     84  C   UNL A   1      43.313  23.503  25.015  1.00  0.00     0.002 A 
ATOM     85  C   UNL A   1      42.109  21.953  26.437  1.00  0.00     0.091 A 
ATOM     86  F   UNL A   1      41.413  22.666  28.604  1.00  0.00    -0.205 F 
ATOM     87  C   UNL A   1      42.726  22.256  25.213  1.00  0.00     0.022 A 
BRANCH  85  88
ATOM     88  S   UNL A   1      41.502  20.277  26.657  1.00  0.00     0.127 S 
ATOM     89  O   UNL A   1      40.069  20.498  26.820  1.00  0.00    -0.237 OA
ATOM     90  O   UNL A   1      41.892  19.647  25.395  1.00  0.00    -0.237 OA
ATOM     91  O   UNL A   1      42.202  19.759  27.826  1.00  0.00    -0.744 OA
ENDBRANCH  85  88
ENDBRANCH  57  81
BRANCH  69  92
ATOM     92  C   UNL A   1      47.017  25.890  32.431  1.00  0.00     0.023 A 
ATOM     93  C   UNL A   1      48.237  26.342  31.892  1.00  0.00     0.012 A 
ATOM     94  C   UNL A   1      47.028  24.949  33.480  1.00  0.00     0.148 A 
ATOM     95  C   UNL A   1      49.448  25.839  32.366  1.00  0.00     0.002 A 
ATOM     96  C   UNL A   1      48.240  24.494  33.984  1.00  0.00     0.091 A 
ATOM     97  F   UNL A   1      45.856  24.521  33.968  1.00  0.00    -0.205 F 
ATOM     98  C   UNL A   1      49.451  24.926  33.418  1.00  0.00     0.022 A 
BRANCH  96  99
ATOM     99  S   UNL A   1      48.343  23.399  35.403  1.00  0.00     0.127 S 
ATOM    100  O   UNL A   1      47.633  22.216  34.918  1.00  0.00    -0.237 OA
ATOM    101  O   UNL A   1      49.787  23.225  35.556  1.00  0.00    -0.237 OA
ATOM    102  O   UNL A   1      47.698  24.103  36.504  1.00  0.00    -0.744 OA
ENDBRANCH  96  99
ENDBRANCH  69  92
ENDBRANCH  43  44
ENDBRANCH  35  38
ENDBRANCH  33  34
ENDBRANCH   1  33
TORSDOF 19
ENDMDL
MODEL 3
REMARK VINA RESULT:     -11.9      3.297      8.444
REMARK SMILES O=C(C[C@@H]([NH2+]Cc1cccnc1)C(=O)NCCCNC(=O)c1ccc(-c2c3nc(c(-c4cccc(S(=O)(=O)[O-])c4F)c4ccc([nH]4)c(-c4cccc(S(=O)(=O)[O-])c4F)c4nc(c(-c5cccc(S(=O)(=O)[O-])c5F)c5ccc2[nH]5)C=C4)C=C3)cc1)Nc1ccc2ccccc2c1
REMARK SMILES IDX 17 1 16 2 15 3 13 4 14 5 4 7 3 8 2 9 1 10 85 11 86 13 87 14
REMARK SMILES IDX 95 15 88 16 94 17 89 18 93 19 90 20 92 21 91 22 5 23 6 26
REMARK SMILES IDX 7 27 8 28 12 29 9 30 11 31 10 32 18 33 19 34 20 35 21 37
REMARK SMILES IDX 22 38 23 39 84 40 24 41 83 42 25 43 26 44 27 45 77 46 28 47
REMARK SMILES IDX 82 48 76 49 78 50 29 51 81 52 75 53 74 54 30 56 62 57 42 58
REMARK SMILES IDX 61 59 43 60 46 61 60 62 79 63 44 64 45 65 59 67 80 68 47 69
REMARK SMILES IDX 31 70 32 71 40 72 33 73 35 74 41 75 34 76 36 77 37 78 38 79
REMARK SMILES IDX 39 80 63 81 64 82 72 83 65 84 67 85 73 86 66 87 68 88 69 89
REMARK SMILES IDX 70 90 71 91 48 92 49 93 57 94 50 95 52 96 58 97 51 98 53 99
REMARK SMILES IDX 54 100 55 101 56 102
REMARK H PARENT 15 6 85 12 5 24 5 25 19 36 78 55 46 66
REMARK Flexibility Score: inf
ROOT
ATOM      1  C   UNL A   1      31.612  31.804  26.546  1.00  0.00     0.042 C 
ENDROOT
BRANCH   1   2
ATOM      2  C   UNL A   1      31.780  30.308  26.306  1.00  0.00     0.118 C 
BRANCH   2   3
ATOM      3  N   UNL A   1      32.667  30.045  25.187  1.00  0.00    -0.351 N 
ATOM      4  C   UNL A   1      32.767  28.951  24.380  1.00  0.00     0.278 C 
ATOM      5  O   UNL A   1      33.584  28.995  23.457  1.00  0.00    -0.268 OA
ATOM      6  H   UNL A   1      33.295  30.773  24.976  1.00  0.00     0.163 HD
BRANCH   4   7
ATOM      7  C   UNL A   1      31.845  27.729  24.560  1.00  0.00     0.282 C 
BRANCH   7   8
ATOM      8  C   UNL A   1      31.970  27.175  25.994  1.00  0.00     0.175 C 
BRANCH   8   9
ATOM      9  C   UNL A   1      32.004  25.662  26.055  1.00  0.00     0.230 C 
ATOM     10  O   UNL A   1      31.383  25.029  26.900  1.00  0.00    -0.274 OA
ATOM     11  N   UNL A   1      32.859  25.120  25.108  1.00  0.00    -0.326 N 
ATOM     12  H   UNL A   1      33.233  25.716  24.418  1.00  0.00     0.169 HD
BRANCH  11  13
ATOM     13  C   UNL A   1      33.217  23.767  25.086  1.00  0.00     0.041 A 
ATOM     14  C   UNL A   1      34.421  23.399  25.683  1.00  0.00     0.027 A 
ATOM     15  C   UNL A   1      32.434  22.816  24.435  1.00  0.00     0.034 A 
ATOM     16  C   UNL A   1      34.793  22.058  25.730  1.00  0.00     0.011 A 
ATOM     17  C   UNL A   1      32.880  21.484  24.346  1.00  0.00    -0.016 A 
ATOM     18  C   UNL A   1      34.041  21.091  25.053  1.00  0.00    -0.018 A 
ATOM     19  C   UNL A   1      32.227  20.538  23.540  1.00  0.00     0.009 A 
ATOM     20  C   UNL A   1      34.449  19.751  25.030  1.00  0.00     0.009 A 
ATOM     21  C   UNL A   1      32.700  19.225  23.455  1.00  0.00     0.001 A 
ATOM     22  C   UNL A   1      33.789  18.824  24.224  1.00  0.00     0.001 A 
ENDBRANCH  11  13
ENDBRANCH   8   9
ENDBRANCH   7   8
BRANCH   7  23
ATOM     23  N   UNL A   1      30.436  28.048  24.156  1.00  0.00    -0.332 N 
ATOM     24  H   UNL A   1      30.085  28.786  24.767  1.00  0.00     0.347 HD
ATOM     25  H   UNL A   1      29.901  27.185  24.237  1.00  0.00     0.347 HD
BRANCH  23  26
ATOM     26  C   UNL A   1      30.308  28.504  22.758  1.00  0.00     0.299 C 
BRANCH  26  27
ATOM     27  C   UNL A   1      29.570  29.808  22.622  1.00  0.00     0.024 A 
ATOM     28  C   UNL A   1      29.310  30.624  23.729  1.00  0.00     0.013 A 
ATOM     29  C   UNL A   1      29.110  30.247  21.385  1.00  0.00     0.120 A 
ATOM     30  C   UNL A   1      28.577  31.795  23.571  1.00  0.00     0.021 A 
ATOM     31  N   UNL A   1      28.426  31.399  21.198  1.00  0.00    -0.264 NA
ATOM     32  C   UNL A   1      28.159  32.135  22.297  1.00  0.00     0.111 A 
ENDBRANCH  26  27
ENDBRANCH  23  26
ENDBRANCH   7  23
ENDBRANCH   4   7
ENDBRANCH   2   3
ENDBRANCH   1   2
BRANCH   1  33
ATOM     33  C   UNL A   1      32.788  32.437  27.278  1.00  0.00     0.118 C 
BRANCH  33  34
ATOM     34  N   UNL A   1      32.563  33.846  27.573  1.00  0.00    -0.352 N 
ATOM     35  C   UNL A   1      33.136  34.646  28.531  1.00  0.00     0.251 C 
ATOM     36  H   UNL A   1      31.898  34.292  26.999  1.00  0.00     0.163 HD
ATOM     37  O   UNL A   1      32.660  35.751  28.760  1.00  0.00    -0.269 OA
BRANCH  35  38
ATOM     38  C   UNL A   1      34.312  34.166  29.292  1.00  0.00     0.039 A 
ATOM     39  C   UNL A   1      34.104  33.434  30.464  1.00  0.00     0.014 A 
ATOM     40  C   UNL A   1      35.610  34.446  28.861  1.00  0.00     0.014 A 
ATOM     41  C   UNL A   1      35.200  32.928  31.167  1.00  0.00     0.010 A 
ATOM     42  C   UNL A   1      36.696  33.869  29.513  1.00  0.00     0.010 A 
ATOM     43  C   UNL A   1      36.504  33.110  30.677  1.00  0.00    -0.014 A 
BRANCH  43  44
ATOM     44  C   UNL A   1      37.677  32.505  31.360  1.00  0.00     0.031 A 
ATOM     45  C   UNL A   1      38.412  31.352  30.729  1.00  0.00     0.074 A 
ATOM     46  C   UNL A   1      38.021  32.930  32.593  1.00  0.00     0.049 A 
ATOM     47  N   UNL A   1      39.409  30.652  31.205  1.00  0.00    -0.248 NA
ATOM     48  C   UNL A   1      37.951  30.907  29.403  1.00  0.00     0.031 C 
ATOM     49  C   UNL A   1      37.336  33.983  33.347  1.00  0.00     0.029 A 
ATOM     50  N   UNL A   1      39.012  32.506  33.444  1.00  0.00    -0.354 N 
ATOM     51  C   UNL A   1      39.662  29.660  30.265  1.00  0.00     0.074 A 
ATOM     52  C   UNL A   1      38.703  29.835  29.198  1.00  0.00     0.031 C 
ATOM     53  C   UNL A   1      37.920  34.117  34.548  1.00  0.00     0.029 A 
ATOM     54  C   UNL A   1      38.995  33.138  34.667  1.00  0.00     0.049 A 
ATOM     55  H   UNL A   1      39.670  31.815  33.204  1.00  0.00     0.167 HD
ATOM     56  C   UNL A   1      40.619  28.703  30.281  1.00  0.00     0.034 A 
ATOM     57  C   UNL A   1      39.745  32.937  35.769  1.00  0.00     0.034 A 
ATOM     58  C   UNL A   1      41.601  28.563  31.321  1.00  0.00     0.049 A 
ATOM     59  C   UNL A   1      40.831  31.896  35.736  1.00  0.00     0.074 A 
ATOM     60  C   UNL A   1      42.680  27.698  31.369  1.00  0.00     0.029 A 
ATOM     61  N   UNL A   1      41.613  29.285  32.503  1.00  0.00    -0.354 N 
ATOM     62  N   UNL A   1      41.169  31.088  34.761  1.00  0.00    -0.248 NA
ATOM     63  C   UNL A   1      41.663  31.762  36.941  1.00  0.00     0.031 C 
ATOM     64  C   UNL A   1      43.321  27.868  32.600  1.00  0.00     0.029 A 
ATOM     65  C   UNL A   1      42.668  28.871  33.298  1.00  0.00     0.049 A 
ATOM     66  H   UNL A   1      40.967  29.988  32.742  1.00  0.00     0.167 HD
ATOM     67  C   UNL A   1      42.273  30.379  35.220  1.00  0.00     0.074 A 
ATOM     68  C   UNL A   1      42.560  30.868  36.552  1.00  0.00     0.031 C 
ATOM     69  C   UNL A   1      42.977  29.401  34.599  1.00  0.00     0.034 A 
BRANCH  56  70
ATOM     70  C   UNL A   1      40.683  27.743  29.121  1.00  0.00     0.023 A 
ATOM     71  C   UNL A   1      39.778  26.665  29.051  1.00  0.00     0.012 A 
ATOM     72  C   UNL A   1      41.578  27.966  28.057  1.00  0.00     0.148 A 
ATOM     73  C   UNL A   1      39.782  25.807  27.951  1.00  0.00     0.002 A 
ATOM     74  C   UNL A   1      41.544  27.137  26.943  1.00  0.00     0.091 A 
ATOM     75  F   UNL A   1      42.444  28.986  28.154  1.00  0.00    -0.205 F 
ATOM     76  C   UNL A   1      40.655  26.051  26.893  1.00  0.00     0.022 A 
BRANCH  74  77
ATOM     77  S   UNL A   1      42.564  27.418  25.492  1.00  0.00     0.127 S 
ATOM     78  O   UNL A   1      43.893  27.544  26.087  1.00  0.00    -0.237 OA
ATOM     79  O   UNL A   1      42.351  26.189  24.726  1.00  0.00    -0.237 OA
ATOM     80  O   UNL A   1      42.048  28.626  24.863  1.00  0.00    -0.744 OA
ENDBRANCH  74  77
ENDBRANCH  56  70
BRANCH  57  81
ATOM     81  C   UNL A   1      39.515  33.759  36.991  1.00  0.00     0.023 A 
ATOM     82  C   UNL A   1      39.961  35.094  37.031  1.00  0.00     0.012 A 
ATOM     83  C   UNL A   1      38.852  33.224  38.113  1.00  0.00     0.148 A 
ATOM     84  C   UNL A   1      39.792  35.867  38.181  1.00  0.00     0.002 A 
ATOM     85  C   UNL A   1      38.632  34.018  39.231  1.00  0.00     0.091 A 
ATOM     86  F   UNL A   1      38.445  31.948  38.060  1.00  0.00    -0.205 F 
ATOM     87  C   UNL A   1      39.120  35.333  39.277  1.00  0.00     0.022 A 
BRANCH  85  88
ATOM     88  S   UNL A   1      37.655  33.456  40.631  1.00  0.00     0.127 S 
ATOM     89  O   UNL A   1      38.513  32.420  41.197  1.00  0.00    -0.237 OA
ATOM     90  O   UNL A   1      37.547  34.676  41.432  1.00  0.00    -0.237 OA
ATOM     91  O   UNL A   1      36.393  32.997  40.066  1.00  0.00    -0.744 OA
ENDBRANCH  85  88
ENDBRANCH  57  81
BRANCH  69  92
ATOM     92  C   UNL A   1      44.165  28.821  35.324  1.00  0.00     0.023 A 
ATOM     93  C   UNL A   1      45.448  29.370  35.131  1.00  0.00     0.012 A 
ATOM     94  C   UNL A   1      43.989  27.781  36.257  1.00  0.00     0.148 A 
ATOM     95  C   UNL A   1      46.544  28.868  35.833  1.00  0.00     0.002 A 
ATOM     96  C   UNL A   1      45.075  27.324  36.993  1.00  0.00     0.091 A 
ATOM     97  F   UNL A   1      42.763  27.262  36.413  1.00  0.00    -0.205 F 
ATOM     98  C   UNL A   1      46.356  27.856  36.771  1.00  0.00     0.022 A 
BRANCH  96  99
ATOM     99  S   UNL A   1      44.910  26.097  38.294  1.00  0.00     0.127 S 
ATOM    100  O   UNL A   1      44.523  24.908  37.535  1.00  0.00    -0.237 OA
ATOM    101  O   UNL A   1      46.262  26.052  38.850  1.00  0.00    -0.237 OA
ATOM    102  O   UNL A   1      43.897  26.609  39.206  1.00  0.00    -0.744 OA
ENDBRANCH  96  99
ENDBRANCH  69  92
ENDBRANCH  43  44
ENDBRANCH  35  38
ENDBRANCH  33  34
ENDBRANCH   1  33
TORSDOF 19
ENDMDL
