MODEL 1
REMARK VINA RESULT:     -11.8      0.000      0.000
REMARK SMILES Cc1ccoc1C(=O)N1CCO[C@H](CC(=O)NCCCNC(=O)c2ccc(-c3c4nc(c(-c5cccc(S(=O)(=O)[O-])c5F)c5ccc([nH]5)c(-c5cccc(S(=O)(=O)[O-])c5F)c5nc(c(-c6cccc(S(=O)(=O)[O-])c6F)c6ccc3[nH]6)C=C5)C=C4)cc2)C1
REMARK SMILES IDX 19 1 18 2 17 3 15 4 16 5 14 7 13 8 9 9 10 10 87 11 11 12
REMARK SMILES IDX 12 13 7 14 8 15 6 16 1 17 2 18 3 19 4 20 5 21 20 22 21 23
REMARK SMILES IDX 22 24 23 26 24 27 25 28 86 29 26 30 85 31 27 32 28 33 29 34
REMARK SMILES IDX 79 35 30 36 84 37 78 38 80 39 31 40 83 41 77 42 76 43 32 45
REMARK SMILES IDX 64 46 44 47 63 48 45 49 48 50 62 51 81 52 46 53 47 54 61 56
REMARK SMILES IDX 82 57 49 58 33 59 34 60 42 61 35 62 37 63 43 64 36 65 38 66
REMARK SMILES IDX 39 67 40 68 41 69 65 70 66 71 74 72 67 73 69 74 75 75 68 76
REMARK SMILES IDX 70 77 71 78 72 79 73 80 50 81 51 82 59 83 52 84 54 85 60 86
REMARK SMILES IDX 53 87 55 88 56 89 57 90 58 91
REMARK H PARENT 17 6 21 25 80 44 48 55
REMARK Flexibility Score: inf
ROOT
ATOM      1  C   UNL A   1      31.524  32.122  26.635  1.00  0.00     0.042 C 
ENDROOT
BRANCH   1   2
ATOM      2  C   UNL A   1      31.693  30.625  26.430  1.00  0.00     0.117 C 
BRANCH   2   3
ATOM      3  N   UNL A   1      33.042  30.205  26.750  1.00  0.00    -0.356 N 
ATOM      4  C   UNL A   1      33.752  29.171  26.222  1.00  0.00     0.222 C 
ATOM      5  O   UNL A   1      34.819  28.846  26.742  1.00  0.00    -0.275 OA
ATOM      6  H   UNL A   1      33.505  30.736  27.438  1.00  0.00     0.163 HD
BRANCH   4   7
ATOM      7  C   UNL A   1      33.258  28.511  24.964  1.00  0.00     0.133 C 
BRANCH   7   8
ATOM      8  C   UNL A   1      33.185  26.979  25.034  1.00  0.00     0.147 C 
ATOM      9  N   UNL A   1      31.090  27.001  23.837  1.00  0.00    -0.331 N 
ATOM     10  C   UNL A   1      30.319  26.536  24.979  1.00  0.00     0.148 C 
ATOM     11  C   UNL A   1      32.443  26.450  23.799  1.00  0.00     0.152 C 
ATOM     12  C   UNL A   1      31.103  26.677  26.299  1.00  0.00     0.182 C 
ATOM     13  O   UNL A   1      32.524  26.475  26.218  1.00  0.00    -0.374 OA
BRANCH   9  14
ATOM     14  C   UNL A   1      30.563  27.540  22.672  1.00  0.00     0.289 C 
ATOM     15  O   UNL A   1      31.027  27.167  21.591  1.00  0.00    -0.265 OA
BRANCH  14  16
ATOM     16  C   UNL A   1      29.606  28.650  22.747  1.00  0.00     0.194 A 
ATOM     17  C   UNL A   1      27.192  27.915  23.489  1.00  0.00     0.049 C 
ATOM     18  C   UNL A   1      28.269  28.855  23.109  1.00  0.00     0.000 A 
ATOM     19  C   UNL A   1      28.065  30.270  23.125  1.00  0.00     0.046 A 
ATOM     20  C   UNL A   1      29.252  30.844  22.767  1.00  0.00     0.196 A 
ATOM     21  O   UNL A   1      30.171  29.889  22.518  1.00  0.00    -0.459 OA
ENDBRANCH  14  16
ENDBRANCH   9  14
ENDBRANCH   7   8
ENDBRANCH   4   7
ENDBRANCH   2   3
ENDBRANCH   1   2
BRANCH   1  22
ATOM     22  C   UNL A   1      32.707  32.752  27.355  1.00  0.00     0.118 C 
BRANCH  22  23
ATOM     23  N   UNL A   1      32.470  34.154  27.686  1.00  0.00    -0.352 N 
ATOM     24  C   UNL A   1      33.031  34.919  28.675  1.00  0.00     0.251 C 
ATOM     25  H   UNL A   1      31.812  34.616  27.117  1.00  0.00     0.163 HD
ATOM     26  O   UNL A   1      32.560  36.026  28.931  1.00  0.00    -0.269 OA
BRANCH  24  27
ATOM     27  C   UNL A   1      34.187  34.403  29.433  1.00  0.00     0.039 A 
ATOM     28  C   UNL A   1      33.965  33.723  30.632  1.00  0.00     0.014 A 
ATOM     29  C   UNL A   1      35.488  34.588  28.957  1.00  0.00     0.014 A 
ATOM     30  C   UNL A   1      35.046  33.178  31.324  1.00  0.00     0.010 A 
ATOM     31  C   UNL A   1      36.552  33.968  29.600  1.00  0.00     0.010 A 
ATOM     32  C   UNL A   1      36.345  33.268  30.798  1.00  0.00    -0.014 A 
BRANCH  32  33
ATOM     33  C   UNL A   1      37.504  32.644  31.481  1.00  0.00     0.031 A 
ATOM     34  C   UNL A   1      38.222  31.487  30.841  1.00  0.00     0.074 A 
ATOM     35  C   UNL A   1      37.851  33.057  32.717  1.00  0.00     0.049 A 
ATOM     36  N   UNL A   1      39.202  30.762  31.312  1.00  0.00    -0.248 NA
ATOM     37  C   UNL A   1      37.755  31.068  29.509  1.00  0.00     0.031 C 
ATOM     38  C   UNL A   1      37.185  34.120  33.472  1.00  0.00     0.029 A 
ATOM     39  N   UNL A   1      38.832  32.612  33.565  1.00  0.00    -0.354 N 
ATOM     40  C   UNL A   1      39.443  29.782  30.357  1.00  0.00     0.074 A 
ATOM     41  C   UNL A   1      38.481  29.981  29.296  1.00  0.00     0.031 C 
ATOM     42  C   UNL A   1      37.780  34.249  34.668  1.00  0.00     0.029 A 
ATOM     43  C   UNL A   1      38.842  33.254  34.781  1.00  0.00     0.049 A 
ATOM     44  H   UNL A   1      39.469  31.899  33.328  1.00  0.00     0.167 HD
ATOM     45  C   UNL A   1      40.397  28.821  30.349  1.00  0.00     0.034 A 
ATOM     46  C   UNL A   1      39.611  33.057  35.869  1.00  0.00     0.034 A 
ATOM     47  C   UNL A   1      41.373  28.651  31.391  1.00  0.00     0.049 A 
ATOM     48  C   UNL A   1      40.680  31.998  35.826  1.00  0.00     0.074 A 
ATOM     49  C   UNL A   1      42.433  27.763  31.439  1.00  0.00     0.029 A 
ATOM     50  N   UNL A   1      41.401  29.372  32.574  1.00  0.00    -0.354 N 
ATOM     51  N   UNL A   1      40.991  31.180  34.851  1.00  0.00    -0.248 NA
ATOM     52  C   UNL A   1      41.526  31.860  37.019  1.00  0.00     0.031 C 
ATOM     53  C   UNL A   1      43.081  27.925  32.667  1.00  0.00     0.029 A 
ATOM     54  C   UNL A   1      42.451  28.943  33.366  1.00  0.00     0.049 A 
ATOM     55  H   UNL A   1      40.767  30.085  32.816  1.00  0.00     0.167 HD
ATOM     56  C   UNL A   1      42.093  30.459  35.294  1.00  0.00     0.074 A 
ATOM     57  C   UNL A   1      42.405  30.949  36.621  1.00  0.00     0.031 C 
ATOM     58  C   UNL A   1      42.780  29.474  34.664  1.00  0.00     0.034 A 
BRANCH  45  59
ATOM     59  C   UNL A   1      40.453  27.902  29.155  1.00  0.00     0.023 A 
ATOM     60  C   UNL A   1      39.543  26.829  29.054  1.00  0.00     0.012 A 
ATOM     61  C   UNL A   1      41.375  28.124  28.113  1.00  0.00     0.148 A 
ATOM     62  C   UNL A   1      39.577  25.967  27.958  1.00  0.00     0.002 A 
ATOM     63  C   UNL A   1      41.369  27.291  27.001  1.00  0.00     0.091 A 
ATOM     64  F   UNL A   1      42.246  29.136  28.234  1.00  0.00    -0.205 F 
ATOM     65  C   UNL A   1      40.483  26.204  26.928  1.00  0.00     0.022 A 
BRANCH  63  66
ATOM     66  S   UNL A   1      42.437  27.562  25.582  1.00  0.00     0.127 S 
ATOM     67  O   UNL A   1      43.762  27.525  26.199  1.00  0.00    -0.237 OA
ATOM     68  O   UNL A   1      42.125  26.409  24.737  1.00  0.00    -0.237 OA
ATOM     69  O   UNL A   1      42.043  28.848  25.023  1.00  0.00    -0.744 OA
ENDBRANCH  63  66
ENDBRANCH  45  59
BRANCH  46  70
ATOM     70  C   UNL A   1      39.437  33.922  37.071  1.00  0.00     0.023 A 
ATOM     71  C   UNL A   1      39.857  35.265  37.023  1.00  0.00     0.012 A 
ATOM     72  C   UNL A   1      38.834  33.432  38.245  1.00  0.00     0.148 A 
ATOM     73  C   UNL A   1      39.711  36.096  38.134  1.00  0.00     0.002 A 
ATOM     74  C   UNL A   1      38.638  34.281  39.328  1.00  0.00     0.091 A 
ATOM     75  F   UNL A   1      38.445  32.150  38.272  1.00  0.00    -0.205 F 
ATOM     76  C   UNL A   1      39.094  35.608  39.282  1.00  0.00     0.022 A 
BRANCH  74  77
ATOM     77  S   UNL A   1      37.737  33.781  40.799  1.00  0.00     0.127 S 
ATOM     78  O   UNL A   1      37.558  35.057  41.488  1.00  0.00    -0.237 OA
ATOM     79  O   UNL A   1      36.517  33.213  40.225  1.00  0.00    -0.237 OA
ATOM     80  O   UNL A   1      38.590  32.813  41.476  1.00  0.00    -0.744 OA
ENDBRANCH  74  77
ENDBRANCH  46  70
BRANCH  58  81
ATOM     81  C   UNL A   1      43.975  28.889  35.371  1.00  0.00     0.023 A 
ATOM     82  C   UNL A   1      45.248  29.472  35.211  1.00  0.00     0.012 A 
ATOM     83  C   UNL A   1      43.817  27.808  36.261  1.00  0.00     0.148 A 
ATOM     84  C   UNL A   1      46.350  28.965  35.898  1.00  0.00     0.002 A 
ATOM     85  C   UNL A   1      44.908  27.344  36.984  1.00  0.00     0.091 A 
ATOM     86  F   UNL A   1      42.601  27.257  36.386  1.00  0.00    -0.205 F 
ATOM     87  C   UNL A   1      46.178  27.911  36.794  1.00  0.00     0.022 A 
BRANCH  85  88
ATOM     88  S   UNL A   1      44.762  26.060  38.233  1.00  0.00     0.127 S 
ATOM     89  O   UNL A   1      46.161  25.694  38.447  1.00  0.00    -0.237 OA
ATOM     90  O   UNL A   1      44.142  26.780  39.345  1.00  0.00    -0.237 OA
ATOM     91  O   UNL A   1      43.929  25.020  37.645  1.00  0.00    -0.744 OA
ENDBRANCH  85  88
ENDBRANCH  58  81
ENDBRANCH  32  33
ENDBRANCH  24  27
ENDBRANCH  22  23
ENDBRANCH   1  22
TORSDOF 16
ENDMDL
MODEL 2
REMARK VINA RESULT:     -11.8      6.636     11.348
REMARK SMILES Cc1ccoc1C(=O)N1CCO[C@H](CC(=O)NCCCNC(=O)c2ccc(-c3c4nc(c(-c5cccc(S(=O)(=O)[O-])c5F)c5ccc([nH]5)c(-c5cccc(S(=O)(=O)[O-])c5F)c5nc(c(-c6cccc(S(=O)(=O)[O-])c6F)c6ccc3[nH]6)C=C5)C=C4)cc2)C1
REMARK SMILES IDX 19 1 18 2 17 3 15 4 16 5 14 7 13 8 9 9 10 10 87 11 11 12
REMARK SMILES IDX 12 13 7 14 8 15 6 16 1 17 2 18 3 19 4 20 5 21 20 22 21 23
REMARK SMILES IDX 22 24 23 26 24 27 25 28 86 29 26 30 85 31 27 32 28 33 29 34
REMARK SMILES IDX 79 35 30 36 84 37 78 38 80 39 31 40 83 41 77 42 76 43 32 45
REMARK SMILES IDX 64 46 44 47 63 48 45 49 48 50 62 51 81 52 46 53 47 54 61 56
REMARK SMILES IDX 82 57 49 58 33 59 34 60 42 61 35 62 37 63 43 64 36 65 38 66
REMARK SMILES IDX 39 67 40 68 41 69 65 70 66 71 74 72 67 73 69 74 75 75 68 76
REMARK SMILES IDX 70 77 71 78 72 79 73 80 50 81 51 82 59 83 52 84 54 85 60 86
REMARK SMILES IDX 53 87 55 88 56 89 57 90 58 91
REMARK H PARENT 17 6 21 25 80 44 48 55
REMARK Flexibility Score: inf
ROOT
ATOM      1  C   UNL A   1      42.160  20.473  27.208  1.00  0.00     0.042 C 
ENDROOT
BRANCH   1   2
ATOM      2  C   UNL A   1      42.010  20.005  25.768  1.00  0.00     0.117 C 
BRANCH   2   3
ATOM      3  N   UNL A   1      43.091  19.114  25.396  1.00  0.00    -0.356 N 
ATOM      4  C   UNL A   1      44.393  19.424  25.149  1.00  0.00     0.222 C 
ATOM      5  O   UNL A   1      45.134  18.568  24.667  1.00  0.00    -0.275 OA
ATOM      6  H   UNL A   1      42.853  18.162  25.311  1.00  0.00     0.163 HD
BRANCH   4   7
ATOM      7  C   UNL A   1      44.914  20.775  25.555  1.00  0.00     0.133 C 
BRANCH   7   8
ATOM      8  C   UNL A   1      45.170  21.738  24.387  1.00  0.00     0.147 C 
ATOM      9  N   UNL A   1      45.358  23.590  25.922  1.00  0.00    -0.331 N 
ATOM     10  C   UNL A   1      44.138  24.229  25.455  1.00  0.00     0.148 C 
ATOM     11  C   UNL A   1      46.074  22.883  24.863  1.00  0.00     0.152 C 
ATOM     12  C   UNL A   1      43.265  23.266  24.626  1.00  0.00     0.182 C 
ATOM     13  O   UNL A   1      43.968  22.306  23.818  1.00  0.00    -0.374 OA
BRANCH   9  14
ATOM     14  C   UNL A   1      46.045  23.913  27.084  1.00  0.00     0.289 C 
ATOM     15  O   UNL A   1      47.267  24.074  27.016  1.00  0.00    -0.265 OA
BRANCH  14  16
ATOM     16  C   UNL A   1      45.351  23.886  28.376  1.00  0.00     0.194 A 
ATOM     17  C   UNL A   1      46.147  25.760  30.041  1.00  0.00     0.049 C 
ATOM     18  C   UNL A   1      45.326  24.625  29.564  1.00  0.00     0.000 A 
ATOM     19  C   UNL A   1      44.230  24.122  30.332  1.00  0.00     0.046 A 
ATOM     20  C   UNL A   1      43.664  23.117  29.601  1.00  0.00     0.196 A 
ATOM     21  O   UNL A   1      44.336  22.951  28.444  1.00  0.00    -0.459 OA
ENDBRANCH  14  16
ENDBRANCH   9  14
ENDBRANCH   7   8
ENDBRANCH   4   7
ENDBRANCH   2   3
ENDBRANCH   1   2
BRANCH   1  22
ATOM     22  C   UNL A   1      41.180  21.580  27.569  1.00  0.00     0.118 C 
BRANCH  22  23
ATOM     23  N   UNL A   1      39.983  21.552  26.735  1.00  0.00    -0.352 N 
ATOM     24  C   UNL A   1      39.098  22.560  26.453  1.00  0.00     0.251 C 
ATOM     25  H   UNL A   1      39.783  20.684  26.314  1.00  0.00     0.163 HD
ATOM     26  O   UNL A   1      38.035  22.298  25.893  1.00  0.00    -0.269 OA
BRANCH  24  27
ATOM     27  C   UNL A   1      39.421  23.947  26.838  1.00  0.00     0.039 A 
ATOM     28  C   UNL A   1      39.183  24.362  28.150  1.00  0.00     0.014 A 
ATOM     29  C   UNL A   1      39.963  24.835  25.905  1.00  0.00     0.014 A 
ATOM     30  C   UNL A   1      39.542  25.652  28.539  1.00  0.00     0.010 A 
ATOM     31  C   UNL A   1      40.402  26.087  26.317  1.00  0.00     0.010 A 
ATOM     32  C   UNL A   1      40.184  26.514  27.635  1.00  0.00    -0.014 A 
BRANCH  32  33
ATOM     33  C   UNL A   1      40.633  27.869  28.041  1.00  0.00     0.031 A 
ATOM     34  C   UNL A   1      42.097  28.216  28.014  1.00  0.00     0.074 A 
ATOM     35  C   UNL A   1      39.735  28.753  28.519  1.00  0.00     0.049 A 
ATOM     36  N   UNL A   1      42.691  29.314  28.401  1.00  0.00    -0.248 NA
ATOM     37  C   UNL A   1      43.019  27.180  27.518  1.00  0.00     0.031 C 
ATOM     38  C   UNL A   1      38.299  28.508  28.662  1.00  0.00     0.029 A 
ATOM     39  N   UNL A   1      39.903  30.026  29.000  1.00  0.00    -0.354 N 
ATOM     40  C   UNL A   1      44.052  29.089  28.233  1.00  0.00     0.074 A 
ATOM     41  C   UNL A   1      44.199  27.736  27.745  1.00  0.00     0.031 C 
ATOM     42  C   UNL A   1      37.716  29.596  29.188  1.00  0.00     0.029 A 
ATOM     43  C   UNL A   1      38.740  30.601  29.456  1.00  0.00     0.049 A 
ATOM     44  H   UNL A   1      40.775  30.486  29.018  1.00  0.00     0.167 HD
ATOM     45  C   UNL A   1      45.085  29.940  28.439  1.00  0.00     0.034 A 
ATOM     46  C   UNL A   1      38.524  31.797  30.037  1.00  0.00     0.034 A 
ATOM     47  C   UNL A   1      44.928  31.296  28.891  1.00  0.00     0.049 A 
ATOM     48  C   UNL A   1      39.686  32.735  30.232  1.00  0.00     0.074 A 
ATOM     49  C   UNL A   1      45.902  32.266  29.049  1.00  0.00     0.029 A 
ATOM     50  N   UNL A   1      43.725  31.870  29.270  1.00  0.00    -0.354 N 
ATOM     51  N   UNL A   1      40.948  32.559  29.926  1.00  0.00    -0.248 NA
ATOM     52  C   UNL A   1      39.387  34.048  30.821  1.00  0.00     0.031 C 
ATOM     53  C   UNL A   1      45.291  33.417  29.558  1.00  0.00     0.029 A 
ATOM     54  C   UNL A   1      43.930  33.177  29.675  1.00  0.00     0.049 A 
ATOM     55  H   UNL A   1      42.853  31.415  29.254  1.00  0.00     0.167 HD
ATOM     56  C   UNL A   1      41.587  33.752  30.244  1.00  0.00     0.074 A 
ATOM     57  C   UNL A   1      40.569  34.648  30.753  1.00  0.00     0.031 C 
ATOM     58  C   UNL A   1      42.900  34.073  30.133  1.00  0.00     0.034 A 
BRANCH  45  59
ATOM     59  C   UNL A   1      46.474  29.438  28.138  1.00  0.00     0.023 A 
ATOM     60  C   UNL A   1      46.928  29.389  26.804  1.00  0.00     0.012 A 
ATOM     61  C   UNL A   1      47.345  29.055  29.177  1.00  0.00     0.148 A 
ATOM     62  C   UNL A   1      48.209  28.928  26.504  1.00  0.00     0.002 A 
ATOM     63  C   UNL A   1      48.638  28.644  28.873  1.00  0.00     0.091 A 
ATOM     64  F   UNL A   1      46.892  29.088  30.438  1.00  0.00    -0.205 F 
ATOM     65  C   UNL A   1      49.067  28.565  27.538  1.00  0.00     0.022 A 
BRANCH  63  66
ATOM     66  S   UNL A   1      49.847  28.238  30.138  1.00  0.00     0.127 S 
ATOM     67  O   UNL A   1      49.297  26.999  30.685  1.00  0.00    -0.237 OA
ATOM     68  O   UNL A   1      51.070  28.068  29.352  1.00  0.00    -0.237 OA
ATOM     69  O   UNL A   1      49.867  29.371  31.053  1.00  0.00    -0.744 OA
ENDBRANCH  63  66
ENDBRANCH  45  59
BRANCH  46  70
ATOM     70  C   UNL A   1      37.142  32.200  30.420  1.00  0.00     0.023 A 
ATOM     71  C   UNL A   1      36.694  31.972  31.736  1.00  0.00     0.012 A 
ATOM     72  C   UNL A   1      36.281  32.832  29.502  1.00  0.00     0.148 A 
ATOM     73  C   UNL A   1      35.403  32.335  32.121  1.00  0.00     0.002 A 
ATOM     74  C   UNL A   1      35.018  33.243  29.908  1.00  0.00     0.091 A 
ATOM     75  F   UNL A   1      36.725  33.036  28.253  1.00  0.00    -0.205 F 
ATOM     76  C   UNL A   1      34.569  32.978  31.211  1.00  0.00     0.022 A 
BRANCH  74  77
ATOM     77  S   UNL A   1      33.922  34.194  28.848  1.00  0.00     0.127 S 
ATOM     78  O   UNL A   1      34.805  35.264  28.390  1.00  0.00    -0.237 OA
ATOM     79  O   UNL A   1      33.564  33.209  27.827  1.00  0.00    -0.237 OA
ATOM     80  O   UNL A   1      32.814  34.611  29.697  1.00  0.00    -0.744 OA
ENDBRANCH  74  77
ENDBRANCH  46  70
BRANCH  58  81
ATOM     81  C   UNL A   1      43.315  35.470  30.517  1.00  0.00     0.023 A 
ATOM     82  C   UNL A   1      43.841  35.724  31.799  1.00  0.00     0.012 A 
ATOM     83  C   UNL A   1      43.256  36.515  29.574  1.00  0.00     0.148 A 
ATOM     84  C   UNL A   1      44.270  37.004  32.147  1.00  0.00     0.002 A 
ATOM     85  C   UNL A   1      43.737  37.774  29.909  1.00  0.00     0.091 A 
ATOM     86  F   UNL A   1      42.737  36.256  28.365  1.00  0.00    -0.205 F 
ATOM     87  C   UNL A   1      44.231  38.025  31.199  1.00  0.00     0.022 A 
BRANCH  85  88
ATOM     88  S   UNL A   1      43.820  39.122  28.723  1.00  0.00     0.127 S 
ATOM     89  O   UNL A   1      44.666  38.547  27.678  1.00  0.00    -0.237 OA
ATOM     90  O   UNL A   1      42.416  39.291  28.349  1.00  0.00    -0.237 OA
ATOM     91  O   UNL A   1      44.396  40.252  29.439  1.00  0.00    -0.744 OA
ENDBRANCH  85  88
ENDBRANCH  58  81
ENDBRANCH  32  33
ENDBRANCH  24  27
ENDBRANCH  22  23
ENDBRANCH   1  22
TORSDOF 16
ENDMDL
MODEL 3
REMARK VINA RESULT:     -11.6      1.463      8.325
REMARK SMILES Cc1ccoc1C(=O)N1CCO[C@H](CC(=O)NCCCNC(=O)c2ccc(-c3c4nc(c(-c5cccc(S(=O)(=O)[O-])c5F)c5ccc([nH]5)c(-c5cccc(S(=O)(=O)[O-])c5F)c5nc(c(-c6cccc(S(=O)(=O)[O-])c6F)c6ccc3[nH]6)C=C5)C=C4)cc2)C1
REMARK SMILES IDX 19 1 18 2 17 3 15 4 16 5 14 7 13 8 9 9 10 10 87 11 11 12
REMARK SMILES IDX 12 13 7 14 8 15 6 16 1 17 2 18 3 19 4 20 5 21 20 22 21 23
REMARK SMILES IDX 22 24 23 26 24 27 25 28 86 29 26 30 85 31 27 32 28 33 29 34
REMARK SMILES IDX 79 35 30 36 84 37 78 38 80 39 31 40 83 41 77 42 76 43 32 45
REMARK SMILES IDX 64 46 44 47 63 48 45 49 48 50 62 51 81 52 46 53 47 54 61 56
REMARK SMILES IDX 82 57 49 58 33 59 34 60 42 61 35 62 37 63 43 64 36 65 38 66
REMARK SMILES IDX 39 67 40 68 41 69 65 70 66 71 74 72 67 73 69 74 75 75 68 76
REMARK SMILES IDX 70 77 71 78 72 79 73 80 50 81 51 82 59 83 52 84 54 85 60 86
REMARK SMILES IDX 53 87 55 88 56 89 57 90 58 91
REMARK H PARENT 17 6 21 25 80 44 48 55
REMARK Flexibility Score: inf
ROOT
ATOM      1  C   UNL A   1      31.471  31.948  26.520  1.00  0.00     0.042 C 
ENDROOT
BRANCH   1   2
ATOM      2  C   UNL A   1      31.707  30.543  25.986  1.00  0.00     0.117 C 
BRANCH   2   3
ATOM      3  N   UNL A   1      31.714  29.572  27.062  1.00  0.00    -0.356 N 
ATOM      4  C   UNL A   1      31.642  28.216  26.976  1.00  0.00     0.222 C 
ATOM      5  O   UNL A   1      31.477  27.556  28.001  1.00  0.00    -0.275 OA
ATOM      6  H   UNL A   1      31.778  29.941  27.973  1.00  0.00     0.163 HD
BRANCH   4   7
ATOM      7  C   UNL A   1      31.858  27.555  25.642  1.00  0.00     0.133 C 
BRANCH   7   8
ATOM      8  C   UNL A   1      30.568  27.188  24.896  1.00  0.00     0.147 C 
ATOM      9  N   UNL A   1      30.976  24.844  25.294  1.00  0.00    -0.331 N 
ATOM     10  C   UNL A   1      31.215  24.546  23.890  1.00  0.00     0.148 C 
ATOM     11  C   UNL A   1      29.986  25.900  25.493  1.00  0.00     0.152 C 
ATOM     12  C   UNL A   1      31.470  25.823  23.066  1.00  0.00     0.182 C 
ATOM     13  O   UNL A   1      30.746  26.997  23.473  1.00  0.00    -0.374 OA
BRANCH   9  14
ATOM     14  C   UNL A   1      31.272  24.005  26.359  1.00  0.00     0.289 C 
ATOM     15  O   UNL A   1      30.425  23.864  27.246  1.00  0.00    -0.265 OA
BRANCH  14  16
ATOM     16  C   UNL A   1      32.622  23.450  26.501  1.00  0.00     0.194 A 
ATOM     17  C   UNL A   1      34.512  25.011  25.548  1.00  0.00     0.049 C 
ATOM     18  C   UNL A   1      33.942  23.831  26.234  1.00  0.00     0.000 A 
ATOM     19  C   UNL A   1      34.780  22.841  26.837  1.00  0.00     0.046 A 
ATOM     20  C   UNL A   1      33.951  21.921  27.414  1.00  0.00     0.196 A 
ATOM     21  O   UNL A   1      32.664  22.260  27.202  1.00  0.00    -0.459 OA
ENDBRANCH  14  16
ENDBRANCH   9  14
ENDBRANCH   7   8
ENDBRANCH   4   7
ENDBRANCH   2   3
ENDBRANCH   1   2
BRANCH   1  22
ATOM     22  C   UNL A   1      32.665  32.490  27.292  1.00  0.00     0.118 C 
BRANCH  22  23
ATOM     23  N   UNL A   1      32.504  33.897  27.641  1.00  0.00    -0.352 N 
ATOM     24  C   UNL A   1      33.121  34.623  28.627  1.00  0.00     0.251 C 
ATOM     25  H   UNL A   1      31.858  34.397  27.090  1.00  0.00     0.163 HD
ATOM     26  O   UNL A   1      32.709  35.748  28.904  1.00  0.00    -0.269 OA
BRANCH  24  27
ATOM     27  C   UNL A   1      34.264  34.042  29.357  1.00  0.00     0.039 A 
ATOM     28  C   UNL A   1      34.020  33.219  30.458  1.00  0.00     0.014 A 
ATOM     29  C   UNL A   1      35.575  34.308  28.951  1.00  0.00     0.014 A 
ATOM     30  C   UNL A   1      35.092  32.616  31.117  1.00  0.00     0.010 A 
ATOM     31  C   UNL A   1      36.632  33.636  29.551  1.00  0.00     0.010 A 
ATOM     32  C   UNL A   1      36.404  32.794  30.649  1.00  0.00    -0.014 A 
BRANCH  32  33
ATOM     33  C   UNL A   1      37.555  32.114  31.292  1.00  0.00     0.031 A 
ATOM     34  C   UNL A   1      38.112  32.639  32.588  1.00  0.00     0.074 A 
ATOM     35  C   UNL A   1      38.156  31.084  30.664  1.00  0.00     0.049 A 
ATOM     36  N   UNL A   1      39.155  32.232  33.262  1.00  0.00    -0.248 NA
ATOM     37  C   UNL A   1      37.425  33.794  33.189  1.00  0.00     0.031 C 
ATOM     38  C   UNL A   1      37.754  30.531  29.369  1.00  0.00     0.029 A 
ATOM     39  N   UNL A   1      39.250  30.336  31.018  1.00  0.00    -0.354 N 
ATOM     40  C   UNL A   1      39.273  33.100  34.340  1.00  0.00     0.074 A 
ATOM     41  C   UNL A   1      38.218  34.080  34.211  1.00  0.00     0.031 C 
ATOM     42  C   UNL A   1      38.585  29.530  29.040  1.00  0.00     0.029 A 
ATOM     43  C   UNL A   1      39.600  29.394  30.080  1.00  0.00     0.049 A 
ATOM     44  H   UNL A   1      39.739  30.462  31.864  1.00  0.00     0.167 HD
ATOM     45  C   UNL A   1      40.161  33.069  35.362  1.00  0.00     0.034 A 
ATOM     46  C   UNL A   1      40.631  28.527  30.053  1.00  0.00     0.034 A 
ATOM     47  C   UNL A   1      41.186  32.071  35.503  1.00  0.00     0.049 A 
ATOM     48  C   UNL A   1      41.590  28.496  31.213  1.00  0.00     0.074 A 
ATOM     49  C   UNL A   1      42.081  31.900  36.544  1.00  0.00     0.029 A 
ATOM     50  N   UNL A   1      41.462  31.083  34.571  1.00  0.00    -0.354 N 
ATOM     51  N   UNL A   1      41.595  29.229  32.299  1.00  0.00    -0.248 NA
ATOM     52  C   UNL A   1      42.665  27.495  31.158  1.00  0.00     0.031 C 
ATOM     53  C   UNL A   1      42.922  30.829  36.224  1.00  0.00     0.029 A 
ATOM     54  C   UNL A   1      42.522  30.306  35.004  1.00  0.00     0.049 A 
ATOM     55  H   UNL A   1      40.976  30.953  33.725  1.00  0.00     0.167 HD
ATOM     56  C   UNL A   1      42.643  28.752  33.077  1.00  0.00     0.074 A 
ATOM     57  C   UNL A   1      43.241  27.656  32.343  1.00  0.00     0.031 C 
ATOM     58  C   UNL A   1      43.076  29.187  34.286  1.00  0.00     0.034 A 
BRANCH  45  59
ATOM     59  C   UNL A   1      40.036  34.127  36.429  1.00  0.00     0.023 A 
ATOM     60  C   UNL A   1      40.367  35.465  36.129  1.00  0.00     0.012 A 
ATOM     61  C   UNL A   1      39.552  33.808  37.712  1.00  0.00     0.148 A 
ATOM     62  C   UNL A   1      40.259  36.460  37.100  1.00  0.00     0.002 A 
ATOM     63  C   UNL A   1      39.400  34.813  38.659  1.00  0.00     0.091 A 
ATOM     64  F   UNL A   1      39.262  32.528  37.987  1.00  0.00    -0.205 F 
ATOM     65  C   UNL A   1      39.767  36.136  38.361  1.00  0.00     0.022 A 
BRANCH  63  66
ATOM     66  S   UNL A   1      38.694  34.516  40.284  1.00  0.00     0.127 S 
ATOM     67  O   UNL A   1      39.763  33.761  40.936  1.00  0.00    -0.237 OA
ATOM     68  O   UNL A   1      38.509  35.875  40.793  1.00  0.00    -0.237 OA
ATOM     69  O   UNL A   1      37.458  33.779  40.056  1.00  0.00    -0.744 OA
ENDBRANCH  63  66
ENDBRANCH  45  59
BRANCH  46  70
ATOM     70  C   UNL A   1      40.773  27.575  28.915  1.00  0.00     0.023 A 
ATOM     71  C   UNL A   1      39.919  26.459  28.835  1.00  0.00     0.012 A 
ATOM     72  C   UNL A   1      41.726  27.785  27.899  1.00  0.00     0.148 A 
ATOM     73  C   UNL A   1      40.033  25.549  27.784  1.00  0.00     0.002 A 
ATOM     74  C   UNL A   1      41.795  26.906  26.824  1.00  0.00     0.091 A 
ATOM     75  F   UNL A   1      42.533  28.851  27.995  1.00  0.00    -0.205 F 
ATOM     76  C   UNL A   1      40.963  25.777  26.774  1.00  0.00     0.022 A 
BRANCH  74  77
ATOM     77  S   UNL A   1      42.870  27.188  25.412  1.00  0.00     0.127 S 
ATOM     78  O   UNL A   1      42.206  28.309  24.750  1.00  0.00    -0.237 OA
ATOM     79  O   UNL A   1      44.138  27.519  26.062  1.00  0.00    -0.237 OA
ATOM     80  O   UNL A   1      42.883  25.935  24.669  1.00  0.00    -0.744 OA
ENDBRANCH  74  77
ENDBRANCH  46  70
BRANCH  58  81
ATOM     81  C   UNL A   1      44.223  28.449  34.927  1.00  0.00     0.023 A 
ATOM     82  C   UNL A   1      45.550  28.759  34.573  1.00  0.00     0.012 A 
ATOM     83  C   UNL A   1      43.981  27.501  35.942  1.00  0.00     0.148 A 
ATOM     84  C   UNL A   1      46.619  28.114  35.195  1.00  0.00     0.002 A 
ATOM     85  C   UNL A   1      45.050  26.903  36.596  1.00  0.00     0.091 A 
ATOM     86  F   UNL A   1      42.710  27.208  36.252  1.00  0.00    -0.205 F 
ATOM     87  C   UNL A   1      46.370  27.197  36.215  1.00  0.00     0.022 A 
BRANCH  85  88
ATOM     88  S   UNL A   1      44.829  25.788  37.987  1.00  0.00     0.127 S 
ATOM     89  O   UNL A   1      46.211  25.535  38.388  1.00  0.00    -0.237 OA
ATOM     90  O   UNL A   1      44.062  26.610  38.923  1.00  0.00    -0.237 OA
ATOM     91  O   UNL A   1      44.110  24.634  37.467  1.00  0.00    -0.744 OA
ENDBRANCH  85  88
ENDBRANCH  58  81
ENDBRANCH  32  33
ENDBRANCH  24  27
ENDBRANCH  22  23
ENDBRANCH   1  22
TORSDOF 16
ENDMDL
