MODEL 1
REMARK VINA RESULT:     -12.6      0.000      0.000
REMARK SMILES Cc1cccc(-c2noc(C[N@@H+](C)Cc3ncccc3C(=O)NCCCNC(=O)c3ccc(-c4c5nc(c(-c6cccc(S(=O)(=O)[O-])c6F)c6ccc([nH]6)c(-c6cccc(S(=O)(=O)[O-])c6F)c6nc(c(-c7cccc(S(=O)(=O)[O-])c7F)c7ccc4[nH]7)C=C6)C=C5)cc3)n2)c1
REMARK SMILES IDX 24 1 23 2 21 3 22 4 20 6 15 7 16 8 17 9 19 10 18 11 14 12
REMARK SMILES IDX 12 13 13 14 11 16 10 17 7 18 8 19 93 20 9 21 6 22 1 23 2 24
REMARK SMILES IDX 3 25 94 26 4 27 5 28 25 29 26 30 27 31 28 32 29 34 30 35
REMARK SMILES IDX 31 36 92 37 32 38 91 39 33 40 34 41 35 42 85 43 36 44 90 45
REMARK SMILES IDX 84 46 86 47 37 48 89 49 83 50 82 51 38 53 70 54 50 55 69 56
REMARK SMILES IDX 51 57 54 58 68 59 87 60 52 61 53 62 67 64 88 65 55 66 39 67
REMARK SMILES IDX 40 68 48 69 41 70 43 71 49 72 42 73 44 74 45 75 46 76 47 77
REMARK SMILES IDX 71 78 72 79 80 80 73 81 75 82 81 83 74 84 76 85 77 86 78 87
REMARK SMILES IDX 79 88 56 89 57 90 65 91 58 92 60 93 66 94 59 95 61 96 62 97
REMARK SMILES IDX 63 98 64 99
REMARK H PARENT 23 5 12 15 27 33 86 52 54 63
REMARK Flexibility Score: inf
ROOT
ATOM      1  C   UNL A   1      34.008  27.968  26.095  1.00  0.00     0.118 C 
ENDROOT
BRANCH   1   2
ATOM      2  N   UNL A   1      33.832  27.521  24.723  1.00  0.00    -0.352 N 
ATOM      3  C   UNL A   1      33.837  26.296  24.094  1.00  0.00     0.253 C 
ATOM      4  O   UNL A   1      33.551  26.339  22.900  1.00  0.00    -0.269 OA
ATOM      5  H   UNL A   1      33.671  28.265  24.099  1.00  0.00     0.163 HD
BRANCH   3   6
ATOM      6  C   UNL A   1      34.122  24.977  24.762  1.00  0.00     0.067 A 
ATOM      7  C   UNL A   1      33.145  23.974  24.936  1.00  0.00     0.107 A 
ATOM      8  N   UNL A   1      33.408  22.825  25.650  1.00  0.00    -0.254 NA
ATOM      9  C   UNL A   1      34.649  22.594  26.104  1.00  0.00     0.111 A 
ATOM     10  C   UNL A   1      35.407  24.653  25.225  1.00  0.00     0.017 A 
ATOM     11  C   UNL A   1      35.684  23.464  25.895  1.00  0.00     0.021 A 
BRANCH   7  12
ATOM     12  C   UNL A   1      31.718  24.024  24.393  1.00  0.00     0.320 C 
BRANCH  12  13
ATOM     13  N   UNL A   1      30.814  25.084  24.932  1.00  0.00    -0.325 N 
ATOM     14  C   UNL A   1      30.068  24.664  26.112  1.00  0.00     0.333 C 
ATOM     15  H   UNL A   1      31.440  25.830  25.232  1.00  0.00     0.348 HD
BRANCH  13  16
ATOM     16  C   UNL A   1      29.917  25.658  23.905  1.00  0.00     0.364 C 
BRANCH  16  17
ATOM     17  C   UNL A   1      29.941  27.149  23.826  1.00  0.00     0.282 A 
ATOM     18  C   UNL A   1      29.736  29.200  23.435  1.00  0.00     0.202 A 
ATOM     19  N   UNL A   1      30.798  29.137  24.256  1.00  0.00    -0.057 NA
ATOM     20  N   UNL A   1      29.143  27.976  23.185  1.00  0.00    -0.186 NA
ATOM     21  O   UNL A   1      30.934  27.778  24.517  1.00  0.00    -0.333 OA
BRANCH  18  22
ATOM     22  C   UNL A   1      29.234  30.450  22.887  1.00  0.00     0.023 A 
ATOM     23  C   UNL A   1      27.703  31.779  19.650  1.00  0.00     0.044 C 
ATOM     24  C   UNL A   1      28.237  31.704  21.050  1.00  0.00    -0.050 A 
ATOM     25  C   UNL A   1      28.163  32.832  21.877  1.00  0.00     0.003 A 
ATOM     26  C   UNL A   1      28.790  30.519  21.558  1.00  0.00     0.015 A 
ATOM     27  C   UNL A   1      28.624  32.778  23.191  1.00  0.00     0.001 A 
ATOM     28  C   UNL A   1      29.154  31.591  23.696  1.00  0.00     0.012 A 
ENDBRANCH  18  22
ENDBRANCH  16  17
ENDBRANCH  13  16
ENDBRANCH  12  13
ENDBRANCH   7  12
ENDBRANCH   3   6
ENDBRANCH   1   2
BRANCH   1  29
ATOM     29  C   UNL A   1      33.654  29.446  26.257  1.00  0.00     0.042 C 
BRANCH  29  30
ATOM     30  C   UNL A   1      33.426  29.865  27.701  1.00  0.00     0.118 C 
BRANCH  30  31
ATOM     31  N   UNL A   1      34.134  31.090  28.060  1.00  0.00    -0.352 N 
ATOM     32  C   UNL A   1      35.407  31.225  28.585  1.00  0.00     0.251 C 
ATOM     33  H   UNL A   1      33.642  31.930  27.909  1.00  0.00     0.163 HD
ATOM     34  O   UNL A   1      35.814  32.333  28.927  1.00  0.00    -0.269 OA
BRANCH  32  35
ATOM     35  C   UNL A   1      36.286  30.037  28.610  1.00  0.00     0.039 A 
ATOM     36  C   UNL A   1      36.668  29.538  29.860  1.00  0.00     0.014 A 
ATOM     37  C   UNL A   1      36.947  29.641  27.451  1.00  0.00     0.014 A 
ATOM     38  C   UNL A   1      37.875  28.857  29.982  1.00  0.00     0.010 A 
ATOM     39  C   UNL A   1      38.184  29.047  27.580  1.00  0.00     0.010 A 
ATOM     40  C   UNL A   1      38.678  28.728  28.852  1.00  0.00    -0.014 A 
BRANCH  40  41
ATOM     41  C   UNL A   1      40.085  28.366  28.886  1.00  0.00     0.031 A 
ATOM     42  C   UNL A   1      40.494  26.959  28.733  1.00  0.00     0.074 A 
ATOM     43  C   UNL A   1      41.012  29.350  28.873  1.00  0.00     0.049 A 
ATOM     44  N   UNL A   1      41.694  26.536  28.947  1.00  0.00    -0.248 NA
ATOM     45  C   UNL A   1      39.556  25.895  28.392  1.00  0.00     0.031 C 
ATOM     46  C   UNL A   1      42.405  29.242  28.456  1.00  0.00     0.029 A 
ATOM     47  N   UNL A   1      40.928  30.616  29.466  1.00  0.00    -0.354 N 
ATOM     48  C   UNL A   1      41.758  25.245  28.482  1.00  0.00     0.074 A 
ATOM     49  C   UNL A   1      40.385  24.850  28.300  1.00  0.00     0.031 C 
ATOM     50  C   UNL A   1      43.105  30.232  29.025  1.00  0.00     0.029 A 
ATOM     51  C   UNL A   1      42.216  30.899  29.960  1.00  0.00     0.049 A 
ATOM     52  H   UNL A   1      40.132  31.191  29.526  1.00  0.00     0.167 HD
ATOM     53  C   UNL A   1      42.974  24.732  28.155  1.00  0.00     0.034 A 
ATOM     54  C   UNL A   1      42.499  31.149  31.270  1.00  0.00     0.034 A 
ATOM     55  C   UNL A   1      44.059  25.564  28.698  1.00  0.00     0.049 A 
ATOM     56  C   UNL A   1      43.533  30.207  31.858  1.00  0.00     0.074 A 
ATOM     57  C   UNL A   1      44.952  26.461  28.139  1.00  0.00     0.029 A 
ATOM     58  N   UNL A   1      44.172  25.708  30.079  1.00  0.00    -0.354 N 
ATOM     59  N   UNL A   1      44.027  29.171  31.239  1.00  0.00    -0.248 NA
ATOM     60  C   UNL A   1      44.066  30.340  33.212  1.00  0.00     0.031 C 
ATOM     61  C   UNL A   1      45.523  27.223  29.197  1.00  0.00     0.029 A 
ATOM     62  C   UNL A   1      45.011  26.763  30.400  1.00  0.00     0.049 A 
ATOM     63  H   UNL A   1      43.717  25.137  30.739  1.00  0.00     0.167 HD
ATOM     64  C   UNL A   1      44.778  28.422  32.108  1.00  0.00     0.074 A 
ATOM     65  C   UNL A   1      44.850  29.251  33.301  1.00  0.00     0.031 C 
ATOM     66  C   UNL A   1      45.203  27.156  31.796  1.00  0.00     0.034 A 
BRANCH  53  67
ATOM     67  C   UNL A   1      43.225  23.595  27.171  1.00  0.00     0.023 A 
ATOM     68  C   UNL A   1      44.047  23.877  26.055  1.00  0.00     0.012 A 
ATOM     69  C   UNL A   1      42.624  22.310  27.177  1.00  0.00     0.148 A 
ATOM     70  C   UNL A   1      44.238  22.966  25.008  1.00  0.00     0.002 A 
ATOM     71  C   UNL A   1      42.860  21.378  26.161  1.00  0.00     0.091 A 
ATOM     72  F   UNL A   1      41.740  21.982  28.118  1.00  0.00    -0.205 F 
ATOM     73  C   UNL A   1      43.653  21.710  25.063  1.00  0.00     0.022 A 
BRANCH  71  74
ATOM     74  S   UNL A   1      42.155  19.716  26.194  1.00  0.00     0.127 S 
ATOM     75  O   UNL A   1      40.724  19.986  26.070  1.00  0.00    -0.237 OA
ATOM     76  O   UNL A   1      42.764  19.094  25.018  1.00  0.00    -0.237 OA
ATOM     77  O   UNL A   1      42.562  19.122  27.463  1.00  0.00    -0.744 OA
ENDBRANCH  71  74
ENDBRANCH  53  67
BRANCH  54  78
ATOM     78  C   UNL A   1      41.382  31.791  32.017  1.00  0.00     0.023 A 
ATOM     79  C   UNL A   1      41.051  33.116  31.648  1.00  0.00     0.012 A 
ATOM     80  C   UNL A   1      40.449  31.034  32.745  1.00  0.00     0.148 A 
ATOM     81  C   UNL A   1      39.779  33.634  31.894  1.00  0.00     0.002 A 
ATOM     82  C   UNL A   1      39.177  31.554  32.979  1.00  0.00     0.091 A 
ATOM     83  F   UNL A   1      40.783  29.791  33.115  1.00  0.00    -0.205 F 
ATOM     84  C   UNL A   1      38.832  32.841  32.529  1.00  0.00     0.022 A 
BRANCH  82  85
ATOM     85  S   UNL A   1      37.866  30.570  33.718  1.00  0.00     0.127 S 
ATOM     86  O   UNL A   1      37.848  31.080  35.085  1.00  0.00    -0.237 OA
ATOM     87  O   UNL A   1      36.707  30.940  32.906  1.00  0.00    -0.237 OA
ATOM     88  O   UNL A   1      38.294  29.189  33.549  1.00  0.00    -0.744 OA
ENDBRANCH  82  85
ENDBRANCH  54  78
BRANCH  66  89
ATOM     89  C   UNL A   1      45.807  26.158  32.778  1.00  0.00     0.023 A 
ATOM     90  C   UNL A   1      47.182  26.129  33.083  1.00  0.00     0.012 A 
ATOM     91  C   UNL A   1      44.980  25.294  33.547  1.00  0.00     0.148 A 
ATOM     92  C   UNL A   1      47.723  25.256  34.036  1.00  0.00     0.002 A 
ATOM     93  C   UNL A   1      45.508  24.506  34.572  1.00  0.00     0.091 A 
ATOM     94  F   UNL A   1      43.668  25.213  33.282  1.00  0.00    -0.205 F 
ATOM     95  C   UNL A   1      46.884  24.459  34.798  1.00  0.00     0.022 A 
BRANCH  93  96
ATOM     96  S   UNL A   1      44.422  23.658  35.730  1.00  0.00     0.127 S 
ATOM     97  O   UNL A   1      45.369  23.120  36.702  1.00  0.00    -0.237 OA
ATOM     98  O   UNL A   1      43.583  24.746  36.238  1.00  0.00    -0.237 OA
ATOM     99  O   UNL A   1      43.702  22.687  34.915  1.00  0.00    -0.744 OA
ENDBRANCH  93  96
ENDBRANCH  66  89
ENDBRANCH  40  41
ENDBRANCH  32  35
ENDBRANCH  30  31
ENDBRANCH  29  30
ENDBRANCH   1  29
TORSDOF 18
ENDMDL
MODEL 2
REMARK VINA RESULT:     -12.0      2.634      4.866
REMARK SMILES Cc1cccc(-c2noc(C[N@@H+](C)Cc3ncccc3C(=O)NCCCNC(=O)c3ccc(-c4c5nc(c(-c6cccc(S(=O)(=O)[O-])c6F)c6ccc([nH]6)c(-c6cccc(S(=O)(=O)[O-])c6F)c6nc(c(-c7cccc(S(=O)(=O)[O-])c7F)c7ccc4[nH]7)C=C6)C=C5)cc3)n2)c1
REMARK SMILES IDX 24 1 23 2 21 3 22 4 20 6 15 7 16 8 17 9 19 10 18 11 14 12
REMARK SMILES IDX 12 13 13 14 11 16 10 17 7 18 8 19 93 20 9 21 6 22 1 23 2 24
REMARK SMILES IDX 3 25 94 26 4 27 5 28 25 29 26 30 27 31 28 32 29 34 30 35
REMARK SMILES IDX 31 36 92 37 32 38 91 39 33 40 34 41 35 42 85 43 36 44 90 45
REMARK SMILES IDX 84 46 86 47 37 48 89 49 83 50 82 51 38 53 70 54 50 55 69 56
REMARK SMILES IDX 51 57 54 58 68 59 87 60 52 61 53 62 67 64 88 65 55 66 39 67
REMARK SMILES IDX 40 68 48 69 41 70 43 71 49 72 42 73 44 74 45 75 46 76 47 77
REMARK SMILES IDX 71 78 72 79 80 80 73 81 75 82 81 83 74 84 76 85 77 86 78 87
REMARK SMILES IDX 79 88 56 89 57 90 65 91 58 92 60 93 66 94 59 95 61 96 62 97
REMARK SMILES IDX 63 98 64 99
REMARK H PARENT 23 5 12 15 27 33 86 52 54 63
REMARK Flexibility Score: inf
ROOT
ATOM      1  C   UNL A   1      34.067  28.252  25.766  1.00  0.00     0.118 C 
ENDROOT
BRANCH   1   2
ATOM      2  N   UNL A   1      33.420  27.586  24.647  1.00  0.00    -0.352 N 
ATOM      3  C   UNL A   1      33.328  26.281  24.218  1.00  0.00     0.253 C 
ATOM      4  O   UNL A   1      32.591  26.118  23.248  1.00  0.00    -0.269 OA
ATOM      5  H   UNL A   1      32.937  28.211  24.061  1.00  0.00     0.163 HD
BRANCH   3   6
ATOM      6  C   UNL A   1      34.014  25.104  24.859  1.00  0.00     0.067 A 
ATOM      7  C   UNL A   1      33.527  24.468  26.021  1.00  0.00     0.107 A 
ATOM      8  N   UNL A   1      34.236  23.466  26.648  1.00  0.00    -0.254 NA
ATOM      9  C   UNL A   1      35.365  23.003  26.092  1.00  0.00     0.111 A 
ATOM     10  C   UNL A   1      35.176  24.542  24.309  1.00  0.00     0.017 A 
ATOM     11  C   UNL A   1      35.859  23.490  24.912  1.00  0.00     0.021 A 
BRANCH   7  12
ATOM     12  C   UNL A   1      32.210  24.795  26.725  1.00  0.00     0.320 C 
BRANCH  12  13
ATOM     13  N   UNL A   1      30.946  24.415  26.027  1.00  0.00    -0.325 N 
ATOM     14  C   UNL A   1      29.817  25.273  26.368  1.00  0.00     0.333 C 
ATOM     15  H   UNL A   1      31.140  24.568  25.038  1.00  0.00     0.348 HD
BRANCH  13  16
ATOM     16  C   UNL A   1      30.602  22.985  26.187  1.00  0.00     0.364 C 
BRANCH  16  17
ATOM     17  C   UNL A   1      31.273  22.075  25.212  1.00  0.00     0.282 A 
ATOM     18  C   UNL A   1      32.261  20.571  24.134  1.00  0.00     0.202 A 
ATOM     19  N   UNL A   1      32.260  21.618  23.291  1.00  0.00    -0.057 NA
ATOM     20  N   UNL A   1      31.606  20.806  25.328  1.00  0.00    -0.186 NA
ATOM     21  O   UNL A   1      31.604  22.615  24.005  1.00  0.00    -0.333 OA
BRANCH  18  22
ATOM     22  C   UNL A   1      32.869  19.291  23.803  1.00  0.00     0.023 A 
ATOM     23  C   UNL A   1      35.410  16.837  25.253  1.00  0.00     0.044 C 
ATOM     24  C   UNL A   1      34.394  17.470  24.350  1.00  0.00    -0.050 A 
ATOM     25  C   UNL A   1      33.949  16.775  23.218  1.00  0.00     0.003 A 
ATOM     26  C   UNL A   1      33.861  18.738  24.627  1.00  0.00     0.015 A 
ATOM     27  C   UNL A   1      32.983  17.329  22.381  1.00  0.00     0.001 A 
ATOM     28  C   UNL A   1      32.441  18.581  22.674  1.00  0.00     0.012 A 
ENDBRANCH  18  22
ENDBRANCH  16  17
ENDBRANCH  13  16
ENDBRANCH  12  13
ENDBRANCH   7  12
ENDBRANCH   3   6
ENDBRANCH   1   2
BRANCH   1  29
ATOM     29  C   UNL A   1      33.700  29.734  25.829  1.00  0.00     0.042 C 
BRANCH  29  30
ATOM     30  C   UNL A   1      33.568  30.272  27.245  1.00  0.00     0.118 C 
BRANCH  30  31
ATOM     31  N   UNL A   1      34.397  31.449  27.490  1.00  0.00    -0.352 N 
ATOM     32  C   UNL A   1      35.696  31.502  27.963  1.00  0.00     0.251 C 
ATOM     33  H   UNL A   1      33.978  32.317  27.292  1.00  0.00     0.163 HD
ATOM     34  O   UNL A   1      36.214  32.590  28.209  1.00  0.00    -0.269 OA
BRANCH  32  35
ATOM     35  C   UNL A   1      36.465  30.243  28.049  1.00  0.00     0.039 A 
ATOM     36  C   UNL A   1      36.547  29.615  29.296  1.00  0.00     0.014 A 
ATOM     37  C   UNL A   1      37.318  29.882  27.010  1.00  0.00     0.014 A 
ATOM     38  C   UNL A   1      37.653  28.823  29.589  1.00  0.00     0.010 A 
ATOM     39  C   UNL A   1      38.458  29.172  27.323  1.00  0.00     0.010 A 
ATOM     40  C   UNL A   1      38.658  28.712  28.632  1.00  0.00    -0.014 A 
BRANCH  40  41
ATOM     41  C   UNL A   1      40.000  28.225  28.908  1.00  0.00     0.031 A 
ATOM     42  C   UNL A   1      40.347  26.817  28.651  1.00  0.00     0.074 A 
ATOM     43  C   UNL A   1      40.964  29.118  29.225  1.00  0.00     0.049 A 
ATOM     44  N   UNL A   1      41.442  26.267  29.050  1.00  0.00    -0.248 NA
ATOM     45  C   UNL A   1      39.443  25.890  27.978  1.00  0.00     0.031 C 
ATOM     46  C   UNL A   1      42.406  28.938  29.097  1.00  0.00     0.029 A 
ATOM     47  N   UNL A   1      40.830  30.304  29.957  1.00  0.00    -0.354 N 
ATOM     48  C   UNL A   1      41.528  25.041  28.434  1.00  0.00     0.074 A 
ATOM     49  C   UNL A   1      40.207  24.795  27.917  1.00  0.00     0.031 C 
ATOM     50  C   UNL A   1      43.023  29.786  29.930  1.00  0.00     0.029 A 
ATOM     51  C   UNL A   1      41.993  30.409  30.741  1.00  0.00     0.049 A 
ATOM     52  H   UNL A   1      40.076  30.936  29.928  1.00  0.00     0.167 HD
ATOM     53  C   UNL A   1      42.754  24.466  28.300  1.00  0.00     0.034 A 
ATOM     54  C   UNL A   1      41.998  30.472  32.104  1.00  0.00     0.034 A 
ATOM     55  C   UNL A   1      43.742  25.126  29.167  1.00  0.00     0.049 A 
ATOM     56  C   UNL A   1      42.821  29.378  32.759  1.00  0.00     0.074 A 
ATOM     57  C   UNL A   1      44.787  26.002  28.936  1.00  0.00     0.029 A 
ATOM     58  N   UNL A   1      43.559  25.091  30.548  1.00  0.00    -0.354 N 
ATOM     59  N   UNL A   1      43.374  28.385  32.119  1.00  0.00    -0.248 NA
ATOM     60  C   UNL A   1      43.052  29.297  34.199  1.00  0.00     0.031 C 
ATOM     61  C   UNL A   1      45.160  26.576  30.185  1.00  0.00     0.029 A 
ATOM     62  C   UNL A   1      44.370  26.020  31.180  1.00  0.00     0.049 A 
ATOM     63  H   UNL A   1      42.938  24.485  31.013  1.00  0.00     0.167 HD
ATOM     64  C   UNL A   1      43.871  27.472  33.014  1.00  0.00     0.074 A 
ATOM     65  C   UNL A   1      43.731  28.140  34.298  1.00  0.00     0.031 C 
ATOM     66  C   UNL A   1      44.277  26.221  32.625  1.00  0.00     0.034 A 
BRANCH  53  67
ATOM     67  C   UNL A   1      43.144  23.439  27.243  1.00  0.00     0.023 A 
ATOM     68  C   UNL A   1      44.003  23.876  26.208  1.00  0.00     0.012 A 
ATOM     69  C   UNL A   1      42.642  22.120  27.105  1.00  0.00     0.148 A 
ATOM     70  C   UNL A   1      44.321  23.075  25.102  1.00  0.00     0.002 A 
ATOM     71  C   UNL A   1      43.003  21.299  26.032  1.00  0.00     0.091 A 
ATOM     72  F   UNL A   1      41.734  21.649  27.959  1.00  0.00    -0.205 F 
ATOM     73  C   UNL A   1      43.830  21.781  25.017  1.00  0.00     0.022 A 
BRANCH  71  74
ATOM     74  S   UNL A   1      42.425  19.596  25.883  1.00  0.00     0.127 S 
ATOM     75  O   UNL A   1      41.015  19.777  25.546  1.00  0.00    -0.237 OA
ATOM     76  O   UNL A   1      43.251  19.078  24.792  1.00  0.00    -0.237 OA
ATOM     77  O   UNL A   1      42.673  18.963  27.174  1.00  0.00    -0.744 OA
ENDBRANCH  71  74
ENDBRANCH  53  67
BRANCH  54  78
ATOM     78  C   UNL A   1      40.787  31.114  32.683  1.00  0.00     0.023 A 
ATOM     79  C   UNL A   1      39.675  30.272  32.923  1.00  0.00     0.012 A 
ATOM     80  C   UNL A   1      40.848  32.361  33.329  1.00  0.00     0.148 A 
ATOM     81  C   UNL A   1      38.710  30.609  33.873  1.00  0.00     0.002 A 
ATOM     82  C   UNL A   1      39.885  32.687  34.282  1.00  0.00     0.091 A 
ATOM     83  F   UNL A   1      41.889  33.164  33.072  1.00  0.00    -0.205 F 
ATOM     84  C   UNL A   1      38.833  31.801  34.575  1.00  0.00     0.022 A 
BRANCH  82  85
ATOM     85  S   UNL A   1      40.012  34.166  35.297  1.00  0.00     0.127 S 
ATOM     86  O   UNL A   1      40.058  35.215  34.284  1.00  0.00    -0.237 OA
ATOM     87  O   UNL A   1      38.775  34.113  36.076  1.00  0.00    -0.237 OA
ATOM     88  O   UNL A   1      41.220  33.976  36.086  1.00  0.00    -0.744 OA
ENDBRANCH  82  85
ENDBRANCH  54  78
BRANCH  66  89
ATOM     89  C   UNL A   1      44.589  25.061  33.564  1.00  0.00     0.023 A 
ATOM     90  C   UNL A   1      43.657  24.044  33.851  1.00  0.00     0.012 A 
ATOM     91  C   UNL A   1      45.897  24.873  34.087  1.00  0.00     0.148 A 
ATOM     92  C   UNL A   1      43.970  22.942  34.659  1.00  0.00     0.002 A 
ATOM     93  C   UNL A   1      46.236  23.720  34.800  1.00  0.00     0.091 A 
ATOM     94  F   UNL A   1      46.830  25.820  33.914  1.00  0.00    -0.205 F 
ATOM     95  C   UNL A   1      45.267  22.768  35.116  1.00  0.00     0.022 A 
BRANCH  93  96
ATOM     96  S   UNL A   1      47.954  23.351  35.188  1.00  0.00     0.127 S 
ATOM     97  O   UNL A   1      47.895  21.935  35.536  1.00  0.00    -0.237 OA
ATOM     98  O   UNL A   1      48.637  23.637  33.924  1.00  0.00    -0.237 OA
ATOM     99  O   UNL A   1      48.293  24.274  36.264  1.00  0.00    -0.744 OA
ENDBRANCH  93  96
ENDBRANCH  66  89
ENDBRANCH  40  41
ENDBRANCH  32  35
ENDBRANCH  30  31
ENDBRANCH  29  30
ENDBRANCH   1  29
TORSDOF 18
ENDMDL
MODEL 3
REMARK VINA RESULT:     -11.4      1.961      2.660
REMARK SMILES Cc1cccc(-c2noc(C[N@@H+](C)Cc3ncccc3C(=O)NCCCNC(=O)c3ccc(-c4c5nc(c(-c6cccc(S(=O)(=O)[O-])c6F)c6ccc([nH]6)c(-c6cccc(S(=O)(=O)[O-])c6F)c6nc(c(-c7cccc(S(=O)(=O)[O-])c7F)c7ccc4[nH]7)C=C6)C=C5)cc3)n2)c1
REMARK SMILES IDX 24 1 23 2 21 3 22 4 20 6 15 7 16 8 17 9 19 10 18 11 14 12
REMARK SMILES IDX 12 13 13 14 11 16 10 17 7 18 8 19 93 20 9 21 6 22 1 23 2 24
REMARK SMILES IDX 3 25 94 26 4 27 5 28 25 29 26 30 27 31 28 32 29 34 30 35
REMARK SMILES IDX 31 36 92 37 32 38 91 39 33 40 34 41 35 42 85 43 36 44 90 45
REMARK SMILES IDX 84 46 86 47 37 48 89 49 83 50 82 51 38 53 70 54 50 55 69 56
REMARK SMILES IDX 51 57 54 58 68 59 87 60 52 61 53 62 67 64 88 65 55 66 39 67
REMARK SMILES IDX 40 68 48 69 41 70 43 71 49 72 42 73 44 74 45 75 46 76 47 77
REMARK SMILES IDX 71 78 72 79 80 80 73 81 75 82 81 83 74 84 76 85 77 86 78 87
REMARK SMILES IDX 79 88 56 89 57 90 65 91 58 92 60 93 66 94 59 95 61 96 62 97
REMARK SMILES IDX 63 98 64 99
REMARK H PARENT 23 5 12 15 27 33 86 52 54 63
REMARK Flexibility Score: inf
ROOT
ATOM      1  C   UNL A   1      33.568  27.495  26.748  1.00  0.00     0.118 C 
ENDROOT
BRANCH   1   2
ATOM      2  N   UNL A   1      32.339  26.931  26.214  1.00  0.00    -0.352 N 
ATOM      3  C   UNL A   1      31.852  25.655  26.043  1.00  0.00     0.253 C 
ATOM      4  O   UNL A   1      30.697  25.606  25.627  1.00  0.00    -0.269 OA
ATOM      5  H   UNL A   1      31.709  27.621  25.904  1.00  0.00     0.163 HD
BRANCH   3   6
ATOM      6  C   UNL A   1      32.604  24.389  26.355  1.00  0.00     0.067 A 
ATOM      7  C   UNL A   1      33.650  23.895  25.548  1.00  0.00     0.107 A 
ATOM      8  N   UNL A   1      34.243  22.676  25.798  1.00  0.00    -0.254 NA
ATOM      9  C   UNL A   1      33.900  21.982  26.893  1.00  0.00     0.111 A 
ATOM     10  C   UNL A   1      32.324  23.634  27.505  1.00  0.00     0.017 A 
ATOM     11  C   UNL A   1      32.966  22.431  27.787  1.00  0.00     0.021 A 
BRANCH   7  12
ATOM     12  C   UNL A   1      34.239  24.603  24.329  1.00  0.00     0.320 C 
BRANCH  12  13
ATOM     13  N   UNL A   1      33.462  24.542  23.056  1.00  0.00    -0.325 N 
ATOM     14  C   UNL A   1      33.815  23.404  22.216  1.00  0.00     0.333 C 
ATOM     15  H   UNL A   1      32.496  24.399  23.349  1.00  0.00     0.348 HD
BRANCH  13  16
ATOM     16  C   UNL A   1      33.501  25.808  22.291  1.00  0.00     0.364 C 
BRANCH  16  17
ATOM     17  C   UNL A   1      32.347  26.721  22.546  1.00  0.00     0.282 A 
ATOM     18  C   UNL A   1      30.969  28.203  23.101  1.00  0.00     0.202 A 
ATOM     19  N   UNL A   1      30.198  27.222  22.602  1.00  0.00    -0.057 NA
ATOM     20  N   UNL A   1      32.325  27.943  23.034  1.00  0.00    -0.186 NA
ATOM     21  O   UNL A   1      31.111  26.240  22.232  1.00  0.00    -0.333 OA
BRANCH  18  22
ATOM     22  C   UNL A   1      30.426  29.443  23.631  1.00  0.00     0.023 A 
ATOM     23  C   UNL A   1      31.199  32.008  26.353  1.00  0.00     0.044 C 
ATOM     24  C   UNL A   1      30.541  31.299  25.207  1.00  0.00    -0.050 A 
ATOM     25  C   UNL A   1      29.440  31.889  24.573  1.00  0.00     0.003 A 
ATOM     26  C   UNL A   1      31.019  30.065  24.740  1.00  0.00     0.015 A 
ATOM     27  C   UNL A   1      28.830  31.265  23.486  1.00  0.00     0.001 A 
ATOM     28  C   UNL A   1      29.324  30.049  23.014  1.00  0.00     0.012 A 
ENDBRANCH  18  22
ENDBRANCH  16  17
ENDBRANCH  13  16
ENDBRANCH  12  13
ENDBRANCH   7  12
ENDBRANCH   3   6
ENDBRANCH   1   2
BRANCH   1  29
ATOM     29  C   UNL A   1      33.380  28.948  27.185  1.00  0.00     0.042 C 
BRANCH  29  30
ATOM     30  C   UNL A   1      34.223  29.938  26.396  1.00  0.00     0.118 C 
BRANCH  30  31
ATOM     31  N   UNL A   1      34.756  31.019  27.220  1.00  0.00    -0.352 N 
ATOM     32  C   UNL A   1      35.892  31.019  28.009  1.00  0.00     0.251 C 
ATOM     33  H   UNL A   1      34.239  31.857  27.213  1.00  0.00     0.163 HD
ATOM     34  O   UNL A   1      36.142  31.988  28.723  1.00  0.00    -0.269 OA
BRANCH  32  35
ATOM     35  C   UNL A   1      36.838  29.890  27.878  1.00  0.00     0.039 A 
ATOM     36  C   UNL A   1      36.837  28.922  28.887  1.00  0.00     0.014 A 
ATOM     37  C   UNL A   1      37.884  29.968  26.963  1.00  0.00     0.014 A 
ATOM     38  C   UNL A   1      38.004  28.209  29.148  1.00  0.00     0.010 A 
ATOM     39  C   UNL A   1      39.066  29.331  27.273  1.00  0.00     0.010 A 
ATOM     40  C   UNL A   1      39.144  28.514  28.410  1.00  0.00    -0.014 A 
BRANCH  40  41
ATOM     41  C   UNL A   1      40.492  28.122  28.788  1.00  0.00     0.031 A 
ATOM     42  C   UNL A   1      41.029  26.815  28.372  1.00  0.00     0.074 A 
ATOM     43  C   UNL A   1      41.301  29.041  29.360  1.00  0.00     0.049 A 
ATOM     44  N   UNL A   1      42.127  26.317  28.828  1.00  0.00    -0.248 NA
ATOM     45  C   UNL A   1      40.325  25.926  27.455  1.00  0.00     0.031 C 
ATOM     46  C   UNL A   1      42.759  29.026  29.401  1.00  0.00     0.029 A 
ATOM     47  N   UNL A   1      40.944  30.074  30.235  1.00  0.00    -0.354 N 
ATOM     48  C   UNL A   1      42.427  25.222  28.054  1.00  0.00     0.074 A 
ATOM     49  C   UNL A   1      41.213  24.935  27.334  1.00  0.00     0.031 C 
ATOM     50  C   UNL A   1      43.171  29.783  30.425  1.00  0.00     0.029 A 
ATOM     51  C   UNL A   1      41.988  30.163  31.176  1.00  0.00     0.049 A 
ATOM     52  H   UNL A   1      40.130  30.626  30.201  1.00  0.00     0.167 HD
ATOM     53  C   UNL A   1      43.719  24.798  28.001  1.00  0.00     0.034 A 
ATOM     54  C   UNL A   1      41.826  30.004  32.520  1.00  0.00     0.034 A 
ATOM     55  C   UNL A   1      44.515  25.401  29.081  1.00  0.00     0.049 A 
ATOM     56  C   UNL A   1      42.689  28.903  33.110  1.00  0.00     0.074 A 
ATOM     57  C   UNL A   1      45.471  26.401  29.124  1.00  0.00     0.029 A 
ATOM     58  N   UNL A   1      44.177  25.124  30.404  1.00  0.00    -0.354 N 
ATOM     59  N   UNL A   1      43.426  28.086  32.409  1.00  0.00    -0.248 NA
ATOM     60  C   UNL A   1      42.758  28.612  34.540  1.00  0.00     0.031 C 
ATOM     61  C   UNL A   1      45.624  26.797  30.483  1.00  0.00     0.029 A 
ATOM     62  C   UNL A   1      44.795  26.013  31.270  1.00  0.00     0.049 A 
ATOM     63  H   UNL A   1      43.581  24.394  30.687  1.00  0.00     0.167 HD
ATOM     64  C   UNL A   1      43.918  27.092  33.216  1.00  0.00     0.074 A 
ATOM     65  C   UNL A   1      43.552  27.526  34.555  1.00  0.00     0.031 C 
ATOM     66  C   UNL A   1      44.510  25.967  32.704  1.00  0.00     0.034 A 
BRANCH  53  67
ATOM     67  C   UNL A   1      44.348  24.000  26.865  1.00  0.00     0.023 A 
ATOM     68  C   UNL A   1      45.197  24.701  25.978  1.00  0.00     0.012 A 
ATOM     69  C   UNL A   1      44.080  22.651  26.516  1.00  0.00     0.148 A 
ATOM     70  C   UNL A   1      45.720  24.120  24.815  1.00  0.00     0.002 A 
ATOM     71  C   UNL A   1      44.647  22.052  25.387  1.00  0.00     0.091 A 
ATOM     72  F   UNL A   1      43.202  21.934  27.215  1.00  0.00    -0.205 F 
ATOM     73  C   UNL A   1      45.455  22.790  24.522  1.00  0.00     0.022 A 
BRANCH  71  74
ATOM     74  S   UNL A   1      44.369  20.317  24.972  1.00  0.00     0.127 S 
ATOM     75  O   UNL A   1      42.976  20.125  25.373  1.00  0.00    -0.237 OA
ATOM     76  O   UNL A   1      44.595  20.300  23.527  1.00  0.00    -0.237 OA
ATOM     77  O   UNL A   1      45.342  19.549  25.740  1.00  0.00    -0.744 OA
ENDBRANCH  71  74
ENDBRANCH  53  67
BRANCH  54  78
ATOM     78  C   UNL A   1      40.488  30.423  33.021  1.00  0.00     0.023 A 
ATOM     79  C   UNL A   1      39.404  29.560  32.733  1.00  0.00     0.012 A 
ATOM     80  C   UNL A   1      40.347  31.373  34.047  1.00  0.00     0.148 A 
ATOM     81  C   UNL A   1      38.253  29.564  33.522  1.00  0.00     0.002 A 
ATOM     82  C   UNL A   1      39.198  31.365  34.836  1.00  0.00     0.091 A 
ATOM     83  F   UNL A   1      41.368  32.205  34.293  1.00  0.00    -0.205 F 
ATOM     84  C   UNL A   1      38.165  30.443  34.593  1.00  0.00     0.022 A 
BRANCH  82  85
ATOM     85  S   UNL A   1      39.036  32.407  36.292  1.00  0.00     0.127 S 
ATOM     86  O   UNL A   1      39.258  33.735  35.730  1.00  0.00    -0.237 OA
ATOM     87  O   UNL A   1      37.661  32.138  36.713  1.00  0.00    -0.237 OA
ATOM     88  O   UNL A   1      40.048  31.920  37.218  1.00  0.00    -0.744 OA
ENDBRANCH  82  85
ENDBRANCH  54  78
BRANCH  66  89
ATOM     89  C   UNL A   1      44.845  24.705  33.493  1.00  0.00     0.023 A 
ATOM     90  C   UNL A   1      43.992  23.584  33.528  1.00  0.00     0.012 A 
ATOM     91  C   UNL A   1      46.110  24.546  34.119  1.00  0.00     0.148 A 
ATOM     92  C   UNL A   1      44.333  22.401  34.198  1.00  0.00     0.002 A 
ATOM     93  C   UNL A   1      46.490  23.330  34.689  1.00  0.00     0.091 A 
ATOM     94  F   UNL A   1      46.960  25.582  34.184  1.00  0.00    -0.205 F 
ATOM     95  C   UNL A   1      45.592  22.264  34.760  1.00  0.00     0.022 A 
BRANCH  93  96
ATOM     96  S   UNL A   1      48.193  23.046  35.200  1.00  0.00     0.127 S 
ATOM     97  O   UNL A   1      48.182  21.626  35.537  1.00  0.00    -0.237 OA
ATOM     98  O   UNL A   1      48.950  23.377  33.990  1.00  0.00    -0.237 OA
ATOM     99  O   UNL A   1      48.405  23.977  36.302  1.00  0.00    -0.744 OA
ENDBRANCH  93  96
ENDBRANCH  66  89
ENDBRANCH  40  41
ENDBRANCH  32  35
ENDBRANCH  30  31
ENDBRANCH  29  30
ENDBRANCH   1  29
TORSDOF 18
ENDMDL
