MODEL 1
REMARK VINA RESULT:     -11.8      0.000      0.000
REMARK SMILES C[N@@H+]1CCC[C@@H](NC(=O)N(CC(=O)NCCCNC(=O)c2ccc(-c3c4nc(c(-c5cccc(S(=O)(=O)[O-])c5F)c5ccc([nH]5)c(-c5cccc(S(=O)(=O)[O-])c5F)c5nc(c(-c6cccc(S(=O)(=O)[O-])c6F)c6ccc3[nH]6)C=C5)C=C4)cc2)C(C)(C)C)C1
REMARK SMILES IDX 16 1 15 2 14 3 12 4 13 5 11 7 10 8 8 9 7 10 9 12 6 13 1 14
REMARK SMILES IDX 2 15 3 16 88 17 4 19 5 20 84 21 85 22 86 23 87 24 17 25
REMARK SMILES IDX 18 26 19 27 20 29 21 30 22 31 83 32 23 33 82 34 24 35 25 36
REMARK SMILES IDX 26 37 76 38 27 39 81 40 75 41 77 42 28 43 80 44 74 45 73 46
REMARK SMILES IDX 29 48 61 49 41 50 60 51 42 52 45 53 59 54 78 55 43 56 44 57
REMARK SMILES IDX 58 59 79 60 46 61 30 62 31 63 39 64 32 65 34 66 40 67 33 68
REMARK SMILES IDX 35 69 36 70 37 71 38 72 62 73 63 74 71 75 64 76 66 77 72 78
REMARK SMILES IDX 65 79 67 80 68 81 69 82 70 83 47 84 48 85 56 86 49 87 51 88
REMARK SMILES IDX 57 89 50 90 52 91 53 92 54 93 55 94
REMARK H PARENT 14 6 7 11 2 18 18 28 77 47 45 58
REMARK Flexibility Score: inf
ROOT
ATOM      1  C   UNL A   1      31.663  32.090  26.902  1.00  0.00     0.042 C 
ENDROOT
BRANCH   1   2
ATOM      2  C   UNL A   1      31.917  30.774  26.195  1.00  0.00     0.117 C 
BRANCH   2   3
ATOM      3  N   UNL A   1      31.373  29.592  26.815  1.00  0.00    -0.354 N 
ATOM      4  C   UNL A   1      31.753  28.293  26.655  1.00  0.00     0.239 C 
ATOM      5  O   UNL A   1      31.528  27.533  27.606  1.00  0.00    -0.273 OA
ATOM      6  H   UNL A   1      30.625  29.743  27.438  1.00  0.00     0.163 HD
BRANCH   4   7
ATOM      7  C   UNL A   1      32.553  27.772  25.440  1.00  0.00     0.221 C 
BRANCH   7   8
ATOM      8  N   UNL A   1      31.902  27.728  24.129  1.00  0.00    -0.311 N 
BRANCH   8   9
ATOM      9  C   UNL A   1      31.890  28.756  23.207  1.00  0.00     0.318 C 
ATOM     10  N   UNL A   1      30.854  29.588  22.965  1.00  0.00    -0.330 N 
ATOM     11  H   UNL A   1      31.119  30.241  22.278  1.00  0.00     0.165 HD
ATOM     12  O   UNL A   1      32.868  28.998  22.492  1.00  0.00    -0.249 OA
BRANCH  10  13
ATOM     13  C   UNL A   1      29.460  29.856  23.373  1.00  0.00     0.139 C 
ATOM     14  C   UNL A   1      29.037  33.645  23.175  1.00  0.00     0.332 C 
ATOM     15  N   UNL A   1      29.183  32.274  22.687  1.00  0.00    -0.336 N 
ATOM     16  C   UNL A   1      28.053  31.925  21.820  1.00  0.00     0.262 C 
ATOM     17  C   UNL A   1      29.295  31.330  23.818  1.00  0.00     0.287 C 
ATOM     18  H   UNL A   1      30.041  32.209  22.139  1.00  0.00     0.347 HD
ATOM     19  C   UNL A   1      28.281  30.555  21.200  1.00  0.00     0.064 C 
ATOM     20  C   UNL A   1      28.445  29.490  22.271  1.00  0.00     0.037 C 
ENDBRANCH  10  13
ENDBRANCH   8   9
BRANCH   8  21
ATOM     21  C   UNL A   1      31.231  26.396  23.754  1.00  0.00     0.037 C 
ATOM     22  C   UNL A   1      29.743  26.369  24.158  1.00  0.00     0.034 C 
ATOM     23  C   UNL A   1      31.358  26.117  22.238  1.00  0.00     0.034 C 
ATOM     24  C   UNL A   1      31.852  25.143  24.446  1.00  0.00     0.034 C 
ENDBRANCH   8  21
ENDBRANCH   7   8
ENDBRANCH   4   7
ENDBRANCH   2   3
ENDBRANCH   1   2
BRANCH   1  25
ATOM     25  C   UNL A   1      32.927  32.830  27.287  1.00  0.00     0.118 C 
BRANCH  25  26
ATOM     26  N   UNL A   1      32.651  34.197  27.709  1.00  0.00    -0.352 N 
ATOM     27  C   UNL A   1      33.155  34.893  28.781  1.00  0.00     0.251 C 
ATOM     28  H   UNL A   1      32.012  34.692  27.146  1.00  0.00     0.163 HD
ATOM     29  O   UNL A   1      32.640  35.958  29.108  1.00  0.00    -0.269 OA
BRANCH  27  30
ATOM     30  C   UNL A   1      34.302  34.351  29.543  1.00  0.00     0.039 A 
ATOM     31  C   UNL A   1      34.058  33.573  30.678  1.00  0.00     0.014 A 
ATOM     32  C   UNL A   1      35.616  34.613  29.146  1.00  0.00     0.014 A 
ATOM     33  C   UNL A   1      35.131  33.015  31.377  1.00  0.00     0.010 A 
ATOM     34  C   UNL A   1      36.674  33.975  29.782  1.00  0.00     0.010 A 
ATOM     35  C   UNL A   1      36.447  33.185  30.917  1.00  0.00    -0.014 A 
BRANCH  35  36
ATOM     36  C   UNL A   1      37.599  32.554  31.612  1.00  0.00     0.031 A 
ATOM     37  C   UNL A   1      38.336  31.409  30.969  1.00  0.00     0.074 A 
ATOM     38  C   UNL A   1      37.930  32.958  32.855  1.00  0.00     0.049 A 
ATOM     39  N   UNL A   1      39.333  30.703  31.439  1.00  0.00    -0.248 NA
ATOM     40  C   UNL A   1      37.878  30.980  29.636  1.00  0.00     0.031 C 
ATOM     41  C   UNL A   1      37.239  33.998  33.620  1.00  0.00     0.029 A 
ATOM     42  N   UNL A   1      38.917  32.523  33.705  1.00  0.00    -0.354 N 
ATOM     43  C   UNL A   1      39.594  29.730  30.481  1.00  0.00     0.074 A 
ATOM     44  C   UNL A   1      38.627  29.908  29.422  1.00  0.00     0.031 C 
ATOM     45  C   UNL A   1      37.829  34.130  34.819  1.00  0.00     0.029 A 
ATOM     46  C   UNL A   1      38.918  33.162  34.923  1.00  0.00     0.049 A 
ATOM     47  H   UNL A   1      39.564  31.822  33.465  1.00  0.00     0.167 HD
ATOM     48  C   UNL A   1      40.571  28.792  30.468  1.00  0.00     0.034 A 
ATOM     49  C   UNL A   1      39.700  32.984  36.005  1.00  0.00     0.034 A 
ATOM     50  C   UNL A   1      41.557  28.645  31.503  1.00  0.00     0.049 A 
ATOM     51  C   UNL A   1      40.801  31.960  35.948  1.00  0.00     0.074 A 
ATOM     52  C   UNL A   1      42.641  27.786  31.542  1.00  0.00     0.029 A 
ATOM     53  N   UNL A   1      41.575  29.366  32.686  1.00  0.00    -0.354 N 
ATOM     54  N   UNL A   1      41.131  31.156  34.966  1.00  0.00    -0.248 NA
ATOM     55  C   UNL A   1      41.659  31.842  37.135  1.00  0.00     0.031 C 
ATOM     56  C   UNL A   1      43.297  27.965  32.764  1.00  0.00     0.029 A 
ATOM     57  C   UNL A   1      42.644  28.964  33.470  1.00  0.00     0.049 A 
ATOM     58  H   UNL A   1      40.925  30.061  32.934  1.00  0.00     0.167 HD
ATOM     59  C   UNL A   1      42.258  30.468  35.401  1.00  0.00     0.074 A 
ATOM     60  C   UNL A   1      42.566  30.963  36.727  1.00  0.00     0.031 C 
ATOM     61  C   UNL A   1      42.968  29.502  34.766  1.00  0.00     0.034 A 
BRANCH  48  62
ATOM     62  C   UNL A   1      40.652  27.880  29.270  1.00  0.00     0.023 A 
ATOM     63  C   UNL A   1      39.800  26.758  29.188  1.00  0.00     0.012 A 
ATOM     64  C   UNL A   1      41.525  28.162  28.201  1.00  0.00     0.148 A 
ATOM     65  C   UNL A   1      39.843  25.912  28.080  1.00  0.00     0.002 A 
ATOM     66  C   UNL A   1      41.526  27.342  27.078  1.00  0.00     0.091 A 
ATOM     67  F   UNL A   1      42.340  29.221  28.304  1.00  0.00    -0.205 F 
ATOM     68  C   UNL A   1      40.696  26.211  27.022  1.00  0.00     0.022 A 
BRANCH  66  69
ATOM     69  S   UNL A   1      42.527  27.685  25.626  1.00  0.00     0.127 S 
ATOM     70  O   UNL A   1      43.868  27.760  26.204  1.00  0.00    -0.237 OA
ATOM     71  O   UNL A   1      42.284  26.502  24.801  1.00  0.00    -0.237 OA
ATOM     72  O   UNL A   1      42.018  28.931  25.070  1.00  0.00    -0.744 OA
ENDBRANCH  66  69
ENDBRANCH  48  62
BRANCH  49  73
ATOM     73  C   UNL A   1      39.510  33.836  37.214  1.00  0.00     0.023 A 
ATOM     74  C   UNL A   1      39.995  35.158  37.213  1.00  0.00     0.012 A 
ATOM     75  C   UNL A   1      38.842  33.350  38.353  1.00  0.00     0.148 A 
ATOM     76  C   UNL A   1      39.851  35.970  38.339  1.00  0.00     0.002 A 
ATOM     77  C   UNL A   1      38.651  34.181  39.451  1.00  0.00     0.091 A 
ATOM     78  F   UNL A   1      38.396  32.085  38.338  1.00  0.00    -0.205 F 
ATOM     79  C   UNL A   1      39.171  35.485  39.453  1.00  0.00     0.022 A 
BRANCH  77  80
ATOM     80  S   UNL A   1      37.682  33.687  40.879  1.00  0.00     0.127 S 
ATOM     81  O   UNL A   1      37.497  34.960  41.570  1.00  0.00    -0.237 OA
ATOM     82  O   UNL A   1      36.477  33.145  40.250  1.00  0.00    -0.237 OA
ATOM     83  O   UNL A   1      38.491  32.699  41.580  1.00  0.00    -0.744 OA
ENDBRANCH  77  80
ENDBRANCH  49  73
BRANCH  61  84
ATOM     84  C   UNL A   1      44.176  28.944  35.471  1.00  0.00     0.023 A 
ATOM     85  C   UNL A   1      45.447  29.511  35.251  1.00  0.00     0.012 A 
ATOM     86  C   UNL A   1      44.038  27.900  36.407  1.00  0.00     0.148 A 
ATOM     87  C   UNL A   1      46.567  29.024  35.922  1.00  0.00     0.002 A 
ATOM     88  C   UNL A   1      45.149  27.456  37.113  1.00  0.00     0.091 A 
ATOM     89  F   UNL A   1      42.824  27.362  36.592  1.00  0.00    -0.205 F 
ATOM     90  C   UNL A   1      46.416  28.006  36.861  1.00  0.00     0.022 A 
BRANCH  88  91
ATOM     91  S   UNL A   1      45.035  26.221  38.412  1.00  0.00     0.127 S 
ATOM     92  O   UNL A   1      44.671  25.024  37.655  1.00  0.00    -0.237 OA
ATOM     93  O   UNL A   1      46.394  26.212  38.952  1.00  0.00    -0.237 OA
ATOM     94  O   UNL A   1      44.020  26.704  39.339  1.00  0.00    -0.744 OA
ENDBRANCH  88  91
ENDBRANCH  61  84
ENDBRANCH  35  36
ENDBRANCH  27  30
ENDBRANCH  25  26
ENDBRANCH   1  25
TORSDOF 17
ENDMDL
MODEL 2
REMARK VINA RESULT:     -11.5      1.328      3.125
REMARK SMILES C[N@@H+]1CCC[C@@H](NC(=O)N(CC(=O)NCCCNC(=O)c2ccc(-c3c4nc(c(-c5cccc(S(=O)(=O)[O-])c5F)c5ccc([nH]5)c(-c5cccc(S(=O)(=O)[O-])c5F)c5nc(c(-c6cccc(S(=O)(=O)[O-])c6F)c6ccc3[nH]6)C=C5)C=C4)cc2)C(C)(C)C)C1
REMARK SMILES IDX 16 1 15 2 14 3 12 4 13 5 11 7 10 8 8 9 7 10 9 12 6 13 1 14
REMARK SMILES IDX 2 15 3 16 88 17 4 19 5 20 84 21 85 22 86 23 87 24 17 25
REMARK SMILES IDX 18 26 19 27 20 29 21 30 22 31 83 32 23 33 82 34 24 35 25 36
REMARK SMILES IDX 26 37 76 38 27 39 81 40 75 41 77 42 28 43 80 44 74 45 73 46
REMARK SMILES IDX 29 48 61 49 41 50 60 51 42 52 45 53 59 54 78 55 43 56 44 57
REMARK SMILES IDX 58 59 79 60 46 61 30 62 31 63 39 64 32 65 34 66 40 67 33 68
REMARK SMILES IDX 35 69 36 70 37 71 38 72 62 73 63 74 71 75 64 76 66 77 72 78
REMARK SMILES IDX 65 79 67 80 68 81 69 82 70 83 47 84 48 85 56 86 49 87 51 88
REMARK SMILES IDX 57 89 50 90 52 91 53 92 54 93 55 94
REMARK H PARENT 14 6 7 11 2 18 18 28 77 47 45 58
REMARK Flexibility Score: inf
ROOT
ATOM      1  C   UNL A   1      31.518  32.106  26.779  1.00  0.00     0.042 C 
ENDROOT
BRANCH   1   2
ATOM      2  C   UNL A   1      31.760  30.733  26.186  1.00  0.00     0.117 C 
BRANCH   2   3
ATOM      3  N   UNL A   1      32.805  29.943  26.789  1.00  0.00    -0.354 N 
ATOM      4  C   UNL A   1      33.488  28.888  26.262  1.00  0.00     0.239 C 
ATOM      5  O   UNL A   1      34.628  28.695  26.706  1.00  0.00    -0.273 OA
ATOM      6  H   UNL A   1      33.058  30.200  27.705  1.00  0.00     0.163 HD
BRANCH   4   7
ATOM      7  C   UNL A   1      32.981  28.037  25.077  1.00  0.00     0.221 C 
BRANCH   7   8
ATOM      8  N   UNL A   1      31.753  27.257  25.238  1.00  0.00    -0.311 N 
BRANCH   8   9
ATOM      9  C   UNL A   1      31.363  26.609  26.394  1.00  0.00     0.318 C 
ATOM     10  N   UNL A   1      31.418  25.276  26.609  1.00  0.00    -0.330 N 
ATOM     11  H   UNL A   1      31.101  25.084  27.521  1.00  0.00     0.165 HD
ATOM     12  O   UNL A   1      30.902  27.224  27.360  1.00  0.00    -0.249 OA
BRANCH  10  13
ATOM     13  C   UNL A   1      31.788  24.008  25.950  1.00  0.00     0.139 C 
ATOM     14  C   UNL A   1      35.557  24.203  25.377  1.00  0.00     0.332 C 
ATOM     15  N   UNL A   1      34.310  24.057  26.127  1.00  0.00    -0.336 N 
ATOM     16  C   UNL A   1      34.309  22.787  26.860  1.00  0.00     0.262 C 
ATOM     17  C   UNL A   1      33.147  24.147  25.221  1.00  0.00     0.287 C 
ATOM     18  H   UNL A   1      34.241  24.818  26.802  1.00  0.00     0.347 HD
ATOM     19  C   UNL A   1      33.079  22.704  27.750  1.00  0.00     0.064 C 
ATOM     20  C   UNL A   1      31.804  22.818  26.932  1.00  0.00     0.037 C 
ENDBRANCH  10  13
ENDBRANCH   8   9
BRANCH   8  21
ATOM     21  C   UNL A   1      30.813  27.219  24.021  1.00  0.00     0.037 C 
ATOM     22  C   UNL A   1      30.305  28.625  23.644  1.00  0.00     0.034 C 
ATOM     23  C   UNL A   1      31.512  26.580  22.799  1.00  0.00     0.034 C 
ATOM     24  C   UNL A   1      29.519  26.373  24.232  1.00  0.00     0.034 C 
ENDBRANCH   8  21
ENDBRANCH   7   8
ENDBRANCH   4   7
ENDBRANCH   2   3
ENDBRANCH   1   2
BRANCH   1  25
ATOM     25  C   UNL A   1      32.768  32.766  27.320  1.00  0.00     0.118 C 
BRANCH  25  26
ATOM     26  N   UNL A   1      32.538  34.159  27.677  1.00  0.00    -0.352 N 
ATOM     27  C   UNL A   1      33.088  34.897  28.698  1.00  0.00     0.251 C 
ATOM     28  H   UNL A   1      31.896  34.641  27.107  1.00  0.00     0.163 HD
ATOM     29  O   UNL A   1      32.609  35.991  28.982  1.00  0.00    -0.269 OA
BRANCH  27  30
ATOM     30  C   UNL A   1      34.243  34.366  29.457  1.00  0.00     0.039 A 
ATOM     31  C   UNL A   1      34.016  33.714  30.672  1.00  0.00     0.014 A 
ATOM     32  C   UNL A   1      35.546  34.513  28.977  1.00  0.00     0.014 A 
ATOM     33  C   UNL A   1      35.092  33.165  31.374  1.00  0.00     0.010 A 
ATOM     34  C   UNL A   1      36.601  33.880  29.624  1.00  0.00     0.010 A 
ATOM     35  C   UNL A   1      36.390  33.215  30.840  1.00  0.00    -0.014 A 
BRANCH  35  36
ATOM     36  C   UNL A   1      37.541  32.588  31.541  1.00  0.00     0.031 A 
ATOM     37  C   UNL A   1      38.276  31.437  30.908  1.00  0.00     0.074 A 
ATOM     38  C   UNL A   1      37.873  33.003  32.780  1.00  0.00     0.049 A 
ATOM     39  N   UNL A   1      39.272  30.733  31.384  1.00  0.00    -0.248 NA
ATOM     40  C   UNL A   1      37.818  30.997  29.579  1.00  0.00     0.031 C 
ATOM     41  C   UNL A   1      37.183  34.051  33.536  1.00  0.00     0.029 A 
ATOM     42  N   UNL A   1      38.859  32.575  33.634  1.00  0.00    -0.354 N 
ATOM     43  C   UNL A   1      39.532  29.751  30.435  1.00  0.00     0.074 A 
ATOM     44  C   UNL A   1      38.565  29.921  29.375  1.00  0.00     0.031 C 
ATOM     45  C   UNL A   1      37.774  34.192  34.733  1.00  0.00     0.029 A 
ATOM     46  C   UNL A   1      38.861  33.224  34.846  1.00  0.00     0.049 A 
ATOM     47  H   UNL A   1      39.505  31.870  33.400  1.00  0.00     0.167 HD
ATOM     48  C   UNL A   1      40.507  28.812  30.430  1.00  0.00     0.034 A 
ATOM     49  C   UNL A   1      39.643  33.055  35.929  1.00  0.00     0.034 A 
ATOM     50  C   UNL A   1      41.492  28.672  31.466  1.00  0.00     0.049 A 
ATOM     51  C   UNL A   1      40.742  32.028  35.882  1.00  0.00     0.074 A 
ATOM     52  C   UNL A   1      42.575  27.812  31.513  1.00  0.00     0.029 A 
ATOM     53  N   UNL A   1      41.512  29.403  32.643  1.00  0.00    -0.354 N 
ATOM     54  N   UNL A   1      41.071  31.215  34.907  1.00  0.00    -0.248 NA
ATOM     55  C   UNL A   1      41.600  31.919  37.070  1.00  0.00     0.031 C 
ATOM     56  C   UNL A   1      43.232  28.001  32.734  1.00  0.00     0.029 A 
ATOM     57  C   UNL A   1      42.580  29.007  33.430  1.00  0.00     0.049 A 
ATOM     58  H   UNL A   1      40.863  30.103  32.885  1.00  0.00     0.167 HD
ATOM     59  C   UNL A   1      42.197  30.529  35.348  1.00  0.00     0.074 A 
ATOM     60  C   UNL A   1      42.505  31.036  36.669  1.00  0.00     0.031 C 
ATOM     61  C   UNL A   1      42.905  29.556  34.722  1.00  0.00     0.034 A 
BRANCH  48  62
ATOM     62  C   UNL A   1      40.586  27.888  29.241  1.00  0.00     0.023 A 
ATOM     63  C   UNL A   1      39.734  26.767  29.169  1.00  0.00     0.012 A 
ATOM     64  C   UNL A   1      41.458  28.161  28.168  1.00  0.00     0.148 A 
ATOM     65  C   UNL A   1      39.775  25.911  28.070  1.00  0.00     0.002 A 
ATOM     66  C   UNL A   1      41.458  27.330  27.053  1.00  0.00     0.091 A 
ATOM     67  F   UNL A   1      42.275  29.219  28.261  1.00  0.00    -0.205 F 
ATOM     68  C   UNL A   1      40.628  26.199  27.008  1.00  0.00     0.022 A 
BRANCH  66  69
ATOM     69  S   UNL A   1      42.458  27.659  25.598  1.00  0.00     0.127 S 
ATOM     70  O   UNL A   1      43.804  27.698  26.168  1.00  0.00    -0.237 OA
ATOM     71  O   UNL A   1      42.182  26.488  24.766  1.00  0.00    -0.237 OA
ATOM     72  O   UNL A   1      41.976  28.921  25.053  1.00  0.00    -0.744 OA
ENDBRANCH  66  69
ENDBRANCH  48  62
BRANCH  49  73
ATOM     73  C   UNL A   1      39.455  33.917  37.131  1.00  0.00     0.023 A 
ATOM     74  C   UNL A   1      39.898  35.254  37.100  1.00  0.00     0.012 A 
ATOM     75  C   UNL A   1      38.828  33.428  38.292  1.00  0.00     0.148 A 
ATOM     76  C   UNL A   1      39.754  36.077  38.218  1.00  0.00     0.002 A 
ATOM     77  C   UNL A   1      38.637  34.269  39.382  1.00  0.00     0.091 A 
ATOM     78  F   UNL A   1      38.422  32.150  38.304  1.00  0.00    -0.205 F 
ATOM     79  C   UNL A   1      39.116  35.588  39.354  1.00  0.00     0.022 A 
BRANCH  77  80
ATOM     80  S   UNL A   1      37.717  33.765  40.840  1.00  0.00     0.127 S 
ATOM     81  O   UNL A   1      36.531  33.151  40.247  1.00  0.00    -0.237 OA
ATOM     82  O   UNL A   1      38.646  32.829  41.472  1.00  0.00    -0.237 OA
ATOM     83  O   UNL A   1      37.483  34.986  41.598  1.00  0.00    -0.744 OA
ENDBRANCH  77  80
ENDBRANCH  49  73
BRANCH  61  84
ATOM     84  C   UNL A   1      44.113  29.002  35.432  1.00  0.00     0.023 A 
ATOM     85  C   UNL A   1      45.370  29.617  35.271  1.00  0.00     0.012 A 
ATOM     86  C   UNL A   1      43.984  27.913  36.316  1.00  0.00     0.148 A 
ATOM     87  C   UNL A   1      46.488  29.133  35.948  1.00  0.00     0.002 A 
ATOM     88  C   UNL A   1      45.090  27.470  37.029  1.00  0.00     0.091 A 
ATOM     89  F   UNL A   1      42.783  27.331  36.444  1.00  0.00    -0.205 F 
ATOM     90  C   UNL A   1      46.346  28.069  36.836  1.00  0.00     0.022 A 
BRANCH  88  91
ATOM     91  S   UNL A   1      44.983  26.173  38.268  1.00  0.00     0.127 S 
ATOM     92  O   UNL A   1      43.980  26.717  39.182  1.00  0.00    -0.237 OA
ATOM     93  O   UNL A   1      44.530  25.027  37.478  1.00  0.00    -0.237 OA
ATOM     94  O   UNL A   1      46.322  26.034  38.822  1.00  0.00    -0.744 OA
ENDBRANCH  88  91
ENDBRANCH  61  84
ENDBRANCH  35  36
ENDBRANCH  27  30
ENDBRANCH  25  26
ENDBRANCH   1  25
TORSDOF 17
ENDMDL
MODEL 3
REMARK VINA RESULT:     -11.4      7.157     12.491
REMARK SMILES C[N@@H+]1CCC[C@@H](NC(=O)N(CC(=O)NCCCNC(=O)c2ccc(-c3c4nc(c(-c5cccc(S(=O)(=O)[O-])c5F)c5ccc([nH]5)c(-c5cccc(S(=O)(=O)[O-])c5F)c5nc(c(-c6cccc(S(=O)(=O)[O-])c6F)c6ccc3[nH]6)C=C5)C=C4)cc2)C(C)(C)C)C1
REMARK SMILES IDX 16 1 15 2 14 3 12 4 13 5 11 7 10 8 8 9 7 10 9 12 6 13 1 14
REMARK SMILES IDX 2 15 3 16 88 17 4 19 5 20 84 21 85 22 86 23 87 24 17 25
REMARK SMILES IDX 18 26 19 27 20 29 21 30 22 31 83 32 23 33 82 34 24 35 25 36
REMARK SMILES IDX 26 37 76 38 27 39 81 40 75 41 77 42 28 43 80 44 74 45 73 46
REMARK SMILES IDX 29 48 61 49 41 50 60 51 42 52 45 53 59 54 78 55 43 56 44 57
REMARK SMILES IDX 58 59 79 60 46 61 30 62 31 63 39 64 32 65 34 66 40 67 33 68
REMARK SMILES IDX 35 69 36 70 37 71 38 72 62 73 63 74 71 75 64 76 66 77 72 78
REMARK SMILES IDX 65 79 67 80 68 81 69 82 70 83 47 84 48 85 56 86 49 87 51 88
REMARK SMILES IDX 57 89 50 90 52 91 53 92 54 93 55 94
REMARK H PARENT 14 6 7 11 2 18 18 28 77 47 45 58
REMARK Flexibility Score: inf
ROOT
ATOM      1  C   UNL A   1      38.459  20.181  24.958  1.00  0.00     0.042 C 
ENDROOT
BRANCH   1   2
ATOM      2  C   UNL A   1      37.784  21.537  25.001  1.00  0.00     0.117 C 
BRANCH   2   3
ATOM      3  N   UNL A   1      36.945  21.877  23.878  1.00  0.00    -0.354 N 
ATOM      4  C   UNL A   1      35.944  22.800  23.810  1.00  0.00     0.239 C 
ATOM      5  O   UNL A   1      35.713  23.279  22.692  1.00  0.00    -0.273 OA
ATOM      6  H   UNL A   1      37.117  21.373  23.050  1.00  0.00     0.163 HD
BRANCH   4   7
ATOM      7  C   UNL A   1      35.204  23.363  25.044  1.00  0.00     0.221 C 
BRANCH   7   8
ATOM      8  N   UNL A   1      34.104  22.590  25.625  1.00  0.00    -0.311 N 
BRANCH   8   9
ATOM      9  C   UNL A   1      34.244  21.430  26.362  1.00  0.00     0.318 C 
ATOM     10  N   UNL A   1      34.258  20.174  25.864  1.00  0.00    -0.330 N 
ATOM     11  H   UNL A   1      34.392  19.537  26.602  1.00  0.00     0.165 HD
ATOM     12  O   UNL A   1      34.360  21.453  27.591  1.00  0.00    -0.249 OA
BRANCH  10  13
ATOM     13  C   UNL A   1      34.141  19.427  24.596  1.00  0.00     0.139 C 
ATOM     14  C   UNL A   1      35.316  15.879  25.376  1.00  0.00     0.332 C 
ATOM     15  N   UNL A   1      34.427  17.041  25.382  1.00  0.00    -0.336 N 
ATOM     16  C   UNL A   1      33.118  16.675  24.829  1.00  0.00     0.262 C 
ATOM     17  C   UNL A   1      35.028  18.158  24.626  1.00  0.00     0.287 C 
ATOM     18  H   UNL A   1      34.294  17.349  26.345  1.00  0.00     0.347 HD
ATOM     19  C   UNL A   1      32.153  17.841  24.970  1.00  0.00     0.064 C 
ATOM     20  C   UNL A   1      32.678  19.075  24.255  1.00  0.00     0.037 C 
ENDBRANCH  10  13
ENDBRANCH   8   9
BRANCH   8  21
ATOM     21  C   UNL A   1      32.694  23.170  25.426  1.00  0.00     0.037 C 
ATOM     22  C   UNL A   1      32.681  24.706  25.558  1.00  0.00     0.034 C 
ATOM     23  C   UNL A   1      32.116  22.767  24.050  1.00  0.00     0.034 C 
ATOM     24  C   UNL A   1      31.641  22.674  26.465  1.00  0.00     0.034 C 
ENDBRANCH   8  21
ENDBRANCH   7   8
ENDBRANCH   4   7
ENDBRANCH   2   3
ENDBRANCH   1   2
BRANCH   1  25
ATOM     25  C   UNL A   1      39.008  19.729  26.295  1.00  0.00     0.118 C 
BRANCH  25  26
ATOM     26  N   UNL A   1      40.230  18.952  26.147  1.00  0.00    -0.352 N 
ATOM     27  C   UNL A   1      41.531  19.386  26.057  1.00  0.00     0.251 C 
ATOM     28  H   UNL A   1      40.107  17.975  26.105  1.00  0.00     0.163 HD
ATOM     29  O   UNL A   1      42.410  18.601  25.714  1.00  0.00    -0.269 OA
BRANCH  27  30
ATOM     30  C   UNL A   1      41.863  20.796  26.361  1.00  0.00     0.039 A 
ATOM     31  C   UNL A   1      42.264  21.137  27.655  1.00  0.00     0.014 A 
ATOM     32  C   UNL A   1      41.775  21.782  25.375  1.00  0.00     0.014 A 
ATOM     33  C   UNL A   1      42.628  22.455  27.942  1.00  0.00     0.010 A 
ATOM     34  C   UNL A   1      42.233  23.069  25.637  1.00  0.00     0.010 A 
ATOM     35  C   UNL A   1      42.646  23.426  26.928  1.00  0.00    -0.014 A 
BRANCH  35  36
ATOM     36  C   UNL A   1      43.084  24.820  27.197  1.00  0.00     0.031 A 
ATOM     37  C   UNL A   1      42.146  25.792  27.864  1.00  0.00     0.074 A 
ATOM     38  C   UNL A   1      44.294  25.233  26.771  1.00  0.00     0.049 A 
ATOM     39  N   UNL A   1      42.331  27.058  28.140  1.00  0.00    -0.248 NA
ATOM     40  C   UNL A   1      40.816  25.287  28.246  1.00  0.00     0.031 C 
ATOM     41  C   UNL A   1      45.259  24.412  26.037  1.00  0.00     0.029 A 
ATOM     42  N   UNL A   1      44.909  26.457  26.870  1.00  0.00    -0.354 N 
ATOM     43  C   UNL A   1      41.135  27.505  28.689  1.00  0.00     0.074 A 
ATOM     44  C   UNL A   1      40.217  26.390  28.672  1.00  0.00     0.031 C 
ATOM     45  C   UNL A   1      46.347  25.148  25.764  1.00  0.00     0.029 A 
ATOM     46  C   UNL A   1      46.146  26.503  26.270  1.00  0.00     0.049 A 
ATOM     47  H   UNL A   1      44.503  27.227  27.327  1.00  0.00     0.167 HD
ATOM     48  C   UNL A   1      40.837  28.727  29.193  1.00  0.00     0.034 A 
ATOM     49  C   UNL A   1      47.016  27.522  26.136  1.00  0.00     0.034 A 
ATOM     50  C   UNL A   1      41.765  29.822  29.247  1.00  0.00     0.049 A 
ATOM     51  C   UNL A   1      46.674  28.858  26.738  1.00  0.00     0.074 A 
ATOM     52  C   UNL A   1      41.590  31.071  29.817  1.00  0.00     0.029 A 
ATOM     53  N   UNL A   1      43.039  29.806  28.702  1.00  0.00    -0.354 N 
ATOM     54  N   UNL A   1      45.598  29.215  27.396  1.00  0.00    -0.248 NA
ATOM     55  C   UNL A   1      47.680  29.921  26.609  1.00  0.00     0.031 C 
ATOM     56  C   UNL A   1      42.748  31.821  29.590  1.00  0.00     0.029 A 
ATOM     57  C   UNL A   1      43.659  31.027  28.911  1.00  0.00     0.049 A 
ATOM     58  H   UNL A   1      43.445  29.040  28.236  1.00  0.00     0.167 HD
ATOM     59  C   UNL A   1      45.815  30.530  27.794  1.00  0.00     0.074 A 
ATOM     60  C   UNL A   1      47.133  30.898  27.321  1.00  0.00     0.031 C 
ATOM     61  C   UNL A   1      44.992  31.362  28.479  1.00  0.00     0.034 A 
BRANCH  48  62
ATOM     62  C   UNL A   1      39.460  28.929  29.773  1.00  0.00     0.023 A 
ATOM     63  C   UNL A   1      39.193  28.524  31.098  1.00  0.00     0.012 A 
ATOM     64  C   UNL A   1      38.448  29.572  29.033  1.00  0.00     0.148 A 
ATOM     65  C   UNL A   1      37.934  28.720  31.662  1.00  0.00     0.002 A 
ATOM     66  C   UNL A   1      37.210  29.808  29.619  1.00  0.00     0.091 A 
ATOM     67  F   UNL A   1      38.712  29.932  27.769  1.00  0.00    -0.205 F 
ATOM     68  C   UNL A   1      36.947  29.372  30.928  1.00  0.00     0.022 A 
BRANCH  66  69
ATOM     69  S   UNL A   1      35.899  30.712  28.788  1.00  0.00     0.127 S 
ATOM     70  O   UNL A   1      35.167  31.278  29.921  1.00  0.00    -0.237 OA
ATOM     71  O   UNL A   1      36.652  31.688  28.001  1.00  0.00    -0.237 OA
ATOM     72  O   UNL A   1      35.167  29.730  28.002  1.00  0.00    -0.744 OA
ENDBRANCH  66  69
ENDBRANCH  48  62
BRANCH  49  73
ATOM     73  C   UNL A   1      48.324  27.304  25.453  1.00  0.00     0.023 A 
ATOM     74  C   UNL A   1      49.443  26.907  26.210  1.00  0.00     0.012 A 
ATOM     75  C   UNL A   1      48.460  27.473  24.062  1.00  0.00     0.148 A 
ATOM     76  C   UNL A   1      50.684  26.718  25.600  1.00  0.00     0.002 A 
ATOM     77  C   UNL A   1      49.684  27.228  23.451  1.00  0.00     0.091 A 
ATOM     78  F   UNL A   1      47.385  27.860  23.361  1.00  0.00    -0.205 F 
ATOM     79  C   UNL A   1      50.802  26.869  24.220  1.00  0.00     0.022 A 
BRANCH  77  80
ATOM     80  S   UNL A   1      49.901  27.276  21.670  1.00  0.00     0.127 S 
ATOM     81  O   UNL A   1      48.867  26.347  21.218  1.00  0.00    -0.237 OA
ATOM     82  O   UNL A   1      49.637  28.685  21.373  1.00  0.00    -0.237 OA
ATOM     83  O   UNL A   1      51.275  26.858  21.430  1.00  0.00    -0.744 OA
ENDBRANCH  77  80
ENDBRANCH  49  73
BRANCH  61  84
ATOM     84  C   UNL A   1      45.504  32.742  28.802  1.00  0.00     0.023 A 
ATOM     85  C   UNL A   1      46.235  32.964  29.985  1.00  0.00     0.012 A 
ATOM     86  C   UNL A   1      45.317  33.803  27.894  1.00  0.00     0.148 A 
ATOM     87  C   UNL A   1      46.741  34.229  30.278  1.00  0.00     0.002 A 
ATOM     88  C   UNL A   1      45.870  35.048  28.167  1.00  0.00     0.091 A 
ATOM     89  F   UNL A   1      44.604  33.576  26.782  1.00  0.00    -0.205 F 
ATOM     90  C   UNL A   1      46.570  35.267  29.365  1.00  0.00     0.022 A 
BRANCH  88  91
ATOM     91  S   UNL A   1      45.787  36.415  27.004  1.00  0.00     0.127 S 
ATOM     92  O   UNL A   1      46.426  35.839  25.821  1.00  0.00    -0.237 OA
ATOM     93  O   UNL A   1      44.345  36.626  26.876  1.00  0.00    -0.237 OA
ATOM     94  O   UNL A   1      46.507  37.517  27.627  1.00  0.00    -0.744 OA
ENDBRANCH  88  91
ENDBRANCH  61  84
ENDBRANCH  35  36
ENDBRANCH  27  30
ENDBRANCH  25  26
ENDBRANCH   1  25
TORSDOF 17
ENDMDL
