MODEL 1
REMARK VINA RESULT:     -11.8      0.000      0.000
REMARK SMILES O=C(CSc1nnc(-c2cccc(C(F)(F)F)c2F)o1)NCCCNC(=O)c1ccc(-c2c3nc(c(-c4cccc(S(=O)(=O)[O-])c4F)c4ccc([nH]4)c(-c4cccc(S(=O)(=O)[O-])c4F)c4nc(c(-c5cccc(S(=O)(=O)[O-])c5F)c5ccc2[nH]5)C=C4)C=C3)cc1
REMARK SMILES IDX 22 1 21 2 1 3 2 4 3 6 4 7 5 8 6 9 20 10 7 11 8 12 9 13 10 14
REMARK SMILES IDX 18 15 11 16 13 17 19 18 12 19 14 20 15 21 16 22 17 23 23 24
REMARK SMILES IDX 24 25 25 26 26 27 27 29 28 30 29 31 90 32 30 33 89 34 31 35
REMARK SMILES IDX 32 36 33 37 83 38 34 39 88 40 82 41 84 42 35 43 87 44 81 45
REMARK SMILES IDX 80 46 36 48 68 49 48 50 67 51 49 52 52 53 66 54 85 55 50 56
REMARK SMILES IDX 51 57 65 59 86 60 53 61 37 62 38 63 46 64 39 65 41 66 47 67
REMARK SMILES IDX 40 68 42 69 43 70 44 71 45 72 69 73 70 74 78 75 71 76 73 77
REMARK SMILES IDX 79 78 72 79 74 80 75 81 76 82 77 83 54 84 55 85 63 86 56 87
REMARK SMILES IDX 58 88 64 89 57 90 59 91 60 92 61 93 62 94
REMARK H PARENT 21 5 25 28 84 47 52 58
REMARK Flexibility Score: inf
ROOT
ATOM      1  C   UNL A   1      31.267  27.602  26.375  1.00  0.00     0.117 C 
ENDROOT
BRANCH   1   2
ATOM      2  N   UNL A   1      31.570  27.666  24.958  1.00  0.00    -0.355 N 
ATOM      3  O   UNL A   1      30.831  29.818  24.635  1.00  0.00    -0.274 OA
ATOM      4  C   UNL A   1      31.347  28.795  24.196  1.00  0.00     0.230 C 
ATOM      5  H   UNL A   1      31.951  26.871  24.521  1.00  0.00     0.163 HD
BRANCH   4   6
ATOM      6  C   UNL A   1      31.762  28.665  22.739  1.00  0.00     0.179 C 
BRANCH   6   7
ATOM      7  S   UNL A   1      33.540  28.306  22.598  1.00  0.00    -0.055 SA
BRANCH   7   8
ATOM      8  C   UNL A   1      33.436  26.608  22.255  1.00  0.00     0.277 A 
ATOM      9  N   UNL A   1      33.301  26.102  21.048  1.00  0.00    -0.101 NA
ATOM     10  O   UNL A   1      33.536  25.646  23.222  1.00  0.00    -0.411 OA
ATOM     11  N   UNL A   1      33.332  24.730  21.193  1.00  0.00    -0.107 NA
ATOM     12  C   UNL A   1      33.465  24.497  22.483  1.00  0.00     0.251 A 
BRANCH  12  13
ATOM     13  C   UNL A   1      33.617  23.235  23.184  1.00  0.00     0.075 A 
ATOM     14  C   UNL A   1      32.493  22.415  23.375  1.00  0.00     0.017 A 
ATOM     15  C   UNL A   1      34.850  22.814  23.700  1.00  0.00     0.148 A 
ATOM     16  C   UNL A   1      32.605  21.200  24.051  1.00  0.00     0.002 A 
ATOM     17  C   UNL A   1      34.978  21.606  24.390  1.00  0.00     0.092 A 
ATOM     18  F   UNL A   1      35.927  23.600  23.556  1.00  0.00    -0.205 F 
ATOM     19  C   UNL A   1      33.840  20.798  24.556  1.00  0.00     0.016 A 
BRANCH  17  20
ATOM     20  C   UNL A   1      36.291  21.174  24.976  1.00  0.00     0.419 C 
ATOM     21  F   UNL A   1      37.329  21.431  24.127  1.00  0.00    -0.166 F 
ATOM     22  F   UNL A   1      36.586  21.849  26.123  1.00  0.00    -0.166 F 
ATOM     23  F   UNL A   1      36.386  19.856  25.284  1.00  0.00    -0.166 F 
ENDBRANCH  17  20
ENDBRANCH  12  13
ENDBRANCH   7   8
ENDBRANCH   6   7
ENDBRANCH   4   6
ENDBRANCH   1   2
BRANCH   1  24
ATOM     24  C   UNL A   1      32.509  27.731  27.248  1.00  0.00     0.042 C 
BRANCH  24  25
ATOM     25  C   UNL A   1      33.621  28.602  26.667  1.00  0.00     0.118 C 
BRANCH  25  26
ATOM     26  N   UNL A   1      33.524  29.999  27.062  1.00  0.00    -0.352 N 
ATOM     27  C   UNL A   1      34.386  30.786  27.785  1.00  0.00     0.251 C 
ATOM     28  H   UNL A   1      32.705  30.456  26.762  1.00  0.00     0.163 HD
ATOM     29  O   UNL A   1      34.020  31.914  28.110  1.00  0.00    -0.269 OA
BRANCH  27  30
ATOM     30  C   UNL A   1      35.730  30.305  28.191  1.00  0.00     0.039 A 
ATOM     31  C   UNL A   1      35.872  29.734  29.460  1.00  0.00     0.014 A 
ATOM     32  C   UNL A   1      36.855  30.461  27.377  1.00  0.00     0.014 A 
ATOM     33  C   UNL A   1      37.125  29.292  29.895  1.00  0.00     0.010 A 
ATOM     34  C   UNL A   1      38.089  29.947  27.781  1.00  0.00     0.010 A 
ATOM     35  C   UNL A   1      38.244  29.376  29.052  1.00  0.00    -0.014 A 
BRANCH  35  36
ATOM     36  C   UNL A   1      39.577  28.893  29.505  1.00  0.00     0.031 A 
ATOM     37  C   UNL A   1      40.304  29.586  30.629  1.00  0.00     0.074 A 
ATOM     38  C   UNL A   1      40.158  27.849  28.881  1.00  0.00     0.049 A 
ATOM     39  N   UNL A   1      41.459  29.291  31.166  1.00  0.00    -0.248 NA
ATOM     40  C   UNL A   1      39.665  30.779  31.211  1.00  0.00     0.031 C 
ATOM     41  C   UNL A   1      39.599  27.139  27.729  1.00  0.00     0.029 A 
ATOM     42  N   UNL A   1      41.352  27.209  29.115  1.00  0.00    -0.354 N 
ATOM     43  C   UNL A   1      41.697  30.269  32.124  1.00  0.00     0.074 A 
ATOM     44  C   UNL A   1      40.587  31.193  32.069  1.00  0.00     0.031 C 
ATOM     45  C   UNL A   1      40.435  26.151  27.372  1.00  0.00     0.029 A 
ATOM     46  C   UNL A   1      41.602  26.171  28.249  1.00  0.00     0.049 A 
ATOM     47  H   UNL A   1      41.969  27.471  29.835  1.00  0.00     0.167 HD
ATOM     48  C   UNL A   1      42.724  30.369  32.999  1.00  0.00     0.034 A 
ATOM     49  C   UNL A   1      42.650  25.323  28.170  1.00  0.00     0.034 A 
ATOM     50  C   UNL A   1      43.793  29.413  33.099  1.00  0.00     0.049 A 
ATOM     51  C   UNL A   1      43.764  25.433  29.177  1.00  0.00     0.074 A 
ATOM     52  C   UNL A   1      44.815  29.368  34.029  1.00  0.00     0.029 A 
ATOM     53  N   UNL A   1      43.984  28.343  32.239  1.00  0.00    -0.354 N 
ATOM     54  N   UNL A   1      43.879  26.260  30.188  1.00  0.00    -0.248 NA
ATOM     55  C   UNL A   1      44.877  24.480  29.054  1.00  0.00     0.031 C 
ATOM     56  C   UNL A   1      45.641  28.285  33.717  1.00  0.00     0.029 A 
ATOM     57  C   UNL A   1      45.119  27.644  32.605  1.00  0.00     0.049 A 
ATOM     58  H   UNL A   1      43.398  28.114  31.483  1.00  0.00     0.167 HD
ATOM     59  C   UNL A   1      45.062  25.915  30.832  1.00  0.00     0.074 A 
ATOM     60  C   UNL A   1      45.618  24.789  30.111  1.00  0.00     0.031 C 
ATOM     61  C   UNL A   1      45.641  26.493  31.912  1.00  0.00     0.034 A 
BRANCH  48  62
ATOM     62  C   UNL A   1      42.715  31.510  33.982  1.00  0.00     0.023 A 
ATOM     63  C   UNL A   1      43.262  32.752  33.601  1.00  0.00     0.012 A 
ATOM     64  C   UNL A   1      42.078  31.388  35.232  1.00  0.00     0.148 A 
ATOM     65  C   UNL A   1      43.195  33.850  34.458  1.00  0.00     0.002 A 
ATOM     66  C   UNL A   1      41.977  32.499  36.063  1.00  0.00     0.091 A 
ATOM     67  F   UNL A   1      41.578  30.195  35.581  1.00  0.00    -0.205 F 
ATOM     68  C   UNL A   1      42.542  33.727  35.681  1.00  0.00     0.022 A 
BRANCH  66  69
ATOM     69  S   UNL A   1      41.085  32.470  37.623  1.00  0.00     0.127 S 
ATOM     70  O   UNL A   1      39.810  31.877  37.221  1.00  0.00    -0.237 OA
ATOM     71  O   UNL A   1      41.931  31.601  38.443  1.00  0.00    -0.237 OA
ATOM     72  O   UNL A   1      41.014  33.853  38.072  1.00  0.00    -0.744 OA
ENDBRANCH  66  69
ENDBRANCH  48  62
BRANCH  49  73
ATOM     73  C   UNL A   1      42.645  24.245  27.141  1.00  0.00     0.023 A 
ATOM     74  C   UNL A   1      43.385  24.418  25.956  1.00  0.00     0.012 A 
ATOM     75  C   UNL A   1      41.969  23.027  27.358  1.00  0.00     0.148 A 
ATOM     76  C   UNL A   1      43.441  23.406  24.998  1.00  0.00     0.002 A 
ATOM     77  C   UNL A   1      42.075  22.001  26.425  1.00  0.00     0.091 A 
ATOM     78  F   UNL A   1      41.259  22.887  28.485  1.00  0.00    -0.205 F 
ATOM     79  C   UNL A   1      42.799  22.194  25.238  1.00  0.00     0.022 A 
BRANCH  77  80
ATOM     80  S   UNL A   1      41.399  20.361  26.711  1.00  0.00     0.127 S 
ATOM     81  O   UNL A   1      42.135  19.938  27.900  1.00  0.00    -0.237 OA
ATOM     82  O   UNL A   1      39.983  20.657  26.937  1.00  0.00    -0.237 OA
ATOM     83  O   UNL A   1      41.670  19.605  25.498  1.00  0.00    -0.744 OA
ENDBRANCH  77  80
ENDBRANCH  49  73
BRANCH  61  84
ATOM     84  C   UNL A   1      46.953  25.943  32.405  1.00  0.00     0.023 A 
ATOM     85  C   UNL A   1      48.156  26.513  31.944  1.00  0.00     0.012 A 
ATOM     86  C   UNL A   1      46.990  24.985  33.439  1.00  0.00     0.148 A 
ATOM     87  C   UNL A   1      49.376  26.136  32.502  1.00  0.00     0.002 A 
ATOM     88  C   UNL A   1      48.206  24.650  34.022  1.00  0.00     0.091 A 
ATOM     89  F   UNL A   1      45.832  24.451  33.855  1.00  0.00    -0.205 F 
ATOM     90  C   UNL A   1      49.401  25.219  33.550  1.00  0.00     0.022 A 
BRANCH  88  91
ATOM     91  S   UNL A   1      48.334  23.558  35.444  1.00  0.00     0.127 S 
ATOM     92  O   UNL A   1      49.770  23.590  35.716  1.00  0.00    -0.237 OA
ATOM     93  O   UNL A   1      47.509  24.248  36.437  1.00  0.00    -0.237 OA
ATOM     94  O   UNL A   1      47.817  22.267  35.012  1.00  0.00    -0.744 OA
ENDBRANCH  88  91
ENDBRANCH  61  84
ENDBRANCH  35  36
ENDBRANCH  27  30
ENDBRANCH  25  26
ENDBRANCH  24  25
ENDBRANCH   1  24
TORSDOF 17
ENDMDL
MODEL 2
REMARK VINA RESULT:     -11.7      2.314      3.074
REMARK SMILES O=C(CSc1nnc(-c2cccc(C(F)(F)F)c2F)o1)NCCCNC(=O)c1ccc(-c2c3nc(c(-c4cccc(S(=O)(=O)[O-])c4F)c4ccc([nH]4)c(-c4cccc(S(=O)(=O)[O-])c4F)c4nc(c(-c5cccc(S(=O)(=O)[O-])c5F)c5ccc2[nH]5)C=C4)C=C3)cc1
REMARK SMILES IDX 22 1 21 2 1 3 2 4 3 6 4 7 5 8 6 9 20 10 7 11 8 12 9 13 10 14
REMARK SMILES IDX 18 15 11 16 13 17 19 18 12 19 14 20 15 21 16 22 17 23 23 24
REMARK SMILES IDX 24 25 25 26 26 27 27 29 28 30 29 31 90 32 30 33 89 34 31 35
REMARK SMILES IDX 32 36 33 37 83 38 34 39 88 40 82 41 84 42 35 43 87 44 81 45
REMARK SMILES IDX 80 46 36 48 68 49 48 50 67 51 49 52 52 53 66 54 85 55 50 56
REMARK SMILES IDX 51 57 65 59 86 60 53 61 37 62 38 63 46 64 39 65 41 66 47 67
REMARK SMILES IDX 40 68 42 69 43 70 44 71 45 72 69 73 70 74 78 75 71 76 73 77
REMARK SMILES IDX 79 78 72 79 74 80 75 81 76 82 77 83 54 84 55 85 63 86 56 87
REMARK SMILES IDX 58 88 64 89 57 90 59 91 60 92 61 93 62 94
REMARK H PARENT 21 5 25 28 84 47 52 58
REMARK Flexibility Score: inf
ROOT
ATOM      1  C   UNL A   1      33.488  27.731  23.491  1.00  0.00     0.117 C 
ENDROOT
BRANCH   1   2
ATOM      2  N   UNL A   1      32.427  26.814  23.862  1.00  0.00    -0.355 N 
ATOM      3  O   UNL A   1      31.147  27.131  21.980  1.00  0.00    -0.274 OA
ATOM      4  C   UNL A   1      31.337  26.566  23.052  1.00  0.00     0.230 C 
ATOM      5  H   UNL A   1      32.486  26.350  24.727  1.00  0.00     0.163 HD
BRANCH   4   6
ATOM      6  C   UNL A   1      30.354  25.550  23.612  1.00  0.00     0.179 C 
BRANCH   6   7
ATOM      7  S   UNL A   1      30.024  25.865  25.373  1.00  0.00    -0.055 SA
BRANCH   7   8
ATOM      8  C   UNL A   1      30.964  24.572  26.050  1.00  0.00     0.277 A 
ATOM      9  N   UNL A   1      30.770  24.063  27.248  1.00  0.00    -0.101 NA
ATOM     10  O   UNL A   1      31.965  23.941  25.363  1.00  0.00    -0.411 OA
ATOM     11  N   UNL A   1      31.664  23.020  27.379  1.00  0.00    -0.107 NA
ATOM     12  C   UNL A   1      32.353  22.980  26.256  1.00  0.00     0.251 A 
BRANCH  12  13
ATOM     13  C   UNL A   1      33.376  22.041  25.832  1.00  0.00     0.075 A 
ATOM     14  C   UNL A   1      34.728  22.401  25.943  1.00  0.00     0.017 A 
ATOM     15  C   UNL A   1      33.057  20.789  25.289  1.00  0.00     0.148 A 
ATOM     16  C   UNL A   1      35.734  21.523  25.538  1.00  0.00     0.002 A 
ATOM     17  C   UNL A   1      34.051  19.903  24.866  1.00  0.00     0.092 A 
ATOM     18  F   UNL A   1      31.770  20.443  25.143  1.00  0.00    -0.205 F 
ATOM     19  C   UNL A   1      35.398  20.283  25.001  1.00  0.00     0.016 A 
BRANCH  17  20
ATOM     20  C   UNL A   1      33.708  18.578  24.250  1.00  0.00     0.419 C 
ATOM     21  F   UNL A   1      33.001  17.790  25.112  1.00  0.00    -0.166 F 
ATOM     22  F   UNL A   1      32.913  18.715  23.150  1.00  0.00    -0.166 F 
ATOM     23  F   UNL A   1      34.767  17.828  23.851  1.00  0.00    -0.166 F 
ENDBRANCH  17  20
ENDBRANCH  12  13
ENDBRANCH   7   8
ENDBRANCH   6   7
ENDBRANCH   4   6
ENDBRANCH   1   2
BRANCH   1  24
ATOM     24  C   UNL A   1      33.267  29.138  24.034  1.00  0.00     0.042 C 
BRANCH  24  25
ATOM     25  C   UNL A   1      33.126  29.231  25.551  1.00  0.00     0.118 C 
BRANCH  25  26
ATOM     26  N   UNL A   1      32.824  30.574  26.021  1.00  0.00    -0.352 N 
ATOM     27  C   UNL A   1      33.413  31.332  27.003  1.00  0.00     0.251 C 
ATOM     28  H   UNL A   1      32.074  31.013  25.558  1.00  0.00     0.163 HD
ATOM     29  O   UNL A   1      32.890  32.400  27.314  1.00  0.00    -0.269 OA
BRANCH  27  30
ATOM     30  C   UNL A   1      34.645  30.887  27.701  1.00  0.00     0.039 A 
ATOM     31  C   UNL A   1      35.618  31.846  28.000  1.00  0.00     0.014 A 
ATOM     32  C   UNL A   1      34.885  29.545  28.008  1.00  0.00     0.014 A 
ATOM     33  C   UNL A   1      36.806  31.468  28.632  1.00  0.00     0.010 A 
ATOM     34  C   UNL A   1      36.035  29.181  28.709  1.00  0.00     0.010 A 
ATOM     35  C   UNL A   1      37.020  30.133  29.011  1.00  0.00    -0.014 A 
BRANCH  35  36
ATOM     36  C   UNL A   1      38.276  29.728  29.697  1.00  0.00     0.031 A 
ATOM     37  C   UNL A   1      38.618  30.276  31.059  1.00  0.00     0.074 A 
ATOM     38  C   UNL A   1      39.137  28.893  29.080  1.00  0.00     0.049 A 
ATOM     39  N   UNL A   1      39.656  30.018  31.812  1.00  0.00    -0.248 NA
ATOM     40  C   UNL A   1      37.688  31.257  31.645  1.00  0.00     0.031 C 
ATOM     41  C   UNL A   1      38.966  28.354  27.730  1.00  0.00     0.029 A 
ATOM     42  N   UNL A   1      40.333  28.361  29.499  1.00  0.00    -0.354 N 
ATOM     43  C   UNL A   1      39.519  30.819  32.939  1.00  0.00     0.074 A 
ATOM     44  C   UNL A   1      38.320  31.604  32.757  1.00  0.00     0.031 C 
ATOM     45  C   UNL A   1      40.003  27.553  27.441  1.00  0.00     0.029 A 
ATOM     46  C   UNL A   1      40.928  27.539  28.571  1.00  0.00     0.049 A 
ATOM     47  H   UNL A   1      40.726  28.551  30.381  1.00  0.00     0.167 HD
ATOM     48  C   UNL A   1      40.298  30.868  34.045  1.00  0.00     0.034 A 
ATOM     49  C   UNL A   1      42.086  26.847  28.622  1.00  0.00     0.034 A 
ATOM     50  C   UNL A   1      41.453  30.040  34.255  1.00  0.00     0.049 A 
ATOM     51  C   UNL A   1      42.916  26.892  29.876  1.00  0.00     0.074 A 
ATOM     52  C   UNL A   1      42.237  29.936  35.390  1.00  0.00     0.029 A 
ATOM     53  N   UNL A   1      41.994  29.179  33.313  1.00  0.00    -0.354 N 
ATOM     54  N   UNL A   1      42.674  27.521  31.001  1.00  0.00    -0.248 NA
ATOM     55  C   UNL A   1      44.164  26.112  29.884  1.00  0.00     0.031 C 
ATOM     56  C   UNL A   1      43.269  29.033  35.126  1.00  0.00     0.029 A 
ATOM     57  C   UNL A   1      43.114  28.558  33.833  1.00  0.00     0.049 A 
ATOM     58  H   UNL A   1      41.634  29.032  32.409  1.00  0.00     0.167 HD
ATOM     59  C   UNL A   1      43.723  27.198  31.855  1.00  0.00     0.074 A 
ATOM     60  C   UNL A   1      44.594  26.298  31.127  1.00  0.00     0.031 C 
ATOM     61  C   UNL A   1      43.950  27.625  33.120  1.00  0.00     0.034 A 
BRANCH  48  62
ATOM     62  C   UNL A   1      39.893  31.796  35.161  1.00  0.00     0.023 A 
ATOM     63  C   UNL A   1      40.311  33.142  35.124  1.00  0.00     0.012 A 
ATOM     64  C   UNL A   1      39.020  31.369  36.180  1.00  0.00     0.148 A 
ATOM     65  C   UNL A   1      39.886  34.043  36.098  1.00  0.00     0.002 A 
ATOM     66  C   UNL A   1      38.565  32.285  37.123  1.00  0.00     0.091 A 
ATOM     67  F   UNL A   1      38.647  30.083  36.205  1.00  0.00    -0.205 F 
ATOM     68  C   UNL A   1      39.004  33.619  37.088  1.00  0.00     0.022 A 
BRANCH  66  69
ATOM     69  S   UNL A   1      37.364  31.861  38.391  1.00  0.00     0.127 S 
ATOM     70  O   UNL A   1      38.114  32.149  39.613  1.00  0.00    -0.237 OA
ATOM     71  O   UNL A   1      36.276  32.798  38.108  1.00  0.00    -0.237 OA
ATOM     72  O   UNL A   1      37.033  30.459  38.179  1.00  0.00    -0.744 OA
ENDBRANCH  66  69
ENDBRANCH  48  62
BRANCH  49  73
ATOM     73  C   UNL A   1      42.477  25.988  27.468  1.00  0.00     0.023 A 
ATOM     74  C   UNL A   1      43.337  26.508  26.481  1.00  0.00     0.012 A 
ATOM     75  C   UNL A   1      42.061  24.644  27.379  1.00  0.00     0.148 A 
ATOM     76  C   UNL A   1      43.762  25.712  25.417  1.00  0.00     0.002 A 
ATOM     77  C   UNL A   1      42.533  23.841  26.347  1.00  0.00     0.091 A 
ATOM     78  F   UNL A   1      41.233  24.173  28.320  1.00  0.00    -0.205 F 
ATOM     79  C   UNL A   1      43.372  24.377  25.357  1.00  0.00     0.022 A 
BRANCH  77  80
ATOM     80  S   UNL A   1      42.198  22.078  26.265  1.00  0.00     0.127 S 
ATOM     81  O   UNL A   1      42.655  21.626  27.577  1.00  0.00    -0.237 OA
ATOM     82  O   UNL A   1      40.746  22.057  26.078  1.00  0.00    -0.237 OA
ATOM     83  O   UNL A   1      42.958  21.584  25.126  1.00  0.00    -0.744 OA
ENDBRANCH  77  80
ENDBRANCH  49  73
BRANCH  61  84
ATOM     84  C   UNL A   1      45.188  27.144  33.830  1.00  0.00     0.023 A 
ATOM     85  C   UNL A   1      46.349  27.941  33.804  1.00  0.00     0.012 A 
ATOM     86  C   UNL A   1      45.150  25.999  34.651  1.00  0.00     0.148 A 
ATOM     87  C   UNL A   1      47.455  27.604  34.582  1.00  0.00     0.002 A 
ATOM     88  C   UNL A   1      46.239  25.696  35.459  1.00  0.00     0.091 A 
ATOM     89  F   UNL A   1      44.036  25.252  34.652  1.00  0.00    -0.205 F 
ATOM     90  C   UNL A   1      47.395  26.493  35.421  1.00  0.00     0.022 A 
BRANCH  88  91
ATOM     91  S   UNL A   1      46.222  24.349  36.649  1.00  0.00     0.127 S 
ATOM     92  O   UNL A   1      45.090  24.717  37.499  1.00  0.00    -0.237 OA
ATOM     93  O   UNL A   1      45.989  23.185  35.793  1.00  0.00    -0.237 OA
ATOM     94  O   UNL A   1      47.521  24.374  37.306  1.00  0.00    -0.744 OA
ENDBRANCH  88  91
ENDBRANCH  61  84
ENDBRANCH  35  36
ENDBRANCH  27  30
ENDBRANCH  25  26
ENDBRANCH  24  25
ENDBRANCH   1  24
TORSDOF 17
ENDMDL
MODEL 3
REMARK VINA RESULT:     -11.6      1.301      1.740
REMARK SMILES O=C(CSc1nnc(-c2cccc(C(F)(F)F)c2F)o1)NCCCNC(=O)c1ccc(-c2c3nc(c(-c4cccc(S(=O)(=O)[O-])c4F)c4ccc([nH]4)c(-c4cccc(S(=O)(=O)[O-])c4F)c4nc(c(-c5cccc(S(=O)(=O)[O-])c5F)c5ccc2[nH]5)C=C4)C=C3)cc1
REMARK SMILES IDX 22 1 21 2 1 3 2 4 3 6 4 7 5 8 6 9 20 10 7 11 8 12 9 13 10 14
REMARK SMILES IDX 18 15 11 16 13 17 19 18 12 19 14 20 15 21 16 22 17 23 23 24
REMARK SMILES IDX 24 25 25 26 26 27 27 29 28 30 29 31 90 32 30 33 89 34 31 35
REMARK SMILES IDX 32 36 33 37 83 38 34 39 88 40 82 41 84 42 35 43 87 44 81 45
REMARK SMILES IDX 80 46 36 48 68 49 48 50 67 51 49 52 52 53 66 54 85 55 50 56
REMARK SMILES IDX 51 57 65 59 86 60 53 61 37 62 38 63 46 64 39 65 41 66 47 67
REMARK SMILES IDX 40 68 42 69 43 70 44 71 45 72 69 73 70 74 78 75 71 76 73 77
REMARK SMILES IDX 79 78 72 79 74 80 75 81 76 82 77 83 54 84 55 85 63 86 56 87
REMARK SMILES IDX 58 88 64 89 57 90 59 91 60 92 61 93 62 94
REMARK H PARENT 21 5 25 28 84 47 52 58
REMARK Flexibility Score: inf
ROOT
ATOM      1  C   UNL A   1      31.636  27.575  26.419  1.00  0.00     0.117 C 
ENDROOT
BRANCH   1   2
ATOM      2  N   UNL A   1      31.863  27.661  24.989  1.00  0.00    -0.355 N 
ATOM      3  O   UNL A   1      30.787  29.668  24.679  1.00  0.00    -0.274 OA
ATOM      4  C   UNL A   1      31.435  28.729  24.226  1.00  0.00     0.230 C 
ATOM      5  H   UNL A   1      32.342  26.926  24.543  1.00  0.00     0.163 HD
BRANCH   4   6
ATOM      6  C   UNL A   1      31.801  28.639  22.753  1.00  0.00     0.179 C 
BRANCH   6   7
ATOM      7  S   UNL A   1      33.570  28.271  22.543  1.00  0.00    -0.055 SA
BRANCH   7   8
ATOM      8  C   UNL A   1      33.447  26.569  22.226  1.00  0.00     0.277 A 
ATOM      9  N   UNL A   1      33.275  26.048  21.029  1.00  0.00    -0.101 NA
ATOM     10  O   UNL A   1      33.567  25.620  23.203  1.00  0.00    -0.411 OA
ATOM     11  N   UNL A   1      33.302  24.678  21.192  1.00  0.00    -0.107 NA
ATOM     12  C   UNL A   1      33.469  24.462  22.481  1.00  0.00     0.251 A 
BRANCH  12  13
ATOM     13  C   UNL A   1      33.632  23.208  23.195  1.00  0.00     0.075 A 
ATOM     14  C   UNL A   1      32.503  22.416  23.459  1.00  0.00     0.017 A 
ATOM     15  C   UNL A   1      34.881  22.769  23.652  1.00  0.00     0.148 A 
ATOM     16  C   UNL A   1      32.625  21.209  24.148  1.00  0.00     0.002 A 
ATOM     17  C   UNL A   1      35.020  21.570  24.355  1.00  0.00     0.092 A 
ATOM     18  F   UNL A   1      35.964  23.530  23.439  1.00  0.00    -0.205 F 
ATOM     19  C   UNL A   1      33.876  20.789  24.595  1.00  0.00     0.016 A 
BRANCH  17  20
ATOM     20  C   UNL A   1      36.354  21.120  24.879  1.00  0.00     0.419 C 
ATOM     21  F   UNL A   1      36.602  21.624  26.123  1.00  0.00    -0.166 F 
ATOM     22  F   UNL A   1      36.418  19.765  25.018  1.00  0.00    -0.166 F 
ATOM     23  F   UNL A   1      37.425  21.467  24.121  1.00  0.00    -0.166 F 
ENDBRANCH  17  20
ENDBRANCH  12  13
ENDBRANCH   7   8
ENDBRANCH   6   7
ENDBRANCH   4   6
ENDBRANCH   1   2
BRANCH   1  24
ATOM     24  C   UNL A   1      32.867  27.954  27.234  1.00  0.00     0.042 C 
BRANCH  24  25
ATOM     25  C   UNL A   1      33.808  28.949  26.559  1.00  0.00     0.118 C 
BRANCH  25  26
ATOM     26  N   UNL A   1      33.669  30.306  27.062  1.00  0.00    -0.352 N 
ATOM     27  C   UNL A   1      34.462  31.028  27.920  1.00  0.00     0.251 C 
ATOM     28  H   UNL A   1      32.874  30.788  26.735  1.00  0.00     0.163 HD
ATOM     29  O   UNL A   1      34.063  32.124  28.308  1.00  0.00    -0.269 OA
BRANCH  27  30
ATOM     30  C   UNL A   1      35.771  30.513  28.394  1.00  0.00     0.039 A 
ATOM     31  C   UNL A   1      36.915  30.841  27.660  1.00  0.00     0.014 A 
ATOM     32  C   UNL A   1      35.883  29.670  29.503  1.00  0.00     0.014 A 
ATOM     33  C   UNL A   1      38.165  30.354  28.054  1.00  0.00     0.010 A 
ATOM     34  C   UNL A   1      37.140  29.251  29.941  1.00  0.00     0.010 A 
ATOM     35  C   UNL A   1      38.294  29.570  29.211  1.00  0.00    -0.014 A 
BRANCH  35  36
ATOM     36  C   UNL A   1      39.625  29.063  29.643  1.00  0.00     0.031 A 
ATOM     37  C   UNL A   1      40.374  29.734  30.766  1.00  0.00     0.074 A 
ATOM     38  C   UNL A   1      40.185  28.018  29.000  1.00  0.00     0.049 A 
ATOM     39  N   UNL A   1      41.531  29.416  31.286  1.00  0.00    -0.248 NA
ATOM     40  C   UNL A   1      39.759  30.928  31.368  1.00  0.00     0.031 C 
ATOM     41  C   UNL A   1      39.602  27.328  27.848  1.00  0.00     0.029 A 
ATOM     42  N   UNL A   1      41.371  27.359  29.214  1.00  0.00    -0.354 N 
ATOM     43  C   UNL A   1      41.794  30.380  32.252  1.00  0.00     0.074 A 
ATOM     44  C   UNL A   1      40.696  31.320  32.220  1.00  0.00     0.031 C 
ATOM     45  C   UNL A   1      40.420  26.333  27.470  1.00  0.00     0.029 A 
ATOM     46  C   UNL A   1      41.597  26.327  28.334  1.00  0.00     0.049 A 
ATOM     47  H   UNL A   1      42.000  27.604  29.930  1.00  0.00     0.167 HD
ATOM     48  C   UNL A   1      42.833  30.456  33.116  1.00  0.00     0.034 A 
ATOM     49  C   UNL A   1      42.632  25.466  28.234  1.00  0.00     0.034 A 
ATOM     50  C   UNL A   1      43.889  29.485  33.193  1.00  0.00     0.049 A 
ATOM     51  C   UNL A   1      43.758  25.549  29.229  1.00  0.00     0.074 A 
ATOM     52  C   UNL A   1      44.921  29.414  34.111  1.00  0.00     0.029 A 
ATOM     53  N   UNL A   1      44.054  28.421  32.320  1.00  0.00    -0.354 N 
ATOM     54  N   UNL A   1      43.897  26.363  30.247  1.00  0.00    -0.248 NA
ATOM     55  C   UNL A   1      44.857  24.582  29.082  1.00  0.00     0.031 C 
ATOM     56  C   UNL A   1      45.728  28.324  33.777  1.00  0.00     0.029 A 
ATOM     57  C   UNL A   1      45.184  27.702  32.664  1.00  0.00     0.049 A 
ATOM     58  H   UNL A   1      43.457  28.209  31.567  1.00  0.00     0.167 HD
ATOM     59  C   UNL A   1      45.083  25.994  30.874  1.00  0.00     0.074 A 
ATOM     60  C   UNL A   1      45.614  24.868  30.134  1.00  0.00     0.031 C 
ATOM     61  C   UNL A   1      45.682  26.552  31.953  1.00  0.00     0.034 A 
BRANCH  48  62
ATOM     62  C   UNL A   1      42.850  31.586  34.112  1.00  0.00     0.023 A 
ATOM     63  C   UNL A   1      43.401  32.828  33.734  1.00  0.00     0.012 A 
ATOM     64  C   UNL A   1      42.235  31.456  35.372  1.00  0.00     0.148 A 
ATOM     65  C   UNL A   1      43.359  33.916  34.604  1.00  0.00     0.002 A 
ATOM     66  C   UNL A   1      42.158  32.558  36.216  1.00  0.00     0.091 A 
ATOM     67  F   UNL A   1      41.732  30.263  35.717  1.00  0.00    -0.205 F 
ATOM     68  C   UNL A   1      42.727  33.785  35.837  1.00  0.00     0.022 A 
BRANCH  66  69
ATOM     69  S   UNL A   1      41.295  32.519  37.792  1.00  0.00     0.127 S 
ATOM     70  O   UNL A   1      42.071  31.520  38.526  1.00  0.00    -0.237 OA
ATOM     71  O   UNL A   1      41.463  33.892  38.268  1.00  0.00    -0.237 OA
ATOM     72  O   UNL A   1      39.922  32.141  37.489  1.00  0.00    -0.744 OA
ENDBRANCH  66  69
ENDBRANCH  48  62
BRANCH  49  73
ATOM     73  C   UNL A   1      42.600  24.398  27.193  1.00  0.00     0.023 A 
ATOM     74  C   UNL A   1      43.260  24.610  25.967  1.00  0.00     0.012 A 
ATOM     75  C   UNL A   1      41.980  23.156  27.435  1.00  0.00     0.148 A 
ATOM     76  C   UNL A   1      43.291  23.610  24.995  1.00  0.00     0.002 A 
ATOM     77  C   UNL A   1      42.063  22.145  26.484  1.00  0.00     0.091 A 
ATOM     78  F   UNL A   1      41.346  22.980  28.602  1.00  0.00    -0.205 F 
ATOM     79  C   UNL A   1      42.705  22.375  25.258  1.00  0.00     0.022 A 
BRANCH  77  80
ATOM     80  S   UNL A   1      41.461  20.480  26.790  1.00  0.00     0.127 S 
ATOM     81  O   UNL A   1      40.051  20.721  27.087  1.00  0.00    -0.237 OA
ATOM     82  O   UNL A   1      41.716  19.828  25.503  1.00  0.00    -0.237 OA
ATOM     83  O   UNL A   1      42.261  19.967  27.892  1.00  0.00    -0.744 OA
ENDBRANCH  77  80
ENDBRANCH  49  73
BRANCH  61  84
ATOM     84  C   UNL A   1      46.992  25.978  32.425  1.00  0.00     0.023 A 
ATOM     85  C   UNL A   1      46.995  25.052  33.486  1.00  0.00     0.012 A 
ATOM     86  C   UNL A   1      48.185  26.225  31.716  1.00  0.00     0.148 A 
ATOM     87  C   UNL A   1      48.166  24.383  33.837  1.00  0.00     0.002 A 
ATOM     88  C   UNL A   1      49.337  25.521  32.041  1.00  0.00     0.091 A 
ATOM     89  F   UNL A   1      48.158  27.117  30.714  1.00  0.00    -0.205 F 
ATOM     90  C   UNL A   1      49.331  24.604  33.107  1.00  0.00     0.022 A 
BRANCH  88  91
ATOM     91  S   UNL A   1      50.860  25.656  31.096  1.00  0.00     0.127 S 
ATOM     92  O   UNL A   1      50.423  25.231  29.767  1.00  0.00    -0.237 OA
ATOM     93  O   UNL A   1      51.168  27.081  31.211  1.00  0.00    -0.237 OA
ATOM     94  O   UNL A   1      51.817  24.770  31.743  1.00  0.00    -0.744 OA
ENDBRANCH  88  91
ENDBRANCH  61  84
ENDBRANCH  35  36
ENDBRANCH  27  30
ENDBRANCH  25  26
ENDBRANCH  24  25
ENDBRANCH   1  24
TORSDOF 17
ENDMDL
