MODEL 1
REMARK VINA RESULT:     -12.5      0.000      0.000
REMARK SMILES C[C@@H](C(=O)NCCCNC(=O)c1ccc(-c2c3nc(c(-c4cccc(S(=O)(=O)[O-])c4F)c4ccc([nH]4)c(-c4cccc(S(=O)(=O)[O-])c4F)c4nc(c(-c5cccc(S(=O)(=O)[O-])c5F)c5ccc2[nH]5)C=C4)C=C3)cc1)c1cccc(C(=O)c2ccccc2)c1
REMARK SMILES IDX 7 1 6 2 5 3 3 4 4 5 2 7 1 8 75 9 76 10 88 11 77 12 79 13
REMARK SMILES IDX 78 14 80 15 81 16 82 17 83 18 87 19 84 20 86 21 85 22 8 23
REMARK SMILES IDX 9 24 10 25 11 27 12 28 13 29 74 30 14 31 73 32 15 33 16 34
REMARK SMILES IDX 17 35 67 36 18 37 72 38 66 39 68 40 19 41 71 42 65 43 64 44
REMARK SMILES IDX 20 46 52 47 32 48 51 49 33 50 36 51 50 52 69 53 34 54 35 55
REMARK SMILES IDX 49 57 70 58 37 59 21 60 22 61 30 62 23 63 25 64 31 65 24 66
REMARK SMILES IDX 26 67 27 68 28 69 29 70 53 71 54 72 62 73 55 74 57 75 63 76
REMARK SMILES IDX 56 77 58 78 59 79 60 80 61 81 38 82 39 83 47 84 40 85 42 86
REMARK SMILES IDX 48 87 41 88 43 89 44 90 45 91 46 92
REMARK H PARENT 5 6 9 26 68 45 36 56
REMARK Flexibility Score: inf
ROOT
ATOM      1  C   UNL A   1      31.543  29.022  27.004  1.00  0.00     0.042 C 
ENDROOT
BRANCH   1   2
ATOM      2  C   UNL A   1      32.229  27.713  27.393  1.00  0.00     0.117 C 
BRANCH   2   3
ATOM      3  N   UNL A   1      31.344  26.571  27.263  1.00  0.00    -0.356 N 
ATOM      4  C   UNL A   1      31.265  25.607  26.302  1.00  0.00     0.227 C 
ATOM      5  O   UNL A   1      30.424  24.725  26.489  1.00  0.00    -0.274 OA
ATOM      6  H   UNL A   1      30.691  26.475  27.992  1.00  0.00     0.163 HD
BRANCH   4   7
ATOM      7  C   UNL A   1      32.216  25.623  25.088  1.00  0.00     0.105 C 
ATOM      8  C   UNL A   1      33.689  25.771  25.491  1.00  0.00     0.023 C 
BRANCH   7   9
ATOM      9  C   UNL A   1      31.907  26.743  24.094  1.00  0.00    -0.035 A 
ATOM     10  C   UNL A   1      32.935  27.416  23.422  1.00  0.00     0.004 A 
ATOM     11  C   UNL A   1      30.584  27.180  23.908  1.00  0.00     0.016 A 
ATOM     12  C   UNL A   1      32.645  28.506  22.596  1.00  0.00     0.001 A 
ATOM     13  C   UNL A   1      30.285  28.289  23.109  1.00  0.00     0.023 A 
ATOM     14  C   UNL A   1      31.327  28.944  22.445  1.00  0.00     0.012 A 
BRANCH  13  15
ATOM     15  C   UNL A   1      28.885  28.775  22.924  1.00  0.00     0.193 C 
ATOM     16  O   UNL A   1      27.937  28.022  23.131  1.00  0.00    -0.289 OA
BRANCH  15  17
ATOM     17  C   UNL A   1      28.607  30.178  22.533  1.00  0.00     0.022 A 
ATOM     18  C   UNL A   1      28.779  31.181  23.491  1.00  0.00     0.012 A 
ATOM     19  C   UNL A   1      28.200  30.507  21.234  1.00  0.00     0.012 A 
ATOM     20  C   UNL A   1      28.600  32.518  23.135  1.00  0.00     0.001 A 
ATOM     21  C   UNL A   1      28.030  31.847  20.881  1.00  0.00     0.001 A 
ATOM     22  C   UNL A   1      28.237  32.850  21.829  1.00  0.00     0.000 A 
ENDBRANCH  15  17
ENDBRANCH  13  15
ENDBRANCH   7   9
ENDBRANCH   4   7
ENDBRANCH   2   3
ENDBRANCH   1   2
BRANCH   1  23
ATOM     23  C   UNL A   1      32.344  29.911  26.054  1.00  0.00     0.118 C 
BRANCH  23  24
ATOM     24  N   UNL A   1      32.242  31.325  26.381  1.00  0.00    -0.352 N 
ATOM     25  C   UNL A   1      32.974  32.100  27.243  1.00  0.00     0.251 C 
ATOM     26  H   UNL A   1      31.526  31.804  25.905  1.00  0.00     0.163 HD
ATOM     27  O   UNL A   1      32.582  33.241  27.484  1.00  0.00    -0.269 OA
BRANCH  25  28
ATOM     28  C   UNL A   1      34.207  31.595  27.892  1.00  0.00     0.039 A 
ATOM     29  C   UNL A   1      35.186  32.524  28.263  1.00  0.00     0.014 A 
ATOM     30  C   UNL A   1      34.445  30.231  28.082  1.00  0.00     0.014 A 
ATOM     31  C   UNL A   1      36.370  32.092  28.866  1.00  0.00     0.010 A 
ATOM     32  C   UNL A   1      35.598  29.806  28.748  1.00  0.00     0.010 A 
ATOM     33  C   UNL A   1      36.576  30.729  29.141  1.00  0.00    -0.014 A 
BRANCH  33  34
ATOM     34  C   UNL A   1      37.795  30.284  29.867  1.00  0.00     0.031 A 
ATOM     35  C   UNL A   1      38.087  30.760  31.265  1.00  0.00     0.074 A 
ATOM     36  C   UNL A   1      38.674  29.477  29.240  1.00  0.00     0.049 A 
ATOM     37  N   UNL A   1      39.084  30.440  32.050  1.00  0.00    -0.248 NA
ATOM     38  C   UNL A   1      37.156  31.737  31.850  1.00  0.00     0.031 C 
ATOM     39  C   UNL A   1      38.557  29.022  27.852  1.00  0.00     0.029 A 
ATOM     40  N   UNL A   1      39.845  28.911  29.677  1.00  0.00    -0.354 N 
ATOM     41  C   UNL A   1      38.916  31.188  33.209  1.00  0.00     0.074 A 
ATOM     42  C   UNL A   1      37.739  32.008  33.011  1.00  0.00     0.031 C 
ATOM     43  C   UNL A   1      39.606  28.237  27.557  1.00  0.00     0.029 A 
ATOM     44  C   UNL A   1      40.478  28.147  28.725  1.00  0.00     0.049 A 
ATOM     45  H   UNL A   1      40.199  29.039  30.587  1.00  0.00     0.167 HD
ATOM     46  C   UNL A   1      39.649  31.172  34.349  1.00  0.00     0.034 A 
ATOM     47  C   UNL A   1      41.627  27.447  28.782  1.00  0.00     0.034 A 
ATOM     48  C   UNL A   1      40.797  30.329  34.561  1.00  0.00     0.049 A 
ATOM     49  C   UNL A   1      42.389  27.396  30.078  1.00  0.00     0.074 A 
ATOM     50  C   UNL A   1      41.555  30.177  35.709  1.00  0.00     0.029 A 
ATOM     51  N   UNL A   1      41.360  29.501  33.602  1.00  0.00    -0.354 N 
ATOM     52  N   UNL A   1      42.111  27.974  31.221  1.00  0.00    -0.248 NA
ATOM     53  C   UNL A   1      43.598  26.561  30.104  1.00  0.00     0.031 C 
ATOM     54  C   UNL A   1      42.585  29.269  35.439  1.00  0.00     0.029 A 
ATOM     55  C   UNL A   1      42.458  28.840  34.128  1.00  0.00     0.049 A 
ATOM     56  H   UNL A   1      41.027  29.396  32.681  1.00  0.00     0.167 HD
ATOM     57  C   UNL A   1      43.095  27.555  32.109  1.00  0.00     0.074 A 
ATOM     58  C   UNL A   1      43.955  26.645  31.378  1.00  0.00     0.031 C 
ATOM     59  C   UNL A   1      43.284  27.907  33.405  1.00  0.00     0.034 A 
BRANCH  46  60
ATOM     60  C   UNL A   1      39.192  32.046  35.488  1.00  0.00     0.023 A 
ATOM     61  C   UNL A   1      38.287  31.526  36.437  1.00  0.00     0.012 A 
ATOM     62  C   UNL A   1      39.698  33.350  35.661  1.00  0.00     0.148 A 
ATOM     63  C   UNL A   1      37.868  32.298  37.521  1.00  0.00     0.002 A 
ATOM     64  C   UNL A   1      39.307  34.099  36.767  1.00  0.00     0.091 A 
ATOM     65  F   UNL A   1      40.540  33.837  34.740  1.00  0.00    -0.205 F 
ATOM     66  C   UNL A   1      38.385  33.578  37.691  1.00  0.00     0.022 A 
BRANCH  64  67
ATOM     67  S   UNL A   1      39.973  35.730  37.117  1.00  0.00     0.127 S 
ATOM     68  O   UNL A   1      39.654  36.450  35.885  1.00  0.00    -0.237 OA
ATOM     69  O   UNL A   1      39.188  36.140  38.283  1.00  0.00    -0.237 OA
ATOM     70  O   UNL A   1      41.391  35.536  37.380  1.00  0.00    -0.744 OA
ENDBRANCH  64  67
ENDBRANCH  46  60
BRANCH  47  71
ATOM     71  C   UNL A   1      42.081  26.671  27.594  1.00  0.00     0.023 A 
ATOM     72  C   UNL A   1      42.836  27.314  26.594  1.00  0.00     0.012 A 
ATOM     73  C   UNL A   1      41.806  25.295  27.470  1.00  0.00     0.148 A 
ATOM     74  C   UNL A   1      43.284  26.607  25.477  1.00  0.00     0.002 A 
ATOM     75  C   UNL A   1      42.305  24.586  26.384  1.00  0.00     0.091 A 
ATOM     76  F   UNL A   1      41.073  24.705  28.425  1.00  0.00    -0.205 F 
ATOM     77  C   UNL A   1      43.029  25.242  25.377  1.00  0.00     0.022 A 
BRANCH  75  78
ATOM     78  S   UNL A   1      42.146  22.800  26.255  1.00  0.00     0.127 S 
ATOM     79  O   UNL A   1      40.694  22.630  26.232  1.00  0.00    -0.237 OA
ATOM     80  O   UNL A   1      42.818  22.526  24.983  1.00  0.00    -0.237 OA
ATOM     81  O   UNL A   1      42.832  22.262  27.420  1.00  0.00    -0.744 OA
ENDBRANCH  75  78
ENDBRANCH  47  71
BRANCH  59  82
ATOM     82  C   UNL A   1      44.463  27.301  34.121  1.00  0.00     0.023 A 
ATOM     83  C   UNL A   1      45.720  27.939  34.056  1.00  0.00     0.012 A 
ATOM     84  C   UNL A   1      44.323  26.131  34.891  1.00  0.00     0.148 A 
ATOM     85  C   UNL A   1      46.825  27.397  34.712  1.00  0.00     0.002 A 
ATOM     86  C   UNL A   1      45.419  25.623  35.581  1.00  0.00     0.091 A 
ATOM     87  F   UNL A   1      43.127  25.526  34.926  1.00  0.00    -0.205 F 
ATOM     88  C   UNL A   1      46.673  26.247  35.481  1.00  0.00     0.022 A 
BRANCH  86  89
ATOM     89  S   UNL A   1      45.290  24.198  36.667  1.00  0.00     0.127 S 
ATOM     90  O   UNL A   1      46.660  24.075  37.163  1.00  0.00    -0.237 OA
ATOM     91  O   UNL A   1      44.318  24.649  37.665  1.00  0.00    -0.237 OA
ATOM     92  O   UNL A   1      44.823  23.102  35.827  1.00  0.00    -0.744 OA
ENDBRANCH  86  89
ENDBRANCH  59  82
ENDBRANCH  33  34
ENDBRANCH  25  28
ENDBRANCH  23  24
ENDBRANCH   1  23
TORSDOF 16
ENDMDL
MODEL 2
REMARK VINA RESULT:     -12.5      3.042      5.095
REMARK SMILES C[C@@H](C(=O)NCCCNC(=O)c1ccc(-c2c3nc(c(-c4cccc(S(=O)(=O)[O-])c4F)c4ccc([nH]4)c(-c4cccc(S(=O)(=O)[O-])c4F)c4nc(c(-c5cccc(S(=O)(=O)[O-])c5F)c5ccc2[nH]5)C=C4)C=C3)cc1)c1cccc(C(=O)c2ccccc2)c1
REMARK SMILES IDX 7 1 6 2 5 3 3 4 4 5 2 7 1 8 75 9 76 10 88 11 77 12 79 13
REMARK SMILES IDX 78 14 80 15 81 16 82 17 83 18 87 19 84 20 86 21 85 22 8 23
REMARK SMILES IDX 9 24 10 25 11 27 12 28 13 29 74 30 14 31 73 32 15 33 16 34
REMARK SMILES IDX 17 35 67 36 18 37 72 38 66 39 68 40 19 41 71 42 65 43 64 44
REMARK SMILES IDX 20 46 52 47 32 48 51 49 33 50 36 51 50 52 69 53 34 54 35 55
REMARK SMILES IDX 49 57 70 58 37 59 21 60 22 61 30 62 23 63 25 64 31 65 24 66
REMARK SMILES IDX 26 67 27 68 28 69 29 70 53 71 54 72 62 73 55 74 57 75 63 76
REMARK SMILES IDX 56 77 58 78 59 79 60 80 61 81 38 82 39 83 47 84 40 85 42 86
REMARK SMILES IDX 48 87 41 88 43 89 44 90 45 91 46 92
REMARK H PARENT 5 6 9 26 68 45 36 56
REMARK Flexibility Score: inf
ROOT
ATOM      1  C   UNL A   1      33.214  27.724  26.497  1.00  0.00     0.042 C 
ENDROOT
BRANCH   1   2
ATOM      2  C   UNL A   1      31.699  27.821  26.326  1.00  0.00     0.117 C 
BRANCH   2   3
ATOM      3  N   UNL A   1      31.027  26.587  26.682  1.00  0.00    -0.356 N 
ATOM      4  C   UNL A   1      30.831  25.439  25.973  1.00  0.00     0.227 C 
ATOM      5  O   UNL A   1      30.250  24.529  26.568  1.00  0.00    -0.274 OA
ATOM      6  H   UNL A   1      30.648  26.575  27.590  1.00  0.00     0.163 HD
BRANCH   4   7
ATOM      7  C   UNL A   1      31.357  25.304  24.530  1.00  0.00     0.105 C 
ATOM      8  C   UNL A   1      30.302  24.748  23.564  1.00  0.00     0.023 C 
BRANCH   7   9
ATOM      9  C   UNL A   1      32.588  24.404  24.418  1.00  0.00    -0.035 A 
ATOM     10  C   UNL A   1      33.708  24.802  23.677  1.00  0.00     0.004 A 
ATOM     11  C   UNL A   1      32.579  23.117  24.982  1.00  0.00     0.016 A 
ATOM     12  C   UNL A   1      34.784  23.928  23.498  1.00  0.00     0.001 A 
ATOM     13  C   UNL A   1      33.636  22.222  24.782  1.00  0.00     0.023 A 
ATOM     14  C   UNL A   1      34.745  22.642  24.042  1.00  0.00     0.012 A 
BRANCH  13  15
ATOM     15  C   UNL A   1      33.624  20.845  25.358  1.00  0.00     0.193 C 
ATOM     16  O   UNL A   1      33.650  20.682  26.575  1.00  0.00    -0.289 OA
BRANCH  15  17
ATOM     17  C   UNL A   1      33.536  19.649  24.484  1.00  0.00     0.022 A 
ATOM     18  C   UNL A   1      34.501  18.649  24.628  1.00  0.00     0.012 A 
ATOM     19  C   UNL A   1      32.505  19.504  23.547  1.00  0.00     0.012 A 
ATOM     20  C   UNL A   1      34.403  17.478  23.875  1.00  0.00     0.001 A 
ATOM     21  C   UNL A   1      32.408  18.328  22.802  1.00  0.00     0.001 A 
ATOM     22  C   UNL A   1      33.352  17.314  22.973  1.00  0.00     0.000 A 
ENDBRANCH  15  17
ENDBRANCH  13  15
ENDBRANCH   7   9
ENDBRANCH   4   7
ENDBRANCH   2   3
ENDBRANCH   1   2
BRANCH   1  23
ATOM     23  C   UNL A   1      34.009  28.863  25.859  1.00  0.00     0.118 C 
BRANCH  23  24
ATOM     24  N   UNL A   1      33.801  30.140  26.523  1.00  0.00    -0.352 N 
ATOM     25  C   UNL A   1      34.490  30.741  27.545  1.00  0.00     0.251 C 
ATOM     26  H   UNL A   1      33.037  30.658  26.182  1.00  0.00     0.163 HD
ATOM     27  O   UNL A   1      34.013  31.751  28.060  1.00  0.00    -0.269 OA
BRANCH  25  28
ATOM     28  C   UNL A   1      35.776  30.199  28.044  1.00  0.00     0.039 A 
ATOM     29  C   UNL A   1      36.916  30.370  27.251  1.00  0.00     0.014 A 
ATOM     30  C   UNL A   1      35.869  29.478  29.238  1.00  0.00     0.014 A 
ATOM     31  C   UNL A   1      38.148  29.865  27.675  1.00  0.00     0.010 A 
ATOM     32  C   UNL A   1      37.114  29.035  29.695  1.00  0.00     0.010 A 
ATOM     33  C   UNL A   1      38.265  29.217  28.916  1.00  0.00    -0.014 A 
BRANCH  33  34
ATOM     34  C   UNL A   1      39.594  28.765  29.407  1.00  0.00     0.031 A 
ATOM     35  C   UNL A   1      40.302  29.489  30.521  1.00  0.00     0.074 A 
ATOM     36  C   UNL A   1      40.192  27.716  28.808  1.00  0.00     0.049 A 
ATOM     37  N   UNL A   1      41.445  29.204  31.090  1.00  0.00    -0.248 NA
ATOM     38  C   UNL A   1      39.657  30.701  31.051  1.00  0.00     0.031 C 
ATOM     39  C   UNL A   1      39.657  26.987  27.655  1.00  0.00     0.029 A 
ATOM     40  N   UNL A   1      41.385  27.091  29.071  1.00  0.00    -0.354 N 
ATOM     41  C   UNL A   1      41.669  30.208  32.025  1.00  0.00     0.074 A 
ATOM     42  C   UNL A   1      40.559  31.131  31.923  1.00  0.00     0.031 C 
ATOM     43  C   UNL A   1      40.511  26.008  27.319  1.00  0.00     0.029 A 
ATOM     44  C   UNL A   1      41.661  26.048  28.217  1.00  0.00     0.049 A 
ATOM     45  H   UNL A   1      41.986  27.362  29.802  1.00  0.00     0.167 HD
ATOM     46  C   UNL A   1      42.685  30.333  32.914  1.00  0.00     0.034 A 
ATOM     47  C   UNL A   1      42.716  25.213  28.165  1.00  0.00     0.034 A 
ATOM     48  C   UNL A   1      43.770  29.395  33.042  1.00  0.00     0.049 A 
ATOM     49  C   UNL A   1      43.800  25.336  29.201  1.00  0.00     0.074 A 
ATOM     50  C   UNL A   1      44.799  29.389  33.966  1.00  0.00     0.029 A 
ATOM     51  N   UNL A   1      43.971  28.300  32.216  1.00  0.00    -0.354 N 
ATOM     52  N   UNL A   1      43.900  26.188  30.192  1.00  0.00    -0.248 NA
ATOM     53  C   UNL A   1      44.893  24.354  29.138  1.00  0.00     0.031 C 
ATOM     54  C   UNL A   1      45.633  28.299  33.690  1.00  0.00     0.029 A 
ATOM     55  C   UNL A   1      45.111  27.614  32.604  1.00  0.00     0.049 A 
ATOM     56  H   UNL A   1      43.389  28.045  31.464  1.00  0.00     0.167 HD
ATOM     57  C   UNL A   1      45.052  25.833  30.885  1.00  0.00     0.074 A 
ATOM     58  C   UNL A   1      45.594  24.665  30.219  1.00  0.00     0.031 C 
ATOM     59  C   UNL A   1      45.621  26.431  31.960  1.00  0.00     0.034 A 
BRANCH  46  60
ATOM     60  C   UNL A   1      42.638  31.497  33.870  1.00  0.00     0.023 A 
ATOM     61  C   UNL A   1      43.174  32.740  33.472  1.00  0.00     0.012 A 
ATOM     62  C   UNL A   1      42.015  31.388  35.129  1.00  0.00     0.148 A 
ATOM     63  C   UNL A   1      43.119  33.845  34.321  1.00  0.00     0.002 A 
ATOM     64  C   UNL A   1      41.927  32.505  35.954  1.00  0.00     0.091 A 
ATOM     65  F   UNL A   1      41.530  30.195  35.502  1.00  0.00    -0.205 F 
ATOM     66  C   UNL A   1      42.488  33.730  35.555  1.00  0.00     0.022 A 
BRANCH  64  67
ATOM     67  S   UNL A   1      41.069  32.481  37.531  1.00  0.00     0.127 S 
ATOM     68  O   UNL A   1      39.768  31.932  37.151  1.00  0.00    -0.237 OA
ATOM     69  O   UNL A   1      41.903  31.576  38.324  1.00  0.00    -0.237 OA
ATOM     70  O   UNL A   1      41.054  33.859  38.000  1.00  0.00    -0.744 OA
ENDBRANCH  64  67
ENDBRANCH  46  60
BRANCH  47  71
ATOM     71  C   UNL A   1      42.755  24.134  27.138  1.00  0.00     0.023 A 
ATOM     72  C   UNL A   1      43.531  24.310  25.976  1.00  0.00     0.012 A 
ATOM     73  C   UNL A   1      42.064  22.921  27.326  1.00  0.00     0.148 A 
ATOM     74  C   UNL A   1      43.594  23.309  25.005  1.00  0.00     0.002 A 
ATOM     75  C   UNL A   1      42.179  21.907  26.382  1.00  0.00     0.091 A 
ATOM     76  F   UNL A   1      41.319  22.777  28.431  1.00  0.00    -0.205 F 
ATOM     77  C   UNL A   1      42.928  22.105  25.213  1.00  0.00     0.022 A 
BRANCH  75  78
ATOM     78  S   UNL A   1      41.473  20.275  26.644  1.00  0.00     0.127 S 
ATOM     79  O   UNL A   1      40.048  20.580  26.759  1.00  0.00    -0.237 OA
ATOM     80  O   UNL A   1      41.856  19.578  25.414  1.00  0.00    -0.237 OA
ATOM     81  O   UNL A   1      42.113  19.760  27.845  1.00  0.00    -0.744 OA
ENDBRANCH  75  78
ENDBRANCH  47  71
BRANCH  59  82
ATOM     82  C   UNL A   1      46.896  25.827  32.492  1.00  0.00     0.023 A 
ATOM     83  C   UNL A   1      48.138  26.290  32.011  1.00  0.00     0.012 A 
ATOM     84  C   UNL A   1      46.869  24.839  33.495  1.00  0.00     0.148 A 
ATOM     85  C   UNL A   1      49.330  25.748  32.489  1.00  0.00     0.002 A 
ATOM     86  C   UNL A   1      48.064  24.337  34.000  1.00  0.00     0.091 A 
ATOM     87  F   UNL A   1      45.680  24.395  33.927  1.00  0.00    -0.205 F 
ATOM     88  C   UNL A   1      49.294  24.781  33.489  1.00  0.00     0.022 A 
BRANCH  86  89
ATOM     89  S   UNL A   1      48.108  23.154  35.352  1.00  0.00     0.127 S 
ATOM     90  O   UNL A   1      47.482  21.982  34.744  1.00  0.00    -0.237 OA
ATOM     91  O   UNL A   1      49.544  23.018  35.604  1.00  0.00    -0.237 OA
ATOM     92  O   UNL A   1      47.364  23.773  36.442  1.00  0.00    -0.744 OA
ENDBRANCH  86  89
ENDBRANCH  59  82
ENDBRANCH  33  34
ENDBRANCH  25  28
ENDBRANCH  23  24
ENDBRANCH   1  23
TORSDOF 16
ENDMDL
MODEL 3
REMARK VINA RESULT:     -12.5      2.086      3.816
REMARK SMILES C[C@@H](C(=O)NCCCNC(=O)c1ccc(-c2c3nc(c(-c4cccc(S(=O)(=O)[O-])c4F)c4ccc([nH]4)c(-c4cccc(S(=O)(=O)[O-])c4F)c4nc(c(-c5cccc(S(=O)(=O)[O-])c5F)c5ccc2[nH]5)C=C4)C=C3)cc1)c1cccc(C(=O)c2ccccc2)c1
REMARK SMILES IDX 7 1 6 2 5 3 3 4 4 5 2 7 1 8 75 9 76 10 88 11 77 12 79 13
REMARK SMILES IDX 78 14 80 15 81 16 82 17 83 18 87 19 84 20 86 21 85 22 8 23
REMARK SMILES IDX 9 24 10 25 11 27 12 28 13 29 74 30 14 31 73 32 15 33 16 34
REMARK SMILES IDX 17 35 67 36 18 37 72 38 66 39 68 40 19 41 71 42 65 43 64 44
REMARK SMILES IDX 20 46 52 47 32 48 51 49 33 50 36 51 50 52 69 53 34 54 35 55
REMARK SMILES IDX 49 57 70 58 37 59 21 60 22 61 30 62 23 63 25 64 31 65 24 66
REMARK SMILES IDX 26 67 27 68 28 69 29 70 53 71 54 72 62 73 55 74 57 75 63 76
REMARK SMILES IDX 56 77 58 78 59 79 60 80 61 81 38 82 39 83 47 84 40 85 42 86
REMARK SMILES IDX 48 87 41 88 43 89 44 90 45 91 46 92
REMARK H PARENT 5 6 9 26 68 45 36 56
REMARK Flexibility Score: inf
ROOT
ATOM      1  C   UNL A   1      33.236  27.998  26.649  1.00  0.00     0.042 C 
ENDROOT
BRANCH   1   2
ATOM      2  C   UNL A   1      31.771  28.171  27.049  1.00  0.00     0.117 C 
BRANCH   2   3
ATOM      3  N   UNL A   1      31.058  26.909  27.079  1.00  0.00    -0.356 N 
ATOM      4  C   UNL A   1      30.350  26.259  26.112  1.00  0.00     0.227 C 
ATOM      5  O   UNL A   1      29.885  25.162  26.429  1.00  0.00    -0.274 OA
ATOM      6  H   UNL A   1      31.092  26.441  27.944  1.00  0.00     0.163 HD
BRANCH   4   7
ATOM      7  C   UNL A   1      30.197  26.867  24.704  1.00  0.00     0.105 C 
ATOM      8  C   UNL A   1      29.047  26.236  23.907  1.00  0.00     0.023 C 
BRANCH   7   9
ATOM      9  C   UNL A   1      31.459  26.739  23.850  1.00  0.00    -0.035 A 
ATOM     10  C   UNL A   1      31.905  27.803  23.057  1.00  0.00     0.004 A 
ATOM     11  C   UNL A   1      32.143  25.513  23.776  1.00  0.00     0.016 A 
ATOM     12  C   UNL A   1      33.000  27.638  22.203  1.00  0.00     0.001 A 
ATOM     13  C   UNL A   1      33.219  25.327  22.902  1.00  0.00     0.023 A 
ATOM     14  C   UNL A   1      33.650  26.404  22.122  1.00  0.00     0.012 A 
BRANCH  13  15
ATOM     15  C   UNL A   1      33.936  24.021  22.800  1.00  0.00     0.193 C 
ATOM     16  O   UNL A   1      33.632  23.214  21.925  1.00  0.00    -0.289 OA
BRANCH  15  17
ATOM     17  C   UNL A   1      35.055  23.688  23.715  1.00  0.00     0.022 A 
ATOM     18  C   UNL A   1      34.984  24.130  25.039  1.00  0.00     0.012 A 
ATOM     19  C   UNL A   1      36.152  22.932  23.282  1.00  0.00     0.012 A 
ATOM     20  C   UNL A   1      35.982  23.769  25.944  1.00  0.00     0.001 A 
ATOM     21  C   UNL A   1      37.143  22.567  24.195  1.00  0.00     0.001 A 
ATOM     22  C   UNL A   1      37.053  22.980  25.525  1.00  0.00     0.000 A 
ENDBRANCH  15  17
ENDBRANCH  13  15
ENDBRANCH   7   9
ENDBRANCH   4   7
ENDBRANCH   2   3
ENDBRANCH   1   2
BRANCH   1  23
ATOM     23  C   UNL A   1      33.811  29.133  25.801  1.00  0.00     0.118 C 
BRANCH  23  24
ATOM     24  N   UNL A   1      33.408  30.449  26.270  1.00  0.00    -0.352 N 
ATOM     25  C   UNL A   1      33.907  31.233  27.279  1.00  0.00     0.251 C 
ATOM     26  H   UNL A   1      32.649  30.843  25.782  1.00  0.00     0.163 HD
ATOM     27  O   UNL A   1      33.282  32.241  27.604  1.00  0.00    -0.269 OA
BRANCH  25  28
ATOM     28  C   UNL A   1      35.164  30.889  27.985  1.00  0.00     0.039 A 
ATOM     29  C   UNL A   1      35.189  29.724  28.760  1.00  0.00     0.014 A 
ATOM     30  C   UNL A   1      36.290  31.717  27.950  1.00  0.00     0.014 A 
ATOM     31  C   UNL A   1      36.349  29.368  29.452  1.00  0.00     0.010 A 
ATOM     32  C   UNL A   1      37.471  31.324  28.586  1.00  0.00     0.010 A 
ATOM     33  C   UNL A   1      37.512  30.150  29.349  1.00  0.00    -0.014 A 
BRANCH  33  34
ATOM     34  C   UNL A   1      38.771  29.717  30.012  1.00  0.00     0.031 A 
ATOM     35  C   UNL A   1      39.176  30.267  31.353  1.00  0.00     0.074 A 
ATOM     36  C   UNL A   1      39.584  28.852  29.373  1.00  0.00     0.049 A 
ATOM     37  N   UNL A   1      40.220  29.968  32.083  1.00  0.00    -0.248 NA
ATOM     38  C   UNL A   1      38.311  31.300  31.944  1.00  0.00     0.031 C 
ATOM     39  C   UNL A   1      39.356  28.319  28.028  1.00  0.00     0.029 A 
ATOM     40  N   UNL A   1      40.772  28.283  29.759  1.00  0.00    -0.354 N 
ATOM     41  C   UNL A   1      40.153  30.787  33.204  1.00  0.00     0.074 A 
ATOM     42  C   UNL A   1      38.983  31.624  33.041  1.00  0.00     0.031 C 
ATOM     43  C   UNL A   1      40.363  27.491  27.706  1.00  0.00     0.029 A 
ATOM     44  C   UNL A   1      41.317  27.448  28.811  1.00  0.00     0.049 A 
ATOM     45  H   UNL A   1      41.194  28.455  30.631  1.00  0.00     0.167 HD
ATOM     46  C   UNL A   1      40.968  30.819  34.287  1.00  0.00     0.034 A 
ATOM     47  C   UNL A   1      42.452  26.723  28.828  1.00  0.00     0.034 A 
ATOM     48  C   UNL A   1      42.110  29.961  34.466  1.00  0.00     0.049 A 
ATOM     49  C   UNL A   1      43.305  26.728  30.066  1.00  0.00     0.074 A 
ATOM     50  C   UNL A   1      42.946  29.858  35.564  1.00  0.00     0.029 A 
ATOM     51  N   UNL A   1      42.583  29.063  33.521  1.00  0.00    -0.354 N 
ATOM     52  N   UNL A   1      43.124  27.380  31.189  1.00  0.00    -0.248 NA
ATOM     53  C   UNL A   1      44.495  25.866  30.056  1.00  0.00     0.031 C 
ATOM     54  C   UNL A   1      43.935  28.909  35.276  1.00  0.00     0.029 A 
ATOM     55  C   UNL A   1      43.703  28.407  34.006  1.00  0.00     0.049 A 
ATOM     56  H   UNL A   1      42.181  28.913  32.635  1.00  0.00     0.167 HD
ATOM     57  C   UNL A   1      44.162  26.989  32.028  1.00  0.00     0.074 A 
ATOM     58  C   UNL A   1      44.947  26.016  31.293  1.00  0.00     0.031 C 
ATOM     59  C   UNL A   1      44.453  27.412  33.283  1.00  0.00     0.034 A 
BRANCH  46  60
ATOM     60  C   UNL A   1      40.614  31.770  35.401  1.00  0.00     0.023 A 
ATOM     61  C   UNL A   1      41.424  32.904  35.623  1.00  0.00     0.012 A 
ATOM     62  C   UNL A   1      39.458  31.586  36.184  1.00  0.00     0.148 A 
ATOM     63  C   UNL A   1      41.108  33.821  36.626  1.00  0.00     0.002 A 
ATOM     64  C   UNL A   1      39.126  32.526  37.155  1.00  0.00     0.091 A 
ATOM     65  F   UNL A   1      38.710  30.494  35.974  1.00  0.00    -0.205 F 
ATOM     66  C   UNL A   1      39.956  33.637  37.383  1.00  0.00     0.022 A 
BRANCH  64  67
ATOM     67  S   UNL A   1      37.623  32.422  38.132  1.00  0.00     0.127 S 
ATOM     68  O   UNL A   1      37.969  33.239  39.294  1.00  0.00    -0.237 OA
ATOM     69  O   UNL A   1      36.631  33.023  37.239  1.00  0.00    -0.237 OA
ATOM     70  O   UNL A   1      37.417  31.007  38.401  1.00  0.00    -0.744 OA
ENDBRANCH  64  67
ENDBRANCH  46  60
BRANCH  47  71
ATOM     71  C   UNL A   1      42.800  25.867  27.659  1.00  0.00     0.023 A 
ATOM     72  C   UNL A   1      43.715  26.343  26.700  1.00  0.00     0.012 A 
ATOM     73  C   UNL A   1      42.266  24.572  27.516  1.00  0.00     0.148 A 
ATOM     74  C   UNL A   1      44.067  25.557  25.602  1.00  0.00     0.002 A 
ATOM     75  C   UNL A   1      42.667  23.773  26.452  1.00  0.00     0.091 A 
ATOM     76  F   UNL A   1      41.386  24.142  28.432  1.00  0.00    -0.205 F 
ATOM     77  C   UNL A   1      43.553  24.269  25.484  1.00  0.00     0.022 A 
BRANCH  75  78
ATOM     78  S   UNL A   1      42.166  22.053  26.308  1.00  0.00     0.127 S 
ATOM     79  O   UNL A   1      42.959  21.605  25.164  1.00  0.00    -0.237 OA
ATOM     80  O   UNL A   1      42.585  21.505  27.600  1.00  0.00    -0.237 OA
ATOM     81  O   UNL A   1      40.724  22.082  26.111  1.00  0.00    -0.744 OA
ENDBRANCH  75  78
ENDBRANCH  47  71
BRANCH  59  82
ATOM     82  C   UNL A   1      45.668  26.819  33.948  1.00  0.00     0.023 A 
ATOM     83  C   UNL A   1      46.909  27.484  33.852  1.00  0.00     0.012 A 
ATOM     84  C   UNL A   1      45.578  25.633  34.702  1.00  0.00     0.148 A 
ATOM     85  C   UNL A   1      48.046  26.955  34.459  1.00  0.00     0.002 A 
ATOM     86  C   UNL A   1      46.708  25.137  35.345  1.00  0.00     0.091 A 
ATOM     87  F   UNL A   1      44.397  25.002  34.767  1.00  0.00    -0.205 F 
ATOM     88  C   UNL A   1      47.945  25.789  35.213  1.00  0.00     0.022 A 
BRANCH  86  89
ATOM     89  S   UNL A   1      46.645  23.691  36.409  1.00  0.00     0.127 S 
ATOM     90  O   UNL A   1      45.626  24.081  37.382  1.00  0.00    -0.237 OA
ATOM     91  O   UNL A   1      46.232  22.636  35.483  1.00  0.00    -0.237 OA
ATOM     92  O   UNL A   1      47.993  23.532  36.939  1.00  0.00    -0.744 OA
ENDBRANCH  86  89
ENDBRANCH  59  82
ENDBRANCH  33  34
ENDBRANCH  25  28
ENDBRANCH  23  24
ENDBRANCH   1  23
TORSDOF 16
ENDMDL
