MODEL 1
REMARK VINA RESULT:     -10.2      0.000      0.000
REMARK SMILES CC[C@H]1CCCCN1S(=O)(=O)CC(=O)NCCCNC(=O)c1ccc(-c2c3nc(c(-c4cccc(S(=O)(=O)[O-])c4F)c4ccc([nH]4)c(-c4cccc(S(=O)(=O)[O-])c4F)c4nc(c(-c5cccc(S(=O)(=O)[O-])c5F)c5ccc2[nH]5)C=C4)C=C3)cc1
REMARK SMILES IDX 17 1 16 2 15 3 13 4 14 5 12 7 9 8 10 9 11 10 8 11 3 12 4 13
REMARK SMILES IDX 5 14 7 15 6 16 2 17 1 18 18 19 19 20 20 21 21 23 22 24 23 25
REMARK SMILES IDX 84 26 24 27 83 28 25 29 26 30 27 31 77 32 28 33 82 34 76 35
REMARK SMILES IDX 78 36 29 37 81 38 75 39 74 40 30 42 62 43 42 44 61 45 43 46
REMARK SMILES IDX 46 47 60 48 79 49 44 50 45 51 59 53 80 54 47 55 31 56 32 57
REMARK SMILES IDX 40 58 33 59 35 60 41 61 34 62 36 63 37 64 38 65 39 66 63 67
REMARK SMILES IDX 64 68 72 69 65 70 67 71 73 72 66 73 68 74 69 75 70 76 71 77
REMARK SMILES IDX 48 78 49 79 57 80 50 81 52 82 58 83 51 84 53 85 54 86 55 87
REMARK SMILES IDX 56 88
REMARK H PARENT 15 6 19 22 78 41 46 52
REMARK Flexibility Score: inf
ROOT
ATOM      1  C   UNL A   1      34.403  33.440  29.473  1.00  0.00     0.042 C 
ENDROOT
BRANCH   1   2
ATOM      2  C   UNL A   1      34.048  34.902  29.735  1.00  0.00     0.117 C 
BRANCH   2   3
ATOM      3  N   UNL A   1      33.027  35.032  30.763  1.00  0.00    -0.355 N 
ATOM      4  C   UNL A   1      33.165  35.251  32.101  1.00  0.00     0.236 C 
ATOM      5  O   UNL A   1      32.147  35.209  32.799  1.00  0.00    -0.274 OA
ATOM      6  H   UNL A   1      32.099  34.948  30.445  1.00  0.00     0.163 HD
BRANCH   4   7
ATOM      7  C   UNL A   1      34.472  35.676  32.683  1.00  0.00     0.253 C 
BRANCH   7   8
ATOM      8  S   UNL A   1      35.332  34.377  33.522  1.00  0.00     0.223 S 
ATOM      9  O   UNL A   1      34.909  33.130  32.916  1.00  0.00    -0.212 OA
ATOM     10  O   UNL A   1      35.153  34.579  34.947  1.00  0.00    -0.212 OA
BRANCH   8  11
ATOM     11  N   UNL A   1      36.976  34.592  33.153  1.00  0.00    -0.198 NA
ATOM     12  C   UNL A   1      37.943  34.225  34.259  1.00  0.00     0.072 C 
ATOM     13  C   UNL A   1      39.352  34.707  33.870  1.00  0.00     0.020 C 
ATOM     14  C   UNL A   1      39.798  34.171  32.516  1.00  0.00     0.003 C 
ATOM     15  C   UNL A   1      37.386  34.105  31.804  1.00  0.00     0.102 C 
ATOM     16  C   UNL A   1      38.790  34.578  31.452  1.00  0.00     0.017 C 
BRANCH  12  17
ATOM     17  C   UNL A   1      37.865  32.727  34.617  1.00  0.00     0.017 C 
ATOM     18  C   UNL A   1      37.801  32.453  36.114  1.00  0.00     0.005 C 
ENDBRANCH  12  17
ENDBRANCH   8  11
ENDBRANCH   7   8
ENDBRANCH   4   7
ENDBRANCH   2   3
ENDBRANCH   1   2
BRANCH   1  19
ATOM     19  C   UNL A   1      34.626  33.101  28.002  1.00  0.00     0.118 C 
BRANCH  19  20
ATOM     20  N   UNL A   1      33.886  31.923  27.575  1.00  0.00    -0.352 N 
ATOM     21  C   UNL A   1      34.284  30.611  27.491  1.00  0.00     0.251 C 
ATOM     22  H   UNL A   1      32.955  32.093  27.305  1.00  0.00     0.163 HD
ATOM     23  O   UNL A   1      33.539  29.799  26.946  1.00  0.00    -0.269 OA
BRANCH  21  24
ATOM     24  C   UNL A   1      35.591  30.168  28.029  1.00  0.00     0.039 A 
ATOM     25  C   UNL A   1      35.655  29.748  29.362  1.00  0.00     0.014 A 
ATOM     26  C   UNL A   1      36.757  30.200  27.258  1.00  0.00     0.014 A 
ATOM     27  C   UNL A   1      36.870  29.316  29.902  1.00  0.00     0.010 A 
ATOM     28  C   UNL A   1      37.954  29.704  27.776  1.00  0.00     0.010 A 
ATOM     29  C   UNL A   1      38.026  29.265  29.106  1.00  0.00    -0.014 A 
BRANCH  29  30
ATOM     30  C   UNL A   1      39.302  28.731  29.652  1.00  0.00     0.031 A 
ATOM     31  C   UNL A   1      39.933  29.337  30.876  1.00  0.00     0.074 A 
ATOM     32  C   UNL A   1      39.931  27.733  29.000  1.00  0.00     0.049 A 
ATOM     33  N   UNL A   1      41.032  28.986  31.495  1.00  0.00    -0.248 NA
ATOM     34  C   UNL A   1      39.259  30.503  31.471  1.00  0.00     0.031 C 
ATOM     35  C   UNL A   1      39.478  27.126  27.746  1.00  0.00     0.029 A 
ATOM     36  N   UNL A   1      41.097  27.067  29.287  1.00  0.00    -0.354 N 
ATOM     37  C   UNL A   1      41.198  29.902  32.527  1.00  0.00     0.074 A 
ATOM     38  C   UNL A   1      40.106  30.845  32.433  1.00  0.00     0.031 C 
ATOM     39  C   UNL A   1      40.348  26.170  27.380  1.00  0.00     0.029 A 
ATOM     40  C   UNL A   1      41.427  26.105  28.362  1.00  0.00     0.049 A 
ATOM     41  H   UNL A   1      41.645  27.260  30.083  1.00  0.00     0.167 HD
ATOM     42  C   UNL A   1      42.156  29.937  33.487  1.00  0.00     0.034 A 
ATOM     43  C   UNL A   1      42.473  25.257  28.313  1.00  0.00     0.034 A 
ATOM     44  C   UNL A   1      43.211  28.968  33.610  1.00  0.00     0.049 A 
ATOM     45  C   UNL A   1      43.471  25.260  29.438  1.00  0.00     0.074 A 
ATOM     46  C   UNL A   1      44.172  28.863  34.602  1.00  0.00     0.029 A 
ATOM     47  N   UNL A   1      43.448  27.936  32.716  1.00  0.00    -0.354 N 
ATOM     48  N   UNL A   1      43.508  26.020  30.505  1.00  0.00    -0.248 NA
ATOM     49  C   UNL A   1      44.543  24.257  29.377  1.00  0.00     0.031 C 
ATOM     50  C   UNL A   1      44.995  27.771  34.301  1.00  0.00     0.029 A 
ATOM     51  C   UNL A   1      44.538  27.188  33.130  1.00  0.00     0.049 A 
ATOM     52  H   UNL A   1      42.918  27.760  31.905  1.00  0.00     0.167 HD
ATOM     53  C   UNL A   1      44.584  25.566  31.259  1.00  0.00     0.074 A 
ATOM     54  C   UNL A   1      45.157  24.449  30.538  1.00  0.00     0.031 C 
ATOM     55  C   UNL A   1      45.063  26.043  32.435  1.00  0.00     0.034 A 
BRANCH  42  56
ATOM     56  C   UNL A   1      42.062  31.023  34.527  1.00  0.00     0.023 A 
ATOM     57  C   UNL A   1      41.446  30.741  35.764  1.00  0.00     0.012 A 
ATOM     58  C   UNL A   1      42.634  32.292  34.315  1.00  0.00     0.148 A 
ATOM     59  C   UNL A   1      41.370  31.714  36.760  1.00  0.00     0.002 A 
ATOM     60  C   UNL A   1      42.592  33.245  35.329  1.00  0.00     0.091 A 
ATOM     61  F   UNL A   1      43.197  32.551  33.126  1.00  0.00    -0.205 F 
ATOM     62  C   UNL A   1      41.951  32.961  36.546  1.00  0.00     0.022 A 
BRANCH  60  63
ATOM     63  S   UNL A   1      43.379  34.852  35.177  1.00  0.00     0.127 S 
ATOM     64  O   UNL A   1      44.795  34.491  35.196  1.00  0.00    -0.237 OA
ATOM     65  O   UNL A   1      42.887  35.318  33.879  1.00  0.00    -0.237 OA
ATOM     66  O   UNL A   1      42.913  35.634  36.314  1.00  0.00    -0.744 OA
ENDBRANCH  60  63
ENDBRANCH  42  56
BRANCH  43  67
ATOM     67  C   UNL A   1      42.566  24.265  27.205  1.00  0.00     0.023 A 
ATOM     68  C   UNL A   1      43.305  24.590  26.050  1.00  0.00     0.012 A 
ATOM     69  C   UNL A   1      41.971  22.994  27.304  1.00  0.00     0.148 A 
ATOM     70  C   UNL A   1      43.426  23.677  25.003  1.00  0.00     0.002 A 
ATOM     71  C   UNL A   1      42.141  22.068  26.281  1.00  0.00     0.091 A 
ATOM     72  F   UNL A   1      41.261  22.708  28.405  1.00  0.00    -0.205 F 
ATOM     73  C   UNL A   1      42.854  22.413  25.122  1.00  0.00     0.022 A 
BRANCH  71  74
ATOM     74  S   UNL A   1      41.554  20.375  26.413  1.00  0.00     0.127 S 
ATOM     75  O   UNL A   1      40.123  20.535  26.164  1.00  0.00    -0.237 OA
ATOM     76  O   UNL A   1      42.296  19.709  25.341  1.00  0.00    -0.237 OA
ATOM     77  O   UNL A   1      41.923  19.941  27.753  1.00  0.00    -0.744 OA
ENDBRANCH  71  74
ENDBRANCH  43  67
BRANCH  55  78
ATOM     78  C   UNL A   1      46.253  25.343  33.036  1.00  0.00     0.023 A 
ATOM     79  C   UNL A   1      47.550  25.833  32.788  1.00  0.00     0.012 A 
ATOM     80  C   UNL A   1      46.084  24.240  33.896  1.00  0.00     0.148 A 
ATOM     81  C   UNL A   1      48.663  25.217  33.358  1.00  0.00     0.002 A 
ATOM     82  C   UNL A   1      47.196  23.658  34.497  1.00  0.00     0.091 A 
ATOM     83  F   UNL A   1      44.845  23.772  34.104  1.00  0.00    -0.205 F 
ATOM     84  C   UNL A   1      48.485  24.137  34.221  1.00  0.00     0.022 A 
BRANCH  82  85
ATOM     85  S   UNL A   1      47.041  22.324  35.690  1.00  0.00     0.127 S 
ATOM     86  O   UNL A   1      48.428  22.129  36.104  1.00  0.00    -0.237 OA
ATOM     87  O   UNL A   1      46.177  22.914  36.714  1.00  0.00    -0.237 OA
ATOM     88  O   UNL A   1      46.436  21.214  34.964  1.00  0.00    -0.744 OA
ENDBRANCH  82  85
ENDBRANCH  55  78
ENDBRANCH  29  30
ENDBRANCH  21  24
ENDBRANCH  19  20
ENDBRANCH   1  19
TORSDOF 16
ENDMDL
MODEL 2
REMARK VINA RESULT:      -9.9      4.150     12.018
REMARK SMILES CC[C@H]1CCCCN1S(=O)(=O)CC(=O)NCCCNC(=O)c1ccc(-c2c3nc(c(-c4cccc(S(=O)(=O)[O-])c4F)c4ccc([nH]4)c(-c4cccc(S(=O)(=O)[O-])c4F)c4nc(c(-c5cccc(S(=O)(=O)[O-])c5F)c5ccc2[nH]5)C=C4)C=C3)cc1
REMARK SMILES IDX 17 1 16 2 15 3 13 4 14 5 12 7 9 8 10 9 11 10 8 11 3 12 4 13
REMARK SMILES IDX 5 14 7 15 6 16 2 17 1 18 18 19 19 20 20 21 21 23 22 24 23 25
REMARK SMILES IDX 84 26 24 27 83 28 25 29 26 30 27 31 77 32 28 33 82 34 76 35
REMARK SMILES IDX 78 36 29 37 81 38 75 39 74 40 30 42 62 43 42 44 61 45 43 46
REMARK SMILES IDX 46 47 60 48 79 49 44 50 45 51 59 53 80 54 47 55 31 56 32 57
REMARK SMILES IDX 40 58 33 59 35 60 41 61 34 62 36 63 37 64 38 65 39 66 63 67
REMARK SMILES IDX 64 68 72 69 65 70 67 71 73 72 66 73 68 74 69 75 70 76 71 77
REMARK SMILES IDX 48 78 49 79 57 80 50 81 52 82 58 83 51 84 53 85 54 86 55 87
REMARK SMILES IDX 56 88
REMARK H PARENT 15 6 19 22 78 41 46 52
REMARK Flexibility Score: inf
ROOT
ATOM      1  C   UNL A   1      41.223  19.934  26.200  1.00  0.00     0.042 C 
ENDROOT
BRANCH   1   2
ATOM      2  C   UNL A   1      42.727  19.728  26.372  1.00  0.00     0.117 C 
BRANCH   2   3
ATOM      3  N   UNL A   1      43.334  19.170  25.173  1.00  0.00    -0.355 N 
ATOM      4  C   UNL A   1      44.511  19.492  24.566  1.00  0.00     0.236 C 
ATOM      5  O   UNL A   1      44.766  18.955  23.483  1.00  0.00    -0.274 OA
ATOM      6  H   UNL A   1      42.818  18.455  24.737  1.00  0.00     0.163 HD
BRANCH   4   7
ATOM      7  C   UNL A   1      45.526  20.345  25.252  1.00  0.00     0.253 C 
BRANCH   7   8
ATOM      8  S   UNL A   1      45.350  22.072  24.910  1.00  0.00     0.223 S 
ATOM      9  O   UNL A   1      43.940  22.315  24.677  1.00  0.00    -0.212 OA
ATOM     10  O   UNL A   1      46.317  22.420  23.887  1.00  0.00    -0.212 OA
BRANCH   8  11
ATOM     11  N   UNL A   1      45.776  22.876  26.344  1.00  0.00    -0.198 NA
ATOM     12  C   UNL A   1      46.618  24.122  26.165  1.00  0.00     0.072 C 
ATOM     13  C   UNL A   1      47.126  24.584  27.542  1.00  0.00     0.020 C 
ATOM     14  C   UNL A   1      45.994  24.795  28.539  1.00  0.00     0.003 C 
ATOM     15  C   UNL A   1      44.668  23.032  27.330  1.00  0.00     0.102 C 
ATOM     16  C   UNL A   1      45.193  23.509  28.678  1.00  0.00     0.017 C 
BRANCH  12  17
ATOM     17  C   UNL A   1      45.871  25.212  25.369  1.00  0.00     0.017 C 
ATOM     18  C   UNL A   1      46.693  26.469  25.125  1.00  0.00     0.005 C 
ENDBRANCH  12  17
ENDBRANCH   8  11
ENDBRANCH   7   8
ENDBRANCH   4   7
ENDBRANCH   2   3
ENDBRANCH   1   2
BRANCH   1  19
ATOM     19  C   UNL A   1      40.738  21.341  26.537  1.00  0.00     0.118 C 
BRANCH  19  20
ATOM     20  N   UNL A   1      39.390  21.604  26.056  1.00  0.00    -0.352 N 
ATOM     21  C   UNL A   1      38.611  22.728  26.180  1.00  0.00     0.251 C 
ATOM     22  H   UNL A   1      38.972  20.860  25.565  1.00  0.00     0.163 HD
ATOM     23  O   UNL A   1      37.433  22.675  25.835  1.00  0.00    -0.269 OA
BRANCH  21  24
ATOM     24  C   UNL A   1      39.162  23.988  26.731  1.00  0.00     0.039 A 
ATOM     25  C   UNL A   1      39.910  24.814  25.885  1.00  0.00     0.014 A 
ATOM     26  C   UNL A   1      38.990  24.346  28.072  1.00  0.00     0.014 A 
ATOM     27  C   UNL A   1      40.438  26.015  26.369  1.00  0.00     0.010 A 
ATOM     28  C   UNL A   1      39.459  25.576  28.535  1.00  0.00     0.010 A 
ATOM     29  C   UNL A   1      40.196  26.420  27.692  1.00  0.00    -0.014 A 
BRANCH  29  30
ATOM     30  C   UNL A   1      40.688  27.733  28.187  1.00  0.00     0.031 A 
ATOM     31  C   UNL A   1      42.157  28.058  28.187  1.00  0.00     0.074 A 
ATOM     32  C   UNL A   1      39.808  28.614  28.703  1.00  0.00     0.049 A 
ATOM     33  N   UNL A   1      42.756  29.158  28.567  1.00  0.00    -0.248 NA
ATOM     34  C   UNL A   1      43.077  27.006  27.725  1.00  0.00     0.031 C 
ATOM     35  C   UNL A   1      38.370  28.381  28.854  1.00  0.00     0.029 A 
ATOM     36  N   UNL A   1      39.994  29.875  29.215  1.00  0.00    -0.354 N 
ATOM     37  C   UNL A   1      44.118  28.921  28.421  1.00  0.00     0.074 A 
ATOM     38  C   UNL A   1      44.261  27.561  27.949  1.00  0.00     0.031 C 
ATOM     39  C   UNL A   1      37.804  29.466  29.409  1.00  0.00     0.029 A 
ATOM     40  C   UNL A   1      38.837  30.465  29.665  1.00  0.00     0.049 A 
ATOM     41  H   UNL A   1      40.875  30.314  29.254  1.00  0.00     0.167 HD
ATOM     42  C   UNL A   1      45.156  29.768  28.631  1.00  0.00     0.034 A 
ATOM     43  C   UNL A   1      38.627  31.678  30.213  1.00  0.00     0.034 A 
ATOM     44  C   UNL A   1      45.010  31.136  29.050  1.00  0.00     0.049 A 
ATOM     45  C   UNL A   1      39.784  32.629  30.351  1.00  0.00     0.074 A 
ATOM     46  C   UNL A   1      45.992  32.101  29.198  1.00  0.00     0.029 A 
ATOM     47  N   UNL A   1      43.807  31.737  29.389  1.00  0.00    -0.354 N 
ATOM     48  N   UNL A   1      41.043  32.447  30.036  1.00  0.00    -0.248 NA
ATOM     49  C   UNL A   1      39.484  33.969  30.874  1.00  0.00     0.031 C 
ATOM     50  C   UNL A   1      45.383  33.284  29.635  1.00  0.00     0.029 A 
ATOM     51  C   UNL A   1      44.019  33.058  29.746  1.00  0.00     0.049 A 
ATOM     52  H   UNL A   1      42.930  31.289  29.378  1.00  0.00     0.167 HD
ATOM     53  C   UNL A   1      41.679  33.657  30.288  1.00  0.00     0.074 A 
ATOM     54  C   UNL A   1      40.660  34.572  30.761  1.00  0.00     0.031 C 
ATOM     55  C   UNL A   1      42.990  33.976  30.158  1.00  0.00     0.034 A 
BRANCH  42  56
ATOM     56  C   UNL A   1      46.543  29.259  28.337  1.00  0.00     0.023 A 
ATOM     57  C   UNL A   1      47.163  29.610  27.119  1.00  0.00     0.012 A 
ATOM     58  C   UNL A   1      47.258  28.496  29.280  1.00  0.00     0.148 A 
ATOM     59  C   UNL A   1      48.458  29.180  26.830  1.00  0.00     0.002 A 
ATOM     60  C   UNL A   1      48.565  28.106  29.002  1.00  0.00     0.091 A 
ATOM     61  F   UNL A   1      46.648  28.154  30.423  1.00  0.00    -0.205 F 
ATOM     62  C   UNL A   1      49.162  28.439  27.775  1.00  0.00     0.022 A 
BRANCH  60  63
ATOM     63  S   UNL A   1      49.580  27.215  30.187  1.00  0.00     0.127 S 
ATOM     64  O   UNL A   1      48.791  26.003  30.398  1.00  0.00    -0.237 OA
ATOM     65  O   UNL A   1      50.822  27.010  29.440  1.00  0.00    -0.237 OA
ATOM     66  O   UNL A   1      49.707  28.092  31.343  1.00  0.00    -0.744 OA
ENDBRANCH  60  63
ENDBRANCH  42  56
BRANCH  43  67
ATOM     67  C   UNL A   1      37.242  32.094  30.574  1.00  0.00     0.023 A 
ATOM     68  C   UNL A   1      36.795  31.920  31.899  1.00  0.00     0.012 A 
ATOM     69  C   UNL A   1      36.388  32.698  29.635  1.00  0.00     0.148 A 
ATOM     70  C   UNL A   1      35.512  32.315  32.274  1.00  0.00     0.002 A 
ATOM     71  C   UNL A   1      35.129  33.138  30.028  1.00  0.00     0.091 A 
ATOM     72  F   UNL A   1      36.826  32.842  28.376  1.00  0.00    -0.205 F 
ATOM     73  C   UNL A   1      34.683  32.934  31.342  1.00  0.00     0.022 A 
BRANCH  71  74
ATOM     74  S   UNL A   1      34.052  34.066  28.928  1.00  0.00     0.127 S 
ATOM     75  O   UNL A   1      33.070  34.612  29.861  1.00  0.00    -0.237 OA
ATOM     76  O   UNL A   1      34.972  35.050  28.356  1.00  0.00    -0.237 OA
ATOM     77  O   UNL A   1      33.547  33.093  27.968  1.00  0.00    -0.744 OA
ENDBRANCH  71  74
ENDBRANCH  43  67
BRANCH  55  78
ATOM     78  C   UNL A   1      43.402  35.383  30.503  1.00  0.00     0.023 A 
ATOM     79  C   UNL A   1      43.555  36.337  29.477  1.00  0.00     0.012 A 
ATOM     80  C   UNL A   1      43.573  35.777  31.844  1.00  0.00     0.148 A 
ATOM     81  C   UNL A   1      43.907  37.652  29.778  1.00  0.00     0.002 A 
ATOM     82  C   UNL A   1      43.881  37.101  32.140  1.00  0.00     0.091 A 
ATOM     83  F   UNL A   1      43.445  34.852  32.806  1.00  0.00    -0.205 F 
ATOM     84  C   UNL A   1      44.059  38.036  31.109  1.00  0.00     0.022 A 
BRANCH  82  85
ATOM     85  S   UNL A   1      44.002  37.693  33.832  1.00  0.00     0.127 S 
ATOM     86  O   UNL A   1      42.597  37.900  34.178  1.00  0.00    -0.237 OA
ATOM     87  O   UNL A   1      44.638  36.567  34.516  1.00  0.00    -0.237 OA
ATOM     88  O   UNL A   1      44.822  38.896  33.770  1.00  0.00    -0.744 OA
ENDBRANCH  82  85
ENDBRANCH  55  78
ENDBRANCH  29  30
ENDBRANCH  21  24
ENDBRANCH  19  20
ENDBRANCH   1  19
TORSDOF 16
ENDMDL
MODEL 3
REMARK VINA RESULT:      -9.8      3.644      6.363
REMARK SMILES CC[C@H]1CCCCN1S(=O)(=O)CC(=O)NCCCNC(=O)c1ccc(-c2c3nc(c(-c4cccc(S(=O)(=O)[O-])c4F)c4ccc([nH]4)c(-c4cccc(S(=O)(=O)[O-])c4F)c4nc(c(-c5cccc(S(=O)(=O)[O-])c5F)c5ccc2[nH]5)C=C4)C=C3)cc1
REMARK SMILES IDX 17 1 16 2 15 3 13 4 14 5 12 7 9 8 10 9 11 10 8 11 3 12 4 13
REMARK SMILES IDX 5 14 7 15 6 16 2 17 1 18 18 19 19 20 20 21 21 23 22 24 23 25
REMARK SMILES IDX 84 26 24 27 83 28 25 29 26 30 27 31 77 32 28 33 82 34 76 35
REMARK SMILES IDX 78 36 29 37 81 38 75 39 74 40 30 42 62 43 42 44 61 45 43 46
REMARK SMILES IDX 46 47 60 48 79 49 44 50 45 51 59 53 80 54 47 55 31 56 32 57
REMARK SMILES IDX 40 58 33 59 35 60 41 61 34 62 36 63 37 64 38 65 39 66 63 67
REMARK SMILES IDX 64 68 72 69 65 70 67 71 73 72 66 73 68 74 69 75 70 76 71 77
REMARK SMILES IDX 48 78 49 79 57 80 50 81 52 82 58 83 51 84 53 85 54 86 55 87
REMARK SMILES IDX 56 88
REMARK H PARENT 15 6 19 22 78 41 46 52
REMARK Flexibility Score: inf
ROOT
ATOM      1  C   UNL A   1      34.074  27.729  25.590  1.00  0.00     0.042 C 
ENDROOT
BRANCH   1   2
ATOM      2  C   UNL A   1      33.133  28.139  24.458  1.00  0.00     0.117 C 
BRANCH   2   3
ATOM      3  N   UNL A   1      33.564  27.596  23.179  1.00  0.00    -0.355 N 
ATOM      4  C   UNL A   1      33.072  26.537  22.476  1.00  0.00     0.236 C 
ATOM      5  O   UNL A   1      33.679  26.191  21.458  1.00  0.00    -0.274 OA
ATOM      6  H   UNL A   1      34.321  28.064  22.759  1.00  0.00     0.163 HD
BRANCH   4   7
ATOM      7  C   UNL A   1      31.766  25.911  22.835  1.00  0.00     0.253 C 
BRANCH   7   8
ATOM      8  S   UNL A   1      31.894  24.670  24.089  1.00  0.00     0.223 S 
ATOM      9  O   UNL A   1      31.234  23.484  23.579  1.00  0.00    -0.212 OA
ATOM     10  O   UNL A   1      31.450  25.257  25.338  1.00  0.00    -0.212 OA
BRANCH   8  11
ATOM     11  N   UNL A   1      33.550  24.314  24.224  1.00  0.00    -0.198 NA
ATOM     12  C   UNL A   1      34.064  24.139  25.637  1.00  0.00     0.072 C 
ATOM     13  C   UNL A   1      35.601  24.075  25.606  1.00  0.00     0.020 C 
ATOM     14  C   UNL A   1      36.119  22.992  24.669  1.00  0.00     0.003 C 
ATOM     15  C   UNL A   1      34.051  23.285  23.267  1.00  0.00     0.102 C 
ATOM     16  C   UNL A   1      35.573  23.227  23.268  1.00  0.00     0.017 C 
BRANCH  12  17
ATOM     17  C   UNL A   1      33.397  22.944  26.349  1.00  0.00     0.017 C 
ATOM     18  C   UNL A   1      33.991  22.630  27.715  1.00  0.00     0.005 C 
ENDBRANCH  12  17
ENDBRANCH   8  11
ENDBRANCH   7   8
ENDBRANCH   4   7
ENDBRANCH   2   3
ENDBRANCH   1   2
BRANCH   1  19
ATOM     19  C   UNL A   1      33.629  28.188  26.975  1.00  0.00     0.118 C 
BRANCH  19  20
ATOM     20  N   UNL A   1      33.513  29.635  27.081  1.00  0.00    -0.352 N 
ATOM     21  C   UNL A   1      34.366  30.551  27.645  1.00  0.00     0.251 C 
ATOM     22  H   UNL A   1      32.696  30.016  26.685  1.00  0.00     0.163 HD
ATOM     23  O   UNL A   1      33.991  31.716  27.767  1.00  0.00    -0.269 OA
BRANCH  21  24
ATOM     24  C   UNL A   1      35.714  30.158  28.119  1.00  0.00     0.039 A 
ATOM     25  C   UNL A   1      35.842  29.649  29.415  1.00  0.00     0.014 A 
ATOM     26  C   UNL A   1      36.853  30.322  27.324  1.00  0.00     0.014 A 
ATOM     27  C   UNL A   1      37.097  29.260  29.893  1.00  0.00     0.010 A 
ATOM     28  C   UNL A   1      38.093  29.869  27.777  1.00  0.00     0.010 A 
ATOM     29  C   UNL A   1      38.231  29.342  29.068  1.00  0.00    -0.014 A 
BRANCH  29  30
ATOM     30  C   UNL A   1      39.553  28.856  29.544  1.00  0.00     0.031 A 
ATOM     31  C   UNL A   1      40.279  29.556  30.661  1.00  0.00     0.074 A 
ATOM     32  C   UNL A   1      40.135  27.813  28.919  1.00  0.00     0.049 A 
ATOM     33  N   UNL A   1      41.429  29.257  31.210  1.00  0.00    -0.248 NA
ATOM     34  C   UNL A   1      39.647  30.762  31.219  1.00  0.00     0.031 C 
ATOM     35  C   UNL A   1      39.584  27.109  27.758  1.00  0.00     0.029 A 
ATOM     36  N   UNL A   1      41.327  27.174  29.157  1.00  0.00    -0.354 N 
ATOM     37  C   UNL A   1      41.673  30.250  32.151  1.00  0.00     0.074 A 
ATOM     38  C   UNL A   1      40.568  31.180  32.077  1.00  0.00     0.031 C 
ATOM     39  C   UNL A   1      40.429  26.131  27.394  1.00  0.00     0.029 A 
ATOM     40  C   UNL A   1      41.587  26.145  28.283  1.00  0.00     0.049 A 
ATOM     41  H   UNL A   1      41.938  27.429  29.886  1.00  0.00     0.167 HD
ATOM     42  C   UNL A   1      42.708  30.362  33.020  1.00  0.00     0.034 A 
ATOM     43  C   UNL A   1      42.633  25.299  28.211  1.00  0.00     0.034 A 
ATOM     44  C   UNL A   1      43.779  29.409  33.128  1.00  0.00     0.049 A 
ATOM     45  C   UNL A   1      43.722  25.391  29.244  1.00  0.00     0.074 A 
ATOM     46  C   UNL A   1      44.820  29.383  34.040  1.00  0.00     0.029 A 
ATOM     47  N   UNL A   1      43.949  28.312  32.298  1.00  0.00    -0.354 N 
ATOM     48  N   UNL A   1      43.842  26.231  30.243  1.00  0.00    -0.248 NA
ATOM     49  C   UNL A   1      44.795  24.390  29.170  1.00  0.00     0.031 C 
ATOM     50  C   UNL A   1      45.626  28.274  33.755  1.00  0.00     0.029 A 
ATOM     51  C   UNL A   1      45.077  27.601  32.674  1.00  0.00     0.049 A 
ATOM     52  H   UNL A   1      43.355  28.072  31.550  1.00  0.00     0.167 HD
ATOM     53  C   UNL A   1      44.981  25.840  30.936  1.00  0.00     0.074 A 
ATOM     54  C   UNL A   1      45.503  24.672  30.256  1.00  0.00     0.031 C 
ATOM     55  C   UNL A   1      45.553  26.407  32.027  1.00  0.00     0.034 A 
BRANCH  42  56
ATOM     56  C   UNL A   1      42.691  31.524  33.979  1.00  0.00     0.023 A 
ATOM     57  C   UNL A   1      43.238  32.760  33.575  1.00  0.00     0.012 A 
ATOM     58  C   UNL A   1      42.083  31.421  35.245  1.00  0.00     0.148 A 
ATOM     59  C   UNL A   1      43.212  33.863  34.427  1.00  0.00     0.002 A 
ATOM     60  C   UNL A   1      42.023  32.537  36.074  1.00  0.00     0.091 A 
ATOM     61  F   UNL A   1      41.587  30.234  35.623  1.00  0.00    -0.205 F 
ATOM     62  C   UNL A   1      42.595  33.755  35.670  1.00  0.00     0.022 A 
BRANCH  60  63
ATOM     63  S   UNL A   1      41.183  32.518  37.661  1.00  0.00     0.127 S 
ATOM     64  O   UNL A   1      42.023  31.601  38.429  1.00  0.00    -0.237 OA
ATOM     65  O   UNL A   1      41.271  33.919  38.078  1.00  0.00    -0.237 OA
ATOM     66  O   UNL A   1      39.829  32.053  37.390  1.00  0.00    -0.744 OA
ENDBRANCH  60  63
ENDBRANCH  42  56
BRANCH  43  67
ATOM     67  C   UNL A   1      42.642  24.224  27.178  1.00  0.00     0.023 A 
ATOM     68  C   UNL A   1      43.336  24.437  25.971  1.00  0.00     0.012 A 
ATOM     69  C   UNL A   1      42.012  22.986  27.399  1.00  0.00     0.148 A 
ATOM     70  C   UNL A   1      43.379  23.445  24.991  1.00  0.00     0.002 A 
ATOM     71  C   UNL A   1      42.104  21.982  26.442  1.00  0.00     0.091 A 
ATOM     72  F   UNL A   1      41.345  22.809  28.549  1.00  0.00    -0.205 F 
ATOM     73  C   UNL A   1      42.773  22.215  25.231  1.00  0.00     0.022 A 
BRANCH  71  74
ATOM     74  S   UNL A   1      41.469  20.325  26.728  1.00  0.00     0.127 S 
ATOM     75  O   UNL A   1      41.753  19.673  25.452  1.00  0.00    -0.237 OA
ATOM     76  O   UNL A   1      42.292  19.871  27.849  1.00  0.00    -0.237 OA
ATOM     77  O   UNL A   1      40.060  20.501  27.054  1.00  0.00    -0.744 OA
ENDBRANCH  71  74
ENDBRANCH  43  67
BRANCH  55  78
ATOM     78  C   UNL A   1      46.796  25.759  32.577  1.00  0.00     0.023 A 
ATOM     79  C   UNL A   1      46.698  24.875  33.670  1.00  0.00     0.012 A 
ATOM     80  C   UNL A   1      48.050  25.973  31.973  1.00  0.00     0.148 A 
ATOM     81  C   UNL A   1      47.833  24.242  34.175  1.00  0.00     0.002 A 
ATOM     82  C   UNL A   1      49.171  25.304  32.454  1.00  0.00     0.091 A 
ATOM     83  F   UNL A   1      48.131  26.834  30.948  1.00  0.00    -0.205 F 
ATOM     84  C   UNL A   1      49.066  24.448  33.561  1.00  0.00     0.022 A 
BRANCH  82  85
ATOM     85  S   UNL A   1      50.776  25.446  31.659  1.00  0.00     0.127 S 
ATOM     86  O   UNL A   1      50.490  24.949  30.315  1.00  0.00    -0.237 OA
ATOM     87  O   UNL A   1      51.040  26.883  31.734  1.00  0.00    -0.237 OA
ATOM     88  O   UNL A   1      51.683  24.629  32.456  1.00  0.00    -0.744 OA
ENDBRANCH  82  85
ENDBRANCH  55  78
ENDBRANCH  29  30
ENDBRANCH  21  24
ENDBRANCH  19  20
ENDBRANCH   1  19
TORSDOF 16
ENDMDL
