MODEL 1
REMARK VINA RESULT:     -12.7      0.000      0.000
REMARK SMILES CC1=C(C)C[C@H](C(=O)N[C@@H](C)CCc2ccccc2)[C@@H](C(=O)NCCCNC(=O)c2ccc(-c3c4nc(c(-c5cccc(S(=O)(=O)[O-])c5F)c5ccc([nH]5)c(-c5cccc(S(=O)(=O)[O-])c5F)c5nc(c(-c6cccc(S(=O)(=O)[O-])c6F)c6ccc3[nH]6)C=C5)C=C4)cc2)C1
REMARK SMILES IDX 24 1 23 2 21 3 22 4 20 6 1 7 2 8 3 9 93 10 4 11 5 12 6 13
REMARK SMILES IDX 7 14 8 15 9 16 10 18 11 19 12 20 13 21 14 22 15 23 19 24
REMARK SMILES IDX 16 25 18 26 17 27 25 28 26 29 27 30 28 31 29 33 30 34 31 35
REMARK SMILES IDX 92 36 32 37 91 38 33 39 34 40 35 41 85 42 36 43 90 44 84 45
REMARK SMILES IDX 86 46 37 47 89 48 83 49 82 50 38 52 70 53 50 54 69 55 51 56
REMARK SMILES IDX 54 57 68 58 87 59 52 60 53 61 67 63 88 64 55 65 39 66 40 67
REMARK SMILES IDX 48 68 41 69 43 70 49 71 42 72 44 73 45 74 46 75 47 76 71 77
REMARK SMILES IDX 72 78 80 79 73 80 75 81 81 82 74 83 76 84 77 85 78 86 79 87
REMARK SMILES IDX 56 88 57 89 65 90 58 91 60 92 66 93 59 94 61 95 62 96 63 97
REMARK SMILES IDX 64 98
REMARK H PARENT 23 5 9 17 27 32 86 51 54 62
REMARK Flexibility Score: inf
ROOT
ATOM      1  C   UNL A   1      31.283  29.621  24.717  1.00  0.00     0.117 C 
ENDROOT
BRANCH   1   2
ATOM      2  N   UNL A   1      32.662  29.509  24.260  1.00  0.00    -0.356 N 
ATOM      3  C   UNL A   1      33.339  28.399  23.800  1.00  0.00     0.224 C 
ATOM      4  O   UNL A   1      34.400  28.595  23.205  1.00  0.00    -0.275 OA
ATOM      5  H   UNL A   1      33.184  30.344  24.284  1.00  0.00     0.163 HD
BRANCH   3   6
ATOM      6  C   UNL A   1      32.792  26.982  24.081  1.00  0.00     0.095 C 
ATOM      7  C   UNL A   1      33.244  23.146  21.095  1.00  0.00     0.039 C 
ATOM      8  C   UNL A   1      33.671  24.496  22.727  1.00  0.00    -0.074 C 
ATOM      9  C   UNL A   1      34.525  24.492  23.933  1.00  0.00    -0.074 C 
ATOM     10  C   UNL A   1      33.072  26.069  22.881  1.00  0.00     0.045 C 
ATOM     11  C   UNL A   1      35.599  23.513  24.518  1.00  0.00     0.039 C 
ATOM     12  C   UNL A   1      34.484  25.541  25.094  1.00  0.00     0.045 C 
ATOM     13  C   UNL A   1      33.259  26.370  25.371  1.00  0.00     0.095 C 
BRANCH  13  14
ATOM     14  C   UNL A   1      32.076  25.851  26.208  1.00  0.00     0.224 C 
ATOM     15  O   UNL A   1      31.308  26.686  26.714  1.00  0.00    -0.275 OA
ATOM     16  N   UNL A   1      31.708  24.561  26.404  1.00  0.00    -0.353 N 
ATOM     17  H   UNL A   1      30.794  24.463  26.756  1.00  0.00     0.163 HD
BRANCH  16  18
ATOM     18  C   UNL A   1      32.392  23.297  26.200  1.00  0.00     0.079 C 
ATOM     19  C   UNL A   1      32.885  22.736  27.531  1.00  0.00     0.031 C 
BRANCH  18  20
ATOM     20  C   UNL A   1      31.549  22.249  25.454  1.00  0.00     0.029 C 
BRANCH  20  21
ATOM     21  C   UNL A   1      32.178  21.743  24.159  1.00  0.00     0.037 C 
BRANCH  21  22
ATOM     22  C   UNL A   1      32.829  20.387  24.220  1.00  0.00    -0.048 A 
ATOM     23  C   UNL A   1      32.006  19.119  23.220  1.00  0.00     0.004 A 
ATOM     24  C   UNL A   1      34.412  19.996  25.029  1.00  0.00     0.004 A 
ATOM     25  C   UNL A   1      32.845  17.558  22.833  1.00  0.00     0.000 A 
ATOM     26  C   UNL A   1      35.250  18.380  24.660  1.00  0.00     0.000 A 
ATOM     27  C   UNL A   1      34.483  17.212  23.514  1.00  0.00     0.000 A 
ENDBRANCH  21  22
ENDBRANCH  20  21
ENDBRANCH  18  20
ENDBRANCH  16  18
ENDBRANCH  13  14
ENDBRANCH   3   6
ENDBRANCH   1   2
BRANCH   1  28
ATOM     28  C   UNL A   1      30.947  30.781  25.610  1.00  0.00     0.042 C 
BRANCH  28  29
ATOM     29  C   UNL A   1      32.046  31.129  26.578  1.00  0.00     0.118 C 
BRANCH  29  30
ATOM     30  N   UNL A   1      32.015  32.526  27.005  1.00  0.00    -0.352 N 
ATOM     31  C   UNL A   1      32.944  33.254  27.714  1.00  0.00     0.251 C 
ATOM     32  H   UNL A   1      31.205  33.023  26.746  1.00  0.00     0.163 HD
ATOM     33  O   UNL A   1      32.669  34.385  28.103  1.00  0.00    -0.269 OA
BRANCH  31  34
ATOM     34  C   UNL A   1      34.252  32.648  28.045  1.00  0.00     0.039 A 
ATOM     35  C   UNL A   1      35.391  33.453  28.058  1.00  0.00     0.014 A 
ATOM     36  C   UNL A   1      34.339  31.307  28.421  1.00  0.00     0.014 A 
ATOM     37  C   UNL A   1      36.587  32.942  28.565  1.00  0.00     0.010 A 
ATOM     38  C   UNL A   1      35.484  30.846  29.056  1.00  0.00     0.010 A 
ATOM     39  C   UNL A   1      36.621  31.660  29.138  1.00  0.00    -0.014 A 
BRANCH  39  40
ATOM     40  C   UNL A   1      37.819  31.166  29.863  1.00  0.00     0.031 A 
ATOM     41  C   UNL A   1      38.687  30.099  29.256  1.00  0.00     0.074 A 
ATOM     42  C   UNL A   1      38.067  31.613  31.112  1.00  0.00     0.049 A 
ATOM     43  N   UNL A   1      39.731  29.500  29.769  1.00  0.00    -0.248 NA
ATOM     44  C   UNL A   1      38.329  29.625  27.909  1.00  0.00     0.031 C 
ATOM     45  C   UNL A   1      37.252  32.588  31.841  1.00  0.00     0.029 A 
ATOM     46  N   UNL A   1      39.060  31.286  32.002  1.00  0.00    -0.354 N 
ATOM     47  C   UNL A   1      40.128  28.559  28.828  1.00  0.00     0.074 A 
ATOM     48  C   UNL A   1      39.200  28.643  27.724  1.00  0.00     0.031 C 
ATOM     49  C   UNL A   1      37.782  32.787  33.057  1.00  0.00     0.029 A 
ATOM     50  C   UNL A   1      38.938  31.914  33.220  1.00  0.00     0.049 A 
ATOM     51  H   UNL A   1      39.791  30.661  31.789  1.00  0.00     0.167 HD
ATOM     52  C   UNL A   1      41.183  27.713  28.872  1.00  0.00     0.034 A 
ATOM     53  C   UNL A   1      39.653  31.780  34.355  1.00  0.00     0.034 A 
ATOM     54  C   UNL A   1      42.116  27.646  29.964  1.00  0.00     0.049 A 
ATOM     55  C   UNL A   1      40.819  30.829  34.371  1.00  0.00     0.074 A 
ATOM     56  C   UNL A   1      43.268  26.887  30.060  1.00  0.00     0.029 A 
ATOM     57  N   UNL A   1      41.990  28.336  31.159  1.00  0.00    -0.354 N 
ATOM     58  N   UNL A   1      41.279  30.070  33.407  1.00  0.00    -0.248 NA
ATOM     59  C   UNL A   1      41.581  30.733  35.625  1.00  0.00     0.031 C 
ATOM     60  C   UNL A   1      43.806  27.070  31.336  1.00  0.00     0.029 A 
ATOM     61  C   UNL A   1      43.024  27.992  32.012  1.00  0.00     0.049 A 
ATOM     62  H   UNL A   1      41.274  28.977  31.369  1.00  0.00     0.167 HD
ATOM     63  C   UNL A   1      42.396  29.428  33.928  1.00  0.00     0.074 A 
ATOM     64  C   UNL A   1      42.564  29.913  35.282  1.00  0.00     0.031 C 
ATOM     65  C   UNL A   1      43.201  28.507  33.345  1.00  0.00     0.034 A 
BRANCH  52  66
ATOM     66  C   UNL A   1      41.404  26.795  27.700  1.00  0.00     0.023 A 
ATOM     67  C   UNL A   1      42.122  27.246  26.574  1.00  0.00     0.012 A 
ATOM     68  C   UNL A   1      40.975  25.455  27.756  1.00  0.00     0.148 A 
ATOM     69  C   UNL A   1      42.387  26.384  25.510  1.00  0.00     0.002 A 
ATOM     70  C   UNL A   1      41.287  24.589  26.717  1.00  0.00     0.091 A 
ATOM     71  F   UNL A   1      40.277  25.052  28.828  1.00  0.00    -0.205 F 
ATOM     72  C   UNL A   1      41.983  25.054  25.588  1.00  0.00     0.022 A 
BRANCH  70  73
ATOM     73  S   UNL A   1      40.886  22.839  26.758  1.00  0.00     0.127 S 
ATOM     74  O   UNL A   1      39.446  22.862  26.505  1.00  0.00    -0.237 OA
ATOM     75  O   UNL A   1      41.691  22.317  25.654  1.00  0.00    -0.237 OA
ATOM     76  O   UNL A   1      41.274  22.365  28.078  1.00  0.00    -0.744 OA
ENDBRANCH  70  73
ENDBRANCH  52  66
BRANCH  53  77
ATOM     77  C   UNL A   1      39.289  32.559  35.572  1.00  0.00     0.023 A 
ATOM     78  C   UNL A   1      38.456  31.985  36.552  1.00  0.00     0.012 A 
ATOM     79  C   UNL A   1      39.758  33.875  35.756  1.00  0.00     0.148 A 
ATOM     80  C   UNL A   1      38.059  32.722  37.669  1.00  0.00     0.002 A 
ATOM     81  C   UNL A   1      39.413  34.581  36.900  1.00  0.00     0.091 A 
ATOM     82  F   UNL A   1      40.544  34.406  34.809  1.00  0.00    -0.205 F 
ATOM     83  C   UNL A   1      38.543  34.016  37.847  1.00  0.00     0.022 A 
BRANCH  81  84
ATOM     84  S   UNL A   1      40.095  36.199  37.276  1.00  0.00     0.127 S 
ATOM     85  O   UNL A   1      41.467  35.866  37.645  1.00  0.00    -0.237 OA
ATOM     86  O   UNL A   1      39.949  36.889  35.994  1.00  0.00    -0.237 OA
ATOM     87  O   UNL A   1      39.266  36.739  38.345  1.00  0.00    -0.744 OA
ENDBRANCH  81  84
ENDBRANCH  53  77
BRANCH  65  88
ATOM     88  C   UNL A   1      44.359  27.980  34.151  1.00  0.00     0.023 A 
ATOM     89  C   UNL A   1      45.577  28.688  34.185  1.00  0.00     0.012 A 
ATOM     90  C   UNL A   1      44.213  26.816  34.933  1.00  0.00     0.148 A 
ATOM     91  C   UNL A   1      46.645  28.224  34.953  1.00  0.00     0.002 A 
ATOM     92  C   UNL A   1      45.262  26.392  35.740  1.00  0.00     0.091 A 
ATOM     93  F   UNL A   1      43.050  26.152  34.879  1.00  0.00    -0.205 F 
ATOM     94  C   UNL A   1      46.483  27.085  35.739  1.00  0.00     0.022 A 
BRANCH  92  95
ATOM     95  S   UNL A   1      45.118  24.993  36.856  1.00  0.00     0.127 S 
ATOM     96  O   UNL A   1      46.457  24.945  37.445  1.00  0.00    -0.237 OA
ATOM     97  O   UNL A   1      44.065  25.435  37.769  1.00  0.00    -0.237 OA
ATOM     98  O   UNL A   1      44.766  23.847  36.029  1.00  0.00    -0.744 OA
ENDBRANCH  92  95
ENDBRANCH  65  88
ENDBRANCH  39  40
ENDBRANCH  31  34
ENDBRANCH  29  30
ENDBRANCH  28  29
ENDBRANCH   1  28
TORSDOF 18
ENDMDL
MODEL 2
REMARK VINA RESULT:     -11.9      2.136      7.800
REMARK SMILES CC1=C(C)C[C@H](C(=O)N[C@@H](C)CCc2ccccc2)[C@@H](C(=O)NCCCNC(=O)c2ccc(-c3c4nc(c(-c5cccc(S(=O)(=O)[O-])c5F)c5ccc([nH]5)c(-c5cccc(S(=O)(=O)[O-])c5F)c5nc(c(-c6cccc(S(=O)(=O)[O-])c6F)c6ccc3[nH]6)C=C5)C=C4)cc2)C1
REMARK SMILES IDX 24 1 23 2 21 3 22 4 20 6 1 7 2 8 3 9 93 10 4 11 5 12 6 13
REMARK SMILES IDX 7 14 8 15 9 16 10 18 11 19 12 20 13 21 14 22 15 23 19 24
REMARK SMILES IDX 16 25 18 26 17 27 25 28 26 29 27 30 28 31 29 33 30 34 31 35
REMARK SMILES IDX 92 36 32 37 91 38 33 39 34 40 35 41 85 42 36 43 90 44 84 45
REMARK SMILES IDX 86 46 37 47 89 48 83 49 82 50 38 52 70 53 50 54 69 55 51 56
REMARK SMILES IDX 54 57 68 58 87 59 52 60 53 61 67 63 88 64 55 65 39 66 40 67
REMARK SMILES IDX 48 68 41 69 43 70 49 71 42 72 44 73 45 74 46 75 47 76 71 77
REMARK SMILES IDX 72 78 80 79 73 80 75 81 81 82 74 83 76 84 77 85 78 86 79 87
REMARK SMILES IDX 56 88 57 89 65 90 58 91 60 92 66 93 59 94 61 95 62 96 63 97
REMARK SMILES IDX 64 98
REMARK H PARENT 23 5 9 17 27 32 86 51 54 62
REMARK Flexibility Score: inf
ROOT
ATOM      1  C   UNL A   1      31.946  30.352  27.319  1.00  0.00     0.117 C 
ENDROOT
BRANCH   1   2
ATOM      2  N   UNL A   1      33.054  29.416  27.189  1.00  0.00    -0.356 N 
ATOM      3  C   UNL A   1      33.132  28.258  26.444  1.00  0.00     0.224 C 
ATOM      4  O   UNL A   1      34.254  27.781  26.262  1.00  0.00    -0.275 OA
ATOM      5  H   UNL A   1      33.861  29.640  27.707  1.00  0.00     0.163 HD
BRANCH   3   6
ATOM      6  C   UNL A   1      31.846  27.582  25.919  1.00  0.00     0.095 C 
ATOM      7  C   UNL A   1      29.088  29.243  22.248  1.00  0.00     0.039 C 
ATOM      8  C   UNL A   1      30.590  28.083  23.281  1.00  0.00    -0.074 C 
ATOM      9  C   UNL A   1      31.426  26.900  22.989  1.00  0.00    -0.074 C 
ATOM     10  C   UNL A   1      31.227  28.436  24.807  1.00  0.00     0.045 C 
ATOM     11  C   UNL A   1      31.663  26.004  21.727  1.00  0.00     0.039 C 
ATOM     12  C   UNL A   1      32.303  26.114  24.021  1.00  0.00     0.045 C 
ATOM     13  C   UNL A   1      32.014  26.151  25.497  1.00  0.00     0.095 C 
BRANCH  13  14
ATOM     14  C   UNL A   1      30.962  25.242  26.161  1.00  0.00     0.224 C 
ATOM     15  O   UNL A   1      29.925  25.770  26.595  1.00  0.00    -0.275 OA
ATOM     16  N   UNL A   1      30.988  23.891  26.264  1.00  0.00    -0.353 N 
ATOM     17  H   UNL A   1      30.115  23.498  26.495  1.00  0.00     0.163 HD
BRANCH  16  18
ATOM     18  C   UNL A   1      32.044  22.908  26.104  1.00  0.00     0.079 C 
ATOM     19  C   UNL A   1      32.744  22.654  27.436  1.00  0.00     0.031 C 
BRANCH  18  20
ATOM     20  C   UNL A   1      31.569  21.582  25.486  1.00  0.00     0.029 C 
BRANCH  20  21
ATOM     21  C   UNL A   1      32.222  21.242  24.149  1.00  0.00     0.037 C 
BRANCH  21  22
ATOM     22  C   UNL A   1      33.724  21.334  24.099  1.00  0.00    -0.048 A 
ATOM     23  C   UNL A   1      34.353  22.843  23.316  1.00  0.00     0.004 A 
ATOM     24  C   UNL A   1      34.892  20.191  24.901  1.00  0.00     0.004 A 
ATOM     25  C   UNL A   1      36.087  23.335  23.519  1.00  0.00     0.000 A 
ATOM     26  C   UNL A   1      36.675  20.683  25.074  1.00  0.00     0.000 A 
ATOM     27  C   UNL A   1      37.232  22.280  24.436  1.00  0.00     0.000 A 
ENDBRANCH  21  22
ENDBRANCH  20  21
ENDBRANCH  18  20
ENDBRANCH  16  18
ENDBRANCH  13  14
ENDBRANCH   3   6
ENDBRANCH   1   2
BRANCH   1  28
ATOM     28  C   UNL A   1      32.129  31.720  26.725  1.00  0.00     0.042 C 
BRANCH  28  29
ATOM     29  C   UNL A   1      33.187  32.536  27.417  1.00  0.00     0.118 C 
BRANCH  29  30
ATOM     30  N   UNL A   1      32.756  33.898  27.720  1.00  0.00    -0.352 N 
ATOM     31  C   UNL A   1      33.172  34.756  28.713  1.00  0.00     0.251 C 
ATOM     32  H   UNL A   1      32.060  34.258  27.123  1.00  0.00     0.163 HD
ATOM     33  O   UNL A   1      32.581  35.817  28.895  1.00  0.00    -0.269 OA
BRANCH  31  34
ATOM     34  C   UNL A   1      34.300  34.372  29.590  1.00  0.00     0.039 A 
ATOM     35  C   UNL A   1      34.033  33.728  30.798  1.00  0.00     0.014 A 
ATOM     36  C   UNL A   1      35.619  34.574  29.181  1.00  0.00     0.014 A 
ATOM     37  C   UNL A   1      35.088  33.181  31.531  1.00  0.00     0.010 A 
ATOM     38  C   UNL A   1      36.647  33.908  29.832  1.00  0.00     0.010 A 
ATOM     39  C   UNL A   1      36.394  33.201  31.013  1.00  0.00    -0.014 A 
BRANCH  39  40
ATOM     40  C   UNL A   1      37.499  32.456  31.669  1.00  0.00     0.031 A 
ATOM     41  C   UNL A   1      38.062  32.931  32.979  1.00  0.00     0.074 A 
ATOM     42  C   UNL A   1      38.058  31.406  31.031  1.00  0.00     0.049 A 
ATOM     43  N   UNL A   1      39.067  32.450  33.663  1.00  0.00    -0.248 NA
ATOM     44  C   UNL A   1      37.432  34.112  33.595  1.00  0.00     0.031 C 
ATOM     45  C   UNL A   1      37.653  30.899  29.717  1.00  0.00     0.029 A 
ATOM     46  N   UNL A   1      39.105  30.593  31.387  1.00  0.00    -0.354 N 
ATOM     47  C   UNL A   1      39.213  33.285  34.763  1.00  0.00     0.074 A 
ATOM     48  C   UNL A   1      38.213  34.322  34.644  1.00  0.00     0.031 C 
ATOM     49  C   UNL A   1      38.432  29.859  29.385  1.00  0.00     0.029 A 
ATOM     50  C   UNL A   1      39.430  29.660  30.430  1.00  0.00     0.049 A 
ATOM     51  H   UNL A   1      39.579  30.671  32.247  1.00  0.00     0.167 HD
ATOM     52  C   UNL A   1      40.089  33.187  35.789  1.00  0.00     0.034 A 
ATOM     53  C   UNL A   1      40.437  28.766  30.379  1.00  0.00     0.034 A 
ATOM     54  C   UNL A   1      41.069  32.143  35.913  1.00  0.00     0.049 A 
ATOM     55  C   UNL A   1      41.396  28.683  31.536  1.00  0.00     0.074 A 
ATOM     56  C   UNL A   1      41.940  31.907  36.961  1.00  0.00     0.029 A 
ATOM     57  N   UNL A   1      41.333  31.183  34.949  1.00  0.00    -0.354 N 
ATOM     58  N   UNL A   1      41.409  29.377  32.647  1.00  0.00    -0.248 NA
ATOM     59  C   UNL A   1      42.464  27.678  31.443  1.00  0.00     0.031 C 
ATOM     60  C   UNL A   1      42.772  30.843  36.606  1.00  0.00     0.029 A 
ATOM     61  C   UNL A   1      42.378  30.375  35.362  1.00  0.00     0.049 A 
ATOM     62  H   UNL A   1      40.848  31.088  34.098  1.00  0.00     0.167 HD
ATOM     63  C   UNL A   1      42.468  28.876  33.396  1.00  0.00     0.074 A 
ATOM     64  C   UNL A   1      43.050  27.797  32.626  1.00  0.00     0.031 C 
ATOM     65  C   UNL A   1      42.927  29.283  34.604  1.00  0.00     0.034 A 
BRANCH  52  66
ATOM     66  C   UNL A   1      40.026  34.226  36.876  1.00  0.00     0.023 A 
ATOM     67  C   UNL A   1      40.407  35.556  36.605  1.00  0.00     0.012 A 
ATOM     68  C   UNL A   1      39.503  33.900  38.143  1.00  0.00     0.148 A 
ATOM     69  C   UNL A   1      40.293  36.540  37.587  1.00  0.00     0.002 A 
ATOM     70  C   UNL A   1      39.344  34.895  39.098  1.00  0.00     0.091 A 
ATOM     71  F   UNL A   1      39.165  32.625  38.385  1.00  0.00    -0.205 F 
ATOM     72  C   UNL A   1      39.749  36.212  38.827  1.00  0.00     0.022 A 
BRANCH  70  73
ATOM     73  S   UNL A   1      38.577  34.594  40.693  1.00  0.00     0.127 S 
ATOM     74  O   UNL A   1      39.622  33.840  41.384  1.00  0.00    -0.237 OA
ATOM     75  O   UNL A   1      38.374  35.954  41.193  1.00  0.00    -0.237 OA
ATOM     76  O   UNL A   1      37.355  33.852  40.422  1.00  0.00    -0.744 OA
ENDBRANCH  70  73
ENDBRANCH  52  66
BRANCH  53  77
ATOM     77  C   UNL A   1      40.597  27.877  29.193  1.00  0.00     0.023 A 
ATOM     78  C   UNL A   1      39.837  26.695  29.092  1.00  0.00     0.012 A 
ATOM     79  C   UNL A   1      41.508  28.196  28.168  1.00  0.00     0.148 A 
ATOM     80  C   UNL A   1      40.017  25.824  28.017  1.00  0.00     0.002 A 
ATOM     81  C   UNL A   1      41.637  27.358  27.068  1.00  0.00     0.091 A 
ATOM     82  F   UNL A   1      42.227  29.321  28.286  1.00  0.00    -0.205 F 
ATOM     83  C   UNL A   1      40.911  26.159  27.001  1.00  0.00     0.022 A 
BRANCH  81  84
ATOM     84  S   UNL A   1      42.663  27.775  25.655  1.00  0.00     0.127 S 
ATOM     85  O   UNL A   1      42.001  28.975  25.150  1.00  0.00    -0.237 OA
ATOM     86  O   UNL A   1      43.962  28.005  26.286  1.00  0.00    -0.237 OA
ATOM     87  O   UNL A   1      42.619  26.613  24.778  1.00  0.00    -0.744 OA
ENDBRANCH  81  84
ENDBRANCH  53  77
BRANCH  65  88
ATOM     88  C   UNL A   1      44.101  28.542  35.190  1.00  0.00     0.023 A 
ATOM     89  C   UNL A   1      45.415  28.894  34.820  1.00  0.00     0.012 A 
ATOM     90  C   UNL A   1      43.900  27.543  36.164  1.00  0.00     0.148 A 
ATOM     91  C   UNL A   1      46.509  28.235  35.381  1.00  0.00     0.002 A 
ATOM     92  C   UNL A   1      44.996  26.932  36.760  1.00  0.00     0.091 A 
ATOM     93  F   UNL A   1      42.643  27.217  36.495  1.00  0.00    -0.205 F 
ATOM     94  C   UNL A   1      46.300  27.265  36.358  1.00  0.00     0.022 A 
BRANCH  92  95
ATOM     95  S   UNL A   1      44.832  25.739  38.092  1.00  0.00     0.127 S 
ATOM     96  O   UNL A   1      44.121  24.647  37.426  1.00  0.00    -0.237 OA
ATOM     97  O   UNL A   1      46.229  25.449  38.418  1.00  0.00    -0.237 OA
ATOM     98  O   UNL A   1      44.087  26.408  39.148  1.00  0.00    -0.744 OA
ENDBRANCH  92  95
ENDBRANCH  65  88
ENDBRANCH  39  40
ENDBRANCH  31  34
ENDBRANCH  29  30
ENDBRANCH  28  29
ENDBRANCH   1  28
TORSDOF 18
ENDMDL
MODEL 3
REMARK VINA RESULT:     -11.7      2.565      8.158
REMARK SMILES CC1=C(C)C[C@H](C(=O)N[C@@H](C)CCc2ccccc2)[C@@H](C(=O)NCCCNC(=O)c2ccc(-c3c4nc(c(-c5cccc(S(=O)(=O)[O-])c5F)c5ccc([nH]5)c(-c5cccc(S(=O)(=O)[O-])c5F)c5nc(c(-c6cccc(S(=O)(=O)[O-])c6F)c6ccc3[nH]6)C=C5)C=C4)cc2)C1
REMARK SMILES IDX 24 1 23 2 21 3 22 4 20 6 1 7 2 8 3 9 93 10 4 11 5 12 6 13
REMARK SMILES IDX 7 14 8 15 9 16 10 18 11 19 12 20 13 21 14 22 15 23 19 24
REMARK SMILES IDX 16 25 18 26 17 27 25 28 26 29 27 30 28 31 29 33 30 34 31 35
REMARK SMILES IDX 92 36 32 37 91 38 33 39 34 40 35 41 85 42 36 43 90 44 84 45
REMARK SMILES IDX 86 46 37 47 89 48 83 49 82 50 38 52 70 53 50 54 69 55 51 56
REMARK SMILES IDX 54 57 68 58 87 59 52 60 53 61 67 63 88 64 55 65 39 66 40 67
REMARK SMILES IDX 48 68 41 69 43 70 49 71 42 72 44 73 45 74 46 75 47 76 71 77
REMARK SMILES IDX 72 78 80 79 73 80 75 81 81 82 74 83 76 84 77 85 78 86 79 87
REMARK SMILES IDX 56 88 57 89 65 90 58 91 60 92 66 93 59 94 61 95 62 96 63 97
REMARK SMILES IDX 64 98
REMARK H PARENT 23 5 9 17 27 32 86 51 54 62
REMARK Flexibility Score: inf
ROOT
ATOM      1  C   UNL A   1      31.787  29.468  25.399  1.00  0.00     0.117 C 
ENDROOT
BRANCH   1   2
ATOM      2  N   UNL A   1      33.009  29.365  24.614  1.00  0.00    -0.356 N 
ATOM      3  C   UNL A   1      33.501  28.289  23.906  1.00  0.00     0.224 C 
ATOM      4  O   UNL A   1      34.398  28.514  23.091  1.00  0.00    -0.275 OA
ATOM      5  H   UNL A   1      33.563  30.179  24.584  1.00  0.00     0.163 HD
BRANCH   3   6
ATOM      6  C   UNL A   1      32.967  26.866  24.183  1.00  0.00     0.095 C 
ATOM      7  C   UNL A   1      33.219  23.109  21.075  1.00  0.00     0.039 C 
ATOM      8  C   UNL A   1      33.751  24.414  22.712  1.00  0.00    -0.074 C 
ATOM      9  C   UNL A   1      34.678  24.377  23.862  1.00  0.00    -0.074 C 
ATOM     10  C   UNL A   1      33.169  25.984  22.944  1.00  0.00     0.045 C 
ATOM     11  C   UNL A   1      35.782  23.381  24.354  1.00  0.00     0.039 C 
ATOM     12  C   UNL A   1      34.712  25.395  25.051  1.00  0.00     0.045 C 
ATOM     13  C   UNL A   1      33.510  26.219  25.424  1.00  0.00     0.095 C 
BRANCH  13  14
ATOM     14  C   UNL A   1      32.378  25.681  26.319  1.00  0.00     0.224 C 
ATOM     15  O   UNL A   1      31.622  26.503  26.861  1.00  0.00    -0.275 OA
ATOM     16  N   UNL A   1      32.044  24.385  26.534  1.00  0.00    -0.353 N 
ATOM     17  H   UNL A   1      31.150  24.271  26.930  1.00  0.00     0.163 HD
BRANCH  16  18
ATOM     18  C   UNL A   1      32.739  23.133  26.298  1.00  0.00     0.079 C 
ATOM     19  C   UNL A   1      33.403  22.640  27.581  1.00  0.00     0.031 C 
BRANCH  18  20
ATOM     20  C   UNL A   1      31.849  22.032  25.697  1.00  0.00     0.029 C 
BRANCH  20  21
ATOM     21  C   UNL A   1      32.122  21.736  24.225  1.00  0.00     0.037 C 
BRANCH  21  22
ATOM     22  C   UNL A   1      32.849  20.451  23.928  1.00  0.00    -0.048 A 
ATOM     23  C   UNL A   1      34.490  20.331  24.689  1.00  0.00     0.004 A 
ATOM     24  C   UNL A   1      32.156  19.005  23.068  1.00  0.00     0.004 A 
ATOM     25  C   UNL A   1      35.343  18.734  24.798  1.00  0.00     0.000 A 
ATOM     26  C   UNL A   1      33.052  17.380  23.151  1.00  0.00     0.000 A 
ATOM     27  C   UNL A   1      34.601  17.254  24.072  1.00  0.00     0.000 A 
ENDBRANCH  21  22
ENDBRANCH  20  21
ENDBRANCH  18  20
ENDBRANCH  16  18
ENDBRANCH  13  14
ENDBRANCH   3   6
ENDBRANCH   1   2
BRANCH   1  28
ATOM     28  C   UNL A   1      31.924  29.909  26.829  1.00  0.00     0.042 C 
BRANCH  28  29
ATOM     29  C   UNL A   1      33.353  30.064  27.273  1.00  0.00     0.118 C 
BRANCH  29  30
ATOM     30  N   UNL A   1      33.656  31.400  27.780  1.00  0.00    -0.352 N 
ATOM     31  C   UNL A   1      34.745  31.848  28.492  1.00  0.00     0.251 C 
ATOM     32  H   UNL A   1      32.977  32.085  27.582  1.00  0.00     0.163 HD
ATOM     33  O   UNL A   1      34.749  32.984  28.956  1.00  0.00    -0.269 OA
BRANCH  31  34
ATOM     34  C   UNL A   1      35.886  30.938  28.737  1.00  0.00     0.039 A 
ATOM     35  C   UNL A   1      37.080  31.143  28.045  1.00  0.00     0.014 A 
ATOM     36  C   UNL A   1      35.802  29.938  29.706  1.00  0.00     0.014 A 
ATOM     37  C   UNL A   1      38.218  30.425  28.415  1.00  0.00     0.010 A 
ATOM     38  C   UNL A   1      36.961  29.332  30.168  1.00  0.00     0.010 A 
ATOM     39  C   UNL A   1      38.185  29.571  29.530  1.00  0.00    -0.014 A 
BRANCH  39  40
ATOM     40  C   UNL A   1      39.421  28.950  30.069  1.00  0.00     0.031 A 
ATOM     41  C   UNL A   1      40.096  29.531  31.281  1.00  0.00     0.074 A 
ATOM     42  C   UNL A   1      39.988  27.920  29.407  1.00  0.00     0.049 A 
ATOM     43  N   UNL A   1      41.214  29.166  31.851  1.00  0.00    -0.248 NA
ATOM     44  C   UNL A   1      39.446  30.685  31.926  1.00  0.00     0.031 C 
ATOM     45  C   UNL A   1      39.472  27.319  28.174  1.00  0.00     0.029 A 
ATOM     46  N   UNL A   1      41.137  27.212  29.660  1.00  0.00    -0.354 N 
ATOM     47  C   UNL A   1      41.419  30.062  32.893  1.00  0.00     0.074 A 
ATOM     48  C   UNL A   1      40.326  31.008  32.861  1.00  0.00     0.031 C 
ATOM     49  C   UNL A   1      40.292  26.332  27.786  1.00  0.00     0.029 A 
ATOM     50  C   UNL A   1      41.422  26.264  28.705  1.00  0.00     0.049 A 
ATOM     51  H   UNL A   1      41.703  27.370  30.450  1.00  0.00     0.167 HD
ATOM     52  C   UNL A   1      42.418  30.084  33.805  1.00  0.00     0.034 A 
ATOM     53  C   UNL A   1      42.489  25.453  28.563  1.00  0.00     0.034 A 
ATOM     54  C   UNL A   1      43.493  29.131  33.844  1.00  0.00     0.049 A 
ATOM     55  C   UNL A   1      43.585  25.504  29.593  1.00  0.00     0.074 A 
ATOM     56  C   UNL A   1      44.501  29.016  34.784  1.00  0.00     0.029 A 
ATOM     57  N   UNL A   1      43.720  28.151  32.892  1.00  0.00    -0.354 N 
ATOM     58  N   UNL A   1      43.673  26.249  30.667  1.00  0.00    -0.248 NA
ATOM     59  C   UNL A   1      44.717  24.586  29.405  1.00  0.00     0.031 C 
ATOM     60  C   UNL A   1      45.373  28.008  34.367  1.00  0.00     0.029 A 
ATOM     61  C   UNL A   1      44.873  27.451  33.201  1.00  0.00     0.049 A 
ATOM     62  H   UNL A   1      43.146  27.977  32.112  1.00  0.00     0.167 HD
ATOM     63  C   UNL A   1      44.854  25.872  31.296  1.00  0.00     0.074 A 
ATOM     64  C   UNL A   1      45.429  24.808  30.500  1.00  0.00     0.031 C 
ATOM     65  C   UNL A   1      45.419  26.372  32.421  1.00  0.00     0.034 A 
BRANCH  52  66
ATOM     66  C   UNL A   1      42.398  31.166  34.852  1.00  0.00     0.023 A 
ATOM     67  C   UNL A   1      41.813  30.919  36.111  1.00  0.00     0.012 A 
ATOM     68  C   UNL A   1      43.039  32.397  34.616  1.00  0.00     0.148 A 
ATOM     69  C   UNL A   1      41.844  31.892  37.110  1.00  0.00     0.002 A 
ATOM     70  C   UNL A   1      43.111  33.340  35.632  1.00  0.00     0.091 A 
ATOM     71  F   UNL A   1      43.571  32.618  33.405  1.00  0.00    -0.205 F 
ATOM     72  C   UNL A   1      42.505  33.095  36.875  1.00  0.00     0.022 A 
BRANCH  70  73
ATOM     73  S   UNL A   1      44.011  34.885  35.459  1.00  0.00     0.127 S 
ATOM     74  O   UNL A   1      43.773  35.510  36.760  1.00  0.00    -0.237 OA
ATOM     75  O   UNL A   1      45.380  34.417  35.248  1.00  0.00    -0.237 OA
ATOM     76  O   UNL A   1      43.416  35.575  34.324  1.00  0.00    -0.744 OA
ENDBRANCH  70  73
ENDBRANCH  52  66
BRANCH  53  77
ATOM     77  C   UNL A   1      42.581  24.525  27.400  1.00  0.00     0.023 A 
ATOM     78  C   UNL A   1      43.187  24.955  26.202  1.00  0.00     0.012 A 
ATOM     79  C   UNL A   1      42.058  23.219  27.473  1.00  0.00     0.148 A 
ATOM     80  C   UNL A   1      43.229  24.118  25.086  1.00  0.00     0.002 A 
ATOM     81  C   UNL A   1      42.159  22.369  26.380  1.00  0.00     0.091 A 
ATOM     82  F   UNL A   1      41.478  22.832  28.617  1.00  0.00    -0.205 F 
ATOM     83  C   UNL A   1      42.722  22.824  25.177  1.00  0.00     0.022 A 
BRANCH  81  84
ATOM     84  S   UNL A   1      41.655  20.647  26.450  1.00  0.00     0.127 S 
ATOM     85  O   UNL A   1      40.218  20.748  26.216  1.00  0.00    -0.237 OA
ATOM     86  O   UNL A   1      42.422  20.066  25.348  1.00  0.00    -0.237 OA
ATOM     87  O   UNL A   1      42.050  20.174  27.770  1.00  0.00    -0.744 OA
ENDBRANCH  81  84
ENDBRANCH  53  77
BRANCH  65  88
ATOM     88  C   UNL A   1      46.715  25.758  32.884  1.00  0.00     0.023 A 
ATOM     89  C   UNL A   1      46.712  24.793  33.911  1.00  0.00     0.012 A 
ATOM     90  C   UNL A   1      47.929  26.090  32.249  1.00  0.00     0.148 A 
ATOM     91  C   UNL A   1      47.903  24.197  34.326  1.00  0.00     0.002 A 
ATOM     92  C   UNL A   1      49.102  25.450  32.628  1.00  0.00     0.091 A 
ATOM     93  F   UNL A   1      47.911  27.017  31.281  1.00  0.00    -0.205 F 
ATOM     94  C   UNL A   1      49.094  24.516  33.677  1.00  0.00     0.022 A 
BRANCH  92  95
ATOM     95  S   UNL A   1      50.667  25.724  31.791  1.00  0.00     0.127 S 
ATOM     96  O   UNL A   1      51.553  24.813  32.515  1.00  0.00    -0.237 OA
ATOM     97  O   UNL A   1      50.358  25.315  30.421  1.00  0.00    -0.237 OA
ATOM     98  O   UNL A   1      50.971  27.139  31.950  1.00  0.00    -0.744 OA
ENDBRANCH  92  95
ENDBRANCH  65  88
ENDBRANCH  39  40
ENDBRANCH  31  34
ENDBRANCH  29  30
ENDBRANCH  28  29
ENDBRANCH   1  28
TORSDOF 18
ENDMDL
