MODEL 1
REMARK VINA RESULT:      -9.3      0.000      0.000
REMARK SMILES O=C(CCN1C(=O)S/C(=C\c2ccccc2F)C1=O)Nc1ccc(C(=O)NCCCNC(=O)c2ccc(-c3c4nc(c(-c5cccc(S(=O)(=O)[O-])c5F)c5ccc([nH]5)c(-c5cccc(S(=O)(=O)[O-])c5F)c5nc(c(-c6cccc(S(=O)(=O)[O-])c6F)c6ccc3[nH]6)C=C5)C=C4)cc2)c(O)c1
REMARK SMILES IDX 28 1 27 2 25 3 26 4 24 6 21 7 22 8 99 9 23 10 97 11 20 12
REMARK SMILES IDX 1 13 2 14 3 16 4 17 5 18 6 19 18 20 7 21 8 22 9 23 19 24
REMARK SMILES IDX 10 25 11 26 12 27 16 28 13 29 15 30 17 31 14 32 98 33 29 35
REMARK SMILES IDX 30 36 31 37 32 38 33 40 34 41 35 42 96 43 36 44 95 45 37 46
REMARK SMILES IDX 38 47 39 48 89 49 40 50 94 51 88 52 90 53 41 54 93 55 87 56
REMARK SMILES IDX 86 57 42 59 74 60 54 61 73 62 55 63 58 64 72 65 91 66 56 67
REMARK SMILES IDX 57 68 71 70 92 71 59 72 43 73 44 74 52 75 45 76 47 77 53 78
REMARK SMILES IDX 46 79 48 80 49 81 50 82 51 83 75 84 76 85 84 86 77 87 79 88
REMARK SMILES IDX 85 89 78 90 80 91 81 92 82 93 83 94 60 95 61 96 69 97 62 98
REMARK SMILES IDX 64 99 70 100 63 101 65 102 66 103 67 104 68 105
REMARK H PARENT 27 5 20 15 98 34 31 39 90 58 58 69
REMARK Flexibility Score: inf
ROOT
ATOM      1  C   UNL A   1      34.856  34.533  29.036  1.00  0.00     0.118 C 
ENDROOT
BRANCH   1   2
ATOM      2  N   UNL A   1      34.710  34.085  30.418  1.00  0.00    -0.352 N 
ATOM      3  C   UNL A   1      35.644  33.831  31.393  1.00  0.00     0.255 C 
ATOM      4  O   UNL A   1      35.256  33.465  32.501  1.00  0.00    -0.269 OA
ATOM      5  H   UNL A   1      33.778  33.939  30.700  1.00  0.00     0.163 HD
BRANCH   3   6
ATOM      6  C   UNL A   1      37.099  33.945  31.141  1.00  0.00     0.081 A 
ATOM      7  C   UNL A   1      39.785  34.281  30.372  1.00  0.00     0.044 A 
ATOM      8  C   UNL A   1      38.904  33.594  29.542  1.00  0.00     0.027 A 
ATOM      9  C   UNL A   1      39.343  34.705  31.631  1.00  0.00     0.073 A 
ATOM     10  C   UNL A   1      37.568  33.429  29.924  1.00  0.00     0.020 A 
ATOM     11  C   UNL A   1      38.020  34.505  32.027  1.00  0.00     0.130 A 
BRANCH   7  12
ATOM     12  N   UNL A   1      41.118  34.573  30.027  1.00  0.00    -0.326 N 
ATOM     13  O   UNL A   1      40.879  35.820  28.079  1.00  0.00    -0.275 OA
ATOM     14  C   UNL A   1      41.574  35.312  28.954  1.00  0.00     0.226 C 
ATOM     15  H   UNL A   1      41.809  34.204  30.622  1.00  0.00     0.169 HD
BRANCH  14  16
ATOM     16  C   UNL A   1      43.090  35.398  28.867  1.00  0.00     0.122 C 
BRANCH  16  17
ATOM     17  C   UNL A   1      43.859  34.294  29.599  1.00  0.00     0.140 C 
BRANCH  17  18
ATOM     18  N   UNL A   1      44.233  33.159  28.760  1.00  0.00    -0.268 N 
ATOM     19  C   UNL A   1      45.292  33.242  27.886  1.00  0.00     0.293 C 
ATOM     20  C   UNL A   1      43.511  31.986  28.747  1.00  0.00     0.268 C 
ATOM     21  O   UNL A   1      46.028  34.194  27.717  1.00  0.00    -0.261 OA
ATOM     22  S   UNL A   1      45.508  31.708  27.066  1.00  0.00    -0.022 SA
ATOM     23  C   UNL A   1      44.237  30.965  27.951  1.00  0.00     0.083 C 
ATOM     24  O   UNL A   1      42.471  31.770  29.351  1.00  0.00    -0.268 OA
ATOM     25  C   UNL A   1      43.956  29.659  28.059  1.00  0.00     0.032 C 
BRANCH  25  26
ATOM     26  C   UNL A   1      44.752  28.585  27.456  1.00  0.00     0.012 A 
ATOM     27  C   UNL A   1      44.364  28.020  26.240  1.00  0.00     0.011 A 
ATOM     28  C   UNL A   1      45.909  28.109  28.087  1.00  0.00     0.130 A 
ATOM     29  C   UNL A   1      45.138  27.012  25.657  1.00  0.00     0.001 A 
ATOM     30  C   UNL A   1      46.688  27.112  27.507  1.00  0.00     0.040 A 
ATOM     31  F   UNL A   1      46.282  28.609  29.274  1.00  0.00    -0.206 F 
ATOM     32  C   UNL A   1      46.303  26.564  26.286  1.00  0.00     0.003 A 
ENDBRANCH  25  26
ENDBRANCH  17  18
ENDBRANCH  16  17
ENDBRANCH  14  16
ENDBRANCH   7  12
BRANCH  11  33
ATOM     33  O   UNL A   1      37.727  34.860  33.315  1.00  0.00    -0.507 OA
ATOM     34  H   UNL A   1      38.112  34.391  34.029  1.00  0.00     0.293 HD
ENDBRANCH  11  33
ENDBRANCH   3   6
ENDBRANCH   1   2
BRANCH   1  35
ATOM     35  C   UNL A   1      34.448  33.512  27.983  1.00  0.00     0.042 C 
BRANCH  35  36
ATOM     36  C   UNL A   1      33.734  32.270  28.500  1.00  0.00     0.118 C 
BRANCH  36  37
ATOM     37  N   UNL A   1      33.596  31.203  27.514  1.00  0.00    -0.352 N 
ATOM     38  C   UNL A   1      34.449  30.184  27.152  1.00  0.00     0.251 C 
ATOM     39  H   UNL A   1      32.743  31.213  27.021  1.00  0.00     0.163 HD
ATOM     40  O   UNL A   1      34.149  29.456  26.208  1.00  0.00    -0.269 OA
BRANCH  38  41
ATOM     41  C   UNL A   1      35.740  29.984  27.850  1.00  0.00     0.039 A 
ATOM     42  C   UNL A   1      35.732  29.495  29.161  1.00  0.00     0.014 A 
ATOM     43  C   UNL A   1      36.955  30.255  27.224  1.00  0.00     0.014 A 
ATOM     44  C   UNL A   1      36.937  29.160  29.786  1.00  0.00     0.010 A 
ATOM     45  C   UNL A   1      38.145  29.824  27.804  1.00  0.00     0.010 A 
ATOM     46  C   UNL A   1      38.150  29.251  29.085  1.00  0.00    -0.014 A 
BRANCH  46  47
ATOM     47  C   UNL A   1      39.420  28.701  29.632  1.00  0.00     0.031 A 
ATOM     48  C   UNL A   1      40.152  29.416  30.736  1.00  0.00     0.074 A 
ATOM     49  C   UNL A   1      39.981  27.624  29.044  1.00  0.00     0.049 A 
ATOM     50  N   UNL A   1      41.331  29.160  31.240  1.00  0.00    -0.248 NA
ATOM     51  C   UNL A   1      39.489  30.587  31.335  1.00  0.00     0.031 C 
ATOM     52  C   UNL A   1      39.414  26.884  27.913  1.00  0.00     0.029 A 
ATOM     53  N   UNL A   1      41.174  26.985  29.287  1.00  0.00    -0.354 N 
ATOM     54  C   UNL A   1      41.570  30.157  32.178  1.00  0.00     0.074 A 
ATOM     55  C   UNL A   1      40.422  31.036  32.163  1.00  0.00     0.031 C 
ATOM     56  C   UNL A   1      40.253  25.900  27.561  1.00  0.00     0.029 A 
ATOM     57  C   UNL A   1      41.442  25.962  28.404  1.00  0.00     0.049 A 
ATOM     58  H   UNL A   1      41.779  27.234  30.022  1.00  0.00     0.167 HD
ATOM     59  C   UNL A   1      42.640  30.314  32.992  1.00  0.00     0.034 A 
ATOM     60  C   UNL A   1      42.530  25.177  28.265  1.00  0.00     0.034 A 
ATOM     61  C   UNL A   1      43.761  29.413  33.037  1.00  0.00     0.049 A 
ATOM     62  C   UNL A   1      43.685  25.349  29.212  1.00  0.00     0.074 A 
ATOM     63  C   UNL A   1      44.846  29.443  33.896  1.00  0.00     0.029 A 
ATOM     64  N   UNL A   1      43.950  28.332  32.192  1.00  0.00    -0.354 N 
ATOM     65  N   UNL A   1      43.829  26.215  30.184  1.00  0.00    -0.248 NA
ATOM     66  C   UNL A   1      44.812  24.415  29.069  1.00  0.00     0.031 C 
ATOM     67  C   UNL A   1      45.711  28.404  33.544  1.00  0.00     0.029 A 
ATOM     68  C   UNL A   1      45.138  27.694  32.501  1.00  0.00     0.049 A 
ATOM     69  H   UNL A   1      43.330  28.058  31.477  1.00  0.00     0.167 HD
ATOM     70  C   UNL A   1      45.039  25.907  30.793  1.00  0.00     0.074 A 
ATOM     71  C   UNL A   1      45.583  24.763  30.090  1.00  0.00     0.031 C 
ATOM     72  C   UNL A   1      45.648  26.524  31.835  1.00  0.00     0.034 A 
BRANCH  59  73
ATOM     73  C   UNL A   1      42.651  31.477  33.948  1.00  0.00     0.023 A 
ATOM     74  C   UNL A   1      43.102  32.738  33.509  1.00  0.00     0.012 A 
ATOM     75  C   UNL A   1      42.086  31.353  35.234  1.00  0.00     0.148 A 
ATOM     76  C   UNL A   1      43.001  33.855  34.336  1.00  0.00     0.002 A 
ATOM     77  C   UNL A   1      41.942  32.480  36.033  1.00  0.00     0.091 A 
ATOM     78  F   UNL A   1      41.682  30.141  35.639  1.00  0.00    -0.205 F 
ATOM     79  C   UNL A   1      42.406  33.730  35.589  1.00  0.00     0.022 A 
BRANCH  77  80
ATOM     80  S   UNL A   1      41.103  32.445  37.621  1.00  0.00     0.127 S 
ATOM     81  O   UNL A   1      41.109  33.860  37.989  1.00  0.00    -0.237 OA
ATOM     82  O   UNL A   1      39.789  31.914  37.259  1.00  0.00    -0.237 OA
ATOM     83  O   UNL A   1      41.898  31.578  38.480  1.00  0.00    -0.744 OA
ENDBRANCH  77  80
ENDBRANCH  59  73
BRANCH  60  84
ATOM     84  C   UNL A   1      42.552  24.124  27.208  1.00  0.00     0.023 A 
ATOM     85  C   UNL A   1      43.256  24.355  26.010  1.00  0.00     0.012 A 
ATOM     86  C   UNL A   1      41.919  22.882  27.404  1.00  0.00     0.148 A 
ATOM     87  C   UNL A   1      43.307  23.378  25.015  1.00  0.00     0.002 A 
ATOM     88  C   UNL A   1      42.027  21.891  26.436  1.00  0.00     0.091 A 
ATOM     89  F   UNL A   1      41.244  22.686  28.545  1.00  0.00    -0.205 F 
ATOM     90  C   UNL A   1      42.705  22.143  25.233  1.00  0.00     0.022 A 
BRANCH  88  91
ATOM     91  S   UNL A   1      41.413  20.222  26.693  1.00  0.00     0.127 S 
ATOM     92  O   UNL A   1      41.856  19.550  25.474  1.00  0.00    -0.237 OA
ATOM     93  O   UNL A   1      42.127  19.826  27.909  1.00  0.00    -0.237 OA
ATOM     94  O   UNL A   1      39.972  20.354  26.857  1.00  0.00    -0.744 OA
ENDBRANCH  88  91
ENDBRANCH  60  84
BRANCH  72  95
ATOM     95  C   UNL A   1      46.953  25.957  32.333  1.00  0.00     0.023 A 
ATOM     96  C   UNL A   1      46.977  25.130  33.472  1.00  0.00     0.012 A 
ATOM     97  C   UNL A   1      48.142  26.165  31.604  1.00  0.00     0.148 A 
ATOM     98  C   UNL A   1      48.169  24.544  33.896  1.00  0.00     0.002 A 
ATOM     99  C   UNL A   1      49.313  25.531  31.998  1.00  0.00     0.091 A 
ATOM    100  F   UNL A   1      48.102  26.970  30.532  1.00  0.00    -0.205 F 
ATOM    101  C   UNL A   1      49.332  24.732  33.152  1.00  0.00     0.022 A 
BRANCH  99 102
ATOM    102  S   UNL A   1      50.829  25.627  31.039  1.00  0.00     0.127 S 
ATOM    103  O   UNL A   1      50.719  24.442  30.189  1.00  0.00    -0.237 OA
ATOM    104  O   UNL A   1      50.669  26.899  30.334  1.00  0.00    -0.237 OA
ATOM    105  O   UNL A   1      51.919  25.603  32.005  1.00  0.00    -0.744 OA
ENDBRANCH  99 102
ENDBRANCH  72  95
ENDBRANCH  46  47
ENDBRANCH  38  41
ENDBRANCH  36  37
ENDBRANCH  35  36
ENDBRANCH   1  35
TORSDOF 19
ENDMDL
MODEL 2
REMARK VINA RESULT:      -9.2      1.777      2.065
REMARK SMILES O=C(CCN1C(=O)S/C(=C\c2ccccc2F)C1=O)Nc1ccc(C(=O)NCCCNC(=O)c2ccc(-c3c4nc(c(-c5cccc(S(=O)(=O)[O-])c5F)c5ccc([nH]5)c(-c5cccc(S(=O)(=O)[O-])c5F)c5nc(c(-c6cccc(S(=O)(=O)[O-])c6F)c6ccc3[nH]6)C=C5)C=C4)cc2)c(O)c1
REMARK SMILES IDX 28 1 27 2 25 3 26 4 24 6 21 7 22 8 99 9 23 10 97 11 20 12
REMARK SMILES IDX 1 13 2 14 3 16 4 17 5 18 6 19 18 20 7 21 8 22 9 23 19 24
REMARK SMILES IDX 10 25 11 26 12 27 16 28 13 29 15 30 17 31 14 32 98 33 29 35
REMARK SMILES IDX 30 36 31 37 32 38 33 40 34 41 35 42 96 43 36 44 95 45 37 46
REMARK SMILES IDX 38 47 39 48 89 49 40 50 94 51 88 52 90 53 41 54 93 55 87 56
REMARK SMILES IDX 86 57 42 59 74 60 54 61 73 62 55 63 58 64 72 65 91 66 56 67
REMARK SMILES IDX 57 68 71 70 92 71 59 72 43 73 44 74 52 75 45 76 47 77 53 78
REMARK SMILES IDX 46 79 48 80 49 81 50 82 51 83 75 84 76 85 84 86 77 87 79 88
REMARK SMILES IDX 85 89 78 90 80 91 81 92 82 93 83 94 60 95 61 96 69 97 62 98
REMARK SMILES IDX 64 99 70 100 63 101 65 102 66 103 67 104 68 105
REMARK H PARENT 27 5 20 15 98 34 31 39 90 58 58 69
REMARK Flexibility Score: inf
ROOT
ATOM      1  C   UNL A   1      34.822  34.585  29.127  1.00  0.00     0.118 C 
ENDROOT
BRANCH   1   2
ATOM      2  N   UNL A   1      34.618  34.129  30.499  1.00  0.00    -0.352 N 
ATOM      3  C   UNL A   1      35.513  33.822  31.496  1.00  0.00     0.255 C 
ATOM      4  O   UNL A   1      35.078  33.461  32.588  1.00  0.00    -0.269 OA
ATOM      5  H   UNL A   1      33.673  34.022  30.755  1.00  0.00     0.163 HD
BRANCH   3   6
ATOM      6  C   UNL A   1      36.978  33.872  31.284  1.00  0.00     0.081 A 
ATOM      7  C   UNL A   1      39.696  34.060  30.579  1.00  0.00     0.044 A 
ATOM      8  C   UNL A   1      38.821  33.319  29.789  1.00  0.00     0.027 A 
ATOM      9  C   UNL A   1      39.227  34.616  31.775  1.00  0.00     0.073 A 
ATOM     10  C   UNL A   1      37.469  33.228  30.139  1.00  0.00     0.020 A 
ATOM     11  C   UNL A   1      37.887  34.491  32.143  1.00  0.00     0.130 A 
BRANCH   7  12
ATOM     12  N   UNL A   1      41.047  34.282  30.253  1.00  0.00    -0.326 N 
ATOM     13  O   UNL A   1      40.902  35.654  28.382  1.00  0.00    -0.275 OA
ATOM     14  C   UNL A   1      41.556  35.050  29.226  1.00  0.00     0.226 C 
ATOM     15  H   UNL A   1      41.709  33.833  30.827  1.00  0.00     0.169 HD
BRANCH  14  16
ATOM     16  C   UNL A   1      43.076  35.039  29.147  1.00  0.00     0.122 C 
BRANCH  16  17
ATOM     17  C   UNL A   1      43.776  33.988  30.012  1.00  0.00     0.140 C 
BRANCH  17  18
ATOM     18  N   UNL A   1      44.332  32.861  29.267  1.00  0.00    -0.268 N 
ATOM     19  C   UNL A   1      45.489  32.996  28.537  1.00  0.00     0.293 C 
ATOM     20  C   UNL A   1      43.695  31.642  29.197  1.00  0.00     0.268 C 
ATOM     21  O   UNL A   1      46.178  33.992  28.435  1.00  0.00    -0.261 OA
ATOM     22  S   UNL A   1      45.911  31.462  27.802  1.00  0.00    -0.022 SA
ATOM     23  C   UNL A   1      44.585  30.654  28.536  1.00  0.00     0.083 C 
ATOM     24  O   UNL A   1      42.600  31.369  29.667  1.00  0.00    -0.268 OA
ATOM     25  C   UNL A   1      44.377  29.336  28.649  1.00  0.00     0.032 C 
BRANCH  25  26
ATOM     26  C   UNL A   1      45.314  28.305  28.190  1.00  0.00     0.012 A 
ATOM     27  C   UNL A   1      45.101  27.652  26.974  1.00  0.00     0.011 A 
ATOM     28  C   UNL A   1      46.432  27.957  28.960  1.00  0.00     0.130 A 
ATOM     29  C   UNL A   1      46.010  26.686  26.530  1.00  0.00     0.001 A 
ATOM     30  C   UNL A   1      47.343  27.003  28.519  1.00  0.00     0.040 A 
ATOM     31  F   UNL A   1      46.637  28.543  30.149  1.00  0.00    -0.206 F 
ATOM     32  C   UNL A   1      47.133  26.367  27.297  1.00  0.00     0.003 A 
ENDBRANCH  25  26
ENDBRANCH  17  18
ENDBRANCH  16  17
ENDBRANCH  14  16
ENDBRANCH   7  12
BRANCH  11  33
ATOM     33  O   UNL A   1      37.563  34.976  33.380  1.00  0.00    -0.507 OA
ATOM     34  H   UNL A   1      37.084  34.442  33.983  1.00  0.00     0.293 HD
ENDBRANCH  11  33
ENDBRANCH   3   6
ENDBRANCH   1   2
BRANCH   1  35
ATOM     35  C   UNL A   1      34.437  33.579  28.052  1.00  0.00     0.042 C 
BRANCH  35  36
ATOM     36  C   UNL A   1      33.697  32.338  28.533  1.00  0.00     0.118 C 
BRANCH  36  37
ATOM     37  N   UNL A   1      33.559  31.293  27.525  1.00  0.00    -0.352 N 
ATOM     38  C   UNL A   1      34.399  30.263  27.162  1.00  0.00     0.251 C 
ATOM     39  H   UNL A   1      32.717  31.328  27.015  1.00  0.00     0.163 HD
ATOM     40  O   UNL A   1      34.104  29.559  26.198  1.00  0.00    -0.269 OA
BRANCH  38  41
ATOM     41  C   UNL A   1      35.670  30.025  27.882  1.00  0.00     0.039 A 
ATOM     42  C   UNL A   1      35.624  29.596  29.214  1.00  0.00     0.014 A 
ATOM     43  C   UNL A   1      36.904  30.199  27.259  1.00  0.00     0.014 A 
ATOM     44  C   UNL A   1      36.803  29.224  29.867  1.00  0.00     0.010 A 
ATOM     45  C   UNL A   1      38.064  29.730  27.871  1.00  0.00     0.010 A 
ATOM     46  C   UNL A   1      38.025  29.217  29.176  1.00  0.00    -0.014 A 
BRANCH  46  47
ATOM     47  C   UNL A   1      39.258  28.623  29.762  1.00  0.00     0.031 A 
ATOM     48  C   UNL A   1      39.917  29.251  30.960  1.00  0.00     0.074 A 
ATOM     49  C   UNL A   1      39.857  27.590  29.132  1.00  0.00     0.049 A 
ATOM     50  N   UNL A   1      41.062  28.954  31.518  1.00  0.00    -0.248 NA
ATOM     51  C   UNL A   1      39.216  30.377  31.600  1.00  0.00     0.031 C 
ATOM     52  C   UNL A   1      39.364  26.937  27.916  1.00  0.00     0.029 A 
ATOM     53  N   UNL A   1      41.032  26.929  29.404  1.00  0.00    -0.354 N 
ATOM     54  C   UNL A   1      41.239  29.878  32.540  1.00  0.00     0.074 A 
ATOM     55  C   UNL A   1      40.093  30.761  32.517  1.00  0.00     0.031 C 
ATOM     56  C   UNL A   1      40.225  25.978  27.547  1.00  0.00     0.029 A 
ATOM     57  C   UNL A   1      41.357  25.973  28.467  1.00  0.00     0.049 A 
ATOM     58  H   UNL A   1      41.589  27.121  30.193  1.00  0.00     0.167 HD
ATOM     59  C   UNL A   1      42.254  29.971  33.430  1.00  0.00     0.034 A 
ATOM     60  C   UNL A   1      42.453  25.197  28.340  1.00  0.00     0.034 A 
ATOM     61  C   UNL A   1      43.370  29.064  33.481  1.00  0.00     0.049 A 
ATOM     62  C   UNL A   1      43.545  25.294  29.369  1.00  0.00     0.074 A 
ATOM     63  C   UNL A   1      44.399  29.027  34.408  1.00  0.00     0.029 A 
ATOM     64  N   UNL A   1      43.614  28.049  32.572  1.00  0.00    -0.354 N 
ATOM     65  N   UNL A   1      43.625  26.085  30.410  1.00  0.00    -0.248 NA
ATOM     66  C   UNL A   1      44.679  24.369  29.230  1.00  0.00     0.031 C 
ATOM     67  C   UNL A   1      45.285  28.014  34.036  1.00  0.00     0.029 A 
ATOM     68  C   UNL A   1      44.781  27.384  32.909  1.00  0.00     0.049 A 
ATOM     69  H   UNL A   1      43.042  27.830  31.801  1.00  0.00     0.167 HD
ATOM     70  C   UNL A   1      44.794  25.728  31.071  1.00  0.00     0.074 A 
ATOM     71  C   UNL A   1      45.382  24.638  30.322  1.00  0.00     0.031 C 
ATOM     72  C   UNL A   1      45.334  26.265  32.192  1.00  0.00     0.034 A 
BRANCH  59  73
ATOM     73  C   UNL A   1      42.203  31.061  34.469  1.00  0.00     0.023 A 
ATOM     74  C   UNL A   1      41.535  30.832  35.688  1.00  0.00     0.012 A 
ATOM     75  C   UNL A   1      42.933  32.254  34.292  1.00  0.00     0.148 A 
ATOM     76  C   UNL A   1      41.584  31.777  36.712  1.00  0.00     0.002 A 
ATOM     77  C   UNL A   1      43.021  33.167  35.334  1.00  0.00     0.091 A 
ATOM     78  F   UNL A   1      43.545  32.459  33.116  1.00  0.00    -0.205 F 
ATOM     79  C   UNL A   1      42.340  32.935  36.542  1.00  0.00     0.022 A 
BRANCH  77  80
ATOM     80  S   UNL A   1      44.046  34.640  35.253  1.00  0.00     0.127 S 
ATOM     81  O   UNL A   1      44.447  34.797  36.651  1.00  0.00    -0.237 OA
ATOM     82  O   UNL A   1      45.118  34.216  34.354  1.00  0.00    -0.237 OA
ATOM     83  O   UNL A   1      43.192  35.699  34.732  1.00  0.00    -0.744 OA
ENDBRANCH  77  80
ENDBRANCH  59  73
BRANCH  60  84
ATOM     84  C   UNL A   1      42.543  24.225  27.212  1.00  0.00     0.023 A 
ATOM     85  C   UNL A   1      43.192  24.601  26.020  1.00  0.00     0.012 A 
ATOM     86  C   UNL A   1      42.032  22.918  27.333  1.00  0.00     0.148 A 
ATOM     87  C   UNL A   1      43.306  23.702  24.958  1.00  0.00     0.002 A 
ATOM     88  C   UNL A   1      42.205  22.010  26.296  1.00  0.00     0.091 A 
ATOM     89  F   UNL A   1      41.408  22.584  28.470  1.00  0.00    -0.205 F 
ATOM     90  C   UNL A   1      42.826  22.404  25.101  1.00  0.00     0.022 A 
BRANCH  88  91
ATOM     91  S   UNL A   1      41.753  20.277  26.448  1.00  0.00     0.127 S 
ATOM     92  O   UNL A   1      40.349  20.298  26.046  1.00  0.00    -0.237 OA
ATOM     93  O   UNL A   1      42.660  19.647  25.487  1.00  0.00    -0.237 OA
ATOM     94  O   UNL A   1      42.009  19.925  27.837  1.00  0.00    -0.744 OA
ENDBRANCH  88  91
ENDBRANCH  60  84
BRANCH  72  95
ATOM     95  C   UNL A   1      46.604  25.658  32.729  1.00  0.00     0.023 A 
ATOM     96  C   UNL A   1      47.854  26.193  32.366  1.00  0.00     0.012 A 
ATOM     97  C   UNL A   1      46.547  24.616  33.678  1.00  0.00     0.148 A 
ATOM     98  C   UNL A   1      49.030  25.681  32.915  1.00  0.00     0.002 A 
ATOM     99  C   UNL A   1      47.717  24.151  34.263  1.00  0.00     0.091 A 
ATOM    100  F   UNL A   1      45.348  24.107  33.998  1.00  0.00    -0.205 F 
ATOM    101  C   UNL A   1      48.961  24.672  33.873  1.00  0.00     0.022 A 
BRANCH  99 102
ATOM    102  S   UNL A   1      47.714  22.933  35.585  1.00  0.00     0.127 S 
ATOM    103  O   UNL A   1      47.446  21.697  34.850  1.00  0.00    -0.237 OA
ATOM    104  O   UNL A   1      49.075  23.046  36.112  1.00  0.00    -0.237 OA
ATOM    105  O   UNL A   1      46.670  23.347  36.512  1.00  0.00    -0.744 OA
ENDBRANCH  99 102
ENDBRANCH  72  95
ENDBRANCH  46  47
ENDBRANCH  38  41
ENDBRANCH  36  37
ENDBRANCH  35  36
ENDBRANCH   1  35
TORSDOF 19
ENDMDL
MODEL 3
REMARK VINA RESULT:      -9.1      1.684      7.394
REMARK SMILES O=C(CCN1C(=O)S/C(=C\c2ccccc2F)C1=O)Nc1ccc(C(=O)NCCCNC(=O)c2ccc(-c3c4nc(c(-c5cccc(S(=O)(=O)[O-])c5F)c5ccc([nH]5)c(-c5cccc(S(=O)(=O)[O-])c5F)c5nc(c(-c6cccc(S(=O)(=O)[O-])c6F)c6ccc3[nH]6)C=C5)C=C4)cc2)c(O)c1
REMARK SMILES IDX 28 1 27 2 25 3 26 4 24 6 21 7 22 8 99 9 23 10 97 11 20 12
REMARK SMILES IDX 1 13 2 14 3 16 4 17 5 18 6 19 18 20 7 21 8 22 9 23 19 24
REMARK SMILES IDX 10 25 11 26 12 27 16 28 13 29 15 30 17 31 14 32 98 33 29 35
REMARK SMILES IDX 30 36 31 37 32 38 33 40 34 41 35 42 96 43 36 44 95 45 37 46
REMARK SMILES IDX 38 47 39 48 89 49 40 50 94 51 88 52 90 53 41 54 93 55 87 56
REMARK SMILES IDX 86 57 42 59 74 60 54 61 73 62 55 63 58 64 72 65 91 66 56 67
REMARK SMILES IDX 57 68 71 70 92 71 59 72 43 73 44 74 52 75 45 76 47 77 53 78
REMARK SMILES IDX 46 79 48 80 49 81 50 82 51 83 75 84 76 85 84 86 77 87 79 88
REMARK SMILES IDX 85 89 78 90 80 91 81 92 82 93 83 94 60 95 61 96 69 97 62 98
REMARK SMILES IDX 64 99 70 100 63 101 65 102 66 103 67 104 68 105
REMARK H PARENT 27 5 20 15 98 34 31 39 90 58 58 69
REMARK Flexibility Score: inf
ROOT
ATOM      1  C   UNL A   1      33.999  34.321  29.639  1.00  0.00     0.118 C 
ENDROOT
BRANCH   1   2
ATOM      2  N   UNL A   1      34.035  33.768  30.989  1.00  0.00    -0.352 N 
ATOM      3  C   UNL A   1      35.089  33.450  31.811  1.00  0.00     0.255 C 
ATOM      4  O   UNL A   1      34.850  32.997  32.930  1.00  0.00    -0.269 OA
ATOM      5  H   UNL A   1      33.148  33.592  31.379  1.00  0.00     0.163 HD
BRANCH   3   6
ATOM      6  C   UNL A   1      36.499  33.597  31.381  1.00  0.00     0.081 A 
ATOM      7  C   UNL A   1      39.061  33.931  30.266  1.00  0.00     0.044 A 
ATOM      8  C   UNL A   1      38.158  33.046  29.684  1.00  0.00     0.027 A 
ATOM      9  C   UNL A   1      38.714  34.566  31.465  1.00  0.00     0.073 A 
ATOM     10  C   UNL A   1      36.884  32.881  30.238  1.00  0.00     0.020 A 
ATOM     11  C   UNL A   1      37.456  34.371  32.037  1.00  0.00     0.130 A 
BRANCH   7  12
ATOM     12  N   UNL A   1      40.326  34.227  29.725  1.00  0.00    -0.326 N 
ATOM     13  O   UNL A   1      41.768  33.648  31.455  1.00  0.00    -0.275 OA
ATOM     14  C   UNL A   1      41.562  34.059  30.318  1.00  0.00     0.226 C 
ATOM     15  H   UNL A   1      40.330  34.601  28.815  1.00  0.00     0.169 HD
BRANCH  14  16
ATOM     16  C   UNL A   1      42.725  34.520  29.452  1.00  0.00     0.122 C 
BRANCH  16  17
ATOM     17  C   UNL A   1      44.068  33.839  29.731  1.00  0.00     0.140 C 
BRANCH  17  18
ATOM     18  N   UNL A   1      44.395  32.747  28.818  1.00  0.00    -0.268 N 
ATOM     19  C   UNL A   1      45.306  32.920  27.803  1.00  0.00     0.293 C 
ATOM     20  C   UNL A   1      43.762  31.525  28.879  1.00  0.00     0.268 C 
ATOM     21  O   UNL A   1      45.942  33.925  27.553  1.00  0.00    -0.261 OA
ATOM     22  S   UNL A   1      45.507  31.419  26.920  1.00  0.00    -0.022 SA
ATOM     23  C   UNL A   1      44.434  30.571  27.960  1.00  0.00     0.083 C 
ATOM     24  O   UNL A   1      42.838  31.224  29.621  1.00  0.00    -0.268 OA
ATOM     25  C   UNL A   1      44.263  29.247  28.075  1.00  0.00     0.032 C 
BRANCH  25  26
ATOM     26  C   UNL A   1      45.036  28.243  27.336  1.00  0.00     0.012 A 
ATOM     27  C   UNL A   1      44.594  27.793  26.090  1.00  0.00     0.011 A 
ATOM     28  C   UNL A   1      46.223  27.720  27.864  1.00  0.00     0.130 A 
ATOM     29  C   UNL A   1      45.346  26.853  25.378  1.00  0.00     0.001 A 
ATOM     30  C   UNL A   1      46.980  26.791  27.156  1.00  0.00     0.040 A 
ATOM     31  F   UNL A   1      46.648  28.109  29.075  1.00  0.00    -0.206 F 
ATOM     32  C   UNL A   1      46.540  26.358  25.907  1.00  0.00     0.003 A 
ENDBRANCH  25  26
ENDBRANCH  17  18
ENDBRANCH  16  17
ENDBRANCH  14  16
ENDBRANCH   7  12
BRANCH  11  33
ATOM     33  O   UNL A   1      37.265  34.952  33.261  1.00  0.00    -0.507 OA
ATOM     34  H   UNL A   1      36.723  34.531  33.900  1.00  0.00     0.293 HD
ENDBRANCH  11  33
ENDBRANCH   3   6
ENDBRANCH   1   2
BRANCH   1  35
ATOM     35  C   UNL A   1      33.411  33.398  28.581  1.00  0.00     0.042 C 
BRANCH  35  36
ATOM     36  C   UNL A   1      34.408  32.526  27.828  1.00  0.00     0.118 C 
BRANCH  36  37
ATOM     37  N   UNL A   1      33.938  31.171  27.561  1.00  0.00    -0.352 N 
ATOM     38  C   UNL A   1      34.559  29.950  27.696  1.00  0.00     0.251 C 
ATOM     39  H   UNL A   1      33.013  31.120  27.225  1.00  0.00     0.163 HD
ATOM     40  O   UNL A   1      33.985  28.936  27.304  1.00  0.00    -0.269 OA
BRANCH  38  41
ATOM     41  C   UNL A   1      35.925  29.846  28.259  1.00  0.00     0.039 A 
ATOM     42  C   UNL A   1      36.083  29.387  29.572  1.00  0.00     0.014 A 
ATOM     43  C   UNL A   1      37.050  30.178  27.507  1.00  0.00     0.014 A 
ATOM     44  C   UNL A   1      37.364  29.141  30.075  1.00  0.00     0.010 A 
ATOM     45  C   UNL A   1      38.319  29.834  27.967  1.00  0.00     0.010 A 
ATOM     46  C   UNL A   1      38.491  29.293  29.250  1.00  0.00    -0.014 A 
BRANCH  46  47
ATOM     47  C   UNL A   1      39.843  28.835  29.671  1.00  0.00     0.031 A 
ATOM     48  C   UNL A   1      40.507  27.670  28.987  1.00  0.00     0.074 A 
ATOM     49  C   UNL A   1      40.418  29.389  30.760  1.00  0.00     0.049 A 
ATOM     50  N   UNL A   1      41.614  27.052  29.306  1.00  0.00    -0.248 NA
ATOM     51  C   UNL A   1      39.828  27.108  27.807  1.00  0.00     0.031 C 
ATOM     52  C   UNL A   1      39.844  30.473  31.562  1.00  0.00     0.029 A 
ATOM     53  N   UNL A   1      41.595  29.092  31.406  1.00  0.00    -0.354 N 
ATOM     54  C   UNL A   1      41.742  26.006  28.400  1.00  0.00     0.074 A 
ATOM     55  C   UNL A   1      40.589  26.059  27.528  1.00  0.00     0.031 C 
ATOM     56  C   UNL A   1      40.664  30.747  32.587  1.00  0.00     0.029 A 
ATOM     57  C   UNL A   1      41.798  29.831  32.550  1.00  0.00     0.049 A 
ATOM     58  H   UNL A   1      42.233  28.416  31.081  1.00  0.00     0.167 HD
ATOM     59  C   UNL A   1      42.738  25.096  28.294  1.00  0.00     0.034 A 
ATOM     60  C   UNL A   1      42.770  29.766  33.483  1.00  0.00     0.034 A 
ATOM     61  C   UNL A   1      43.905  25.073  29.134  1.00  0.00     0.049 A 
ATOM     62  C   UNL A   1      43.885  28.772  33.314  1.00  0.00     0.074 A 
ATOM     63  C   UNL A   1      45.010  24.244  29.038  1.00  0.00     0.029 A 
ATOM     64  N   UNL A   1      44.120  25.900  30.224  1.00  0.00    -0.354 N 
ATOM     65  N   UNL A   1      44.055  27.881  32.369  1.00  0.00    -0.248 NA
ATOM     66  C   UNL A   1      44.961  28.797  34.315  1.00  0.00     0.031 C 
ATOM     67  C   UNL A   1      45.874  24.544  30.094  1.00  0.00     0.029 A 
ATOM     68  C   UNL A   1      45.334  25.596  30.815  1.00  0.00     0.049 A 
ATOM     69  H   UNL A   1      43.501  26.602  30.531  1.00  0.00     0.167 HD
ATOM     70  C   UNL A   1      45.273  27.268  32.638  1.00  0.00     0.074 A 
ATOM     71  C   UNL A   1      45.807  27.900  33.826  1.00  0.00     0.031 C 
ATOM     72  C   UNL A   1      45.886  26.264  31.964  1.00  0.00     0.034 A 
BRANCH  59  73
ATOM     73  C   UNL A   1      42.654  24.063  27.200  1.00  0.00     0.023 A 
ATOM     74  C   UNL A   1      43.290  24.301  25.966  1.00  0.00     0.012 A 
ATOM     75  C   UNL A   1      42.068  22.805  27.447  1.00  0.00     0.148 A 
ATOM     76  C   UNL A   1      43.334  23.308  24.988  1.00  0.00     0.002 A 
ATOM     77  C   UNL A   1      42.160  21.804  26.489  1.00  0.00     0.091 A 
ATOM     78  F   UNL A   1      41.451  22.608  28.621  1.00  0.00    -0.205 F 
ATOM     79  C   UNL A   1      42.786  22.056  25.255  1.00  0.00     0.022 A 
BRANCH  77  80
ATOM     80  S   UNL A   1      41.573  20.130  26.772  1.00  0.00     0.127 S 
ATOM     81  O   UNL A   1      40.403  20.367  27.617  1.00  0.00    -0.237 OA
ATOM     82  O   UNL A   1      41.265  19.682  25.414  1.00  0.00    -0.237 OA
ATOM     83  O   UNL A   1      42.669  19.421  27.417  1.00  0.00    -0.744 OA
ENDBRANCH  77  80
ENDBRANCH  59  73
BRANCH  60  84
ATOM     84  C   UNL A   1      42.748  30.707  34.641  1.00  0.00     0.023 A 
ATOM     85  C   UNL A   1      42.169  30.301  35.858  1.00  0.00     0.012 A 
ATOM     86  C   UNL A   1      43.339  31.983  34.553  1.00  0.00     0.148 A 
ATOM     87  C   UNL A   1      42.153  31.157  36.960  1.00  0.00     0.002 A 
ATOM     88  C   UNL A   1      43.377  32.805  35.673  1.00  0.00     0.091 A 
ATOM     89  F   UNL A   1      43.874  32.356  33.383  1.00  0.00    -0.205 F 
ATOM     90  C   UNL A   1      42.769  32.402  36.872  1.00  0.00     0.022 A 
BRANCH  88  91
ATOM     91  S   UNL A   1      44.276  34.360  35.696  1.00  0.00     0.127 S 
ATOM     92  O   UNL A   1      45.507  34.004  34.994  1.00  0.00    -0.237 OA
ATOM     93  O   UNL A   1      43.373  35.238  34.950  1.00  0.00    -0.237 OA
ATOM     94  O   UNL A   1      44.427  34.706  37.102  1.00  0.00    -0.744 OA
ENDBRANCH  88  91
ENDBRANCH  60  84
BRANCH  72  95
ATOM     95  C   UNL A   1      47.237  25.805  32.449  1.00  0.00     0.023 A 
ATOM     96  C   UNL A   1      48.409  26.418  31.966  1.00  0.00     0.012 A 
ATOM     97  C   UNL A   1      47.334  24.832  33.465  1.00  0.00     0.148 A 
ATOM     98  C   UNL A   1      49.659  26.048  32.463  1.00  0.00     0.002 A 
ATOM     99  C   UNL A   1      48.577  24.511  33.996  1.00  0.00     0.091 A 
ATOM    100  F   UNL A   1      46.209  24.247  33.900  1.00  0.00    -0.205 F 
ATOM    101  C   UNL A   1      49.741  25.107  33.487  1.00  0.00     0.022 A 
BRANCH  99 102
ATOM    102  S   UNL A   1      48.767  23.393  35.390  1.00  0.00     0.127 S 
ATOM    103  O   UNL A   1      50.222  23.268  35.475  1.00  0.00    -0.237 OA
ATOM    104  O   UNL A   1      48.157  24.153  36.482  1.00  0.00    -0.237 OA
ATOM    105  O   UNL A   1      48.056  22.174  35.030  1.00  0.00    -0.744 OA
ENDBRANCH  99 102
ENDBRANCH  72  95
ENDBRANCH  46  47
ENDBRANCH  38  41
ENDBRANCH  36  37
ENDBRANCH  35  36
ENDBRANCH   1  35
TORSDOF 19
ENDMDL
