MODEL 1
REMARK VINA RESULT:     -11.5      0.000      0.000
REMARK SMILES O=C(NCCCNC(=O)[C@H]1CC[C@@H](CNC(=O)c2ccc(CO)cc2)O1)c1ccc(-c2c3nc(c(-c4cccc(S(=O)(=O)[O-])c4F)c4ccc([nH]4)c(-c4cccc(S(=O)(=O)[O-])c4F)c4nc(c(-c5cccc(S(=O)(=O)[O-])c5F)c5ccc2[nH]5)C=C4)C=C3)cc1
REMARK SMILES IDX 6 1 5 2 4 3 3 4 1 5 2 6 27 8 28 9 89 10 29 11 88 12 30 13
REMARK SMILES IDX 31 14 32 15 82 16 33 17 87 18 81 19 83 20 34 21 86 22 80 23
REMARK SMILES IDX 79 24 35 26 67 27 47 28 66 29 48 30 51 31 65 32 84 33 49 34
REMARK SMILES IDX 50 35 64 37 85 38 52 39 36 40 37 41 45 42 38 43 40 44 46 45
REMARK SMILES IDX 39 46 41 47 42 48 43 49 44 50 68 51 69 52 77 53 70 54 72 55
REMARK SMILES IDX 78 56 71 57 73 58 74 59 75 60 76 61 53 62 54 63 62 64 55 65
REMARK SMILES IDX 57 66 63 67 56 68 58 69 59 70 60 71 61 72 7 73 8 74 9 76
REMARK SMILES IDX 10 77 11 78 26 79 12 80 13 81 14 82 15 83 16 84 17 86 18 87
REMARK SMILES IDX 19 88 25 89 20 90 24 91 21 92 22 93 23 94
REMARK H PARENT 3 7 83 25 51 36 7 75 15 85 23 95
REMARK Flexibility Score: inf
ROOT
ATOM      1  C   UNL A   1      37.805  22.114  25.448  1.00  0.00     0.117 C 
ENDROOT
BRANCH   1   2
ATOM      2  C   UNL A   1      38.627  21.060  26.175  1.00  0.00     0.042 C 
BRANCH   2   3
ATOM      3  C   UNL A   1      39.295  20.087  25.213  1.00  0.00     0.118 C 
BRANCH   3   4
ATOM      4  N   UNL A   1      40.275  19.242  25.891  1.00  0.00    -0.352 N 
ATOM      5  O   UNL A   1      42.287  18.651  26.696  1.00  0.00    -0.269 OA
ATOM      6  C   UNL A   1      41.499  19.558  26.427  1.00  0.00     0.251 C 
ATOM      7  H   UNL A   1      40.016  18.297  25.978  1.00  0.00     0.163 HD
BRANCH   6   8
ATOM      8  C   UNL A   1      41.867  20.969  26.666  1.00  0.00     0.039 A 
ATOM      9  C   UNL A   1      42.052  21.433  27.969  1.00  0.00     0.014 A 
ATOM     10  C   UNL A   1      42.062  21.833  25.585  1.00  0.00     0.014 A 
ATOM     11  C   UNL A   1      42.245  22.784  28.203  1.00  0.00     0.010 A 
ATOM     12  C   UNL A   1      42.388  23.173  25.819  1.00  0.00     0.010 A 
ATOM     13  C   UNL A   1      42.453  23.666  27.132  1.00  0.00    -0.014 A 
BRANCH  13  14
ATOM     14  C   UNL A   1      42.842  25.067  27.427  1.00  0.00     0.031 A 
ATOM     15  C   UNL A   1      41.892  26.026  28.080  1.00  0.00     0.074 A 
ATOM     16  C   UNL A   1      44.085  25.466  27.086  1.00  0.00     0.049 A 
ATOM     17  N   UNL A   1      42.085  27.279  28.401  1.00  0.00    -0.248 NA
ATOM     18  C   UNL A   1      40.549  25.523  28.410  1.00  0.00     0.031 C 
ATOM     19  C   UNL A   1      45.077  24.629  26.400  1.00  0.00     0.029 A 
ATOM     20  N   UNL A   1      44.727  26.664  27.256  1.00  0.00    -0.354 N 
ATOM     21  C   UNL A   1      40.879  27.732  28.921  1.00  0.00     0.074 A 
ATOM     22  C   UNL A   1      39.957  26.617  28.873  1.00  0.00     0.031 C 
ATOM     23  C   UNL A   1      46.204  25.330  26.228  1.00  0.00     0.029 A 
ATOM     24  C   UNL A   1      45.992  26.685  26.717  1.00  0.00     0.049 A 
ATOM     25  H   UNL A   1      44.323  27.433  27.718  1.00  0.00     0.167 HD
ATOM     26  C   UNL A   1      40.574  28.962  29.400  1.00  0.00     0.034 A 
ATOM     27  C   UNL A   1      46.874  27.692  26.588  1.00  0.00     0.034 A 
ATOM     28  C   UNL A   1      41.508  30.056  29.459  1.00  0.00     0.049 A 
ATOM     29  C   UNL A   1      46.516  29.040  27.137  1.00  0.00     0.074 A 
ATOM     30  C   UNL A   1      41.321  31.318  29.994  1.00  0.00     0.029 A 
ATOM     31  N   UNL A   1      42.797  30.028  28.946  1.00  0.00    -0.354 N 
ATOM     32  N   UNL A   1      45.416  29.410  27.747  1.00  0.00    -0.248 NA
ATOM     33  C   UNL A   1      47.523  30.098  27.007  1.00  0.00     0.031 C 
ATOM     34  C   UNL A   1      42.483  32.065  29.768  1.00  0.00     0.029 A 
ATOM     35  C   UNL A   1      43.410  31.257  29.131  1.00  0.00     0.049 A 
ATOM     36  H   UNL A   1      43.216  29.248  28.513  1.00  0.00     0.167 HD
ATOM     37  C   UNL A   1      45.605  30.741  28.094  1.00  0.00     0.074 A 
ATOM     38  C   UNL A   1      46.938  31.101  27.648  1.00  0.00     0.031 C 
ATOM     39  C   UNL A   1      44.749  31.589  28.714  1.00  0.00     0.034 A 
BRANCH  26  40
ATOM     40  C   UNL A   1      39.171  29.192  29.905  1.00  0.00     0.023 A 
ATOM     41  C   UNL A   1      38.838  28.869  31.236  1.00  0.00     0.012 A 
ATOM     42  C   UNL A   1      38.193  29.774  29.073  1.00  0.00     0.148 A 
ATOM     43  C   UNL A   1      37.547  29.081  31.719  1.00  0.00     0.002 A 
ATOM     44  C   UNL A   1      36.921  30.026  29.575  1.00  0.00     0.091 A 
ATOM     45  F   UNL A   1      38.518  30.057  27.804  1.00  0.00    -0.205 F 
ATOM     46  C   UNL A   1      36.592  29.668  30.892  1.00  0.00     0.022 A 
BRANCH  44  47
ATOM     47  S   UNL A   1      35.648  30.852  28.613  1.00  0.00     0.127 S 
ATOM     48  O   UNL A   1      34.973  29.718  27.984  1.00  0.00    -0.237 OA
ATOM     49  O   UNL A   1      34.866  31.526  29.651  1.00  0.00    -0.237 OA
ATOM     50  O   UNL A   1      36.350  31.748  27.706  1.00  0.00    -0.744 OA
ENDBRANCH  44  47
ENDBRANCH  26  40
BRANCH  27  51
ATOM     51  C   UNL A   1      48.174  27.440  25.910  1.00  0.00     0.023 A 
ATOM     52  C   UNL A   1      49.269  26.954  26.648  1.00  0.00     0.012 A 
ATOM     53  C   UNL A   1      48.303  27.607  24.515  1.00  0.00     0.148 A 
ATOM     54  C   UNL A   1      50.476  26.659  26.013  1.00  0.00     0.002 A 
ATOM     55  C   UNL A   1      49.485  27.251  23.881  1.00  0.00     0.091 A 
ATOM     56  F   UNL A   1      47.248  28.076  23.834  1.00  0.00    -0.205 F 
ATOM     57  C   UNL A   1      50.579  26.792  24.630  1.00  0.00     0.022 A 
BRANCH  55  58
ATOM     58  S   UNL A   1      49.653  27.246  22.093  1.00  0.00     0.127 S 
ATOM     59  O   UNL A   1      49.358  28.638  21.763  1.00  0.00    -0.237 OA
ATOM     60  O   UNL A   1      51.054  26.856  21.925  1.00  0.00    -0.237 OA
ATOM     61  O   UNL A   1      48.693  26.265  21.608  1.00  0.00    -0.744 OA
ENDBRANCH  55  58
ENDBRANCH  27  51
BRANCH  39  62
ATOM     62  C   UNL A   1      45.237  32.989  28.980  1.00  0.00     0.023 A 
ATOM     63  C   UNL A   1      45.948  33.275  30.162  1.00  0.00     0.012 A 
ATOM     64  C   UNL A   1      45.049  34.003  28.020  1.00  0.00     0.148 A 
ATOM     65  C   UNL A   1      46.437  34.558  30.400  1.00  0.00     0.002 A 
ATOM     66  C   UNL A   1      45.586  35.265  28.240  1.00  0.00     0.091 A 
ATOM     67  F   UNL A   1      44.351  33.714  26.912  1.00  0.00    -0.205 F 
ATOM     68  C   UNL A   1      46.268  35.548  29.435  1.00  0.00     0.022 A 
BRANCH  66  69
ATOM     69  S   UNL A   1      45.503  36.574  27.013  1.00  0.00     0.127 S 
ATOM     70  O   UNL A   1      46.190  35.962  25.877  1.00  0.00    -0.237 OA
ATOM     71  O   UNL A   1      44.061  36.741  26.838  1.00  0.00    -0.237 OA
ATOM     72  O   UNL A   1      46.179  37.722  27.603  1.00  0.00    -0.744 OA
ENDBRANCH  66  69
ENDBRANCH  39  62
ENDBRANCH  13  14
ENDBRANCH   6   8
ENDBRANCH   3   4
ENDBRANCH   2   3
ENDBRANCH   1   2
BRANCH   1  73
ATOM     73  N   UNL A   1      36.569  22.406  26.139  1.00  0.00    -0.354 N 
ATOM     74  C   UNL A   1      35.268  22.142  25.863  1.00  0.00     0.249 C 
ATOM     75  H   UNL A   1      36.699  22.898  26.982  1.00  0.00     0.163 HD
ATOM     76  O   UNL A   1      34.457  22.577  26.692  1.00  0.00    -0.272 OA
BRANCH  74  77
ATOM     77  C   UNL A   1      34.758  21.297  24.670  1.00  0.00     0.207 C 
ATOM     78  C   UNL A   1      33.912  20.062  24.887  1.00  0.00     0.045 C 
ATOM     79  O   UNL A   1      34.079  22.103  23.700  1.00  0.00    -0.363 OA
ATOM     80  C   UNL A   1      32.519  20.446  24.432  1.00  0.00     0.037 C 
ATOM     81  C   UNL A   1      32.700  21.714  23.611  1.00  0.00     0.138 C 
BRANCH  81  82
ATOM     82  C   UNL A   1      31.860  22.915  24.070  1.00  0.00     0.148 C 
BRANCH  82  83
ATOM     83  N   UNL A   1      31.467  22.889  25.467  1.00  0.00    -0.349 N 
ATOM     84  C   UNL A   1      31.506  23.908  26.390  1.00  0.00     0.251 C 
ATOM     85  H   UNL A   1      31.129  22.026  25.799  1.00  0.00     0.163 HD
ATOM     86  O   UNL A   1      31.260  23.668  27.569  1.00  0.00    -0.269 OA
BRANCH  84  87
ATOM     87  C   UNL A   1      31.872  25.286  25.980  1.00  0.00     0.039 A 
ATOM     88  C   UNL A   1      30.873  26.123  25.471  1.00  0.00     0.014 A 
ATOM     89  C   UNL A   1      33.191  25.747  26.053  1.00  0.00     0.014 A 
ATOM     90  C   UNL A   1      31.180  27.437  25.105  1.00  0.00     0.007 A 
ATOM     91  C   UNL A   1      33.493  27.065  25.701  1.00  0.00     0.007 A 
ATOM     92  C   UNL A   1      32.486  27.927  25.248  1.00  0.00    -0.023 A 
BRANCH  92  93
ATOM     93  C   UNL A   1      32.818  29.347  24.865  1.00  0.00     0.191 C 
BRANCH  93  94
ATOM     94  O   UNL A   1      32.978  30.159  26.018  1.00  0.00    -0.392 OA
ATOM     95  H   UNL A   1      33.143  29.595  26.790  1.00  0.00     0.211 HD
ENDBRANCH  93  94
ENDBRANCH  92  93
ENDBRANCH  84  87
ENDBRANCH  82  83
ENDBRANCH  81  82
ENDBRANCH  74  77
ENDBRANCH   1  73
TORSDOF 18
ENDMDL
MODEL 2
REMARK VINA RESULT:     -11.4      5.093      8.730
REMARK SMILES O=C(NCCCNC(=O)[C@H]1CC[C@@H](CNC(=O)c2ccc(CO)cc2)O1)c1ccc(-c2c3nc(c(-c4cccc(S(=O)(=O)[O-])c4F)c4ccc([nH]4)c(-c4cccc(S(=O)(=O)[O-])c4F)c4nc(c(-c5cccc(S(=O)(=O)[O-])c5F)c5ccc2[nH]5)C=C4)C=C3)cc1
REMARK SMILES IDX 6 1 5 2 4 3 3 4 1 5 2 6 27 8 28 9 89 10 29 11 88 12 30 13
REMARK SMILES IDX 31 14 32 15 82 16 33 17 87 18 81 19 83 20 34 21 86 22 80 23
REMARK SMILES IDX 79 24 35 26 67 27 47 28 66 29 48 30 51 31 65 32 84 33 49 34
REMARK SMILES IDX 50 35 64 37 85 38 52 39 36 40 37 41 45 42 38 43 40 44 46 45
REMARK SMILES IDX 39 46 41 47 42 48 43 49 44 50 68 51 69 52 77 53 70 54 72 55
REMARK SMILES IDX 78 56 71 57 73 58 74 59 75 60 76 61 53 62 54 63 62 64 55 65
REMARK SMILES IDX 57 66 63 67 56 68 58 69 59 70 60 71 61 72 7 73 8 74 9 76
REMARK SMILES IDX 10 77 11 78 26 79 12 80 13 81 14 82 15 83 16 84 17 86 18 87
REMARK SMILES IDX 19 88 25 89 20 90 24 91 21 92 22 93 23 94
REMARK H PARENT 3 7 83 25 51 36 7 75 15 85 23 95
REMARK Flexibility Score: inf
ROOT
ATOM      1  C   UNL A   1      32.641  28.944  24.238  1.00  0.00     0.117 C 
ENDROOT
BRANCH   1   2
ATOM      2  C   UNL A   1      32.813  28.403  25.649  1.00  0.00     0.042 C 
BRANCH   2   3
ATOM      3  C   UNL A   1      34.107  28.879  26.294  1.00  0.00     0.118 C 
BRANCH   3   4
ATOM      4  N   UNL A   1      34.028  30.281  26.695  1.00  0.00    -0.352 N 
ATOM      5  O   UNL A   1      34.311  32.068  28.027  1.00  0.00    -0.269 OA
ATOM      6  C   UNL A   1      34.728  30.971  27.654  1.00  0.00     0.251 C 
ATOM      7  H   UNL A   1      33.369  30.817  26.198  1.00  0.00     0.163 HD
BRANCH   6   8
ATOM      8  C   UNL A   1      35.957  30.396  28.238  1.00  0.00     0.039 A 
ATOM      9  C   UNL A   1      37.184  30.569  27.595  1.00  0.00     0.014 A 
ATOM     10  C   UNL A   1      35.899  29.704  29.451  1.00  0.00     0.014 A 
ATOM     11  C   UNL A   1      38.308  29.905  28.057  1.00  0.00     0.010 A 
ATOM     12  C   UNL A   1      37.062  29.143  29.986  1.00  0.00     0.010 A 
ATOM     13  C   UNL A   1      38.272  29.214  29.277  1.00  0.00    -0.014 A 
BRANCH  13  14
ATOM     14  C   UNL A   1      39.539  28.675  29.829  1.00  0.00     0.031 A 
ATOM     15  C   UNL A   1      40.167  29.254  31.063  1.00  0.00     0.074 A 
ATOM     16  C   UNL A   1      40.124  27.643  29.187  1.00  0.00     0.049 A 
ATOM     17  N   UNL A   1      41.271  28.893  31.665  1.00  0.00    -0.248 NA
ATOM     18  C   UNL A   1      39.480  30.388  31.700  1.00  0.00     0.031 C 
ATOM     19  C   UNL A   1      39.624  27.033  27.950  1.00  0.00     0.029 A 
ATOM     20  N   UNL A   1      41.259  26.930  29.471  1.00  0.00    -0.354 N 
ATOM     21  C   UNL A   1      41.440  29.783  32.719  1.00  0.00     0.074 A 
ATOM     22  C   UNL A   1      40.323  30.702  32.674  1.00  0.00     0.031 C 
ATOM     23  C   UNL A   1      40.434  26.028  27.594  1.00  0.00     0.029 A 
ATOM     24  C   UNL A   1      41.549  25.971  28.529  1.00  0.00     0.049 A 
ATOM     25  H   UNL A   1      41.811  27.088  30.270  1.00  0.00     0.167 HD
ATOM     26  C   UNL A   1      42.432  29.822  33.641  1.00  0.00     0.034 A 
ATOM     27  C   UNL A   1      42.615  25.161  28.401  1.00  0.00     0.034 A 
ATOM     28  C   UNL A   1      43.526  28.887  33.684  1.00  0.00     0.049 A 
ATOM     29  C   UNL A   1      43.692  25.216  29.442  1.00  0.00     0.074 A 
ATOM     30  C   UNL A   1      44.540  28.793  34.621  1.00  0.00     0.029 A 
ATOM     31  N   UNL A   1      43.763  27.898  32.740  1.00  0.00    -0.354 N 
ATOM     32  N   UNL A   1      43.764  25.977  30.507  1.00  0.00    -0.248 NA
ATOM     33  C   UNL A   1      44.817  24.288  29.282  1.00  0.00     0.031 C 
ATOM     34  C   UNL A   1      45.413  27.774  34.220  1.00  0.00     0.029 A 
ATOM     35  C   UNL A   1      44.920  27.204  33.057  1.00  0.00     0.049 A 
ATOM     36  H   UNL A   1      43.194  27.716  31.957  1.00  0.00     0.167 HD
ATOM     37  C   UNL A   1      44.932  25.606  31.159  1.00  0.00     0.074 A 
ATOM     38  C   UNL A   1      45.521  24.533  30.379  1.00  0.00     0.031 C 
ATOM     39  C   UNL A   1      45.474  26.116  32.291  1.00  0.00     0.034 A 
BRANCH  26  40
ATOM     40  C   UNL A   1      42.379  30.908  34.686  1.00  0.00     0.023 A 
ATOM     41  C   UNL A   1      41.771  30.659  35.934  1.00  0.00     0.012 A 
ATOM     42  C   UNL A   1      42.975  32.164  34.449  1.00  0.00     0.148 A 
ATOM     43  C   UNL A   1      41.719  31.653  36.911  1.00  0.00     0.002 A 
ATOM     44  C   UNL A   1      42.960  33.134  35.445  1.00  0.00     0.091 A 
ATOM     45  F   UNL A   1      43.531  32.393  33.252  1.00  0.00    -0.205 F 
ATOM     46  C   UNL A   1      42.322  32.885  36.671  1.00  0.00     0.022 A 
BRANCH  44  47
ATOM     47  S   UNL A   1      43.779  34.722  35.261  1.00  0.00     0.127 S 
ATOM     48  O   UNL A   1      43.008  35.326  34.177  1.00  0.00    -0.237 OA
ATOM     49  O   UNL A   1      43.566  35.333  36.574  1.00  0.00    -0.237 OA
ATOM     50  O   UNL A   1      45.170  34.421  34.952  1.00  0.00    -0.744 OA
ENDBRANCH  44  47
ENDBRANCH  26  40
BRANCH  27  51
ATOM     51  C   UNL A   1      42.692  24.236  27.237  1.00  0.00     0.023 A 
ATOM     52  C   UNL A   1      43.384  24.625  26.076  1.00  0.00     0.012 A 
ATOM     53  C   UNL A   1      42.145  22.939  27.313  1.00  0.00     0.148 A 
ATOM     54  C   UNL A   1      43.512  23.744  25.001  1.00  0.00     0.002 A 
ATOM     55  C   UNL A   1      42.332  22.047  26.266  1.00  0.00     0.091 A 
ATOM     56  F   UNL A   1      41.485  22.593  28.427  1.00  0.00    -0.205 F 
ATOM     57  C   UNL A   1      43.000  22.453  25.102  1.00  0.00     0.022 A 
BRANCH  55  58
ATOM     58  S   UNL A   1      41.841  20.322  26.373  1.00  0.00     0.127 S 
ATOM     59  O   UNL A   1      40.395  20.413  26.188  1.00  0.00    -0.237 OA
ATOM     60  O   UNL A   1      42.570  19.733  25.250  1.00  0.00    -0.237 OA
ATOM     61  O   UNL A   1      42.282  19.866  27.683  1.00  0.00    -0.744 OA
ENDBRANCH  55  58
ENDBRANCH  27  51
BRANCH  39  62
ATOM     62  C   UNL A   1      46.757  25.499  32.781  1.00  0.00     0.023 A 
ATOM     63  C   UNL A   1      47.996  26.015  32.354  1.00  0.00     0.012 A 
ATOM     64  C   UNL A   1      46.729  24.450  33.721  1.00  0.00     0.148 A 
ATOM     65  C   UNL A   1      49.189  25.475  32.831  1.00  0.00     0.002 A 
ATOM     66  C   UNL A   1      47.921  23.953  34.233  1.00  0.00     0.091 A 
ATOM     67  F   UNL A   1      45.539  23.960  34.098  1.00  0.00    -0.205 F 
ATOM     68  C   UNL A   1      49.152  24.455  33.779  1.00  0.00     0.022 A 
BRANCH  66  69
ATOM     69  S   UNL A   1      47.970  22.709  35.527  1.00  0.00     0.127 S 
ATOM     70  O   UNL A   1      49.404  22.443  35.631  1.00  0.00    -0.237 OA
ATOM     71  O   UNL A   1      47.398  23.426  36.665  1.00  0.00    -0.237 OA
ATOM     72  O   UNL A   1      47.164  21.595  35.045  1.00  0.00    -0.744 OA
ENDBRANCH  66  69
ENDBRANCH  39  62
ENDBRANCH  13  14
ENDBRANCH   6   8
ENDBRANCH   3   4
ENDBRANCH   2   3
ENDBRANCH   1   2
BRANCH   1  73
ATOM     73  N   UNL A   1      31.364  29.600  24.063  1.00  0.00    -0.354 N 
ATOM     74  C   UNL A   1      30.199  29.221  23.482  1.00  0.00     0.249 C 
ATOM     75  H   UNL A   1      31.335  30.507  24.444  1.00  0.00     0.163 HD
ATOM     76  O   UNL A   1      29.301  30.074  23.500  1.00  0.00    -0.272 OA
BRANCH  74  77
ATOM     77  C   UNL A   1      29.905  27.819  22.893  1.00  0.00     0.207 C 
ATOM     78  C   UNL A   1      31.008  26.964  22.310  1.00  0.00     0.045 C 
ATOM     79  O   UNL A   1      29.183  26.997  23.817  1.00  0.00    -0.363 OA
ATOM     80  C   UNL A   1      31.212  25.841  23.306  1.00  0.00     0.037 C 
ATOM     81  C   UNL A   1      29.975  25.860  24.193  1.00  0.00     0.138 C 
BRANCH  81  82
ATOM     82  C   UNL A   1      30.253  25.978  25.698  1.00  0.00     0.148 C 
BRANCH  82  83
ATOM     83  N   UNL A   1      29.831  24.837  26.490  1.00  0.00    -0.349 N 
ATOM     84  C   UNL A   1      30.423  23.600  26.600  1.00  0.00     0.251 C 
ATOM     85  H   UNL A   1      29.009  24.964  27.018  1.00  0.00     0.163 HD
ATOM     86  O   UNL A   1      29.850  22.706  27.214  1.00  0.00    -0.269 OA
BRANCH  84  87
ATOM     87  C   UNL A   1      31.734  23.330  25.958  1.00  0.00     0.039 A 
ATOM     88  C   UNL A   1      31.776  22.488  24.843  1.00  0.00     0.014 A 
ATOM     89  C   UNL A   1      32.922  23.864  26.468  1.00  0.00     0.014 A 
ATOM     90  C   UNL A   1      32.991  22.240  24.198  1.00  0.00     0.007 A 
ATOM     91  C   UNL A   1      34.133  23.627  25.814  1.00  0.00     0.007 A 
ATOM     92  C   UNL A   1      34.175  22.834  24.660  1.00  0.00    -0.023 A 
BRANCH  92  93
ATOM     93  C   UNL A   1      35.485  22.577  23.960  1.00  0.00     0.191 C 
BRANCH  93  94
ATOM     94  O   UNL A   1      35.571  23.324  22.757  1.00  0.00    -0.392 OA
ATOM     95  H   UNL A   1      36.492  23.344  22.453  1.00  0.00     0.211 HD
ENDBRANCH  93  94
ENDBRANCH  92  93
ENDBRANCH  84  87
ENDBRANCH  82  83
ENDBRANCH  81  82
ENDBRANCH  74  77
ENDBRANCH   1  73
TORSDOF 18
ENDMDL
MODEL 3
REMARK VINA RESULT:     -11.3      2.596      8.178
REMARK SMILES O=C(NCCCNC(=O)[C@H]1CC[C@@H](CNC(=O)c2ccc(CO)cc2)O1)c1ccc(-c2c3nc(c(-c4cccc(S(=O)(=O)[O-])c4F)c4ccc([nH]4)c(-c4cccc(S(=O)(=O)[O-])c4F)c4nc(c(-c5cccc(S(=O)(=O)[O-])c5F)c5ccc2[nH]5)C=C4)C=C3)cc1
REMARK SMILES IDX 6 1 5 2 4 3 3 4 1 5 2 6 27 8 28 9 89 10 29 11 88 12 30 13
REMARK SMILES IDX 31 14 32 15 82 16 33 17 87 18 81 19 83 20 34 21 86 22 80 23
REMARK SMILES IDX 79 24 35 26 67 27 47 28 66 29 48 30 51 31 65 32 84 33 49 34
REMARK SMILES IDX 50 35 64 37 85 38 52 39 36 40 37 41 45 42 38 43 40 44 46 45
REMARK SMILES IDX 39 46 41 47 42 48 43 49 44 50 68 51 69 52 77 53 70 54 72 55
REMARK SMILES IDX 78 56 71 57 73 58 74 59 75 60 76 61 53 62 54 63 62 64 55 65
REMARK SMILES IDX 57 66 63 67 56 68 58 69 59 70 60 71 61 72 7 73 8 74 9 76
REMARK SMILES IDX 10 77 11 78 26 79 12 80 13 81 14 82 15 83 16 84 17 86 18 87
REMARK SMILES IDX 19 88 25 89 20 90 24 91 21 92 22 93 23 94
REMARK H PARENT 3 7 83 25 51 36 7 75 15 85 23 95
REMARK Flexibility Score: inf
ROOT
ATOM      1  C   UNL A   1      34.955  21.638  26.707  1.00  0.00     0.117 C 
ENDROOT
BRANCH   1   2
ATOM      2  C   UNL A   1      35.158  23.144  26.767  1.00  0.00     0.042 C 
BRANCH   2   3
ATOM      3  C   UNL A   1      36.369  23.594  25.961  1.00  0.00     0.118 C 
BRANCH   3   4
ATOM      4  N   UNL A   1      37.464  22.631  26.046  1.00  0.00    -0.352 N 
ATOM      5  O   UNL A   1      39.596  21.922  26.050  1.00  0.00    -0.269 OA
ATOM      6  C   UNL A   1      38.798  22.825  26.306  1.00  0.00     0.251 C 
ATOM      7  H   UNL A   1      37.204  21.694  25.893  1.00  0.00     0.163 HD
BRANCH   6   8
ATOM      8  C   UNL A   1      39.269  24.105  26.873  1.00  0.00     0.039 A 
ATOM      9  C   UNL A   1      39.811  25.083  26.037  1.00  0.00     0.014 A 
ATOM     10  C   UNL A   1      39.144  24.351  28.243  1.00  0.00     0.014 A 
ATOM     11  C   UNL A   1      40.392  26.216  26.582  1.00  0.00     0.010 A 
ATOM     12  C   UNL A   1      39.613  25.556  28.776  1.00  0.00     0.010 A 
ATOM     13  C   UNL A   1      40.269  26.486  27.954  1.00  0.00    -0.014 A 
BRANCH  13  14
ATOM     14  C   UNL A   1      40.738  27.796  28.468  1.00  0.00     0.031 A 
ATOM     15  C   UNL A   1      42.199  28.118  28.581  1.00  0.00     0.074 A 
ATOM     16  C   UNL A   1      39.811  28.701  28.840  1.00  0.00     0.049 A 
ATOM     17  N   UNL A   1      42.765  29.216  29.011  1.00  0.00    -0.248 NA
ATOM     18  C   UNL A   1      43.152  27.075  28.169  1.00  0.00     0.031 C 
ATOM     19  C   UNL A   1      38.361  28.476  28.818  1.00  0.00     0.029 A 
ATOM     20  N   UNL A   1      39.937  29.981  29.315  1.00  0.00    -0.354 N 
ATOM     21  C   UNL A   1      44.133  28.983  28.971  1.00  0.00     0.074 A 
ATOM     22  C   UNL A   1      44.315  27.636  28.475  1.00  0.00     0.031 C 
ATOM     23  C   UNL A   1      37.735  29.582  29.238  1.00  0.00     0.029 A 
ATOM     24  C   UNL A   1      38.734  30.565  29.632  1.00  0.00     0.049 A 
ATOM     25  H   UNL A   1      40.803  30.436  29.417  1.00  0.00     0.167 HD
ATOM     26  C   UNL A   1      45.143  29.820  29.313  1.00  0.00     0.034 A 
ATOM     27  C   UNL A   1      38.458  31.745  30.215  1.00  0.00     0.034 A 
ATOM     28  C   UNL A   1      44.947  31.165  29.787  1.00  0.00     0.049 A 
ATOM     29  C   UNL A   1      39.593  32.656  30.571  1.00  0.00     0.074 A 
ATOM     30  C   UNL A   1      45.903  32.119  30.087  1.00  0.00     0.029 A 
ATOM     31  N   UNL A   1      43.712  31.741  30.052  1.00  0.00    -0.354 N 
ATOM     32  N   UNL A   1      40.879  32.468  30.401  1.00  0.00    -0.248 NA
ATOM     33  C   UNL A   1      39.243  33.948  31.171  1.00  0.00     0.031 C 
ATOM     34  C   UNL A   1      45.248  33.257  30.573  1.00  0.00     0.029 A 
ATOM     35  C   UNL A   1      43.882  33.029  30.534  1.00  0.00     0.049 A 
ATOM     36  H   UNL A   1      42.842  31.299  29.918  1.00  0.00     0.167 HD
ATOM     37  C   UNL A   1      41.494  33.628  30.854  1.00  0.00     0.074 A 
ATOM     38  C   UNL A   1      40.435  34.521  31.280  1.00  0.00     0.031 C 
ATOM     39  C   UNL A   1      42.816  33.919  30.922  1.00  0.00     0.034 A 
BRANCH  26  40
ATOM     40  C   UNL A   1      46.555  29.308  29.181  1.00  0.00     0.023 A 
ATOM     41  C   UNL A   1      47.223  28.778  30.304  1.00  0.00     0.012 A 
ATOM     42  C   UNL A   1      47.207  29.306  27.930  1.00  0.00     0.148 A 
ATOM     43  C   UNL A   1      48.527  28.296  30.196  1.00  0.00     0.002 A 
ATOM     44  C   UNL A   1      48.489  28.781  27.820  1.00  0.00     0.091 A 
ATOM     45  F   UNL A   1      46.568  29.831  26.876  1.00  0.00    -0.205 F 
ATOM     46  C   UNL A   1      49.156  28.289  28.954  1.00  0.00     0.022 A 
BRANCH  44  47
ATOM     47  S   UNL A   1      49.351  28.653  26.249  1.00  0.00     0.127 S 
ATOM     48  O   UNL A   1      49.877  30.008  26.091  1.00  0.00    -0.237 OA
ATOM     49  O   UNL A   1      50.364  27.636  26.535  1.00  0.00    -0.237 OA
ATOM     50  O   UNL A   1      48.347  28.251  25.274  1.00  0.00    -0.744 OA
ENDBRANCH  44  47
ENDBRANCH  26  40
BRANCH  27  51
ATOM     51  C   UNL A   1      37.041  32.111  30.487  1.00  0.00     0.023 A 
ATOM     52  C   UNL A   1      36.504  31.935  31.775  1.00  0.00     0.012 A 
ATOM     53  C   UNL A   1      36.248  32.707  29.485  1.00  0.00     0.148 A 
ATOM     54  C   UNL A   1      35.195  32.328  32.056  1.00  0.00     0.002 A 
ATOM     55  C   UNL A   1      34.969  33.153  29.788  1.00  0.00     0.091 A 
ATOM     56  F   UNL A   1      36.778  32.858  28.263  1.00  0.00    -0.205 F 
ATOM     57  C   UNL A   1      34.434  32.949  31.069  1.00  0.00     0.022 A 
BRANCH  55  58
ATOM     58  S   UNL A   1      33.979  34.097  28.625  1.00  0.00     0.127 S 
ATOM     59  O   UNL A   1      32.911  34.601  29.484  1.00  0.00    -0.237 OA
ATOM     60  O   UNL A   1      34.934  35.108  28.170  1.00  0.00    -0.237 OA
ATOM     61  O   UNL A   1      33.568  33.152  27.597  1.00  0.00    -0.744 OA
ENDBRANCH  55  58
ENDBRANCH  27  51
BRANCH  39  62
ATOM     62  C   UNL A   1      43.197  35.277  31.448  1.00  0.00     0.023 A 
ATOM     63  C   UNL A   1      43.355  35.478  32.833  1.00  0.00     0.012 A 
ATOM     64  C   UNL A   1      43.466  36.336  30.558  1.00  0.00     0.148 A 
ATOM     65  C   UNL A   1      43.744  36.722  33.328  1.00  0.00     0.002 A 
ATOM     66  C   UNL A   1      43.905  37.557  31.055  1.00  0.00     0.091 A 
ATOM     67  F   UNL A   1      43.289  36.129  29.245  1.00  0.00    -0.205 F 
ATOM     68  C   UNL A   1      44.031  37.756  32.440  1.00  0.00     0.022 A 
BRANCH  66  69
ATOM     69  S   UNL A   1      44.393  38.913  29.984  1.00  0.00     0.127 S 
ATOM     70  O   UNL A   1      43.098  39.390  29.499  1.00  0.00    -0.237 OA
ATOM     71  O   UNL A   1      45.065  39.816  30.917  1.00  0.00    -0.237 OA
ATOM     72  O   UNL A   1      45.262  38.333  28.969  1.00  0.00    -0.744 OA
ENDBRANCH  66  69
ENDBRANCH  39  62
ENDBRANCH  13  14
ENDBRANCH   6   8
ENDBRANCH   3   4
ENDBRANCH   2   3
ENDBRANCH   1   2
BRANCH   1  73
ATOM     73  N   UNL A   1      33.568  21.288  26.499  1.00  0.00    -0.354 N 
ATOM     74  C   UNL A   1      32.739  21.379  25.430  1.00  0.00     0.249 C 
ATOM     75  H   UNL A   1      33.136  20.906  27.297  1.00  0.00     0.163 HD
ATOM     76  O   UNL A   1      31.579  20.994  25.630  1.00  0.00    -0.272 OA
BRANCH  74  77
ATOM     77  C   UNL A   1      33.154  21.838  24.010  1.00  0.00     0.207 C 
ATOM     78  C   UNL A   1      32.484  21.275  22.776  1.00  0.00     0.045 C 
ATOM     79  O   UNL A   1      33.130  23.264  23.885  1.00  0.00    -0.363 OA
ATOM     80  C   UNL A   1      31.629  22.403  22.236  1.00  0.00     0.037 C 
ATOM     81  C   UNL A   1      32.142  23.660  22.922  1.00  0.00     0.138 C 
BRANCH  81  82
ATOM     82  C   UNL A   1      31.078  24.475  23.673  1.00  0.00     0.148 C 
BRANCH  82  83
ATOM     83  N   UNL A   1      30.778  24.001  25.013  1.00  0.00    -0.349 N 
ATOM     84  C   UNL A   1      31.131  24.558  26.220  1.00  0.00     0.251 C 
ATOM     85  H   UNL A   1      30.253  23.170  25.064  1.00  0.00     0.163 HD
ATOM     86  O   UNL A   1      30.904  23.944  27.259  1.00  0.00    -0.269 OA
BRANCH  84  87
ATOM     87  C   UNL A   1      31.807  25.877  26.276  1.00  0.00     0.039 A 
ATOM     88  C   UNL A   1      31.037  27.018  26.520  1.00  0.00     0.014 A 
ATOM     89  C   UNL A   1      33.182  26.005  26.051  1.00  0.00     0.014 A 
ATOM     90  C   UNL A   1      31.650  28.271  26.611  1.00  0.00     0.007 A 
ATOM     91  C   UNL A   1      33.796  27.255  26.155  1.00  0.00     0.007 A 
ATOM     92  C   UNL A   1      33.039  28.395  26.459  1.00  0.00    -0.023 A 
BRANCH  92  93
ATOM     93  C   UNL A   1      33.705  29.743  26.567  1.00  0.00     0.191 C 
BRANCH  93  94
ATOM     94  O   UNL A   1      33.720  30.195  27.912  1.00  0.00    -0.392 OA
ATOM     95  H   UNL A   1      33.186  31.001  27.988  1.00  0.00     0.211 HD
ENDBRANCH  93  94
ENDBRANCH  92  93
ENDBRANCH  84  87
ENDBRANCH  82  83
ENDBRANCH  81  82
ENDBRANCH  74  77
ENDBRANCH   1  73
TORSDOF 18
ENDMDL
