MODEL 1
REMARK VINA RESULT:     -11.2      0.000      0.000
REMARK SMILES O=C(C[C@H]1C[N@@H+](CCSc2ccccc2F)CCO1)NCCCNC(=O)c1ccc(-c2c3nc(c(-c4cccc(S(=O)(=O)[O-])c4F)c4ccc([nH]4)c(-c4cccc(S(=O)(=O)[O-])c4F)c4nc(c(-c5cccc(S(=O)(=O)[O-])c5F)c5ccc2[nH]5)C=C4)C=C3)cc1
REMARK SMILES IDX 21 1 20 2 1 3 2 4 3 6 4 7 5 8 19 9 6 10 18 11 17 12 7 14
REMARK SMILES IDX 8 15 9 16 10 17 11 18 15 19 12 20 14 21 16 22 13 23 22 24
REMARK SMILES IDX 23 25 24 26 25 27 26 29 27 30 28 31 89 32 29 33 88 34 30 35
REMARK SMILES IDX 31 36 32 37 82 38 33 39 87 40 81 41 83 42 34 43 86 44 80 45
REMARK SMILES IDX 79 46 35 48 67 49 47 50 66 51 48 52 51 53 65 54 84 55 49 56
REMARK SMILES IDX 50 57 64 59 85 60 52 61 36 62 37 63 45 64 38 65 40 66 46 67
REMARK SMILES IDX 39 68 41 69 42 70 43 71 44 72 68 73 69 74 77 75 70 76 72 77
REMARK SMILES IDX 78 78 71 79 73 80 74 81 75 82 76 83 53 84 54 85 62 86 55 87
REMARK SMILES IDX 57 88 63 89 56 90 58 91 59 92 60 93 61 94
REMARK H PARENT 20 5 6 13 24 28 83 47 51 58
REMARK Flexibility Score: inf
ROOT
ATOM      1  C   UNL A   1      33.853  29.071  25.592  1.00  0.00     0.117 C 
ENDROOT
BRANCH   1   2
ATOM      2  N   UNL A   1      33.653  28.206  24.447  1.00  0.00    -0.356 N 
ATOM      3  O   UNL A   1      33.731  26.226  25.603  1.00  0.00    -0.275 OA
ATOM      4  C   UNL A   1      33.599  26.835  24.547  1.00  0.00     0.222 C 
ATOM      5  H   UNL A   1      33.550  28.618  23.559  1.00  0.00     0.163 HD
BRANCH   4   6
ATOM      6  C   UNL A   1      33.408  26.125  23.231  1.00  0.00     0.138 C 
BRANCH   6   7
ATOM      7  C   UNL A   1      31.989  26.074  22.665  1.00  0.00     0.182 C 
ATOM      8  C   UNL A   1      31.203  24.771  22.971  1.00  0.00     0.295 C 
ATOM      9  O   UNL A   1      31.249  27.294  22.837  1.00  0.00    -0.366 OA
ATOM     10  N   UNL A   1      30.255  24.810  24.087  1.00  0.00    -0.330 N 
ATOM     11  C   UNL A   1      30.318  27.271  23.924  1.00  0.00     0.222 C 
ATOM     12  C   UNL A   1      29.456  26.011  23.945  1.00  0.00     0.291 C 
ATOM     13  H   UNL A   1      29.629  24.008  24.020  1.00  0.00     0.348 HD
BRANCH  10  14
ATOM     14  C   UNL A   1      30.769  24.470  25.425  1.00  0.00     0.273 C 
BRANCH  14  15
ATOM     15  C   UNL A   1      30.925  23.029  26.018  1.00  0.00     0.136 C 
BRANCH  15  16
ATOM     16  S   UNL A   1      32.011  21.747  25.223  1.00  0.00    -0.117 SA
BRANCH  16  17
ATOM     17  C   UNL A   1      33.623  22.516  25.042  1.00  0.00     0.043 A 
ATOM     18  C   UNL A   1      34.408  22.941  26.122  1.00  0.00     0.018 A 
ATOM     19  C   UNL A   1      34.141  22.686  23.748  1.00  0.00     0.136 A 
ATOM     20  C   UNL A   1      35.720  23.400  25.905  1.00  0.00     0.001 A 
ATOM     21  C   UNL A   1      35.457  23.094  23.532  1.00  0.00     0.040 A 
ATOM     22  F   UNL A   1      33.417  22.326  22.676  1.00  0.00    -0.206 F 
ATOM     23  C   UNL A   1      36.257  23.438  24.616  1.00  0.00     0.003 A 
ENDBRANCH  16  17
ENDBRANCH  15  16
ENDBRANCH  14  15
ENDBRANCH  10  14
ENDBRANCH   6   7
ENDBRANCH   4   6
ENDBRANCH   1   2
BRANCH   1  24
ATOM     24  C   UNL A   1      32.701  30.041  25.809  1.00  0.00     0.042 C 
BRANCH  24  25
ATOM     25  C   UNL A   1      32.673  30.678  27.193  1.00  0.00     0.118 C 
BRANCH  25  26
ATOM     26  N   UNL A   1      32.783  32.129  27.164  1.00  0.00    -0.352 N 
ATOM     27  C   UNL A   1      33.754  32.947  27.693  1.00  0.00     0.251 C 
ATOM     28  H   UNL A   1      32.053  32.594  26.695  1.00  0.00     0.163 HD
ATOM     29  O   UNL A   1      33.598  34.161  27.653  1.00  0.00    -0.269 OA
BRANCH  27  30
ATOM     30  C   UNL A   1      34.968  32.371  28.324  1.00  0.00     0.039 A 
ATOM     31  C   UNL A   1      34.848  31.169  29.028  1.00  0.00     0.014 A 
ATOM     32  C   UNL A   1      36.207  33.011  28.255  1.00  0.00     0.014 A 
ATOM     33  C   UNL A   1      35.974  30.598  29.628  1.00  0.00     0.010 A 
ATOM     34  C   UNL A   1      37.345  32.393  28.771  1.00  0.00     0.010 A 
ATOM     35  C   UNL A   1      37.238  31.194  29.489  1.00  0.00    -0.014 A 
BRANCH  35  36
ATOM     36  C   UNL A   1      38.441  30.590  30.122  1.00  0.00     0.031 A 
ATOM     37  C   UNL A   1      38.829  30.963  31.530  1.00  0.00     0.074 A 
ATOM     38  C   UNL A   1      39.207  29.730  29.421  1.00  0.00     0.049 A 
ATOM     39  N   UNL A   1      39.820  30.513  32.254  1.00  0.00    -0.248 NA
ATOM     40  C   UNL A   1      38.014  31.987  32.208  1.00  0.00     0.031 C 
ATOM     41  C   UNL A   1      38.987  29.352  28.024  1.00  0.00     0.029 A 
ATOM     42  N   UNL A   1      40.328  29.024  29.783  1.00  0.00    -0.354 N 
ATOM     43  C   UNL A   1      39.766  31.216  33.453  1.00  0.00     0.074 A 
ATOM     44  C   UNL A   1      38.675  32.155  33.345  1.00  0.00     0.031 C 
ATOM     45  C   UNL A   1      39.925  28.464  27.656  1.00  0.00     0.029 A 
ATOM     46  C   UNL A   1      40.830  28.228  28.779  1.00  0.00     0.049 A 
ATOM     47  H   UNL A   1      40.734  29.080  30.678  1.00  0.00     0.167 HD
ATOM     48  C   UNL A   1      40.528  31.064  34.560  1.00  0.00     0.034 A 
ATOM     49  C   UNL A   1      41.895  27.402  28.760  1.00  0.00     0.034 A 
ATOM     50  C   UNL A   1      41.574  30.088  34.686  1.00  0.00     0.049 A 
ATOM     51  C   UNL A   1      42.710  27.228  30.014  1.00  0.00     0.074 A 
ATOM     52  C   UNL A   1      42.330  29.785  35.803  1.00  0.00     0.029 A 
ATOM     53  N   UNL A   1      42.020  29.267  33.662  1.00  0.00    -0.354 N 
ATOM     54  N   UNL A   1      42.530  27.772  31.193  1.00  0.00    -0.248 NA
ATOM     55  C   UNL A   1      43.857  26.309  29.948  1.00  0.00     0.031 C 
ATOM     56  C   UNL A   1      43.260  28.807  35.445  1.00  0.00     0.029 A 
ATOM     57  C   UNL A   1      43.060  28.476  34.115  1.00  0.00     0.049 A 
ATOM     58  H   UNL A   1      41.651  29.251  32.749  1.00  0.00     0.167 HD
ATOM     59  C   UNL A   1      43.525  27.249  32.012  1.00  0.00     0.074 A 
ATOM     60  C   UNL A   1      44.291  26.325  31.203  1.00  0.00     0.031 C 
ATOM     61  C   UNL A   1      43.787  27.526  33.313  1.00  0.00     0.034 A 
BRANCH  48  62
ATOM     62  C   UNL A   1      40.221  31.921  35.759  1.00  0.00     0.023 A 
ATOM     63  C   UNL A   1      40.978  33.088  35.991  1.00  0.00     0.012 A 
ATOM     64  C   UNL A   1      39.124  31.634  36.595  1.00  0.00     0.148 A 
ATOM     65  C   UNL A   1      40.665  33.941  37.047  1.00  0.00     0.002 A 
ATOM     66  C   UNL A   1      38.788  32.513  37.616  1.00  0.00     0.091 A 
ATOM     67  F   UNL A   1      38.426  30.511  36.368  1.00  0.00    -0.205 F 
ATOM     68  C   UNL A   1      39.563  33.661  37.851  1.00  0.00     0.022 A 
BRANCH  66  69
ATOM     69  S   UNL A   1      37.337  32.294  38.652  1.00  0.00     0.127 S 
ATOM     70  O   UNL A   1      36.338  33.082  37.930  1.00  0.00    -0.237 OA
ATOM     71  O   UNL A   1      37.132  30.846  38.590  1.00  0.00    -0.237 OA
ATOM     72  O   UNL A   1      37.698  32.805  39.967  1.00  0.00    -0.744 OA
ENDBRANCH  66  69
ENDBRANCH  48  62
BRANCH  49  73
ATOM     73  C   UNL A   1      42.200  26.622  27.526  1.00  0.00     0.023 A 
ATOM     74  C   UNL A   1      42.869  27.249  26.457  1.00  0.00     0.012 A 
ATOM     75  C   UNL A   1      41.887  25.252  27.430  1.00  0.00     0.148 A 
ATOM     76  C   UNL A   1      43.208  26.530  25.311  1.00  0.00     0.002 A 
ATOM     77  C   UNL A   1      42.277  24.529  26.310  1.00  0.00     0.091 A 
ATOM     78  F   UNL A   1      41.238  24.677  28.453  1.00  0.00    -0.205 F 
ATOM     79  C   UNL A   1      42.925  25.168  25.242  1.00  0.00     0.022 A 
BRANCH  77  80
ATOM     80  S   UNL A   1      42.079  22.746  26.192  1.00  0.00     0.127 S 
ATOM     81  O   UNL A   1      42.751  22.454  24.929  1.00  0.00    -0.237 OA
ATOM     82  O   UNL A   1      42.788  22.288  27.388  1.00  0.00    -0.237 OA
ATOM     83  O   UNL A   1      40.643  22.505  26.214  1.00  0.00    -0.744 OA
ENDBRANCH  77  80
ENDBRANCH  49  73
BRANCH  61  84
ATOM     84  C   UNL A   1      44.951  26.836  33.974  1.00  0.00     0.023 A 
ATOM     85  C   UNL A   1      46.225  27.434  33.928  1.00  0.00     0.012 A 
ATOM     86  C   UNL A   1      44.747  25.697  34.779  1.00  0.00     0.148 A 
ATOM     87  C   UNL A   1      47.280  26.907  34.670  1.00  0.00     0.002 A 
ATOM     88  C   UNL A   1      45.790  25.208  35.555  1.00  0.00     0.091 A 
ATOM     89  F   UNL A   1      43.527  25.142  34.801  1.00  0.00    -0.205 F 
ATOM     90  C   UNL A   1      47.059  25.807  35.496  1.00  0.00     0.022 A 
BRANCH  88  91
ATOM     91  S   UNL A   1      45.579  23.866  36.732  1.00  0.00     0.127 S 
ATOM     92  O   UNL A   1      44.632  24.449  37.681  1.00  0.00    -0.237 OA
ATOM     93  O   UNL A   1      45.024  22.806  35.891  1.00  0.00    -0.237 OA
ATOM     94  O   UNL A   1      46.902  23.588  37.273  1.00  0.00    -0.744 OA
ENDBRANCH  88  91
ENDBRANCH  61  84
ENDBRANCH  35  36
ENDBRANCH  27  30
ENDBRANCH  25  26
ENDBRANCH  24  25
ENDBRANCH   1  24
TORSDOF 18
ENDMDL
MODEL 2
REMARK VINA RESULT:     -11.1      1.477      2.683
REMARK SMILES O=C(C[C@H]1C[N@@H+](CCSc2ccccc2F)CCO1)NCCCNC(=O)c1ccc(-c2c3nc(c(-c4cccc(S(=O)(=O)[O-])c4F)c4ccc([nH]4)c(-c4cccc(S(=O)(=O)[O-])c4F)c4nc(c(-c5cccc(S(=O)(=O)[O-])c5F)c5ccc2[nH]5)C=C4)C=C3)cc1
REMARK SMILES IDX 21 1 20 2 1 3 2 4 3 6 4 7 5 8 19 9 6 10 18 11 17 12 7 14
REMARK SMILES IDX 8 15 9 16 10 17 11 18 15 19 12 20 14 21 16 22 13 23 22 24
REMARK SMILES IDX 23 25 24 26 25 27 26 29 27 30 28 31 89 32 29 33 88 34 30 35
REMARK SMILES IDX 31 36 32 37 82 38 33 39 87 40 81 41 83 42 34 43 86 44 80 45
REMARK SMILES IDX 79 46 35 48 67 49 47 50 66 51 48 52 51 53 65 54 84 55 49 56
REMARK SMILES IDX 50 57 64 59 85 60 52 61 36 62 37 63 45 64 38 65 40 66 46 67
REMARK SMILES IDX 39 68 41 69 42 70 43 71 44 72 68 73 69 74 77 75 70 76 72 77
REMARK SMILES IDX 78 78 71 79 73 80 74 81 75 82 76 83 53 84 54 85 62 86 55 87
REMARK SMILES IDX 57 88 63 89 56 90 58 91 59 92 60 93 61 94
REMARK H PARENT 20 5 6 13 24 28 83 47 51 58
REMARK Flexibility Score: inf
ROOT
ATOM      1  C   UNL A   1      33.464  28.080  23.546  1.00  0.00     0.117 C 
ENDROOT
BRANCH   1   2
ATOM      2  N   UNL A   1      33.761  26.732  23.988  1.00  0.00    -0.356 N 
ATOM      3  O   UNL A   1      33.912  25.802  21.896  1.00  0.00    -0.275 OA
ATOM      4  C   UNL A   1      33.972  25.690  23.116  1.00  0.00     0.222 C 
ATOM      5  H   UNL A   1      33.814  26.555  24.955  1.00  0.00     0.163 HD
BRANCH   4   6
ATOM      6  C   UNL A   1      34.242  24.367  23.785  1.00  0.00     0.138 C 
BRANCH   6   7
ATOM      7  C   UNL A   1      35.580  24.209  24.507  1.00  0.00     0.182 C 
ATOM      8  C   UNL A   1      35.481  23.755  25.988  1.00  0.00     0.295 C 
ATOM      9  O   UNL A   1      36.588  23.545  23.726  1.00  0.00    -0.366 OA
ATOM     10  N   UNL A   1      35.695  22.333  26.266  1.00  0.00    -0.330 N 
ATOM     11  C   UNL A   1      36.775  22.165  24.055  1.00  0.00     0.222 C 
ATOM     12  C   UNL A   1      36.889  21.920  25.557  1.00  0.00     0.291 C 
ATOM     13  H   UNL A   1      35.865  22.211  27.264  1.00  0.00     0.348 HD
BRANCH  10  14
ATOM     14  C   UNL A   1      34.517  21.450  26.220  1.00  0.00     0.273 C 
BRANCH  14  15
ATOM     15  C   UNL A   1      33.460  21.374  25.067  1.00  0.00     0.136 C 
BRANCH  15  16
ATOM     16  S   UNL A   1      31.638  21.550  25.385  1.00  0.00    -0.117 SA
BRANCH  16  17
ATOM     17  C   UNL A   1      31.253  23.276  25.080  1.00  0.00     0.043 A 
ATOM     18  C   UNL A   1      30.713  23.753  23.878  1.00  0.00     0.018 A 
ATOM     19  C   UNL A   1      31.486  24.205  26.108  1.00  0.00     0.136 A 
ATOM     20  C   UNL A   1      30.304  25.095  23.769  1.00  0.00     0.001 A 
ATOM     21  C   UNL A   1      31.036  25.523  26.021  1.00  0.00     0.040 A 
ATOM     22  F   UNL A   1      32.031  23.808  27.269  1.00  0.00    -0.206 F 
ATOM     23  C   UNL A   1      30.428  25.967  24.853  1.00  0.00     0.003 A 
ENDBRANCH  16  17
ENDBRANCH  15  16
ENDBRANCH  14  15
ENDBRANCH  10  14
ENDBRANCH   6   7
ENDBRANCH   4   6
ENDBRANCH   1   2
BRANCH   1  24
ATOM     24  C   UNL A   1      32.722  28.895  24.595  1.00  0.00     0.042 C 
BRANCH  24  25
ATOM     25  C   UNL A   1      33.580  29.311  25.783  1.00  0.00     0.118 C 
BRANCH  25  26
ATOM     26  N   UNL A   1      33.241  30.626  26.309  1.00  0.00    -0.352 N 
ATOM     27  C   UNL A   1      33.858  31.363  27.293  1.00  0.00     0.251 C 
ATOM     28  H   UNL A   1      32.454  31.050  25.899  1.00  0.00     0.163 HD
ATOM     29  O   UNL A   1      33.342  32.409  27.666  1.00  0.00    -0.269 OA
BRANCH  27  30
ATOM     30  C   UNL A   1      35.121  30.892  27.913  1.00  0.00     0.039 A 
ATOM     31  C   UNL A   1      36.218  31.759  27.937  1.00  0.00     0.014 A 
ATOM     32  C   UNL A   1      35.247  29.605  28.441  1.00  0.00     0.014 A 
ATOM     33  C   UNL A   1      37.420  31.347  28.520  1.00  0.00     0.010 A 
ATOM     34  C   UNL A   1      36.413  29.231  29.106  1.00  0.00     0.010 A 
ATOM     35  C   UNL A   1      37.523  30.085  29.128  1.00  0.00    -0.014 A 
BRANCH  35  36
ATOM     36  C   UNL A   1      38.798  29.642  29.753  1.00  0.00     0.031 A 
ATOM     37  C   UNL A   1      39.222  30.195  31.090  1.00  0.00     0.074 A 
ATOM     38  C   UNL A   1      39.595  28.768  29.107  1.00  0.00     0.049 A 
ATOM     39  N   UNL A   1      40.279  29.901  31.802  1.00  0.00    -0.248 NA
ATOM     40  C   UNL A   1      38.364  31.226  31.700  1.00  0.00     0.031 C 
ATOM     41  C   UNL A   1      39.339  28.224  27.772  1.00  0.00     0.029 A 
ATOM     42  N   UNL A   1      40.783  28.189  29.478  1.00  0.00    -0.354 N 
ATOM     43  C   UNL A   1      40.227  30.725  32.920  1.00  0.00     0.074 A 
ATOM     44  C   UNL A   1      39.062  31.566  32.774  1.00  0.00     0.031 C 
ATOM     45  C   UNL A   1      40.324  27.371  27.449  1.00  0.00     0.029 A 
ATOM     46  C   UNL A   1      41.297  27.326  28.538  1.00  0.00     0.049 A 
ATOM     47  H   UNL A   1      41.226  28.373  30.339  1.00  0.00     0.167 HD
ATOM     48  C   UNL A   1      41.050  30.751  33.993  1.00  0.00     0.034 A 
ATOM     49  C   UNL A   1      42.421  26.581  28.548  1.00  0.00     0.034 A 
ATOM     50  C   UNL A   1      42.174  29.873  34.163  1.00  0.00     0.049 A 
ATOM     51  C   UNL A   1      43.306  26.606  29.766  1.00  0.00     0.074 A 
ATOM     52  C   UNL A   1      43.003  29.750  35.263  1.00  0.00     0.029 A 
ATOM     53  N   UNL A   1      42.633  28.979  33.210  1.00  0.00    -0.354 N 
ATOM     54  N   UNL A   1      43.140  27.262  30.889  1.00  0.00    -0.248 NA
ATOM     55  C   UNL A   1      44.517  25.771  29.734  1.00  0.00     0.031 C 
ATOM     56  C   UNL A   1      43.988  28.808  34.960  1.00  0.00     0.029 A 
ATOM     57  C   UNL A   1      43.752  28.320  33.685  1.00  0.00     0.049 A 
ATOM     58  H   UNL A   1      42.224  28.836  32.326  1.00  0.00     0.167 HD
ATOM     59  C   UNL A   1      44.210  26.906  31.702  1.00  0.00     0.074 A 
ATOM     60  C   UNL A   1      45.006  25.956  30.954  1.00  0.00     0.031 C 
ATOM     61  C   UNL A   1      44.512  27.342  32.949  1.00  0.00     0.034 A 
BRANCH  48  62
ATOM     62  C   UNL A   1      40.735  31.711  35.110  1.00  0.00     0.023 A 
ATOM     63  C   UNL A   1      41.427  32.937  35.188  1.00  0.00     0.012 A 
ATOM     64  C   UNL A   1      39.689  31.450  36.017  1.00  0.00     0.148 A 
ATOM     65  C   UNL A   1      41.101  33.877  36.164  1.00  0.00     0.002 A 
ATOM     66  C   UNL A   1      39.337  32.412  36.955  1.00  0.00     0.091 A 
ATOM     67  F   UNL A   1      39.054  30.272  35.936  1.00  0.00    -0.205 F 
ATOM     68  C   UNL A   1      40.048  33.621  37.038  1.00  0.00     0.022 A 
BRANCH  66  69
ATOM     69  S   UNL A   1      37.941  32.220  38.069  1.00  0.00     0.127 S 
ATOM     70  O   UNL A   1      38.593  32.311  39.376  1.00  0.00    -0.237 OA
ATOM     71  O   UNL A   1      37.110  33.373  37.722  1.00  0.00    -0.237 OA
ATOM     72  O   UNL A   1      37.352  30.924  37.760  1.00  0.00    -0.744 OA
ENDBRANCH  66  69
ENDBRANCH  48  62
BRANCH  49  73
ATOM     73  C   UNL A   1      42.727  25.695  27.388  1.00  0.00     0.023 A 
ATOM     74  C   UNL A   1      43.598  26.148  26.379  1.00  0.00     0.012 A 
ATOM     75  C   UNL A   1      42.210  24.386  27.311  1.00  0.00     0.148 A 
ATOM     76  C   UNL A   1      43.937  25.321  25.308  1.00  0.00     0.002 A 
ATOM     77  C   UNL A   1      42.596  23.549  26.273  1.00  0.00     0.091 A 
ATOM     78  F   UNL A   1      41.372  23.979  28.276  1.00  0.00    -0.205 F 
ATOM     79  C   UNL A   1      43.448  24.019  25.261  1.00  0.00     0.022 A 
BRANCH  77  80
ATOM     80  S   UNL A   1      42.128  21.815  26.203  1.00  0.00     0.127 S 
ATOM     81  O   UNL A   1      43.001  21.312  25.146  1.00  0.00    -0.237 OA
ATOM     82  O   UNL A   1      42.468  21.360  27.552  1.00  0.00    -0.237 OA
ATOM     83  O   UNL A   1      40.703  21.801  25.904  1.00  0.00    -0.744 OA
ENDBRANCH  77  80
ENDBRANCH  49  73
BRANCH  61  84
ATOM     84  C   UNL A   1      45.756  26.815  33.614  1.00  0.00     0.023 A 
ATOM     85  C   UNL A   1      46.946  27.565  33.546  1.00  0.00     0.012 A 
ATOM     86  C   UNL A   1      45.699  25.675  34.442  1.00  0.00     0.148 A 
ATOM     87  C   UNL A   1      48.062  27.187  34.290  1.00  0.00     0.002 A 
ATOM     88  C   UNL A   1      46.799  25.334  35.219  1.00  0.00     0.091 A 
ATOM     89  F   UNL A   1      44.558  24.974  34.484  1.00  0.00    -0.205 F 
ATOM     90  C   UNL A   1      47.984  26.085  35.139  1.00  0.00     0.022 A 
BRANCH  88  91
ATOM     91  S   UNL A   1      46.762  24.000  36.422  1.00  0.00     0.127 S 
ATOM     92  O   UNL A   1      45.564  24.329  37.194  1.00  0.00    -0.237 OA
ATOM     93  O   UNL A   1      46.633  22.821  35.568  1.00  0.00    -0.237 OA
ATOM     94  O   UNL A   1      48.014  24.086  37.162  1.00  0.00    -0.744 OA
ENDBRANCH  88  91
ENDBRANCH  61  84
ENDBRANCH  35  36
ENDBRANCH  27  30
ENDBRANCH  25  26
ENDBRANCH  24  25
ENDBRANCH   1  24
TORSDOF 18
ENDMDL
MODEL 3
REMARK VINA RESULT:     -11.0      2.148      3.413
REMARK SMILES O=C(C[C@H]1C[N@@H+](CCSc2ccccc2F)CCO1)NCCCNC(=O)c1ccc(-c2c3nc(c(-c4cccc(S(=O)(=O)[O-])c4F)c4ccc([nH]4)c(-c4cccc(S(=O)(=O)[O-])c4F)c4nc(c(-c5cccc(S(=O)(=O)[O-])c5F)c5ccc2[nH]5)C=C4)C=C3)cc1
REMARK SMILES IDX 21 1 20 2 1 3 2 4 3 6 4 7 5 8 19 9 6 10 18 11 17 12 7 14
REMARK SMILES IDX 8 15 9 16 10 17 11 18 15 19 12 20 14 21 16 22 13 23 22 24
REMARK SMILES IDX 23 25 24 26 25 27 26 29 27 30 28 31 89 32 29 33 88 34 30 35
REMARK SMILES IDX 31 36 32 37 82 38 33 39 87 40 81 41 83 42 34 43 86 44 80 45
REMARK SMILES IDX 79 46 35 48 67 49 47 50 66 51 48 52 51 53 65 54 84 55 49 56
REMARK SMILES IDX 50 57 64 59 85 60 52 61 36 62 37 63 45 64 38 65 40 66 46 67
REMARK SMILES IDX 39 68 41 69 42 70 43 71 44 72 68 73 69 74 77 75 70 76 72 77
REMARK SMILES IDX 78 78 71 79 73 80 74 81 75 82 76 83 53 84 54 85 62 86 55 87
REMARK SMILES IDX 57 88 63 89 56 90 58 91 59 92 60 93 61 94
REMARK H PARENT 20 5 6 13 24 28 83 47 51 58
REMARK Flexibility Score: inf
ROOT
ATOM      1  C   UNL A   1      34.039  28.012  23.409  1.00  0.00     0.117 C 
ENDROOT
BRANCH   1   2
ATOM      2  N   UNL A   1      33.442  26.713  23.646  1.00  0.00    -0.356 N 
ATOM      3  O   UNL A   1      33.700  25.919  21.509  1.00  0.00    -0.275 OA
ATOM      4  C   UNL A   1      33.327  25.755  22.666  1.00  0.00     0.222 C 
ATOM      5  H   UNL A   1      33.106  26.508  24.548  1.00  0.00     0.163 HD
BRANCH   4   6
ATOM      6  C   UNL A   1      32.654  24.484  23.119  1.00  0.00     0.138 C 
BRANCH   6   7
ATOM      7  C   UNL A   1      33.063  23.924  24.481  1.00  0.00     0.182 C 
ATOM      8  C   UNL A   1      32.732  24.833  25.695  1.00  0.00     0.295 C 
ATOM      9  O   UNL A   1      32.754  22.531  24.653  1.00  0.00    -0.366 OA
ATOM     10  N   UNL A   1      31.517  24.519  26.451  1.00  0.00    -0.330 N 
ATOM     11  C   UNL A   1      31.574  22.279  25.422  1.00  0.00     0.222 C 
ATOM     12  C   UNL A   1      31.516  23.094  26.711  1.00  0.00     0.291 C 
ATOM     13  H   UNL A   1      31.551  25.002  27.349  1.00  0.00     0.348 HD
BRANCH  10  14
ATOM     14  C   UNL A   1      30.261  25.148  26.008  1.00  0.00     0.273 C 
BRANCH  14  15
ATOM     15  C   UNL A   1      30.123  26.307  24.964  1.00  0.00     0.136 C 
BRANCH  15  16
ATOM     16  S   UNL A   1      28.618  26.494  23.890  1.00  0.00    -0.117 SA
BRANCH  16  17
ATOM     17  C   UNL A   1      28.783  28.092  23.090  1.00  0.00     0.043 A 
ATOM     18  C   UNL A   1      29.956  28.529  22.461  1.00  0.00     0.018 A 
ATOM     19  C   UNL A   1      27.671  28.949  23.074  1.00  0.00     0.136 A 
ATOM     20  C   UNL A   1      29.961  29.732  21.731  1.00  0.00     0.001 A 
ATOM     21  C   UNL A   1      27.657  30.117  22.311  1.00  0.00     0.040 A 
ATOM     22  F   UNL A   1      26.532  28.594  23.689  1.00  0.00    -0.206 F 
ATOM     23  C   UNL A   1      28.800  30.504  21.623  1.00  0.00     0.003 A 
ENDBRANCH  16  17
ENDBRANCH  15  16
ENDBRANCH  14  15
ENDBRANCH  10  14
ENDBRANCH   6   7
ENDBRANCH   4   6
ENDBRANCH   1   2
BRANCH   1  24
ATOM     24  C   UNL A   1      33.175  29.160  23.913  1.00  0.00     0.042 C 
BRANCH  24  25
ATOM     25  C   UNL A   1      33.152  29.304  25.429  1.00  0.00     0.118 C 
BRANCH  25  26
ATOM     26  N   UNL A   1      32.654  30.596  25.880  1.00  0.00    -0.352 N 
ATOM     27  C   UNL A   1      33.104  31.403  26.899  1.00  0.00     0.251 C 
ATOM     28  H   UNL A   1      31.881  30.943  25.380  1.00  0.00     0.163 HD
ATOM     29  O   UNL A   1      32.467  32.409  27.188  1.00  0.00    -0.269 OA
BRANCH  27  30
ATOM     30  C   UNL A   1      34.331  31.054  27.657  1.00  0.00     0.039 A 
ATOM     31  C   UNL A   1      34.525  29.723  28.036  1.00  0.00     0.014 A 
ATOM     32  C   UNL A   1      35.271  32.020  28.021  1.00  0.00     0.014 A 
ATOM     33  C   UNL A   1      35.675  29.360  28.745  1.00  0.00     0.010 A 
ATOM     34  C   UNL A   1      36.459  31.643  28.643  1.00  0.00     0.010 A 
ATOM     35  C   UNL A   1      36.663  30.314  29.039  1.00  0.00    -0.014 A 
BRANCH  35  36
ATOM     36  C   UNL A   1      37.890  29.935  29.789  1.00  0.00     0.031 A 
ATOM     37  C   UNL A   1      38.129  30.471  31.178  1.00  0.00     0.074 A 
ATOM     38  C   UNL A   1      38.809  29.135  29.213  1.00  0.00     0.049 A 
ATOM     39  N   UNL A   1      39.120  30.224  31.994  1.00  0.00    -0.248 NA
ATOM     40  C   UNL A   1      37.141  31.425  31.715  1.00  0.00     0.031 C 
ATOM     41  C   UNL A   1      38.737  28.618  27.845  1.00  0.00     0.029 A 
ATOM     42  N   UNL A   1      39.987  28.622  29.699  1.00  0.00    -0.354 N 
ATOM     43  C   UNL A   1      38.892  31.007  33.120  1.00  0.00     0.074 A 
ATOM     44  C   UNL A   1      37.695  31.774  32.867  1.00  0.00     0.031 C 
ATOM     45  C   UNL A   1      39.807  27.842  27.612  1.00  0.00     0.029 A 
ATOM     46  C   UNL A   1      40.657  27.825  28.800  1.00  0.00     0.049 A 
ATOM     47  H   UNL A   1      40.321  28.807  30.607  1.00  0.00     0.167 HD
ATOM     48  C   UNL A   1      39.590  31.052  34.277  1.00  0.00     0.034 A 
ATOM     49  C   UNL A   1      41.821  27.155  28.915  1.00  0.00     0.034 A 
ATOM     50  C   UNL A   1      40.747  30.244  34.548  1.00  0.00     0.049 A 
ATOM     51  C   UNL A   1      42.566  27.198  30.223  1.00  0.00     0.074 A 
ATOM     52  C   UNL A   1      41.458  30.140  35.729  1.00  0.00     0.029 A 
ATOM     53  N   UNL A   1      41.365  29.412  33.629  1.00  0.00    -0.354 N 
ATOM     54  N   UNL A   1      42.235  27.806  31.337  1.00  0.00    -0.248 NA
ATOM     55  C   UNL A   1      43.827  26.445  30.304  1.00  0.00     0.031 C 
ATOM     56  C   UNL A   1      42.532  29.274  35.513  1.00  0.00     0.029 A 
ATOM     57  C   UNL A   1      42.468  28.812  34.208  1.00  0.00     0.049 A 
ATOM     58  H   UNL A   1      41.065  29.271  32.702  1.00  0.00     0.167 HD
ATOM     59  C   UNL A   1      43.233  27.494  32.254  1.00  0.00     0.074 A 
ATOM     60  C   UNL A   1      44.168  26.622  31.574  1.00  0.00     0.031 C 
ATOM     61  C   UNL A   1      43.368  27.909  33.537  1.00  0.00     0.034 A 
BRANCH  48  62
ATOM     62  C   UNL A   1      39.092  31.954  35.376  1.00  0.00     0.023 A 
ATOM     63  C   UNL A   1      38.174  31.453  36.322  1.00  0.00     0.012 A 
ATOM     64  C   UNL A   1      39.606  33.256  35.534  1.00  0.00     0.148 A 
ATOM     65  C   UNL A   1      37.757  32.241  37.393  1.00  0.00     0.002 A 
ATOM     66  C   UNL A   1      39.223  34.017  36.631  1.00  0.00     0.091 A 
ATOM     67  F   UNL A   1      40.465  33.719  34.615  1.00  0.00    -0.205 F 
ATOM     68  C   UNL A   1      38.291  33.516  37.556  1.00  0.00     0.022 A 
BRANCH  66  69
ATOM     69  S   UNL A   1      39.916  35.637  36.982  1.00  0.00     0.127 S 
ATOM     70  O   UNL A   1      39.163  36.026  38.175  1.00  0.00    -0.237 OA
ATOM     71  O   UNL A   1      41.324  35.321  37.227  1.00  0.00    -0.237 OA
ATOM     72  O   UNL A   1      39.667  36.449  35.799  1.00  0.00    -0.744 OA
ENDBRANCH  66  69
ENDBRANCH  48  62
BRANCH  49  73
ATOM     73  C   UNL A   1      42.310  26.328  27.775  1.00  0.00     0.023 A 
ATOM     74  C   UNL A   1      43.172  26.901  26.821  1.00  0.00     0.012 A 
ATOM     75  C   UNL A   1      41.976  24.963  27.665  1.00  0.00     0.148 A 
ATOM     76  C   UNL A   1      43.681  26.136  25.770  1.00  0.00     0.002 A 
ATOM     77  C   UNL A   1      42.531  24.194  26.650  1.00  0.00     0.091 A 
ATOM     78  F   UNL A   1      41.144  24.440  28.576  1.00  0.00    -0.205 F 
ATOM     79  C   UNL A   1      43.372  24.781  25.692  1.00  0.00     0.022 A 
BRANCH  77  80
ATOM     80  S   UNL A   1      42.301  22.414  26.550  1.00  0.00     0.127 S 
ATOM     81  O   UNL A   1      40.915  22.316  26.100  1.00  0.00    -0.237 OA
ATOM     82  O   UNL A   1      43.302  22.040  25.550  1.00  0.00    -0.237 OA
ATOM     83  O   UNL A   1      42.567  21.905  27.888  1.00  0.00    -0.744 OA
ENDBRANCH  77  80
ENDBRANCH  49  73
BRANCH  61  84
ATOM     84  C   UNL A   1      44.566  27.443  34.322  1.00  0.00     0.023 A 
ATOM     85  C   UNL A   1      45.753  28.199  34.282  1.00  0.00     0.012 A 
ATOM     86  C   UNL A   1      44.457  26.364  35.222  1.00  0.00     0.148 A 
ATOM     87  C   UNL A   1      46.818  27.886  35.126  1.00  0.00     0.002 A 
ATOM     88  C   UNL A   1      45.503  26.090  36.095  1.00  0.00     0.091 A 
ATOM     89  F   UNL A   1      43.320  25.656  35.235  1.00  0.00    -0.205 F 
ATOM     90  C   UNL A   1      46.687  26.845  36.043  1.00  0.00     0.022 A 
BRANCH  88  91
ATOM     91  S   UNL A   1      45.390  24.844  37.385  1.00  0.00     0.127 S 
ATOM     92  O   UNL A   1      44.101  25.165  37.996  1.00  0.00    -0.237 OA
ATOM     93  O   UNL A   1      45.407  23.602  36.613  1.00  0.00    -0.237 OA
ATOM     94  O   UNL A   1      46.547  25.045  38.246  1.00  0.00    -0.744 OA
ENDBRANCH  88  91
ENDBRANCH  61  84
ENDBRANCH  35  36
ENDBRANCH  27  30
ENDBRANCH  25  26
ENDBRANCH  24  25
ENDBRANCH   1  24
TORSDOF 18
ENDMDL
