MODEL 1
REMARK VINA RESULT:     -11.9      0.000      0.000
REMARK SMILES C[C@@H](C(=O)NCCCNC(=O)c1ccc(-c2c3nc(c(-c4cccc(S(=O)(=O)[O-])c4F)c4ccc([nH]4)c(-c4cccc(S(=O)(=O)[O-])c4F)c4nc(c(-c5cccc(S(=O)(=O)[O-])c5F)c5ccc2[nH]5)C=C4)C=C3)cc1)c1ccc(C[C@@H]2CCC[C@@H]2O)cc1F
REMARK SMILES IDX 6 1 5 2 3 3 4 4 2 6 1 7 75 8 76 9 87 10 77 11 86 12 88 13
REMARK SMILES IDX 78 14 79 15 80 16 81 17 84 18 82 19 83 20 85 21 7 23 8 24
REMARK SMILES IDX 9 25 10 26 11 28 12 29 13 30 74 31 14 32 73 33 15 34 16 35
REMARK SMILES IDX 17 36 67 37 18 38 72 39 66 40 68 41 19 42 71 43 65 44 64 45
REMARK SMILES IDX 20 47 52 48 32 49 51 50 33 51 36 52 50 53 69 54 34 55 35 56
REMARK SMILES IDX 49 58 70 59 37 60 21 61 22 62 30 63 23 64 25 65 31 66 24 67
REMARK SMILES IDX 26 68 27 69 28 70 29 71 53 72 54 73 62 74 55 75 57 76 63 77
REMARK SMILES IDX 56 78 58 79 59 80 60 81 61 82 38 83 39 84 47 85 40 86 42 87
REMARK SMILES IDX 48 88 41 89 43 90 44 91 45 92 46 93
REMARK H PARENT 5 5 85 22 9 27 68 46 36 57
REMARK Flexibility Score: inf
ROOT
ATOM      1  C   UNL A   1      33.400  27.413  23.208  1.00  0.00     0.117 C 
ENDROOT
BRANCH   1   2
ATOM      2  N   UNL A   1      34.022  26.583  24.220  1.00  0.00    -0.356 N 
ATOM      3  C   UNL A   1      33.510  25.557  24.958  1.00  0.00     0.227 C 
ATOM      4  O   UNL A   1      34.266  25.055  25.794  1.00  0.00    -0.274 OA
ATOM      5  H   UNL A   1      34.965  26.794  24.405  1.00  0.00     0.163 HD
BRANCH   3   6
ATOM      6  C   UNL A   1      32.078  25.051  24.703  1.00  0.00     0.108 C 
ATOM      7  C   UNL A   1      31.117  25.391  25.846  1.00  0.00     0.023 C 
BRANCH   6   8
ATOM      8  C   UNL A   1      32.068  23.551  24.441  1.00  0.00    -0.000 A 
ATOM      9  C   UNL A   1      31.727  22.639  25.450  1.00  0.00     0.008 A 
ATOM     10  C   UNL A   1      32.452  23.046  23.198  1.00  0.00     0.127 A 
ATOM     11  C   UNL A   1      31.783  21.264  25.219  1.00  0.00     0.004 A 
ATOM     12  C   UNL A   1      32.525  21.674  22.965  1.00  0.00     0.043 A 
ATOM     13  F   UNL A   1      32.779  23.884  22.203  1.00  0.00    -0.207 F 
ATOM     14  C   UNL A   1      32.218  20.766  23.986  1.00  0.00    -0.045 A 
BRANCH  14  15
ATOM     15  C   UNL A   1      32.389  19.283  23.770  1.00  0.00     0.041 C 
BRANCH  15  16
ATOM     16  C   UNL A   1      33.648  18.607  24.363  1.00  0.00     0.022 C 
ATOM     17  C   UNL A   1      34.337  17.588  23.447  1.00  0.00     0.007 C 
ATOM     18  C   UNL A   1      33.470  17.817  25.663  1.00  0.00     0.117 C 
ATOM     19  C   UNL A   1      33.897  16.199  23.919  1.00  0.00     0.003 C 
ATOM     20  C   UNL A   1      33.128  16.400  25.220  1.00  0.00     0.032 C 
BRANCH  18  21
ATOM     21  O   UNL A   1      32.504  18.378  26.529  1.00  0.00    -0.393 OA
ATOM     22  H   UNL A   1      31.772  18.740  26.005  1.00  0.00     0.210 HD
ENDBRANCH  18  21
ENDBRANCH  15  16
ENDBRANCH  14  15
ENDBRANCH   6   8
ENDBRANCH   3   6
ENDBRANCH   1   2
BRANCH   1  23
ATOM     23  C   UNL A   1      32.798  28.679  23.809  1.00  0.00     0.042 C 
BRANCH  23  24
ATOM     24  C   UNL A   1      33.440  29.108  25.124  1.00  0.00     0.118 C 
BRANCH  24  25
ATOM     25  N   UNL A   1      32.757  30.238  25.741  1.00  0.00    -0.352 N 
ATOM     26  C   UNL A   1      33.104  30.962  26.855  1.00  0.00     0.251 C 
ATOM     27  H   UNL A   1      31.927  30.522  25.294  1.00  0.00     0.163 HD
ATOM     28  O   UNL A   1      32.310  31.767  27.335  1.00  0.00    -0.269 OA
BRANCH  26  29
ATOM     29  C   UNL A   1      34.427  30.759  27.483  1.00  0.00     0.039 A 
ATOM     30  C   UNL A   1      35.288  31.851  27.633  1.00  0.00     0.014 A 
ATOM     31  C   UNL A   1      34.816  29.492  27.924  1.00  0.00     0.014 A 
ATOM     32  C   UNL A   1      36.513  31.684  28.284  1.00  0.00     0.010 A 
ATOM     33  C   UNL A   1      35.999  29.344  28.638  1.00  0.00     0.010 A 
ATOM     34  C   UNL A   1      36.863  30.436  28.819  1.00  0.00    -0.014 A 
BRANCH  34  35
ATOM     35  C   UNL A   1      38.129  30.219  29.565  1.00  0.00     0.031 A 
ATOM     36  C   UNL A   1      39.163  29.278  29.010  1.00  0.00     0.074 A 
ATOM     37  C   UNL A   1      38.285  30.747  30.793  1.00  0.00     0.049 A 
ATOM     38  N   UNL A   1      40.238  28.800  29.579  1.00  0.00    -0.248 NA
ATOM     39  C   UNL A   1      38.929  28.775  27.646  1.00  0.00     0.031 C 
ATOM     40  C   UNL A   1      37.325  31.623  31.467  1.00  0.00     0.029 A 
ATOM     41  N   UNL A   1      39.291  30.583  31.716  1.00  0.00    -0.354 N 
ATOM     42  C   UNL A   1      40.778  27.901  28.669  1.00  0.00     0.074 A 
ATOM     43  C   UNL A   1      39.897  27.879  27.521  1.00  0.00     0.031 C 
ATOM     44  C   UNL A   1      37.776  31.901  32.701  1.00  0.00     0.029 A 
ATOM     45  C   UNL A   1      39.035  31.195  32.921  1.00  0.00     0.049 A 
ATOM     46  H   UNL A   1      40.114  30.077  31.532  1.00  0.00     0.167 HD
ATOM     47  C   UNL A   1      41.917  27.174  28.768  1.00  0.00     0.034 A 
ATOM     48  C   UNL A   1      39.720  31.169  34.080  1.00  0.00     0.034 A 
ATOM     49  C   UNL A   1      42.813  27.239  29.890  1.00  0.00     0.049 A 
ATOM     50  C   UNL A   1      41.009  30.396  34.153  1.00  0.00     0.074 A 
ATOM     51  C   UNL A   1      44.037  26.615  30.050  1.00  0.00     0.029 A 
ATOM     52  N   UNL A   1      42.579  27.968  31.045  1.00  0.00    -0.354 N 
ATOM     53  N   UNL A   1      41.578  29.658  33.231  1.00  0.00    -0.248 NA
ATOM     54  C   UNL A   1      41.768  30.477  35.410  1.00  0.00     0.031 C 
ATOM     55  C   UNL A   1      44.534  26.953  31.313  1.00  0.00     0.029 A 
ATOM     56  C   UNL A   1      43.633  27.809  31.927  1.00  0.00     0.049 A 
ATOM     57  H   UNL A   1      41.779  28.518  31.214  1.00  0.00     0.167 HD
ATOM     58  C   UNL A   1      42.781  29.223  33.777  1.00  0.00     0.074 A 
ATOM     59  C   UNL A   1      42.860  29.784  35.111  1.00  0.00     0.031 C 
ATOM     60  C   UNL A   1      43.729  28.426  33.226  1.00  0.00     0.034 A 
BRANCH  47  61
ATOM     61  C   UNL A   1      42.273  26.278  27.609  1.00  0.00     0.023 A 
ATOM     62  C   UNL A   1      43.031  26.792  26.536  1.00  0.00     0.012 A 
ATOM     63  C   UNL A   1      41.882  24.925  27.591  1.00  0.00     0.148 A 
ATOM     64  C   UNL A   1      43.349  25.990  25.442  1.00  0.00     0.002 A 
ATOM     65  C   UNL A   1      42.245  24.118  26.518  1.00  0.00     0.091 A 
ATOM     66  F   UNL A   1      41.142  24.457  28.607  1.00  0.00    -0.205 F 
ATOM     67  C   UNL A   1      42.965  24.652  25.437  1.00  0.00     0.022 A 
BRANCH  65  68
ATOM     68  S   UNL A   1      41.868  22.363  26.466  1.00  0.00     0.127 S 
ATOM     69  O   UNL A   1      40.407  22.376  26.439  1.00  0.00    -0.237 OA
ATOM     70  O   UNL A   1      42.497  21.947  25.211  1.00  0.00    -0.237 OA
ATOM     71  O   UNL A   1      42.472  21.791  27.662  1.00  0.00    -0.744 OA
ENDBRANCH  65  68
ENDBRANCH  47  61
BRANCH  48  72
ATOM     72  C   UNL A   1      39.222  31.954  35.245  1.00  0.00     0.023 A 
ATOM     73  C   UNL A   1      38.345  31.346  36.162  1.00  0.00     0.012 A 
ATOM     74  C   UNL A   1      39.666  33.270  35.485  1.00  0.00     0.148 A 
ATOM     75  C   UNL A   1      37.899  32.041  37.287  1.00  0.00     0.002 A 
ATOM     76  C   UNL A   1      39.261  33.937  36.636  1.00  0.00     0.091 A 
ATOM     77  F   UNL A   1      40.498  33.830  34.596  1.00  0.00    -0.205 F 
ATOM     78  C   UNL A   1      38.366  33.329  37.529  1.00  0.00     0.022 A 
BRANCH  76  79
ATOM     79  S   UNL A   1      39.913  35.544  37.103  1.00  0.00     0.127 S 
ATOM     80  O   UNL A   1      39.205  35.802  38.355  1.00  0.00    -0.237 OA
ATOM     81  O   UNL A   1      41.340  35.256  37.250  1.00  0.00    -0.237 OA
ATOM     82  O   UNL A   1      39.590  36.439  36.001  1.00  0.00    -0.744 OA
ENDBRANCH  76  79
ENDBRANCH  48  72
BRANCH  60  83
ATOM     83  C   UNL A   1      44.974  28.148  34.025  1.00  0.00     0.023 A 
ATOM     84  C   UNL A   1      46.062  29.040  33.970  1.00  0.00     0.012 A 
ATOM     85  C   UNL A   1      45.013  27.061  34.920  1.00  0.00     0.148 A 
ATOM     86  C   UNL A   1      47.177  28.844  34.784  1.00  0.00     0.002 A 
ATOM     87  C   UNL A   1      46.106  26.900  35.764  1.00  0.00     0.091 A 
ATOM     88  F   UNL A   1      43.973  26.215  34.942  1.00  0.00    -0.205 F 
ATOM     89  C   UNL A   1      47.192  27.786  35.690  1.00  0.00     0.022 A 
BRANCH  87  90
ATOM     90  S   UNL A   1      46.168  25.628  37.030  1.00  0.00     0.127 S 
ATOM     91  O   UNL A   1      47.465  25.889  37.651  1.00  0.00    -0.237 OA
ATOM     92  O   UNL A   1      45.014  25.965  37.864  1.00  0.00    -0.237 OA
ATOM     93  O   UNL A   1      46.058  24.355  36.330  1.00  0.00    -0.744 OA
ENDBRANCH  87  90
ENDBRANCH  60  83
ENDBRANCH  34  35
ENDBRANCH  26  29
ENDBRANCH  24  25
ENDBRANCH  23  24
ENDBRANCH   1  23
TORSDOF 17
ENDMDL
MODEL 2
REMARK VINA RESULT:     -11.7      2.580      8.235
REMARK SMILES C[C@@H](C(=O)NCCCNC(=O)c1ccc(-c2c3nc(c(-c4cccc(S(=O)(=O)[O-])c4F)c4ccc([nH]4)c(-c4cccc(S(=O)(=O)[O-])c4F)c4nc(c(-c5cccc(S(=O)(=O)[O-])c5F)c5ccc2[nH]5)C=C4)C=C3)cc1)c1ccc(C[C@@H]2CCC[C@@H]2O)cc1F
REMARK SMILES IDX 6 1 5 2 3 3 4 4 2 6 1 7 75 8 76 9 87 10 77 11 86 12 88 13
REMARK SMILES IDX 78 14 79 15 80 16 81 17 84 18 82 19 83 20 85 21 7 23 8 24
REMARK SMILES IDX 9 25 10 26 11 28 12 29 13 30 74 31 14 32 73 33 15 34 16 35
REMARK SMILES IDX 17 36 67 37 18 38 72 39 66 40 68 41 19 42 71 43 65 44 64 45
REMARK SMILES IDX 20 47 52 48 32 49 51 50 33 51 36 52 50 53 69 54 34 55 35 56
REMARK SMILES IDX 49 58 70 59 37 60 21 61 22 62 30 63 23 64 25 65 31 66 24 67
REMARK SMILES IDX 26 68 27 69 28 70 29 71 53 72 54 73 62 74 55 75 57 76 63 77
REMARK SMILES IDX 56 78 58 79 59 80 60 81 61 82 38 83 39 84 47 85 40 86 42 87
REMARK SMILES IDX 48 88 41 89 43 90 44 91 45 92 46 93
REMARK H PARENT 5 5 85 22 9 27 68 46 36 57
REMARK Flexibility Score: inf
ROOT
ATOM      1  C   UNL A   1      31.662  30.859  26.187  1.00  0.00     0.117 C 
ENDROOT
BRANCH   1   2
ATOM      2  N   UNL A   1      31.587  29.798  27.171  1.00  0.00    -0.356 N 
ATOM      3  C   UNL A   1      31.717  28.448  27.027  1.00  0.00     0.227 C 
ATOM      4  O   UNL A   1      31.555  27.771  28.046  1.00  0.00    -0.274 OA
ATOM      5  H   UNL A   1      31.416  30.100  28.092  1.00  0.00     0.163 HD
BRANCH   3   6
ATOM      6  C   UNL A   1      32.087  27.842  25.661  1.00  0.00     0.108 C 
ATOM      7  C   UNL A   1      30.899  27.784  24.696  1.00  0.00     0.023 C 
BRANCH   6   8
ATOM      8  C   UNL A   1      32.693  26.455  25.827  1.00  0.00    -0.000 A 
ATOM      9  C   UNL A   1      34.056  26.223  25.588  1.00  0.00     0.008 A 
ATOM     10  C   UNL A   1      31.890  25.366  26.171  1.00  0.00     0.127 A 
ATOM     11  C   UNL A   1      34.588  24.937  25.680  1.00  0.00     0.004 A 
ATOM     12  C   UNL A   1      32.413  24.077  26.250  1.00  0.00     0.043 A 
ATOM     13  F   UNL A   1      30.583  25.545  26.416  1.00  0.00    -0.207 F 
ATOM     14  C   UNL A   1      33.766  23.844  25.975  1.00  0.00    -0.045 A 
BRANCH  14  15
ATOM     15  C   UNL A   1      34.315  22.439  25.963  1.00  0.00     0.041 C 
BRANCH  15  16
ATOM     16  C   UNL A   1      34.384  21.702  24.605  1.00  0.00     0.022 C 
ATOM     17  C   UNL A   1      33.706  22.424  23.434  1.00  0.00     0.007 C 
ATOM     18  C   UNL A   1      33.764  20.303  24.536  1.00  0.00     0.117 C 
ATOM     19  C   UNL A   1      32.339  21.758  23.236  1.00  0.00     0.003 C 
ATOM     20  C   UNL A   1      32.311  20.534  24.143  1.00  0.00     0.032 C 
BRANCH  18  21
ATOM     21  O   UNL A   1      33.907  19.571  25.737  1.00  0.00    -0.393 OA
ATOM     22  H   UNL A   1      34.813  19.231  25.803  1.00  0.00     0.210 HD
ENDBRANCH  18  21
ENDBRANCH  15  16
ENDBRANCH  14  15
ENDBRANCH   6   8
ENDBRANCH   3   6
ENDBRANCH   1   2
BRANCH   1  23
ATOM     23  C   UNL A   1      31.486  32.233  26.826  1.00  0.00     0.042 C 
BRANCH  23  24
ATOM     24  C   UNL A   1      32.783  32.848  27.341  1.00  0.00     0.118 C 
BRANCH  24  25
ATOM     25  N   UNL A   1      32.617  34.232  27.768  1.00  0.00    -0.352 N 
ATOM     26  C   UNL A   1      33.182  34.887  28.835  1.00  0.00     0.251 C 
ATOM     27  H   UNL A   1      32.013  34.775  27.211  1.00  0.00     0.163 HD
ATOM     28  O   UNL A   1      32.785  36.007  29.147  1.00  0.00    -0.269 OA
BRANCH  26  29
ATOM     29  C   UNL A   1      34.257  34.236  29.614  1.00  0.00     0.039 A 
ATOM     30  C   UNL A   1      33.921  33.460  30.727  1.00  0.00     0.014 A 
ATOM     31  C   UNL A   1      35.595  34.393  29.243  1.00  0.00     0.014 A 
ATOM     32  C   UNL A   1      34.924  32.786  31.431  1.00  0.00     0.010 A 
ATOM     33  C   UNL A   1      36.580  33.662  29.897  1.00  0.00     0.010 A 
ATOM     34  C   UNL A   1      36.257  32.858  31.002  1.00  0.00    -0.014 A 
BRANCH  34  35
ATOM     35  C   UNL A   1      37.351  32.120  31.683  1.00  0.00     0.031 A 
ATOM     36  C   UNL A   1      37.859  32.610  33.011  1.00  0.00     0.074 A 
ATOM     37  C   UNL A   1      37.977  31.110  31.050  1.00  0.00     0.049 A 
ATOM     38  N   UNL A   1      38.917  32.237  33.681  1.00  0.00    -0.248 NA
ATOM     39  C   UNL A   1      37.092  33.694  33.648  1.00  0.00     0.031 C 
ATOM     40  C   UNL A   1      37.620  30.586  29.731  1.00  0.00     0.029 A 
ATOM     41  N   UNL A   1      39.081  30.375  31.412  1.00  0.00    -0.354 N 
ATOM     42  C   UNL A   1      38.977  33.076  34.787  1.00  0.00     0.074 A 
ATOM     43  C   UNL A   1      37.863  33.994  34.683  1.00  0.00     0.031 C 
ATOM     44  C   UNL A   1      38.498  29.631  29.385  1.00  0.00     0.029 A 
ATOM     45  C   UNL A   1      39.502  29.501  30.437  1.00  0.00     0.049 A 
ATOM     46  H   UNL A   1      39.526  30.466  32.285  1.00  0.00     0.167 HD
ATOM     47  C   UNL A   1      39.866  33.071  35.809  1.00  0.00     0.034 A 
ATOM     48  C   UNL A   1      40.588  28.706  30.383  1.00  0.00     0.034 A 
ATOM     49  C   UNL A   1      40.940  32.123  35.930  1.00  0.00     0.049 A 
ATOM     50  C   UNL A   1      41.536  28.678  31.552  1.00  0.00     0.074 A 
ATOM     51  C   UNL A   1      41.840  31.971  36.970  1.00  0.00     0.029 A 
ATOM     52  N   UNL A   1      41.262  31.169  34.977  1.00  0.00    -0.354 N 
ATOM     53  N   UNL A   1      41.500  29.383  32.656  1.00  0.00    -0.248 NA
ATOM     54  C   UNL A   1      42.652  27.723  31.485  1.00  0.00     0.031 C 
ATOM     55  C   UNL A   1      42.719  30.936  36.635  1.00  0.00     0.029 A 
ATOM     56  C   UNL A   1      42.349  30.426  35.401  1.00  0.00     0.049 A 
ATOM     57  H   UNL A   1      40.788  31.040  34.124  1.00  0.00     0.167 HD
ATOM     58  C   UNL A   1      42.559  28.929  33.435  1.00  0.00     0.074 A 
ATOM     59  C   UNL A   1      43.216  27.884  32.676  1.00  0.00     0.031 C 
ATOM     60  C   UNL A   1      42.953  29.345  34.664  1.00  0.00     0.034 A 
BRANCH  47  61
ATOM     61  C   UNL A   1      39.681  34.098  36.896  1.00  0.00     0.023 A 
ATOM     62  C   UNL A   1      39.991  35.450  36.639  1.00  0.00     0.012 A 
ATOM     63  C   UNL A   1      39.178  33.734  38.160  1.00  0.00     0.148 A 
ATOM     64  C   UNL A   1      39.853  36.413  37.637  1.00  0.00     0.002 A 
ATOM     65  C   UNL A   1      38.997  34.710  39.135  1.00  0.00     0.091 A 
ATOM     66  F   UNL A   1      38.909  32.442  38.398  1.00  0.00    -0.205 F 
ATOM     67  C   UNL A   1      39.347  36.045  38.881  1.00  0.00     0.022 A 
BRANCH  65  68
ATOM     68  S   UNL A   1      38.272  34.343  40.737  1.00  0.00     0.127 S 
ATOM     69  O   UNL A   1      37.145  33.491  40.364  1.00  0.00    -0.237 OA
ATOM     70  O   UNL A   1      39.363  33.646  41.420  1.00  0.00    -0.237 OA
ATOM     71  O   UNL A   1      37.923  35.632  41.319  1.00  0.00    -0.744 OA
ENDBRANCH  65  68
ENDBRANCH  47  61
BRANCH  48  72
ATOM     72  C   UNL A   1      40.795  27.827  29.198  1.00  0.00     0.023 A 
ATOM     73  C   UNL A   1      40.071  26.625  29.095  1.00  0.00     0.012 A 
ATOM     74  C   UNL A   1      41.650  28.209  28.144  1.00  0.00     0.148 A 
ATOM     75  C   UNL A   1      40.209  25.805  27.974  1.00  0.00     0.002 A 
ATOM     76  C   UNL A   1      41.742  27.414  27.007  1.00  0.00     0.091 A 
ATOM     77  F   UNL A   1      42.333  29.355  28.266  1.00  0.00    -0.205 F 
ATOM     78  C   UNL A   1      41.034  26.205  26.927  1.00  0.00     0.022 A 
BRANCH  76  79
ATOM     79  S   UNL A   1      42.671  27.911  25.551  1.00  0.00     0.127 S 
ATOM     80  O   UNL A   1      42.591  26.711  24.722  1.00  0.00    -0.237 OA
ATOM     81  O   UNL A   1      41.885  29.047  25.069  1.00  0.00    -0.237 OA
ATOM     82  O   UNL A   1      44.001  28.259  26.030  1.00  0.00    -0.744 OA
ENDBRANCH  76  79
ENDBRANCH  48  72
BRANCH  60  83
ATOM     83  C   UNL A   1      44.116  28.641  35.311  1.00  0.00     0.023 A 
ATOM     84  C   UNL A   1      45.434  29.058  35.039  1.00  0.00     0.012 A 
ATOM     85  C   UNL A   1      43.890  27.644  36.280  1.00  0.00     0.148 A 
ATOM     86  C   UNL A   1      46.510  28.480  35.712  1.00  0.00     0.002 A 
ATOM     87  C   UNL A   1      44.963  27.107  36.981  1.00  0.00     0.091 A 
ATOM     88  F   UNL A   1      42.628  27.251  36.508  1.00  0.00    -0.205 F 
ATOM     89  C   UNL A   1      46.274  27.518  36.692  1.00  0.00     0.022 A 
BRANCH  87  90
ATOM     90  S   UNL A   1      44.747  25.939  38.329  1.00  0.00     0.127 S 
ATOM     91  O   UNL A   1      44.247  24.760  37.623  1.00  0.00    -0.237 OA
ATOM     92  O   UNL A   1      46.109  25.809  38.846  1.00  0.00    -0.237 OA
ATOM     93  O   UNL A   1      43.805  26.557  39.252  1.00  0.00    -0.744 OA
ENDBRANCH  87  90
ENDBRANCH  60  83
ENDBRANCH  34  35
ENDBRANCH  26  29
ENDBRANCH  24  25
ENDBRANCH  23  24
ENDBRANCH   1  23
TORSDOF 17
ENDMDL
MODEL 3
REMARK VINA RESULT:     -11.7      5.633      8.852
REMARK SMILES C[C@@H](C(=O)NCCCNC(=O)c1ccc(-c2c3nc(c(-c4cccc(S(=O)(=O)[O-])c4F)c4ccc([nH]4)c(-c4cccc(S(=O)(=O)[O-])c4F)c4nc(c(-c5cccc(S(=O)(=O)[O-])c5F)c5ccc2[nH]5)C=C4)C=C3)cc1)c1ccc(C[C@@H]2CCC[C@@H]2O)cc1F
REMARK SMILES IDX 6 1 5 2 3 3 4 4 2 6 1 7 75 8 76 9 87 10 77 11 86 12 88 13
REMARK SMILES IDX 78 14 79 15 80 16 81 17 84 18 82 19 83 20 85 21 7 23 8 24
REMARK SMILES IDX 9 25 10 26 11 28 12 29 13 30 74 31 14 32 73 33 15 34 16 35
REMARK SMILES IDX 17 36 67 37 18 38 72 39 66 40 68 41 19 42 71 43 65 44 64 45
REMARK SMILES IDX 20 47 52 48 32 49 51 50 33 51 36 52 50 53 69 54 34 55 35 56
REMARK SMILES IDX 49 58 70 59 37 60 21 61 22 62 30 63 23 64 25 65 31 66 24 67
REMARK SMILES IDX 26 68 27 69 28 70 29 71 53 72 54 73 62 74 55 75 57 76 63 77
REMARK SMILES IDX 56 78 58 79 59 80 60 81 61 82 38 83 39 84 47 85 40 86 42 87
REMARK SMILES IDX 48 88 41 89 43 90 44 91 45 92 46 93
REMARK H PARENT 5 5 85 22 9 27 68 46 36 57
REMARK Flexibility Score: inf
ROOT
ATOM      1  C   UNL A   1      37.020  20.263  24.623  1.00  0.00     0.117 C 
ENDROOT
BRANCH   1   2
ATOM      2  N   UNL A   1      35.934  20.673  25.491  1.00  0.00    -0.356 N 
ATOM      3  C   UNL A   1      35.533  21.918  25.876  1.00  0.00     0.227 C 
ATOM      4  O   UNL A   1      34.593  21.966  26.675  1.00  0.00    -0.274 OA
ATOM      5  H   UNL A   1      35.402  19.934  25.864  1.00  0.00     0.163 HD
BRANCH   3   6
ATOM      6  C   UNL A   1      36.210  23.171  25.292  1.00  0.00     0.108 C 
ATOM      7  C   UNL A   1      37.053  23.925  26.323  1.00  0.00     0.023 C 
BRANCH   6   8
ATOM      8  C   UNL A   1      35.181  24.108  24.673  1.00  0.00    -0.000 A 
ATOM      9  C   UNL A   1      34.672  25.203  25.386  1.00  0.00     0.008 A 
ATOM     10  C   UNL A   1      34.679  23.865  23.393  1.00  0.00     0.127 A 
ATOM     11  C   UNL A   1      33.682  26.017  24.835  1.00  0.00     0.004 A 
ATOM     12  C   UNL A   1      33.680  24.666  22.843  1.00  0.00     0.043 A 
ATOM     13  F   UNL A   1      35.143  22.832  22.673  1.00  0.00    -0.207 F 
ATOM     14  C   UNL A   1      33.149  25.736  23.573  1.00  0.00    -0.045 A 
BRANCH  14  15
ATOM     15  C   UNL A   1      32.001  26.544  23.022  1.00  0.00     0.041 C 
BRANCH  15  16
ATOM     16  C   UNL A   1      31.087  27.282  24.029  1.00  0.00     0.022 C 
ATOM     17  C   UNL A   1      29.587  26.996  23.882  1.00  0.00     0.007 C 
ATOM     18  C   UNL A   1      31.136  28.812  24.027  1.00  0.00     0.117 C 
ATOM     19  C   UNL A   1      28.983  28.184  23.126  1.00  0.00     0.003 C 
ATOM     20  C   UNL A   1      30.078  29.239  23.017  1.00  0.00     0.032 C 
BRANCH  18  21
ATOM     21  O   UNL A   1      32.420  29.329  23.741  1.00  0.00    -0.393 OA
ATOM     22  H   UNL A   1      33.076  28.898  24.311  1.00  0.00     0.210 HD
ENDBRANCH  18  21
ENDBRANCH  15  16
ENDBRANCH  14  15
ENDBRANCH   6   8
ENDBRANCH   3   6
ENDBRANCH   1   2
BRANCH   1  23
ATOM     23  C   UNL A   1      38.052  19.424  25.369  1.00  0.00     0.042 C 
BRANCH  23  24
ATOM     24  C   UNL A   1      39.316  20.188  25.747  1.00  0.00     0.118 C 
BRANCH  24  25
ATOM     25  N   UNL A   1      40.405  19.308  26.153  1.00  0.00    -0.352 N 
ATOM     26  C   UNL A   1      41.698  19.623  26.493  1.00  0.00     0.251 C 
ATOM     27  H   UNL A   1      40.180  18.350  26.188  1.00  0.00     0.163 HD
ATOM     28  O   UNL A   1      42.530  18.730  26.633  1.00  0.00    -0.269 OA
BRANCH  26  29
ATOM     29  C   UNL A   1      42.089  21.037  26.674  1.00  0.00     0.039 A 
ATOM     30  C   UNL A   1      42.271  21.846  25.548  1.00  0.00     0.014 A 
ATOM     31  C   UNL A   1      42.274  21.563  27.955  1.00  0.00     0.014 A 
ATOM     32  C   UNL A   1      42.576  23.201  25.709  1.00  0.00     0.010 A 
ATOM     33  C   UNL A   1      42.501  22.925  28.114  1.00  0.00     0.010 A 
ATOM     34  C   UNL A   1      42.662  23.756  26.994  1.00  0.00    -0.014 A 
BRANCH  34  35
ATOM     35  C   UNL A   1      42.931  25.199  27.218  1.00  0.00     0.031 A 
ATOM     36  C   UNL A   1      44.334  25.722  27.073  1.00  0.00     0.074 A 
ATOM     37  C   UNL A   1      41.956  26.001  27.687  1.00  0.00     0.049 A 
ATOM     38  N   UNL A   1      44.821  26.889  27.403  1.00  0.00    -0.248 NA
ATOM     39  C   UNL A   1      45.329  24.788  26.519  1.00  0.00     0.031 C 
ATOM     40  C   UNL A   1      40.571  25.596  27.932  1.00  0.00     0.029 A 
ATOM     41  N   UNL A   1      41.995  27.314  28.090  1.00  0.00    -0.354 N 
ATOM     42  C   UNL A   1      46.186  26.812  27.152  1.00  0.00     0.074 A 
ATOM     43  C   UNL A   1      46.452  25.475  26.668  1.00  0.00     0.031 C 
ATOM     44  C   UNL A   1      39.898  26.630  28.461  1.00  0.00     0.029 A 
ATOM     45  C   UNL A   1      40.810  27.757  28.631  1.00  0.00     0.049 A 
ATOM     46  H   UNL A   1      42.793  27.882  28.000  1.00  0.00     0.167 HD
ATOM     47  C   UNL A   1      47.130  27.773  27.291  1.00  0.00     0.034 A 
ATOM     48  C   UNL A   1      40.499  28.928  29.220  1.00  0.00     0.034 A 
ATOM     49  C   UNL A   1      46.847  29.114  27.726  1.00  0.00     0.049 A 
ATOM     50  C   UNL A   1      41.550  30.001  29.319  1.00  0.00     0.074 A 
ATOM     51  C   UNL A   1      47.714  30.190  27.813  1.00  0.00     0.029 A 
ATOM     52  N   UNL A   1      45.606  29.562  28.150  1.00  0.00    -0.354 N 
ATOM     53  N   UNL A   1      42.806  29.958  28.948  1.00  0.00    -0.248 NA
ATOM     54  C   UNL A   1      41.135  31.294  29.884  1.00  0.00     0.031 C 
ATOM     55  C   UNL A   1      46.998  31.283  28.310  1.00  0.00     0.029 A 
ATOM     56  C   UNL A   1      45.681  30.897  28.505  1.00  0.00     0.049 A 
ATOM     57  H   UNL A   1      44.791  29.010  28.194  1.00  0.00     0.167 HD
ATOM     58  C   UNL A   1      43.321  31.227  29.193  1.00  0.00     0.074 A 
ATOM     59  C   UNL A   1      42.238  32.017  29.741  1.00  0.00     0.031 C 
ATOM     60  C   UNL A   1      44.579  31.690  28.988  1.00  0.00     0.034 A 
BRANCH  47  61
ATOM     61  C   UNL A   1      48.547  27.413  26.928  1.00  0.00     0.023 A 
ATOM     62  C   UNL A   1      49.389  26.828  27.895  1.00  0.00     0.012 A 
ATOM     63  C   UNL A   1      49.038  27.627  25.625  1.00  0.00     0.148 A 
ATOM     64  C   UNL A   1      50.712  26.511  27.589  1.00  0.00     0.002 A 
ATOM     65  C   UNL A   1      50.344  27.263  25.314  1.00  0.00     0.091 A 
ATOM     66  F   UNL A   1      48.233  28.205  24.722  1.00  0.00    -0.205 F 
ATOM     67  C   UNL A   1      51.185  26.719  26.297  1.00  0.00     0.022 A 
BRANCH  65  68
ATOM     68  S   UNL A   1      51.014  27.415  23.654  1.00  0.00     0.127 S 
ATOM     69  O   UNL A   1      51.134  28.865  23.517  1.00  0.00    -0.237 OA
ATOM     70  O   UNL A   1      52.289  26.705  23.767  1.00  0.00    -0.237 OA
ATOM     71  O   UNL A   1      50.044  26.776  22.775  1.00  0.00    -0.744 OA
ENDBRANCH  65  68
ENDBRANCH  47  61
BRANCH  48  72
ATOM     72  C   UNL A   1      39.110  29.159  29.706  1.00  0.00     0.023 A 
ATOM     73  C   UNL A   1      38.767  28.785  31.019  1.00  0.00     0.012 A 
ATOM     74  C   UNL A   1      38.151  29.807  28.902  1.00  0.00     0.148 A 
ATOM     75  C   UNL A   1      37.487  29.031  31.518  1.00  0.00     0.002 A 
ATOM     76  C   UNL A   1      36.895  30.098  29.423  1.00  0.00     0.091 A 
ATOM     77  F   UNL A   1      38.498  30.150  27.654  1.00  0.00    -0.205 F 
ATOM     78  C   UNL A   1      36.557  29.697  30.725  1.00  0.00     0.022 A 
BRANCH  76  79
ATOM     79  S   UNL A   1      35.678  31.070  28.529  1.00  0.00     0.127 S 
ATOM     80  O   UNL A   1      34.783  31.492  29.604  1.00  0.00    -0.237 OA
ATOM     81  O   UNL A   1      36.505  32.135  27.961  1.00  0.00    -0.237 OA
ATOM     82  O   UNL A   1      35.096  30.169  27.544  1.00  0.00    -0.744 OA
ENDBRANCH  76  79
ENDBRANCH  48  72
BRANCH  60  83
ATOM     83  C   UNL A   1      44.860  33.137  29.295  1.00  0.00     0.023 A 
ATOM     84  C   UNL A   1      45.422  33.499  30.534  1.00  0.00     0.012 A 
ATOM     85  C   UNL A   1      44.675  34.120  28.303  1.00  0.00     0.148 A 
ATOM     86  C   UNL A   1      45.780  34.823  30.787  1.00  0.00     0.002 A 
ATOM     87  C   UNL A   1      45.079  35.428  28.544  1.00  0.00     0.091 A 
ATOM     88  F   UNL A   1      44.122  33.755  27.137  1.00  0.00    -0.205 F 
ATOM     89  C   UNL A   1      45.624  35.782  29.789  1.00  0.00     0.022 A 
BRANCH  87  90
ATOM     90  S   UNL A   1      45.010  36.707  27.284  1.00  0.00     0.127 S 
ATOM     91  O   UNL A   1      45.484  37.877  28.022  1.00  0.00    -0.237 OA
ATOM     92  O   UNL A   1      45.944  36.200  26.279  1.00  0.00    -0.237 OA
ATOM     93  O   UNL A   1      43.622  36.767  26.846  1.00  0.00    -0.744 OA
ENDBRANCH  87  90
ENDBRANCH  60  83
ENDBRANCH  34  35
ENDBRANCH  26  29
ENDBRANCH  24  25
ENDBRANCH  23  24
ENDBRANCH   1  23
TORSDOF 17
ENDMDL
