MODEL 1
REMARK VINA RESULT:     -11.3      0.000      0.000
REMARK SMILES CC[C@](C)([NH2+]C[C@H]1Cc2ccccc2S1)C(=O)NCCCNC(=O)c1ccc(-c2c3nc(c(-c4cccc(S(=O)(=O)[O-])c4F)c4ccc([nH]4)c(-c4cccc(S(=O)(=O)[O-])c4F)c4nc(c(-c5cccc(S(=O)(=O)[O-])c5F)c5ccc2[nH]5)C=C4)C=C3)cc1
REMARK SMILES IDX 20 1 19 2 18 3 16 4 17 5 3 7 4 8 2 9 1 10 5 11 6 14 7 15
REMARK SMILES IDX 8 16 15 17 9 18 14 19 10 20 13 21 11 22 12 23 21 24 22 25
REMARK SMILES IDX 23 26 24 28 25 29 26 30 87 31 27 32 86 33 28 34 29 35 30 36
REMARK SMILES IDX 80 37 31 38 85 39 79 40 81 41 32 42 84 43 78 44 77 45 33 47
REMARK SMILES IDX 65 48 45 49 64 50 46 51 49 52 63 53 82 54 47 55 48 56 62 58
REMARK SMILES IDX 83 59 50 60 34 61 35 62 43 63 36 64 38 65 44 66 37 67 39 68
REMARK SMILES IDX 40 69 41 70 42 71 66 72 67 73 75 74 68 75 70 76 76 77 69 78
REMARK SMILES IDX 71 79 72 80 73 81 74 82 51 83 52 84 60 85 53 86 55 87 61 88
REMARK SMILES IDX 54 89 56 90 57 91 58 92 59 93
REMARK H PARENT 18 6 5 12 5 13 22 27 81 46 49 57
REMARK Flexibility Score: inf
ROOT
ATOM      1  C   UNL A   1      31.828  28.071  26.226  1.00  0.00     0.042 C 
ENDROOT
BRANCH   1   2
ATOM      2  C   UNL A   1      32.481  26.693  26.283  1.00  0.00     0.118 C 
BRANCH   2   3
ATOM      3  N   UNL A   1      31.561  25.684  26.730  1.00  0.00    -0.351 N 
ATOM      4  C   UNL A   1      31.501  24.341  26.572  1.00  0.00     0.281 C 
ATOM      5  O   UNL A   1      30.547  23.847  27.201  1.00  0.00    -0.268 OA
ATOM      6  H   UNL A   1      30.817  26.045  27.265  1.00  0.00     0.163 HD
BRANCH   4   7
ATOM      7  C   UNL A   1      32.547  23.398  25.845  1.00  0.00     0.172 C 
ATOM      8  C   UNL A   1      31.895  21.979  26.031  1.00  0.00     0.090 C 
BRANCH   7   9
ATOM      9  C   UNL A   1      33.900  23.376  26.590  1.00  0.00     0.075 C 
ATOM     10  C   UNL A   1      34.135  22.182  27.517  1.00  0.00     0.011 C 
ENDBRANCH   7   9
BRANCH   7  11
ATOM     11  N   UNL A   1      32.668  23.482  24.365  1.00  0.00    -0.333 N 
ATOM     12  H   UNL A   1      31.742  23.234  24.016  1.00  0.00     0.347 HD
ATOM     13  H   UNL A   1      33.506  22.911  24.249  1.00  0.00     0.347 HD
BRANCH  11  14
ATOM     14  C   UNL A   1      33.072  24.627  23.554  1.00  0.00     0.276 C 
BRANCH  14  15
ATOM     15  C   UNL A   1      32.133  25.474  22.629  1.00  0.00     0.111 C 
ATOM     16  C   UNL A   1      30.729  25.630  23.296  1.00  0.00     0.057 C 
ATOM     17  S   UNL A   1      32.651  27.180  22.185  1.00  0.00    -0.116 SA
ATOM     18  C   UNL A   1      30.179  27.004  23.033  1.00  0.00    -0.033 A 
ATOM     19  C   UNL A   1      31.107  27.920  22.558  1.00  0.00     0.011 A 
ATOM     20  C   UNL A   1      28.880  27.421  23.308  1.00  0.00     0.005 A 
ATOM     21  C   UNL A   1      30.790  29.264  22.397  1.00  0.00     0.015 A 
ATOM     22  C   UNL A   1      28.535  28.764  23.113  1.00  0.00     0.000 A 
ATOM     23  C   UNL A   1      29.492  29.686  22.676  1.00  0.00     0.001 A 
ENDBRANCH  14  15
ENDBRANCH  11  14
ENDBRANCH   7  11
ENDBRANCH   4   7
ENDBRANCH   2   3
ENDBRANCH   1   2
BRANCH   1  24
ATOM     24  C   UNL A   1      32.700  29.148  25.606  1.00  0.00     0.118 C 
BRANCH  24  25
ATOM     25  N   UNL A   1      32.347  30.486  26.060  1.00  0.00    -0.352 N 
ATOM     26  C   UNL A   1      32.966  31.323  26.962  1.00  0.00     0.251 C 
ATOM     27  H   UNL A   1      31.530  30.854  25.655  1.00  0.00     0.163 HD
ATOM     28  O   UNL A   1      32.387  32.351  27.308  1.00  0.00    -0.269 OA
BRANCH  26  29
ATOM     29  C   UNL A   1      34.288  30.984  27.543  1.00  0.00     0.039 A 
ATOM     30  C   UNL A   1      34.607  29.679  27.911  1.00  0.00     0.014 A 
ATOM     31  C   UNL A   1      35.238  31.997  27.720  1.00  0.00     0.014 A 
ATOM     32  C   UNL A   1      35.760  29.426  28.645  1.00  0.00     0.010 A 
ATOM     33  C   UNL A   1      36.461  31.712  28.340  1.00  0.00     0.010 A 
ATOM     34  C   UNL A   1      36.713  30.434  28.859  1.00  0.00    -0.014 A 
BRANCH  34  35
ATOM     35  C   UNL A   1      37.963  30.109  29.599  1.00  0.00     0.031 A 
ATOM     36  C   UNL A   1      38.199  30.618  30.999  1.00  0.00     0.074 A 
ATOM     37  C   UNL A   1      38.880  29.309  29.015  1.00  0.00     0.049 A 
ATOM     38  N   UNL A   1      39.228  30.411  31.782  1.00  0.00    -0.248 NA
ATOM     39  C   UNL A   1      37.157  31.468  31.600  1.00  0.00     0.031 C 
ATOM     40  C   UNL A   1      38.783  28.769  27.655  1.00  0.00     0.029 A 
ATOM     41  N   UNL A   1      40.061  28.795  29.488  1.00  0.00    -0.354 N 
ATOM     42  C   UNL A   1      38.982  31.140  32.939  1.00  0.00     0.074 A 
ATOM     43  C   UNL A   1      37.707  31.798  32.762  1.00  0.00     0.031 C 
ATOM     44  C   UNL A   1      39.826  27.959  27.425  1.00  0.00     0.029 A 
ATOM     45  C   UNL A   1      40.704  27.977  28.589  1.00  0.00     0.049 A 
ATOM     46  H   UNL A   1      40.415  28.994  30.385  1.00  0.00     0.167 HD
ATOM     47  C   UNL A   1      39.740  31.235  34.056  1.00  0.00     0.034 A 
ATOM     48  C   UNL A   1      41.878  27.322  28.674  1.00  0.00     0.034 A 
ATOM     49  C   UNL A   1      40.979  30.533  34.259  1.00  0.00     0.049 A 
ATOM     50  C   UNL A   1      42.693  27.440  29.925  1.00  0.00     0.074 A 
ATOM     51  C   UNL A   1      41.784  30.528  35.384  1.00  0.00     0.029 A 
ATOM     52  N   UNL A   1      41.589  29.714  33.323  1.00  0.00    -0.354 N 
ATOM     53  N   UNL A   1      42.403  28.076  31.034  1.00  0.00    -0.248 NA
ATOM     54  C   UNL A   1      43.988  26.747  29.947  1.00  0.00     0.031 C 
ATOM     55  C   UNL A   1      42.891  29.716  35.124  1.00  0.00     0.029 A 
ATOM     56  C   UNL A   1      42.765  29.204  33.842  1.00  0.00     0.049 A 
ATOM     57  H   UNL A   1      41.238  29.524  32.423  1.00  0.00     0.167 HD
ATOM     58  C   UNL A   1      43.474  27.855  31.888  1.00  0.00     0.074 A 
ATOM     59  C   UNL A   1      44.411  27.007  31.179  1.00  0.00     0.031 C 
ATOM     60  C   UNL A   1      43.668  28.329  33.142  1.00  0.00     0.034 A 
BRANCH  47  61
ATOM     61  C   UNL A   1      39.241  32.094  35.187  1.00  0.00     0.023 A 
ATOM     62  C   UNL A   1      38.331  31.551  36.116  1.00  0.00     0.012 A 
ATOM     63  C   UNL A   1      39.762  33.386  35.396  1.00  0.00     0.148 A 
ATOM     64  C   UNL A   1      37.941  32.285  37.236  1.00  0.00     0.002 A 
ATOM     65  C   UNL A   1      39.390  34.100  36.530  1.00  0.00     0.091 A 
ATOM     66  F   UNL A   1      40.620  33.881  34.494  1.00  0.00    -0.205 F 
ATOM     67  C   UNL A   1      38.478  33.553  37.447  1.00  0.00     0.022 A 
BRANCH  65  68
ATOM     68  S   UNL A   1      40.062  35.719  36.927  1.00  0.00     0.127 S 
ATOM     69  O   UNL A   1      39.638  36.503  35.767  1.00  0.00    -0.237 OA
ATOM     70  O   UNL A   1      39.362  36.043  38.170  1.00  0.00    -0.237 OA
ATOM     71  O   UNL A   1      41.500  35.540  37.060  1.00  0.00    -0.744 OA
ENDBRANCH  65  68
ENDBRANCH  47  61
BRANCH  48  72
ATOM     72  C   UNL A   1      42.320  26.476  27.533  1.00  0.00     0.023 A 
ATOM     73  C   UNL A   1      43.212  27.008  26.585  1.00  0.00     0.012 A 
ATOM     74  C   UNL A   1      41.931  25.125  27.439  1.00  0.00     0.148 A 
ATOM     75  C   UNL A   1      43.711  26.207  25.557  1.00  0.00     0.002 A 
ATOM     76  C   UNL A   1      42.465  24.322  26.438  1.00  0.00     0.091 A 
ATOM     77  F   UNL A   1      41.080  24.646  28.356  1.00  0.00    -0.205 F 
ATOM     78  C   UNL A   1      43.348  24.863  25.490  1.00  0.00     0.022 A 
BRANCH  76  79
ATOM     79  S   UNL A   1      42.144  22.559  26.337  1.00  0.00     0.127 S 
ATOM     80  O   UNL A   1      42.726  22.078  27.588  1.00  0.00    -0.237 OA
ATOM     81  O   UNL A   1      40.683  22.525  26.284  1.00  0.00    -0.237 OA
ATOM     82  O   UNL A   1      42.807  22.101  25.124  1.00  0.00    -0.744 OA
ENDBRANCH  76  79
ENDBRANCH  48  72
BRANCH  60  83
ATOM     83  C   UNL A   1      44.935  27.947  33.852  1.00  0.00     0.023 A 
ATOM     84  C   UNL A   1      46.049  28.806  33.781  1.00  0.00     0.012 A 
ATOM     85  C   UNL A   1      44.975  26.818  34.692  1.00  0.00     0.148 A 
ATOM     86  C   UNL A   1      47.190  28.542  34.536  1.00  0.00     0.002 A 
ATOM     87  C   UNL A   1      46.102  26.581  35.468  1.00  0.00     0.091 A 
ATOM     88  F   UNL A   1      43.901  26.017  34.734  1.00  0.00    -0.205 F 
ATOM     89  C   UNL A   1      47.212  27.439  35.387  1.00  0.00     0.022 A 
BRANCH  87  90
ATOM     90  S   UNL A   1      46.200  25.231  36.649  1.00  0.00     0.127 S 
ATOM     91  O   UNL A   1      47.557  25.391  37.171  1.00  0.00    -0.237 OA
ATOM     92  O   UNL A   1      45.137  25.571  37.593  1.00  0.00    -0.237 OA
ATOM     93  O   UNL A   1      45.973  24.009  35.887  1.00  0.00    -0.744 OA
ENDBRANCH  87  90
ENDBRANCH  60  83
ENDBRANCH  34  35
ENDBRANCH  26  29
ENDBRANCH  24  25
ENDBRANCH   1  24
TORSDOF 17
ENDMDL
MODEL 2
REMARK VINA RESULT:     -11.2      2.007      3.407
REMARK SMILES CC[C@](C)([NH2+]C[C@H]1Cc2ccccc2S1)C(=O)NCCCNC(=O)c1ccc(-c2c3nc(c(-c4cccc(S(=O)(=O)[O-])c4F)c4ccc([nH]4)c(-c4cccc(S(=O)(=O)[O-])c4F)c4nc(c(-c5cccc(S(=O)(=O)[O-])c5F)c5ccc2[nH]5)C=C4)C=C3)cc1
REMARK SMILES IDX 20 1 19 2 18 3 16 4 17 5 3 7 4 8 2 9 1 10 5 11 6 14 7 15
REMARK SMILES IDX 8 16 15 17 9 18 14 19 10 20 13 21 11 22 12 23 21 24 22 25
REMARK SMILES IDX 23 26 24 28 25 29 26 30 87 31 27 32 86 33 28 34 29 35 30 36
REMARK SMILES IDX 80 37 31 38 85 39 79 40 81 41 32 42 84 43 78 44 77 45 33 47
REMARK SMILES IDX 65 48 45 49 64 50 46 51 49 52 63 53 82 54 47 55 48 56 62 58
REMARK SMILES IDX 83 59 50 60 34 61 35 62 43 63 36 64 38 65 44 66 37 67 39 68
REMARK SMILES IDX 40 69 41 70 42 71 66 72 67 73 75 74 68 75 70 76 76 77 69 78
REMARK SMILES IDX 71 79 72 80 73 81 74 82 51 83 52 84 60 85 53 86 55 87 61 88
REMARK SMILES IDX 54 89 56 90 57 91 58 92 59 93
REMARK H PARENT 18 6 5 12 5 13 22 27 81 46 49 57
REMARK Flexibility Score: inf
ROOT
ATOM      1  C   UNL A   1      32.639  29.801  25.400  1.00  0.00     0.042 C 
ENDROOT
BRANCH   1   2
ATOM      2  C   UNL A   1      31.553  29.191  24.518  1.00  0.00     0.118 C 
BRANCH   2   3
ATOM      3  N   UNL A   1      32.110  28.471  23.405  1.00  0.00    -0.351 N 
ATOM      4  C   UNL A   1      32.054  27.178  23.009  1.00  0.00     0.281 C 
ATOM      5  O   UNL A   1      32.641  27.004  21.925  1.00  0.00    -0.268 OA
ATOM      6  H   UNL A   1      32.646  29.038  22.804  1.00  0.00     0.163 HD
BRANCH   4   7
ATOM      7  C   UNL A   1      31.236  25.991  23.670  1.00  0.00     0.172 C 
ATOM      8  C   UNL A   1      29.781  26.587  23.726  1.00  0.00     0.090 C 
BRANCH   7   9
ATOM      9  C   UNL A   1      31.681  25.743  25.127  1.00  0.00     0.075 C 
ATOM     10  C   UNL A   1      33.186  25.827  25.393  1.00  0.00     0.011 C 
ENDBRANCH   7   9
BRANCH   7  11
ATOM     11  N   UNL A   1      31.022  24.750  22.878  1.00  0.00    -0.333 N 
ATOM     12  H   UNL A   1      31.718  24.797  22.133  1.00  0.00     0.347 HD
ATOM     13  H   UNL A   1      30.014  24.830  22.741  1.00  0.00     0.347 HD
BRANCH  11  14
ATOM     14  C   UNL A   1      31.069  23.365  23.337  1.00  0.00     0.276 C 
BRANCH  14  15
ATOM     15  C   UNL A   1      32.288  22.390  23.193  1.00  0.00     0.111 C 
ATOM     16  C   UNL A   1      33.586  23.203  22.887  1.00  0.00     0.057 C 
ATOM     17  S   UNL A   1      32.715  21.310  24.616  1.00  0.00    -0.116 SA
ATOM     18  C   UNL A   1      34.761  22.592  23.599  1.00  0.00    -0.033 A 
ATOM     19  C   UNL A   1      34.429  21.677  24.589  1.00  0.00     0.011 A 
ATOM     20  C   UNL A   1      36.095  22.935  23.399  1.00  0.00     0.005 A 
ATOM     21  C   UNL A   1      35.391  21.130  25.428  1.00  0.00     0.015 A 
ATOM     22  C   UNL A   1      37.080  22.361  24.212  1.00  0.00     0.000 A 
ATOM     23  C   UNL A   1      36.726  21.475  25.236  1.00  0.00     0.001 A 
ENDBRANCH  14  15
ENDBRANCH  11  14
ENDBRANCH   7  11
ENDBRANCH   4   7
ENDBRANCH   2   3
ENDBRANCH   1   2
BRANCH   1  24
ATOM     24  C   UNL A   1      32.143  30.289  26.749  1.00  0.00     0.118 C 
BRANCH  24  25
ATOM     25  N   UNL A   1      32.189  31.739  26.871  1.00  0.00    -0.352 N 
ATOM     26  C   UNL A   1      33.119  32.564  27.463  1.00  0.00     0.251 C 
ATOM     27  H   UNL A   1      31.427  32.209  26.463  1.00  0.00     0.163 HD
ATOM     28  O   UNL A   1      32.859  33.760  27.583  1.00  0.00    -0.269 OA
BRANCH  26  29
ATOM     29  C   UNL A   1      34.399  32.027  27.986  1.00  0.00     0.039 A 
ATOM     30  C   UNL A   1      34.533  30.688  28.346  1.00  0.00     0.014 A 
ATOM     31  C   UNL A   1      35.499  32.883  28.115  1.00  0.00     0.014 A 
ATOM     32  C   UNL A   1      35.666  30.261  29.028  1.00  0.00     0.010 A 
ATOM     33  C   UNL A   1      36.692  32.414  28.681  1.00  0.00     0.010 A 
ATOM     34  C   UNL A   1      36.769  31.112  29.194  1.00  0.00    -0.014 A 
BRANCH  34  35
ATOM     35  C   UNL A   1      37.988  30.599  29.878  1.00  0.00     0.031 A 
ATOM     36  C   UNL A   1      38.304  30.979  31.303  1.00  0.00     0.074 A 
ATOM     37  C   UNL A   1      38.800  29.746  29.219  1.00  0.00     0.049 A 
ATOM     38  N   UNL A   1      39.317  30.606  32.044  1.00  0.00    -0.248 NA
ATOM     39  C   UNL A   1      37.375  31.895  31.986  1.00  0.00     0.031 C 
ATOM     40  C   UNL A   1      38.619  29.317  27.828  1.00  0.00     0.029 A 
ATOM     41  N   UNL A   1      39.923  29.073  29.626  1.00  0.00    -0.354 N 
ATOM     42  C   UNL A   1      39.174  31.273  33.254  1.00  0.00     0.074 A 
ATOM     43  C   UNL A   1      37.979  32.080  33.154  1.00  0.00     0.031 C 
ATOM     44  C   UNL A   1      39.560  28.415  27.518  1.00  0.00     0.029 A 
ATOM     45  C   UNL A   1      40.455  28.254  28.657  1.00  0.00     0.049 A 
ATOM     46  H   UNL A   1      40.313  29.168  30.525  1.00  0.00     0.167 HD
ATOM     47  C   UNL A   1      39.957  31.206  34.356  1.00  0.00     0.034 A 
ATOM     48  C   UNL A   1      41.549  27.468  28.668  1.00  0.00     0.034 A 
ATOM     49  C   UNL A   1      41.113  30.359  34.479  1.00  0.00     0.049 A 
ATOM     50  C   UNL A   1      42.393  27.407  29.904  1.00  0.00     0.074 A 
ATOM     51  C   UNL A   1      41.932  30.185  35.581  1.00  0.00     0.029 A 
ATOM     52  N   UNL A   1      41.611  29.545  33.475  1.00  0.00    -0.354 N 
ATOM     53  N   UNL A   1      42.196  27.992  31.060  1.00  0.00    -0.248 NA
ATOM     54  C   UNL A   1      43.603  26.575  29.846  1.00  0.00     0.031 C 
ATOM     55  C   UNL A   1      42.936  29.275  35.238  1.00  0.00     0.029 A 
ATOM     56  C   UNL A   1      42.732  28.872  33.928  1.00  0.00     0.049 A 
ATOM     57  H   UNL A   1      41.225  29.458  32.573  1.00  0.00     0.167 HD
ATOM     58  C   UNL A   1      43.250  27.593  31.870  1.00  0.00     0.074 A 
ATOM     59  C   UNL A   1      44.073  26.700  31.081  1.00  0.00     0.031 C 
ATOM     60  C   UNL A   1      43.518  27.954  33.148  1.00  0.00     0.034 A 
BRANCH  47  61
ATOM     61  C   UNL A   1      39.578  32.033  35.555  1.00  0.00     0.023 A 
ATOM     62  C   UNL A   1      39.965  33.386  35.610  1.00  0.00     0.012 A 
ATOM     63  C   UNL A   1      38.741  31.507  36.558  1.00  0.00     0.148 A 
ATOM     64  C   UNL A   1      39.530  34.205  36.652  1.00  0.00     0.002 A 
ATOM     65  C   UNL A   1      38.288  32.337  37.578  1.00  0.00     0.091 A 
ATOM     66  F   UNL A   1      38.393  30.215  36.485  1.00  0.00    -0.205 F 
ATOM     67  C   UNL A   1      38.685  33.683  37.628  1.00  0.00     0.022 A 
BRANCH  65  68
ATOM     68  S   UNL A   1      37.154  31.781  38.856  1.00  0.00     0.127 S 
ATOM     69  O   UNL A   1      37.970  31.941  40.060  1.00  0.00    -0.237 OA
ATOM     70  O   UNL A   1      36.058  32.742  38.731  1.00  0.00    -0.237 OA
ATOM     71  O   UNL A   1      36.808  30.408  38.523  1.00  0.00    -0.744 OA
ENDBRANCH  65  68
ENDBRANCH  47  61
BRANCH  48  72
ATOM     72  C   UNL A   1      41.873  26.661  27.462  1.00  0.00     0.023 A 
ATOM     73  C   UNL A   1      42.522  27.274  26.375  1.00  0.00     0.012 A 
ATOM     74  C   UNL A   1      41.622  25.274  27.428  1.00  0.00     0.148 A 
ATOM     75  C   UNL A   1      42.917  26.519  25.270  1.00  0.00     0.002 A 
ATOM     76  C   UNL A   1      42.057  24.522  26.344  1.00  0.00     0.091 A 
ATOM     77  F   UNL A   1      41.002  24.718  28.477  1.00  0.00    -0.205 F 
ATOM     78  C   UNL A   1      42.695  25.143  25.259  1.00  0.00     0.022 A 
BRANCH  76  79
ATOM     79  S   UNL A   1      41.916  22.733  26.289  1.00  0.00     0.127 S 
ATOM     80  O   UNL A   1      40.467  22.548  26.253  1.00  0.00    -0.237 OA
ATOM     81  O   UNL A   1      42.609  22.418  25.040  1.00  0.00    -0.237 OA
ATOM     82  O   UNL A   1      42.579  22.243  27.490  1.00  0.00    -0.744 OA
ENDBRANCH  76  79
ENDBRANCH  48  72
BRANCH  60  83
ATOM     83  C   UNL A   1      44.747  27.385  33.798  1.00  0.00     0.023 A 
ATOM     84  C   UNL A   1      45.942  28.129  33.780  1.00  0.00     0.012 A 
ATOM     85  C   UNL A   1      44.679  26.189  34.538  1.00  0.00     0.148 A 
ATOM     86  C   UNL A   1      47.058  27.686  34.487  1.00  0.00     0.002 A 
ATOM     87  C   UNL A   1      45.784  25.772  35.268  1.00  0.00     0.091 A 
ATOM     88  F   UNL A   1      43.529  25.501  34.532  1.00  0.00    -0.205 F 
ATOM     89  C   UNL A   1      46.975  26.517  35.240  1.00  0.00     0.022 A 
BRANCH  87  90
ATOM     90  S   UNL A   1      45.755  24.321  36.327  1.00  0.00     0.127 S 
ATOM     91  O   UNL A   1      44.700  24.669  37.278  1.00  0.00    -0.237 OA
ATOM     92  O   UNL A   1      45.403  23.260  35.384  1.00  0.00    -0.237 OA
ATOM     93  O   UNL A   1      47.090  24.211  36.900  1.00  0.00    -0.744 OA
ENDBRANCH  87  90
ENDBRANCH  60  83
ENDBRANCH  34  35
ENDBRANCH  26  29
ENDBRANCH  24  25
ENDBRANCH   1  24
TORSDOF 17
ENDMDL
MODEL 3
REMARK VINA RESULT:     -11.1      4.196     10.274
REMARK SMILES CC[C@](C)([NH2+]C[C@H]1Cc2ccccc2S1)C(=O)NCCCNC(=O)c1ccc(-c2c3nc(c(-c4cccc(S(=O)(=O)[O-])c4F)c4ccc([nH]4)c(-c4cccc(S(=O)(=O)[O-])c4F)c4nc(c(-c5cccc(S(=O)(=O)[O-])c5F)c5ccc2[nH]5)C=C4)C=C3)cc1
REMARK SMILES IDX 20 1 19 2 18 3 16 4 17 5 3 7 4 8 2 9 1 10 5 11 6 14 7 15
REMARK SMILES IDX 8 16 15 17 9 18 14 19 10 20 13 21 11 22 12 23 21 24 22 25
REMARK SMILES IDX 23 26 24 28 25 29 26 30 87 31 27 32 86 33 28 34 29 35 30 36
REMARK SMILES IDX 80 37 31 38 85 39 79 40 81 41 32 42 84 43 78 44 77 45 33 47
REMARK SMILES IDX 65 48 45 49 64 50 46 51 49 52 63 53 82 54 47 55 48 56 62 58
REMARK SMILES IDX 83 59 50 60 34 61 35 62 43 63 36 64 38 65 44 66 37 67 39 68
REMARK SMILES IDX 40 69 41 70 42 71 66 72 67 73 75 74 68 75 70 76 76 77 69 78
REMARK SMILES IDX 71 79 72 80 73 81 74 82 51 83 52 84 60 85 53 86 55 87 61 88
REMARK SMILES IDX 54 89 56 90 57 91 58 92 59 93
REMARK H PARENT 18 6 5 12 5 13 22 27 81 46 49 57
REMARK Flexibility Score: inf
ROOT
ATOM      1  C   UNL A   1      33.984  33.764  28.162  1.00  0.00     0.042 C 
ENDROOT
BRANCH   1   2
ATOM      2  C   UNL A   1      34.714  34.984  28.714  1.00  0.00     0.118 C 
BRANCH   2   3
ATOM      3  N   UNL A   1      33.800  35.958  29.247  1.00  0.00    -0.351 N 
ATOM      4  C   UNL A   1      33.259  36.157  30.472  1.00  0.00     0.281 C 
ATOM      5  O   UNL A   1      32.556  37.183  30.501  1.00  0.00    -0.268 OA
ATOM      6  H   UNL A   1      33.505  36.620  28.581  1.00  0.00     0.163 HD
BRANCH   4   7
ATOM      7  C   UNL A   1      33.548  35.351  31.807  1.00  0.00     0.172 C 
ATOM      8  C   UNL A   1      32.144  35.377  32.516  1.00  0.00     0.090 C 
BRANCH   7   9
ATOM      9  C   UNL A   1      34.532  36.111  32.722  1.00  0.00     0.075 C 
ATOM     10  C   UNL A   1      33.906  37.111  33.697  1.00  0.00     0.011 C 
ENDBRANCH   7   9
BRANCH   7  11
ATOM     11  N   UNL A   1      33.809  33.890  31.711  1.00  0.00    -0.333 N 
ATOM     12  H   UNL A   1      34.298  33.774  30.823  1.00  0.00     0.347 HD
ATOM     13  H   UNL A   1      32.865  33.554  31.904  1.00  0.00     0.347 HD
BRANCH  11  14
ATOM     14  C   UNL A   1      34.537  33.038  32.646  1.00  0.00     0.276 C 
BRANCH  14  15
ATOM     15  C   UNL A   1      36.038  32.606  32.518  1.00  0.00     0.111 C 
ATOM     16  C   UNL A   1      36.519  32.786  31.043  1.00  0.00     0.057 C 
ATOM     17  S   UNL A   1      37.289  33.475  33.546  1.00  0.00    -0.116 SA
ATOM     18  C   UNL A   1      37.940  33.276  31.016  1.00  0.00    -0.033 A 
ATOM     19  C   UNL A   1      38.412  33.756  32.230  1.00  0.00     0.011 A 
ATOM     20  C   UNL A   1      38.746  33.357  29.884  1.00  0.00     0.005 A 
ATOM     21  C   UNL A   1      39.654  34.370  32.338  1.00  0.00     0.015 A 
ATOM     22  C   UNL A   1      40.016  33.937  29.987  1.00  0.00     0.000 A 
ATOM     23  C   UNL A   1      40.461  34.459  31.207  1.00  0.00     0.001 A 
ENDBRANCH  14  15
ENDBRANCH  11  14
ENDBRANCH   7  11
ENDBRANCH   4   7
ENDBRANCH   2   3
ENDBRANCH   1   2
BRANCH   1  24
ATOM     24  C   UNL A   1      34.387  32.451  28.810  1.00  0.00     0.118 C 
BRANCH  24  25
ATOM     25  N   UNL A   1      33.946  31.291  28.048  1.00  0.00    -0.352 N 
ATOM     26  C   UNL A   1      34.622  30.153  27.670  1.00  0.00     0.251 C 
ATOM     27  H   UNL A   1      33.008  31.325  27.755  1.00  0.00     0.163 HD
ATOM     28  O   UNL A   1      34.081  29.377  26.884  1.00  0.00    -0.269 OA
BRANCH  26  29
ATOM     29  C   UNL A   1      35.994  29.875  28.161  1.00  0.00     0.039 A 
ATOM     30  C   UNL A   1      37.116  30.174  27.393  1.00  0.00     0.014 A 
ATOM     31  C   UNL A   1      36.165  29.305  29.429  1.00  0.00     0.014 A 
ATOM     32  C   UNL A   1      38.369  29.712  27.780  1.00  0.00     0.010 A 
ATOM     33  C   UNL A   1      37.447  28.962  29.877  1.00  0.00     0.010 A 
ATOM     34  C   UNL A   1      38.557  29.111  29.034  1.00  0.00    -0.014 A 
BRANCH  34  35
ATOM     35  C   UNL A   1      39.924  28.683  29.438  1.00  0.00     0.031 A 
ATOM     36  C   UNL A   1      40.633  27.557  28.728  1.00  0.00     0.074 A 
ATOM     37  C   UNL A   1      40.551  29.345  30.433  1.00  0.00     0.049 A 
ATOM     38  N   UNL A   1      41.830  27.075  28.949  1.00  0.00    -0.248 NA
ATOM     39  C   UNL A   1      39.915  26.881  27.634  1.00  0.00     0.031 C 
ATOM     40  C   UNL A   1      39.966  30.438  31.217  1.00  0.00     0.029 A 
ATOM     41  N   UNL A   1      41.817  29.216  30.945  1.00  0.00    -0.354 N 
ATOM     42  C   UNL A   1      41.988  26.016  28.063  1.00  0.00     0.074 A 
ATOM     43  C   UNL A   1      40.765  25.920  27.298  1.00  0.00     0.031 C 
ATOM     44  C   UNL A   1      40.886  30.914  32.067  1.00  0.00     0.029 A 
ATOM     45  C   UNL A   1      42.101  30.117  31.945  1.00  0.00     0.049 A 
ATOM     46  H   UNL A   1      42.461  28.542  30.629  1.00  0.00     0.167 HD
ATOM     47  C   UNL A   1      43.061  25.210  27.890  1.00  0.00     0.034 A 
ATOM     48  C   UNL A   1      43.205  30.282  32.697  1.00  0.00     0.034 A 
ATOM     49  C   UNL A   1      44.300  25.343  28.608  1.00  0.00     0.049 A 
ATOM     50  C   UNL A   1      44.382  29.381  32.478  1.00  0.00     0.074 A 
ATOM     51  C   UNL A   1      45.460  24.605  28.455  1.00  0.00     0.029 A 
ATOM     52  N   UNL A   1      44.543  26.271  29.608  1.00  0.00    -0.354 N 
ATOM     53  N   UNL A   1      44.532  28.435  31.584  1.00  0.00    -0.248 NA
ATOM     54  C   UNL A   1      45.542  29.570  33.360  1.00  0.00     0.031 C 
ATOM     55  C   UNL A   1      46.402  25.077  29.373  1.00  0.00     0.029 A 
ATOM     56  C   UNL A   1      45.832  26.119  30.086  1.00  0.00     0.049 A 
ATOM     57  H   UNL A   1      43.894  26.939  29.929  1.00  0.00     0.167 HD
ATOM     58  C   UNL A   1      45.805  27.921  31.788  1.00  0.00     0.074 A 
ATOM     59  C   UNL A   1      46.395  28.674  32.876  1.00  0.00     0.031 C 
ATOM     60  C   UNL A   1      46.421  26.903  31.141  1.00  0.00     0.034 A 
BRANCH  47  61
ATOM     61  C   UNL A   1      42.981  24.129  26.846  1.00  0.00     0.023 A 
ATOM     62  C   UNL A   1      43.669  24.294  25.628  1.00  0.00     0.012 A 
ATOM     63  C   UNL A   1      42.333  22.909  27.120  1.00  0.00     0.148 A 
ATOM     64  C   UNL A   1      43.706  23.262  24.691  1.00  0.00     0.002 A 
ATOM     65  C   UNL A   1      42.399  21.874  26.193  1.00  0.00     0.091 A 
ATOM     66  F   UNL A   1      41.680  22.780  28.283  1.00  0.00    -0.205 F 
ATOM     67  C   UNL A   1      43.081  22.051  24.978  1.00  0.00     0.022 A 
BRANCH  65  68
ATOM     68  S   UNL A   1      41.674  20.256  26.485  1.00  0.00     0.127 S 
ATOM     69  O   UNL A   1      40.245  20.567  26.462  1.00  0.00    -0.237 OA
ATOM     70  O   UNL A   1      42.151  19.495  25.330  1.00  0.00    -0.237 OA
ATOM     71  O   UNL A   1      42.187  19.808  27.771  1.00  0.00    -0.744 OA
ENDBRANCH  65  68
ENDBRANCH  47  61
BRANCH  48  72
ATOM     72  C   UNL A   1      43.239  31.375  33.706  1.00  0.00     0.023 A 
ATOM     73  C   UNL A   1      43.604  32.672  33.306  1.00  0.00     0.012 A 
ATOM     74  C   UNL A   1      42.824  31.149  35.034  1.00  0.00     0.148 A 
ATOM     75  C   UNL A   1      43.557  33.732  34.213  1.00  0.00     0.002 A 
ATOM     76  C   UNL A   1      42.738  32.216  35.919  1.00  0.00     0.091 A 
ATOM     77  F   UNL A   1      42.483  29.903  35.387  1.00  0.00    -0.205 F 
ATOM     78  C   UNL A   1      43.113  33.507  35.514  1.00  0.00     0.022 A 
BRANCH  76  79
ATOM     79  S   UNL A   1      42.075  32.046  37.579  1.00  0.00     0.127 S 
ATOM     80  O   UNL A   1      42.389  33.349  38.161  1.00  0.00    -0.237 OA
ATOM     81  O   UNL A   1      40.656  31.816  37.311  1.00  0.00    -0.237 OA
ATOM     82  O   UNL A   1      42.772  30.913  38.173  1.00  0.00    -0.744 OA
ENDBRANCH  76  79
ENDBRANCH  48  72
BRANCH  60  83
ATOM     83  C   UNL A   1      47.810  26.530  31.571  1.00  0.00     0.023 A 
ATOM     84  C   UNL A   1      48.907  27.242  31.050  1.00  0.00     0.012 A 
ATOM     85  C   UNL A   1      48.015  25.576  32.587  1.00  0.00     0.148 A 
ATOM     86  C   UNL A   1      50.193  27.006  31.531  1.00  0.00     0.002 A 
ATOM     87  C   UNL A   1      49.295  25.371  33.085  1.00  0.00     0.091 A 
ATOM     88  F   UNL A   1      46.952  24.911  33.060  1.00  0.00    -0.205 F 
ATOM     89  C   UNL A   1      50.385  26.081  32.555  1.00  0.00     0.022 A 
BRANCH  87  90
ATOM     90  S   UNL A   1      49.636  24.258  34.453  1.00  0.00     0.127 S 
ATOM     91  O   UNL A   1      50.617  23.350  33.860  1.00  0.00    -0.237 OA
ATOM     92  O   UNL A   1      50.175  25.168  35.463  1.00  0.00    -0.237 OA
ATOM     93  O   UNL A   1      48.361  23.644  34.803  1.00  0.00    -0.744 OA
ENDBRANCH  87  90
ENDBRANCH  60  83
ENDBRANCH  34  35
ENDBRANCH  26  29
ENDBRANCH  24  25
ENDBRANCH   1  24
TORSDOF 17
ENDMDL
