MODEL 1
REMARK VINA RESULT:     -12.6      0.000      0.000
REMARK SMILES Cc1cccc(C(=O)Nc2ccc(-c3nnc(S[C@H](C(=O)NCCCNC(=O)c4ccc(-c5c6nc(c(-c7cccc(S(=O)(=O)[O-])c7F)c7ccc([nH]7)c(-c7cccc(S(=O)(=O)[O-])c7F)c7nc(c(-c8cccc(S(=O)(=O)[O-])c8F)c8ccc5[nH]8)C=C7)C=C6)cc4)C(C)C)n3C)cc2)c1
REMARK SMILES IDX 23 1 22 2 20 3 21 4 19 6 18 7 17 8 14 9 15 10 95 11 16 12
REMARK SMILES IDX 96 13 13 14 10 15 11 16 98 17 12 18 97 19 9 20 7 21 8 22
REMARK SMILES IDX 6 24 1 25 2 26 3 27 99 28 4 29 5 30 92 31 93 32 94 33 24 34
REMARK SMILES IDX 25 35 26 36 27 37 28 39 29 40 30 41 91 42 31 43 90 44 32 45
REMARK SMILES IDX 33 46 34 47 84 48 35 49 89 50 83 51 85 52 36 53 88 54 82 55
REMARK SMILES IDX 81 56 37 58 69 59 49 60 68 61 50 62 53 63 67 64 86 65 51 66
REMARK SMILES IDX 52 67 66 69 87 70 54 71 38 72 39 73 47 74 40 75 42 76 48 77
REMARK SMILES IDX 41 78 43 79 44 80 45 81 46 82 70 83 71 84 79 85 72 86 74 87
REMARK SMILES IDX 80 88 73 89 75 90 76 91 77 92 78 93 55 94 56 95 64 96 57 97
REMARK SMILES IDX 59 98 65 99 58 100 60 101 61 102 62 103 63 104
REMARK H PARENT 22 5 9 23 26 38 85 57 53 68
REMARK Flexibility Score: inf
ROOT
ATOM      1  C   UNL A   1      32.624  30.803  27.135  1.00  0.00     0.117 C 
ENDROOT
BRANCH   1   2
ATOM      2  N   UNL A   1      31.704  29.691  26.943  1.00  0.00    -0.355 N 
ATOM      3  C   UNL A   1      31.492  28.871  25.873  1.00  0.00     0.233 C 
ATOM      4  O   UNL A   1      31.285  27.677  26.129  1.00  0.00    -0.274 OA
ATOM      5  H   UNL A   1      31.135  29.496  27.722  1.00  0.00     0.163 HD
BRANCH   3   6
ATOM      6  C   UNL A   1      31.473  29.326  24.402  1.00  0.00     0.146 C 
BRANCH   6   7
ATOM      7  S   UNL A   1      32.825  28.609  23.387  1.00  0.00    -0.072 SA
BRANCH   7   8
ATOM      8  C   UNL A   1      32.436  27.057  22.750  1.00  0.00     0.192 A 
ATOM      9  C   UNL A   1      32.175  24.865  22.716  1.00  0.00     0.164 A 
ATOM     10  N   UNL A   1      31.724  25.369  21.581  1.00  0.00    -0.129 NA
ATOM     11  N   UNL A   1      32.710  25.905  23.449  1.00  0.00    -0.305 N 
ATOM     12  N   UNL A   1      31.889  26.738  21.605  1.00  0.00    -0.123 NA
ATOM     13  C   UNL A   1      33.486  25.761  24.654  1.00  0.00     0.154 C 
BRANCH   9  14
ATOM     14  C   UNL A   1      32.122  23.451  23.109  1.00  0.00     0.019 A 
ATOM     15  C   UNL A   1      32.330  20.787  24.010  1.00  0.00     0.041 A 
ATOM     16  C   UNL A   1      31.820  21.775  24.854  1.00  0.00     0.027 A 
ATOM     17  C   UNL A   1      32.596  21.098  22.676  1.00  0.00     0.027 A 
ATOM     18  C   UNL A   1      31.748  23.103  24.413  1.00  0.00     0.014 A 
ATOM     19  C   UNL A   1      32.515  22.426  22.235  1.00  0.00     0.014 A 
BRANCH  15  20
ATOM     20  N   UNL A   1      32.641  19.542  24.577  1.00  0.00    -0.322 N 
ATOM     21  C   UNL A   1      33.864  18.973  24.895  1.00  0.00     0.255 C 
ATOM     22  O   UNL A   1      33.903  17.768  25.153  1.00  0.00    -0.269 OA
ATOM     23  H   UNL A   1      31.862  18.978  24.783  1.00  0.00     0.170 HD
BRANCH  21  24
ATOM     24  C   UNL A   1      35.128  19.770  25.022  1.00  0.00     0.040 A 
ATOM     25  C   UNL A   1      36.305  23.333  25.649  1.00  0.00     0.044 C 
ATOM     26  C   UNL A   1      36.345  21.852  25.403  1.00  0.00    -0.050 A 
ATOM     27  C   UNL A   1      37.544  21.210  25.089  1.00  0.00     0.003 A 
ATOM     28  C   UNL A   1      35.167  21.098  25.464  1.00  0.00     0.017 A 
ATOM     29  C   UNL A   1      37.547  19.848  24.786  1.00  0.00     0.001 A 
ATOM     30  C   UNL A   1      36.344  19.139  24.726  1.00  0.00     0.014 A 
ENDBRANCH  21  24
ENDBRANCH  15  20
ENDBRANCH   9  14
ENDBRANCH   7   8
ENDBRANCH   6   7
BRANCH   6  31
ATOM     31  C   UNL A   1      30.123  29.346  23.632  1.00  0.00     0.006 C 
ATOM     32  C   UNL A   1      30.314  29.870  22.198  1.00  0.00     0.009 C 
ATOM     33  C   UNL A   1      29.381  28.003  23.515  1.00  0.00     0.009 C 
ENDBRANCH   6  31
ENDBRANCH   3   6
ENDBRANCH   1   2
BRANCH   1  34
ATOM     34  C   UNL A   1      34.078  30.388  27.308  1.00  0.00     0.042 C 
BRANCH  34  35
ATOM     35  C   UNL A   1      34.949  31.584  27.631  1.00  0.00     0.118 C 
BRANCH  35  36
ATOM     36  N   UNL A   1      34.221  32.714  28.195  1.00  0.00    -0.352 N 
ATOM     37  C   UNL A   1      34.457  33.438  29.348  1.00  0.00     0.251 C 
ATOM     38  H   UNL A   1      33.439  33.005  27.673  1.00  0.00     0.163 HD
ATOM     39  O   UNL A   1      33.597  34.250  29.702  1.00  0.00    -0.269 OA
BRANCH  37  40
ATOM     40  C   UNL A   1      35.757  33.347  30.059  1.00  0.00     0.039 A 
ATOM     41  C   UNL A   1      36.918  33.767  29.392  1.00  0.00     0.014 A 
ATOM     42  C   UNL A   1      35.872  32.647  31.253  1.00  0.00     0.014 A 
ATOM     43  C   UNL A   1      38.155  33.240  29.758  1.00  0.00     0.010 A 
ATOM     44  C   UNL A   1      37.055  32.020  31.536  1.00  0.00     0.010 A 
ATOM     45  C   UNL A   1      38.176  32.264  30.741  1.00  0.00    -0.014 A 
BRANCH  45  46
ATOM     46  C   UNL A   1      39.279  31.381  31.055  1.00  0.00     0.031 A 
ATOM     47  C   UNL A   1      39.349  30.069  30.384  1.00  0.00     0.074 A 
ATOM     48  C   UNL A   1      40.378  31.977  31.572  1.00  0.00     0.049 A 
ATOM     49  N   UNL A   1      40.238  29.173  30.629  1.00  0.00    -0.248 NA
ATOM     50  C   UNL A   1      38.415  29.680  29.333  1.00  0.00     0.031 C 
ATOM     51  C   UNL A   1      41.760  31.529  31.448  1.00  0.00     0.029 A 
ATOM     52  N   UNL A   1      40.498  33.111  32.381  1.00  0.00    -0.354 N 
ATOM     53  C   UNL A   1      40.214  28.274  29.581  1.00  0.00     0.074 A 
ATOM     54  C   UNL A   1      38.995  28.571  28.868  1.00  0.00     0.031 C 
ATOM     55  C   UNL A   1      42.502  32.160  32.373  1.00  0.00     0.029 A 
ATOM     56  C   UNL A   1      41.568  32.843  33.247  1.00  0.00     0.049 A 
ATOM     57  H   UNL A   1      39.947  33.927  32.349  1.00  0.00     0.167 HD
ATOM     58  C   UNL A   1      41.322  27.508  29.358  1.00  0.00     0.034 A 
ATOM     59  C   UNL A   1      41.407  32.558  34.578  1.00  0.00     0.034 A 
ATOM     60  C   UNL A   1      42.338  27.764  30.399  1.00  0.00     0.049 A 
ATOM     61  C   UNL A   1      41.911  31.167  34.967  1.00  0.00     0.074 A 
ATOM     62  C   UNL A   1      43.509  28.508  30.425  1.00  0.00     0.029 A 
ATOM     63  N   UNL A   1      42.045  27.461  31.725  1.00  0.00    -0.354 N 
ATOM     64  N   UNL A   1      42.319  30.266  34.113  1.00  0.00    -0.248 NA
ATOM     65  C   UNL A   1      41.996  30.675  36.340  1.00  0.00     0.031 C 
ATOM     66  C   UNL A   1      43.869  28.717  31.788  1.00  0.00     0.029 A 
ATOM     67  C   UNL A   1      42.941  28.075  32.591  1.00  0.00     0.049 A 
ATOM     68  H   UNL A   1      41.301  26.885  32.012  1.00  0.00     0.167 HD
ATOM     69  C   UNL A   1      42.567  29.074  34.743  1.00  0.00     0.074 A 
ATOM     70  C   UNL A   1      42.442  29.418  36.151  1.00  0.00     0.031 C 
ATOM     71  C   UNL A   1      42.785  27.914  34.040  1.00  0.00     0.034 A 
BRANCH  58  72
ATOM     72  C   UNL A   1      41.641  26.728  28.085  1.00  0.00     0.023 A 
ATOM     73  C   UNL A   1      41.510  27.420  26.858  1.00  0.00     0.012 A 
ATOM     74  C   UNL A   1      42.016  25.367  27.974  1.00  0.00     0.148 A 
ATOM     75  C   UNL A   1      41.651  26.795  25.613  1.00  0.00     0.002 A 
ATOM     76  C   UNL A   1      42.112  24.726  26.733  1.00  0.00     0.091 A 
ATOM     77  F   UNL A   1      42.366  24.677  29.057  1.00  0.00    -0.205 F 
ATOM     78  C   UNL A   1      41.926  25.438  25.548  1.00  0.00     0.022 A 
BRANCH  76  79
ATOM     79  S   UNL A   1      42.423  22.955  26.576  1.00  0.00     0.127 S 
ATOM     80  O   UNL A   1      42.479  22.781  25.123  1.00  0.00    -0.237 OA
ATOM     81  O   UNL A   1      43.707  22.799  27.256  1.00  0.00    -0.237 OA
ATOM     82  O   UNL A   1      41.295  22.282  27.209  1.00  0.00    -0.744 OA
ENDBRANCH  76  79
ENDBRANCH  58  72
BRANCH  59  83
ATOM     83  C   UNL A   1      40.253  33.287  35.191  1.00  0.00     0.023 A 
ATOM     84  C   UNL A   1      39.000  32.627  35.128  1.00  0.00     0.012 A 
ATOM     85  C   UNL A   1      40.437  34.296  36.154  1.00  0.00     0.148 A 
ATOM     86  C   UNL A   1      38.036  32.822  36.118  1.00  0.00     0.002 A 
ATOM     87  C   UNL A   1      39.456  34.503  37.126  1.00  0.00     0.091 A 
ATOM     88  F   UNL A   1      41.585  34.986  36.151  1.00  0.00    -0.205 F 
ATOM     89  C   UNL A   1      38.285  33.727  37.143  1.00  0.00     0.022 A 
BRANCH  87  90
ATOM     90  S   UNL A   1      39.680  35.680  38.471  1.00  0.00     0.127 S 
ATOM     91  O   UNL A   1      38.553  35.350  39.339  1.00  0.00    -0.237 OA
ATOM     92  O   UNL A   1      40.991  35.309  39.003  1.00  0.00    -0.237 OA
ATOM     93  O   UNL A   1      39.644  36.988  37.835  1.00  0.00    -0.744 OA
ENDBRANCH  87  90
ENDBRANCH  59  83
BRANCH  71  94
ATOM     94  C   UNL A   1      42.834  26.497  34.615  1.00  0.00     0.023 A 
ATOM     95  C   UNL A   1      41.770  25.924  35.336  1.00  0.00     0.012 A 
ATOM     96  C   UNL A   1      43.925  25.626  34.329  1.00  0.00     0.148 A 
ATOM     97  C   UNL A   1      41.791  24.595  35.778  1.00  0.00     0.002 A 
ATOM     98  C   UNL A   1      43.884  24.272  34.657  1.00  0.00     0.091 A 
ATOM     99  F   UNL A   1      45.040  26.104  33.759  1.00  0.00    -0.205 F 
ATOM    100  C   UNL A   1      42.833  23.757  35.411  1.00  0.00     0.022 A 
BRANCH  98 101
ATOM    101  S   UNL A   1      45.087  23.119  33.975  1.00  0.00     0.127 S 
ATOM    102  O   UNL A   1      46.352  23.703  34.414  1.00  0.00    -0.237 OA
ATOM    103  O   UNL A   1      44.732  21.864  34.642  1.00  0.00    -0.237 OA
ATOM    104  O   UNL A   1      44.834  23.121  32.541  1.00  0.00    -0.744 OA
ENDBRANCH  98 101
ENDBRANCH  71  94
ENDBRANCH  45  46
ENDBRANCH  37  40
ENDBRANCH  35  36
ENDBRANCH  34  35
ENDBRANCH   1  34
TORSDOF 19
ENDMDL
MODEL 2
REMARK VINA RESULT:     -12.1      5.409      8.612
REMARK SMILES Cc1cccc(C(=O)Nc2ccc(-c3nnc(S[C@H](C(=O)NCCCNC(=O)c4ccc(-c5c6nc(c(-c7cccc(S(=O)(=O)[O-])c7F)c7ccc([nH]7)c(-c7cccc(S(=O)(=O)[O-])c7F)c7nc(c(-c8cccc(S(=O)(=O)[O-])c8F)c8ccc5[nH]8)C=C7)C=C6)cc4)C(C)C)n3C)cc2)c1
REMARK SMILES IDX 23 1 22 2 20 3 21 4 19 6 18 7 17 8 14 9 15 10 95 11 16 12
REMARK SMILES IDX 96 13 13 14 10 15 11 16 98 17 12 18 97 19 9 20 7 21 8 22
REMARK SMILES IDX 6 24 1 25 2 26 3 27 99 28 4 29 5 30 92 31 93 32 94 33 24 34
REMARK SMILES IDX 25 35 26 36 27 37 28 39 29 40 30 41 91 42 31 43 90 44 32 45
REMARK SMILES IDX 33 46 34 47 84 48 35 49 89 50 83 51 85 52 36 53 88 54 82 55
REMARK SMILES IDX 81 56 37 58 69 59 49 60 68 61 50 62 53 63 67 64 86 65 51 66
REMARK SMILES IDX 52 67 66 69 87 70 54 71 38 72 39 73 47 74 40 75 42 76 48 77
REMARK SMILES IDX 41 78 43 79 44 80 45 81 46 82 70 83 71 84 79 85 72 86 74 87
REMARK SMILES IDX 80 88 73 89 75 90 76 91 77 92 78 93 55 94 56 95 64 96 57 97
REMARK SMILES IDX 59 98 65 99 58 100 60 101 61 102 62 103 63 104
REMARK H PARENT 22 5 9 23 26 38 85 57 53 68
REMARK Flexibility Score: inf
ROOT
ATOM      1  C   UNL A   1      38.835  29.408  30.489  1.00  0.00     0.117 C 
ENDROOT
BRANCH   1   2
ATOM      2  N   UNL A   1      39.295  30.768  30.725  1.00  0.00    -0.355 N 
ATOM      3  C   UNL A   1      38.625  31.892  31.113  1.00  0.00     0.233 C 
ATOM      4  O   UNL A   1      39.214  32.635  31.911  1.00  0.00    -0.274 OA
ATOM      5  H   UNL A   1      40.259  30.902  30.578  1.00  0.00     0.163 HD
BRANCH   3   6
ATOM      6  C   UNL A   1      37.224  32.300  30.619  1.00  0.00     0.146 C 
BRANCH   6   7
ATOM      7  S   UNL A   1      37.100  32.454  28.793  1.00  0.00    -0.072 SA
BRANCH   7   8
ATOM      8  C   UNL A   1      35.620  31.839  28.165  1.00  0.00     0.192 A 
ATOM      9  C   UNL A   1      34.181  30.345  27.410  1.00  0.00     0.164 A 
ATOM     10  N   UNL A   1      33.572  31.514  27.515  1.00  0.00    -0.129 NA
ATOM     11  N   UNL A   1      35.507  30.537  27.740  1.00  0.00    -0.305 N 
ATOM     12  N   UNL A   1      34.474  32.445  27.986  1.00  0.00    -0.123 NA
ATOM     13  C   UNL A   1      36.556  29.567  27.561  1.00  0.00     0.154 C 
BRANCH   9  14
ATOM     14  C   UNL A   1      33.550  29.083  27.004  1.00  0.00     0.019 A 
ATOM     15  C   UNL A   1      32.191  26.840  25.968  1.00  0.00     0.041 A 
ATOM     16  C   UNL A   1      33.427  27.216  25.441  1.00  0.00     0.027 A 
ATOM     17  C   UNL A   1      31.706  27.490  27.103  1.00  0.00     0.027 A 
ATOM     18  C   UNL A   1      34.085  28.349  25.937  1.00  0.00     0.014 A 
ATOM     19  C   UNL A   1      32.369  28.619  27.603  1.00  0.00     0.014 A 
BRANCH  15  20
ATOM     20  N   UNL A   1      31.446  25.880  25.265  1.00  0.00    -0.322 N 
ATOM     21  C   UNL A   1      31.674  24.528  25.066  1.00  0.00     0.255 C 
ATOM     22  O   UNL A   1      31.013  23.941  24.206  1.00  0.00    -0.269 OA
ATOM     23  H   UNL A   1      30.626  26.223  24.844  1.00  0.00     0.170 HD
BRANCH  21  24
ATOM     24  C   UNL A   1      32.626  23.727  25.903  1.00  0.00     0.040 A 
ATOM     25  C   UNL A   1      36.152  22.303  25.795  1.00  0.00     0.044 C 
ATOM     26  C   UNL A   1      34.784  22.657  26.303  1.00  0.00    -0.050 A 
ATOM     27  C   UNL A   1      34.286  22.088  27.476  1.00  0.00     0.003 A 
ATOM     28  C   UNL A   1      33.978  23.550  25.586  1.00  0.00     0.017 A 
ATOM     29  C   UNL A   1      32.983  22.368  27.889  1.00  0.00     0.001 A 
ATOM     30  C   UNL A   1      32.149  23.160  27.094  1.00  0.00     0.014 A 
ENDBRANCH  21  24
ENDBRANCH  15  20
ENDBRANCH   9  14
ENDBRANCH   7   8
ENDBRANCH   6   7
BRANCH   6  31
ATOM     31  C   UNL A   1      35.974  31.603  31.224  1.00  0.00     0.006 C 
ATOM     32  C   UNL A   1      36.341  30.825  32.501  1.00  0.00     0.009 C 
ATOM     33  C   UNL A   1      34.790  32.515  31.589  1.00  0.00     0.009 C 
ENDBRANCH   6  31
ENDBRANCH   3   6
ENDBRANCH   1   2
BRANCH   1  34
ATOM     34  C   UNL A   1      39.806  28.331  30.953  1.00  0.00     0.042 C 
BRANCH  34  35
ATOM     35  C   UNL A   1      40.523  27.703  29.776  1.00  0.00     0.118 C 
BRANCH  35  36
ATOM     36  N   UNL A   1      39.712  26.755  29.024  1.00  0.00    -0.352 N 
ATOM     37  C   UNL A   1      40.088  25.802  28.096  1.00  0.00     0.251 C 
ATOM     38  H   UNL A   1      38.745  26.800  29.206  1.00  0.00     0.163 HD
ATOM     39  O   UNL A   1      39.194  25.228  27.468  1.00  0.00    -0.269 OA
BRANCH  37  40
ATOM     40  C   UNL A   1      41.505  25.384  27.957  1.00  0.00     0.039 A 
ATOM     41  C   UNL A   1      41.958  24.286  28.704  1.00  0.00     0.014 A 
ATOM     42  C   UNL A   1      42.428  26.189  27.301  1.00  0.00     0.014 A 
ATOM     43  C   UNL A   1      43.309  24.177  29.025  1.00  0.00     0.010 A 
ATOM     44  C   UNL A   1      43.730  26.172  27.719  1.00  0.00     0.010 A 
ATOM     45  C   UNL A   1      44.151  25.208  28.638  1.00  0.00    -0.014 A 
BRANCH  45  46
ATOM     46  C   UNL A   1      45.494  25.450  29.117  1.00  0.00     0.031 A 
ATOM     47  C   UNL A   1      46.632  24.999  28.292  1.00  0.00     0.074 A 
ATOM     48  C   UNL A   1      45.623  26.444  30.026  1.00  0.00     0.049 A 
ATOM     49  N   UNL A   1      47.866  25.096  28.641  1.00  0.00    -0.248 NA
ATOM     50  C   UNL A   1      46.452  24.425  26.963  1.00  0.00     0.031 C 
ATOM     51  C   UNL A   1      46.792  27.287  30.246  1.00  0.00     0.029 A 
ATOM     52  N   UNL A   1      44.734  26.894  31.007  1.00  0.00    -0.354 N 
ATOM     53  C   UNL A   1      48.628  24.930  27.501  1.00  0.00     0.074 A 
ATOM     54  C   UNL A   1      47.711  24.406  26.518  1.00  0.00     0.031 C 
ATOM     55  C   UNL A   1      46.667  27.892  31.439  1.00  0.00     0.029 A 
ATOM     56  C   UNL A   1      45.535  27.268  32.095  1.00  0.00     0.049 A 
ATOM     57  H   UNL A   1      43.752  26.939  30.946  1.00  0.00     0.167 HD
ATOM     58  C   UNL A   1      49.902  25.420  27.496  1.00  0.00     0.034 A 
ATOM     59  C   UNL A   1      45.620  26.540  33.254  1.00  0.00     0.034 A 
ATOM     60  C   UNL A   1      50.237  25.986  28.818  1.00  0.00     0.049 A 
ATOM     61  C   UNL A   1      47.028  26.020  33.544  1.00  0.00     0.074 A 
ATOM     62  C   UNL A   1      50.306  27.281  29.311  1.00  0.00     0.029 A 
ATOM     63  N   UNL A   1      50.261  25.150  29.930  1.00  0.00    -0.354 N 
ATOM     64  N   UNL A   1      48.034  26.116  32.714  1.00  0.00    -0.248 NA
ATOM     65  C   UNL A   1      47.422  25.350  34.780  1.00  0.00     0.031 C 
ATOM     66  C   UNL A   1      50.288  27.214  30.734  1.00  0.00     0.029 A 
ATOM     67  C   UNL A   1      50.242  25.881  31.110  1.00  0.00     0.049 A 
ATOM     68  H   UNL A   1      50.288  24.167  29.885  1.00  0.00     0.167 HD
ATOM     69  C   UNL A   1      49.123  25.431  33.187  1.00  0.00     0.074 A 
ATOM     70  C   UNL A   1      48.712  25.053  34.531  1.00  0.00     0.031 C 
ATOM     71  C   UNL A   1      50.224  25.187  32.401  1.00  0.00     0.034 A 
BRANCH  58  72
ATOM     72  C   UNL A   1      50.775  25.657  26.265  1.00  0.00     0.023 A 
ATOM     73  C   UNL A   1      52.054  25.052  26.259  1.00  0.00     0.012 A 
ATOM     74  C   UNL A   1      50.477  26.453  25.133  1.00  0.00     0.148 A 
ATOM     75  C   UNL A   1      53.001  25.285  25.254  1.00  0.00     0.002 A 
ATOM     76  C   UNL A   1      51.436  26.727  24.150  1.00  0.00     0.091 A 
ATOM     77  F   UNL A   1      49.240  26.902  24.934  1.00  0.00    -0.205 F 
ATOM     78  C   UNL A   1      52.703  26.146  24.210  1.00  0.00     0.022 A 
BRANCH  76  79
ATOM     79  S   UNL A   1      51.132  27.873  22.789  1.00  0.00     0.127 S 
ATOM     80  O   UNL A   1      50.973  29.149  23.491  1.00  0.00    -0.237 OA
ATOM     81  O   UNL A   1      52.358  27.762  22.003  1.00  0.00    -0.237 OA
ATOM     82  O   UNL A   1      49.920  27.409  22.124  1.00  0.00    -0.744 OA
ENDBRANCH  76  79
ENDBRANCH  58  72
BRANCH  59  83
ATOM     83  C   UNL A   1      44.333  25.862  33.608  1.00  0.00     0.023 A 
ATOM     84  C   UNL A   1      44.291  24.462  33.390  1.00  0.00     0.012 A 
ATOM     85  C   UNL A   1      43.412  26.435  34.504  1.00  0.00     0.148 A 
ATOM     86  C   UNL A   1      43.499  23.636  34.188  1.00  0.00     0.002 A 
ATOM     87  C   UNL A   1      42.604  25.601  35.281  1.00  0.00     0.091 A 
ATOM     88  F   UNL A   1      43.387  27.767  34.637  1.00  0.00    -0.205 F 
ATOM     89  C   UNL A   1      42.690  24.204  35.165  1.00  0.00     0.022 A 
BRANCH  87  90
ATOM     90  S   UNL A   1      41.501  26.254  36.546  1.00  0.00     0.127 S 
ATOM     91  O   UNL A   1      40.425  25.267  36.532  1.00  0.00    -0.237 OA
ATOM     92  O   UNL A   1      42.340  26.228  37.744  1.00  0.00    -0.237 OA
ATOM     93  O   UNL A   1      41.156  27.592  36.090  1.00  0.00    -0.744 OA
ENDBRANCH  87  90
ENDBRANCH  59  83
BRANCH  71  94
ATOM     94  C   UNL A   1      51.383  24.243  32.726  1.00  0.00     0.023 A 
ATOM     95  C   UNL A   1      52.734  24.630  32.645  1.00  0.00     0.012 A 
ATOM     96  C   UNL A   1      51.144  22.946  33.266  1.00  0.00     0.148 A 
ATOM     97  C   UNL A   1      53.782  23.785  33.033  1.00  0.00     0.002 A 
ATOM     98  C   UNL A   1      52.180  22.163  33.770  1.00  0.00     0.091 A 
ATOM     99  F   UNL A   1      49.905  22.434  33.269  1.00  0.00    -0.205 F 
ATOM    100  C   UNL A   1      53.506  22.563  33.628  1.00  0.00     0.022 A 
BRANCH  98 101
ATOM    101  S   UNL A   1      51.834  20.705  34.769  1.00  0.00     0.127 S 
ATOM    102  O   UNL A   1      51.105  19.857  33.830  1.00  0.00    -0.237 OA
ATOM    103  O   UNL A   1      53.178  20.228  35.103  1.00  0.00    -0.237 OA
ATOM    104  O   UNL A   1      51.081  21.206  35.911  1.00  0.00    -0.744 OA
ENDBRANCH  98 101
ENDBRANCH  71  94
ENDBRANCH  45  46
ENDBRANCH  37  40
ENDBRANCH  35  36
ENDBRANCH  34  35
ENDBRANCH   1  34
TORSDOF 19
ENDMDL
MODEL 3
REMARK VINA RESULT:     -11.6      1.942      2.357
REMARK SMILES Cc1cccc(C(=O)Nc2ccc(-c3nnc(S[C@H](C(=O)NCCCNC(=O)c4ccc(-c5c6nc(c(-c7cccc(S(=O)(=O)[O-])c7F)c7ccc([nH]7)c(-c7cccc(S(=O)(=O)[O-])c7F)c7nc(c(-c8cccc(S(=O)(=O)[O-])c8F)c8ccc5[nH]8)C=C7)C=C6)cc4)C(C)C)n3C)cc2)c1
REMARK SMILES IDX 23 1 22 2 20 3 21 4 19 6 18 7 17 8 14 9 15 10 95 11 16 12
REMARK SMILES IDX 96 13 13 14 10 15 11 16 98 17 12 18 97 19 9 20 7 21 8 22
REMARK SMILES IDX 6 24 1 25 2 26 3 27 99 28 4 29 5 30 92 31 93 32 94 33 24 34
REMARK SMILES IDX 25 35 26 36 27 37 28 39 29 40 30 41 91 42 31 43 90 44 32 45
REMARK SMILES IDX 33 46 34 47 84 48 35 49 89 50 83 51 85 52 36 53 88 54 82 55
REMARK SMILES IDX 81 56 37 58 69 59 49 60 68 61 50 62 53 63 67 64 86 65 51 66
REMARK SMILES IDX 52 67 66 69 87 70 54 71 38 72 39 73 47 74 40 75 42 76 48 77
REMARK SMILES IDX 41 78 43 79 44 80 45 81 46 82 70 83 71 84 79 85 72 86 74 87
REMARK SMILES IDX 80 88 73 89 75 90 76 91 77 92 78 93 55 94 56 95 64 96 57 97
REMARK SMILES IDX 59 98 65 99 58 100 60 101 61 102 62 103 63 104
REMARK H PARENT 22 5 9 23 26 38 85 57 53 68
REMARK Flexibility Score: inf
ROOT
ATOM      1  C   UNL A   1      34.872  30.508  27.078  1.00  0.00     0.117 C 
ENDROOT
BRANCH   1   2
ATOM      2  N   UNL A   1      34.644  29.201  26.480  1.00  0.00    -0.355 N 
ATOM      3  C   UNL A   1      33.982  28.832  25.346  1.00  0.00     0.233 C 
ATOM      4  O   UNL A   1      34.497  27.923  24.680  1.00  0.00    -0.274 OA
ATOM      5  H   UNL A   1      35.037  28.451  26.982  1.00  0.00     0.163 HD
BRANCH   3   6
ATOM      6  C   UNL A   1      32.654  29.443  24.861  1.00  0.00     0.146 C 
BRANCH   6   7
ATOM      7  S   UNL A   1      31.971  28.633  23.361  1.00  0.00    -0.072 SA
BRANCH   7   8
ATOM      8  C   UNL A   1      31.224  27.118  23.696  1.00  0.00     0.192 A 
ATOM      9  C   UNL A   1      31.053  24.931  23.939  1.00  0.00     0.164 A 
ATOM     10  N   UNL A   1      29.920  25.495  24.317  1.00  0.00    -0.129 NA
ATOM     11  N   UNL A   1      31.876  25.930  23.461  1.00  0.00    -0.305 N 
ATOM     12  N   UNL A   1      30.030  26.862  24.164  1.00  0.00    -0.123 NA
ATOM     13  C   UNL A   1      33.119  25.722  22.765  1.00  0.00     0.154 C 
BRANCH   9  14
ATOM     14  C   UNL A   1      31.362  23.496  24.007  1.00  0.00     0.019 A 
ATOM     15  C   UNL A   1      32.266  20.838  24.262  1.00  0.00     0.041 A 
ATOM     16  C   UNL A   1      31.698  21.493  25.356  1.00  0.00     0.027 A 
ATOM     17  C   UNL A   1      32.248  21.455  23.011  1.00  0.00     0.027 A 
ATOM     18  C   UNL A   1      31.278  22.824  25.233  1.00  0.00     0.014 A 
ATOM     19  C   UNL A   1      31.820  22.784  22.889  1.00  0.00     0.014 A 
BRANCH  15  20
ATOM     20  N   UNL A   1      32.918  19.618  24.499  1.00  0.00    -0.322 N 
ATOM     21  C   UNL A   1      34.265  19.323  24.628  1.00  0.00     0.255 C 
ATOM     22  O   UNL A   1      34.616  18.142  24.584  1.00  0.00    -0.269 OA
ATOM     23  H   UNL A   1      32.319  18.842  24.587  1.00  0.00     0.170 HD
BRANCH  21  24
ATOM     24  C   UNL A   1      35.308  20.366  24.903  1.00  0.00     0.040 A 
ATOM     25  C   UNL A   1      35.631  24.104  25.534  1.00  0.00     0.044 C 
ATOM     26  C   UNL A   1      36.007  22.660  25.364  1.00  0.00    -0.050 A 
ATOM     27  C   UNL A   1      37.344  22.275  25.258  1.00  0.00     0.003 A 
ATOM     28  C   UNL A   1      35.010  21.680  25.285  1.00  0.00     0.017 A 
ATOM     29  C   UNL A   1      37.669  20.939  25.020  1.00  0.00     0.001 A 
ATOM     30  C   UNL A   1      36.657  19.995  24.817  1.00  0.00     0.014 A 
ENDBRANCH  21  24
ENDBRANCH  15  20
ENDBRANCH   9  14
ENDBRANCH   7   8
ENDBRANCH   6   7
BRANCH   6  31
ATOM     31  C   UNL A   1      31.543  29.764  25.899  1.00  0.00     0.006 C 
ATOM     32  C   UNL A   1      31.623  28.810  27.104  1.00  0.00     0.009 C 
ATOM     33  C   UNL A   1      31.529  31.193  26.469  1.00  0.00     0.009 C 
ENDBRANCH   6  31
ENDBRANCH   3   6
ENDBRANCH   1   2
BRANCH   1  34
ATOM     34  C   UNL A   1      35.818  30.493  28.271  1.00  0.00     0.042 C 
BRANCH  34  35
ATOM     35  C   UNL A   1      35.277  31.341  29.404  1.00  0.00     0.118 C 
BRANCH  35  36
ATOM     36  N   UNL A   1      35.091  32.744  29.058  1.00  0.00    -0.352 N 
ATOM     37  C   UNL A   1      35.797  33.862  29.462  1.00  0.00     0.251 C 
ATOM     38  H   UNL A   1      34.345  32.924  28.440  1.00  0.00     0.163 HD
ATOM     39  O   UNL A   1      35.341  34.968  29.161  1.00  0.00    -0.269 OA
BRANCH  37  40
ATOM     40  C   UNL A   1      37.125  33.736  30.113  1.00  0.00     0.039 A 
ATOM     41  C   UNL A   1      38.276  33.928  29.333  1.00  0.00     0.014 A 
ATOM     42  C   UNL A   1      37.248  33.209  31.392  1.00  0.00     0.014 A 
ATOM     43  C   UNL A   1      39.476  33.330  29.713  1.00  0.00     0.010 A 
ATOM     44  C   UNL A   1      38.379  32.506  31.707  1.00  0.00     0.010 A 
ATOM     45  C   UNL A   1      39.465  32.511  30.830  1.00  0.00    -0.014 A 
BRANCH  45  46
ATOM     46  C   UNL A   1      40.493  31.570  31.218  1.00  0.00     0.031 A 
ATOM     47  C   UNL A   1      40.532  30.250  30.559  1.00  0.00     0.074 A 
ATOM     48  C   UNL A   1      41.590  32.107  31.801  1.00  0.00     0.049 A 
ATOM     49  N   UNL A   1      41.351  29.308  30.865  1.00  0.00    -0.248 NA
ATOM     50  C   UNL A   1      39.645  29.905  29.453  1.00  0.00     0.031 C 
ATOM     51  C   UNL A   1      42.949  31.580  31.769  1.00  0.00     0.029 A 
ATOM     52  N   UNL A   1      41.722  33.240  32.610  1.00  0.00    -0.354 N 
ATOM     53  C   UNL A   1      41.343  28.402  29.822  1.00  0.00     0.074 A 
ATOM     54  C   UNL A   1      40.191  28.761  29.032  1.00  0.00     0.031 C 
ATOM     55  C   UNL A   1      43.666  32.177  32.735  1.00  0.00     0.029 A 
ATOM     56  C   UNL A   1      42.719  32.919  33.544  1.00  0.00     0.049 A 
ATOM     57  H   UNL A   1      41.222  34.085  32.539  1.00  0.00     0.167 HD
ATOM     58  C   UNL A   1      42.417  27.573  29.676  1.00  0.00     0.034 A 
ATOM     59  C   UNL A   1      42.457  32.655  34.864  1.00  0.00     0.034 A 
ATOM     60  C   UNL A   1      43.378  27.781  30.778  1.00  0.00     0.049 A 
ATOM     61  C   UNL A   1      42.856  31.242  35.291  1.00  0.00     0.074 A 
ATOM     62  C   UNL A   1      44.585  28.457  30.875  1.00  0.00     0.029 A 
ATOM     63  N   UNL A   1      42.985  27.506  32.084  1.00  0.00    -0.354 N 
ATOM     64  N   UNL A   1      43.265  30.312  34.470  1.00  0.00    -0.248 NA
ATOM     65  C   UNL A   1      42.824  30.758  36.669  1.00  0.00     0.031 C 
ATOM     66  C   UNL A   1      44.869  28.657  32.257  1.00  0.00     0.029 A 
ATOM     67  C   UNL A   1      43.856  28.076  33.002  1.00  0.00     0.049 A 
ATOM     68  H   UNL A   1      42.192  26.975  32.326  1.00  0.00     0.167 HD
ATOM     69  C   UNL A   1      43.405  29.113  35.121  1.00  0.00     0.074 A 
ATOM     70  C   UNL A   1      43.209  29.476  36.516  1.00  0.00     0.031 C 
ATOM     71  C   UNL A   1      43.600  27.936  34.439  1.00  0.00     0.034 A 
BRANCH  58  72
ATOM     72  C   UNL A   1      42.772  26.765  28.430  1.00  0.00     0.023 A 
ATOM     73  C   UNL A   1      41.929  25.675  28.108  1.00  0.00     0.012 A 
ATOM     74  C   UNL A   1      43.880  26.946  27.567  1.00  0.00     0.148 A 
ATOM     75  C   UNL A   1      42.205  24.779  27.069  1.00  0.00     0.002 A 
ATOM     76  C   UNL A   1      44.187  26.026  26.556  1.00  0.00     0.091 A 
ATOM     77  F   UNL A   1      44.620  28.049  27.648  1.00  0.00    -0.205 F 
ATOM     78  C   UNL A   1      43.352  24.937  26.307  1.00  0.00     0.022 A 
BRANCH  76  79
ATOM     79  S   UNL A   1      45.685  26.147  25.556  1.00  0.00     0.127 S 
ATOM     80  O   UNL A   1      45.502  27.435  24.883  1.00  0.00    -0.237 OA
ATOM     81  O   UNL A   1      46.740  26.135  26.566  1.00  0.00    -0.237 OA
ATOM     82  O   UNL A   1      45.671  25.002  24.654  1.00  0.00    -0.744 OA
ENDBRANCH  76  79
ENDBRANCH  58  72
BRANCH  59  83
ATOM     83  C   UNL A   1      41.309  33.454  35.398  1.00  0.00     0.023 A 
ATOM     84  C   UNL A   1      41.421  34.861  35.266  1.00  0.00     0.012 A 
ATOM     85  C   UNL A   1      40.034  32.892  35.584  1.00  0.00     0.148 A 
ATOM     86  C   UNL A   1      40.285  35.659  35.119  1.00  0.00     0.002 A 
ATOM     87  C   UNL A   1      38.903  33.702  35.460  1.00  0.00     0.091 A 
ATOM     88  F   UNL A   1      39.937  31.575  35.805  1.00  0.00    -0.205 F 
ATOM     89  C   UNL A   1      39.028  35.071  35.170  1.00  0.00     0.022 A 
BRANCH  87  90
ATOM     90  S   UNL A   1      37.235  33.030  35.549  1.00  0.00     0.127 S 
ATOM     91  O   UNL A   1      36.452  34.111  34.955  1.00  0.00    -0.237 OA
ATOM     92  O   UNL A   1      37.334  31.824  34.727  1.00  0.00    -0.237 OA
ATOM     93  O   UNL A   1      37.008  32.771  36.962  1.00  0.00    -0.744 OA
ENDBRANCH  87  90
ENDBRANCH  59  83
BRANCH  71  94
ATOM     94  C   UNL A   1      43.531  26.524  35.023  1.00  0.00     0.023 A 
ATOM     95  C   UNL A   1      42.320  25.844  35.246  1.00  0.00     0.012 A 
ATOM     96  C   UNL A   1      44.716  25.765  35.250  1.00  0.00     0.148 A 
ATOM     97  C   UNL A   1      42.275  24.518  35.696  1.00  0.00     0.002 A 
ATOM     98  C   UNL A   1      44.665  24.410  35.570  1.00  0.00     0.091 A 
ATOM     99  F   UNL A   1      45.919  26.355  35.188  1.00  0.00    -0.205 F 
ATOM    100  C   UNL A   1      43.446  23.788  35.826  1.00  0.00     0.022 A 
BRANCH  98 101
ATOM    101  S   UNL A   1      46.144  23.386  35.494  1.00  0.00     0.127 S 
ATOM    102  O   UNL A   1      46.604  23.615  34.126  1.00  0.00    -0.237 OA
ATOM    103  O   UNL A   1      46.992  23.980  36.529  1.00  0.00    -0.237 OA
ATOM    104  O   UNL A   1      45.682  22.040  35.805  1.00  0.00    -0.744 OA
ENDBRANCH  98 101
ENDBRANCH  71  94
ENDBRANCH  45  46
ENDBRANCH  37  40
ENDBRANCH  35  36
ENDBRANCH  34  35
ENDBRANCH   1  34
TORSDOF 19
ENDMDL
