MODEL 1
REMARK VINA RESULT:     -12.0      0.000      0.000
REMARK SMILES CC[C@@H](C(=O)NCCCNC(=O)c1ccc(-c2c3nc(c(-c4cccc(S(=O)(=O)[O-])c4F)c4ccc([nH]4)c(-c4cccc(S(=O)(=O)[O-])c4F)c4nc(c(-c5cccc(S(=O)(=O)[O-])c5F)c5ccc2[nH]5)C=C4)C=C3)cc1)N1C(=O)/C(=C\c2ccc(C(=O)OC)cc2)SC1=S
REMARK SMILES IDX 7 1 6 2 4 3 5 4 3 6 2 7 1 8 76 9 77 10 92 11 78 12 79 13
REMARK SMILES IDX 91 14 93 15 80 16 81 17 82 18 90 19 83 20 89 21 84 22 85 23
REMARK SMILES IDX 86 24 87 25 88 26 8 27 9 28 10 29 11 30 12 32 13 33 14 34
REMARK SMILES IDX 75 35 15 36 74 37 16 38 17 39 18 40 68 41 19 42 73 43 67 44
REMARK SMILES IDX 69 45 20 46 72 47 66 48 65 49 21 51 53 52 33 53 52 54 34 55
REMARK SMILES IDX 37 56 51 57 70 58 35 59 36 60 50 62 71 63 38 64 22 65 23 66
REMARK SMILES IDX 31 67 24 68 26 69 32 70 25 71 27 72 28 73 29 74 30 75 54 76
REMARK SMILES IDX 55 77 63 78 56 79 58 80 64 81 57 82 59 83 60 84 61 85 62 86
REMARK SMILES IDX 39 87 40 88 48 89 41 90 43 91 49 92 42 93 44 94 45 95 46 96
REMARK SMILES IDX 47 97
REMARK H PARENT 6 5 10 31 69 50 37 61
REMARK Flexibility Score: inf
ROOT
ATOM      1  C   UNL A   1      36.341  20.378  24.997  1.00  0.00     0.117 C 
ENDROOT
BRANCH   1   2
ATOM      2  N   UNL A   1      36.557  21.816  25.104  1.00  0.00    -0.354 N 
ATOM      3  C   UNL A   1      35.823  22.888  24.675  1.00  0.00     0.243 C 
ATOM      4  O   UNL A   1      36.296  24.008  24.897  1.00  0.00    -0.273 OA
ATOM      5  H   UNL A   1      37.388  22.062  25.571  1.00  0.00     0.163 HD
BRANCH   3   6
ATOM      6  C   UNL A   1      34.445  22.719  23.984  1.00  0.00     0.181 C 
BRANCH   6   7
ATOM      7  C   UNL A   1      34.263  23.578  22.721  1.00  0.00     0.032 C 
ATOM      8  C   UNL A   1      33.220  23.161  21.705  1.00  0.00     0.006 C 
ENDBRANCH   6   7
BRANCH   6   9
ATOM      9  N   UNL A   1      33.404  22.982  25.045  1.00  0.00    -0.280 N 
ATOM     10  C   UNL A   1      32.876  24.272  25.078  1.00  0.00     0.266 C 
ATOM     11  C   UNL A   1      32.799  22.088  25.915  1.00  0.00     0.149 C 
ATOM     12  O   UNL A   1      33.262  25.211  24.394  1.00  0.00    -0.268 OA
ATOM     13  C   UNL A   1      31.764  24.366  26.072  1.00  0.00     0.081 C 
ATOM     14  S   UNL A   1      31.758  22.958  27.047  1.00  0.00    -0.054 SA
ATOM     15  S   UNL A   1      32.903  20.431  26.077  1.00  0.00    -0.052 S 
ATOM     16  C   UNL A   1      30.813  25.303  26.198  1.00  0.00     0.029 C 
BRANCH  16  17
ATOM     17  C   UNL A   1      30.613  26.409  25.269  1.00  0.00    -0.024 A 
ATOM     18  C   UNL A   1      29.814  26.250  24.136  1.00  0.00     0.009 A 
ATOM     19  C   UNL A   1      31.236  27.639  25.519  1.00  0.00     0.009 A 
ATOM     20  C   UNL A   1      29.592  27.336  23.285  1.00  0.00     0.016 A 
ATOM     21  C   UNL A   1      31.014  28.722  24.671  1.00  0.00     0.016 A 
ATOM     22  C   UNL A   1      30.172  28.582  23.561  1.00  0.00     0.060 A 
BRANCH  22  23
ATOM     23  C   UNL A   1      29.842  29.728  22.675  1.00  0.00     0.337 C 
ATOM     24  O   UNL A   1      30.049  29.737  21.470  1.00  0.00    -0.246 OA
BRANCH  23  25
ATOM     25  O   UNL A   1      29.255  30.719  23.389  1.00  0.00    -0.465 OA
ATOM     26  C   UNL A   1      27.830  30.659  23.416  1.00  0.00     0.282 C 
ENDBRANCH  23  25
ENDBRANCH  22  23
ENDBRANCH  16  17
ENDBRANCH   6   9
ENDBRANCH   3   6
ENDBRANCH   1   2
BRANCH   1  27
ATOM     27  C   UNL A   1      37.667  19.619  24.928  1.00  0.00     0.042 C 
BRANCH  27  28
ATOM     28  C   UNL A   1      38.779  20.192  25.797  1.00  0.00     0.118 C 
BRANCH  28  29
ATOM     29  N   UNL A   1      39.891  19.273  25.967  1.00  0.00    -0.352 N 
ATOM     30  C   UNL A   1      41.225  19.528  26.195  1.00  0.00     0.251 C 
ATOM     31  H   UNL A   1      39.655  18.320  25.911  1.00  0.00     0.163 HD
ATOM     32  O   UNL A   1      42.026  18.599  26.124  1.00  0.00    -0.269 OA
BRANCH  30  33
ATOM     33  C   UNL A   1      41.714  20.898  26.501  1.00  0.00     0.039 A 
ATOM     34  C   UNL A   1      41.844  21.815  25.452  1.00  0.00     0.014 A 
ATOM     35  C   UNL A   1      42.089  21.279  27.792  1.00  0.00     0.014 A 
ATOM     36  C   UNL A   1      42.293  23.116  25.706  1.00  0.00     0.010 A 
ATOM     37  C   UNL A   1      42.443  22.601  28.059  1.00  0.00     0.010 A 
ATOM     38  C   UNL A   1      42.568  23.533  27.019  1.00  0.00    -0.014 A 
BRANCH  38  39
ATOM     39  C   UNL A   1      42.997  24.928  27.315  1.00  0.00     0.031 A 
ATOM     40  C   UNL A   1      42.047  25.901  27.965  1.00  0.00     0.074 A 
ATOM     41  C   UNL A   1      44.219  25.350  26.930  1.00  0.00     0.049 A 
ATOM     42  N   UNL A   1      42.231  27.163  28.261  1.00  0.00    -0.248 NA
ATOM     43  C   UNL A   1      40.705  25.400  28.302  1.00  0.00     0.031 C 
ATOM     44  C   UNL A   1      45.208  24.537  26.219  1.00  0.00     0.029 A 
ATOM     45  N   UNL A   1      44.828  26.574  27.058  1.00  0.00    -0.354 N 
ATOM     46  C   UNL A   1      41.021  27.614  28.777  1.00  0.00     0.074 A 
ATOM     47  C   UNL A   1      40.099  26.502  28.719  1.00  0.00     0.031 C 
ATOM     48  C   UNL A   1      46.300  25.280  25.980  1.00  0.00     0.029 A 
ATOM     49  C   UNL A   1      46.079  26.630  26.487  1.00  0.00     0.049 A 
ATOM     50  H   UNL A   1      44.410  27.339  27.516  1.00  0.00     0.167 HD
ATOM     51  C   UNL A   1      40.708  28.834  29.278  1.00  0.00     0.034 A 
ATOM     52  C   UNL A   1      46.948  27.655  26.371  1.00  0.00     0.034 A 
ATOM     53  C   UNL A   1      41.637  29.929  29.369  1.00  0.00     0.049 A 
ATOM     54  C   UNL A   1      46.596  28.990  26.968  1.00  0.00     0.074 A 
ATOM     55  C   UNL A   1      41.448  31.171  29.950  1.00  0.00     0.029 A 
ATOM     56  N   UNL A   1      42.922  29.924  28.850  1.00  0.00    -0.354 N 
ATOM     57  N   UNL A   1      45.504  29.348  27.598  1.00  0.00    -0.248 NA
ATOM     58  C   UNL A   1      47.609  30.050  26.872  1.00  0.00     0.031 C 
ATOM     59  C   UNL A   1      42.604  31.930  29.745  1.00  0.00     0.029 A 
ATOM     60  C   UNL A   1      43.531  31.146  29.078  1.00  0.00     0.049 A 
ATOM     61  H   UNL A   1      43.340  29.162  28.386  1.00  0.00     0.167 HD
ATOM     62  C   UNL A   1      45.710  30.663  28.002  1.00  0.00     0.074 A 
ATOM     63  C   UNL A   1      47.041  31.030  27.562  1.00  0.00     0.031 C 
ATOM     64  C   UNL A   1      44.870  31.491  28.671  1.00  0.00     0.034 A 
BRANCH  51  65
ATOM     65  C   UNL A   1      39.307  29.037  29.800  1.00  0.00     0.023 A 
ATOM     66  C   UNL A   1      38.984  28.646  31.116  1.00  0.00     0.012 A 
ATOM     67  C   UNL A   1      38.320  29.648  29.002  1.00  0.00     0.148 A 
ATOM     68  C   UNL A   1      37.691  28.812  31.612  1.00  0.00     0.002 A 
ATOM     69  C   UNL A   1      37.047  29.858  29.522  1.00  0.00     0.091 A 
ATOM     70  F   UNL A   1      38.636  29.998  27.747  1.00  0.00    -0.205 F 
ATOM     71  C   UNL A   1      36.726  29.427  30.819  1.00  0.00     0.022 A 
BRANCH  69  72
ATOM     72  S   UNL A   1      35.760  30.717  28.609  1.00  0.00     0.127 S 
ATOM     73  O   UNL A   1      36.549  31.580  27.730  1.00  0.00    -0.237 OA
ATOM     74  O   UNL A   1      35.077  29.616  27.929  1.00  0.00    -0.237 OA
ATOM     75  O   UNL A   1      34.954  31.408  29.605  1.00  0.00    -0.744 OA
ENDBRANCH  69  72
ENDBRANCH  51  65
BRANCH  52  76
ATOM     76  C   UNL A   1      48.263  27.432  25.704  1.00  0.00     0.023 A 
ATOM     77  C   UNL A   1      49.367  27.008  26.469  1.00  0.00     0.012 A 
ATOM     78  C   UNL A   1      48.409  27.590  24.313  1.00  0.00     0.148 A 
ATOM     79  C   UNL A   1      50.600  26.767  25.860  1.00  0.00     0.002 A 
ATOM     80  C   UNL A   1      49.623  27.294  23.706  1.00  0.00     0.091 A 
ATOM     81  F   UNL A   1      47.346  28.002  23.607  1.00  0.00    -0.205 F 
ATOM     82  C   UNL A   1      50.725  26.898  24.480  1.00  0.00     0.022 A 
BRANCH  80  83
ATOM     83  S   UNL A   1      49.840  27.300  21.923  1.00  0.00     0.127 S 
ATOM     84  O   UNL A   1      51.220  26.843  21.788  1.00  0.00    -0.237 OA
ATOM     85  O   UNL A   1      48.825  26.336  21.496  1.00  0.00    -0.237 OA
ATOM     86  O   UNL A   1      49.585  28.670  21.497  1.00  0.00    -0.744 OA
ENDBRANCH  80  83
ENDBRANCH  52  76
BRANCH  64  87
ATOM     87  C   UNL A   1      45.369  32.873  29.009  1.00  0.00     0.023 A 
ATOM     88  C   UNL A   1      46.131  33.084  30.175  1.00  0.00     0.012 A 
ATOM     89  C   UNL A   1      45.146  33.949  28.126  1.00  0.00     0.148 A 
ATOM     90  C   UNL A   1      46.632  34.350  30.474  1.00  0.00     0.002 A 
ATOM     91  C   UNL A   1      45.693  35.195  28.404  1.00  0.00     0.091 A 
ATOM     92  F   UNL A   1      44.404  33.732  27.030  1.00  0.00    -0.205 F 
ATOM     93  C   UNL A   1      46.424  35.401  29.584  1.00  0.00     0.022 A 
BRANCH  91  94
ATOM     94  S   UNL A   1      45.562  36.580  27.268  1.00  0.00     0.127 S 
ATOM     95  O   UNL A   1      46.310  36.090  26.112  1.00  0.00    -0.237 OA
ATOM     96  O   UNL A   1      44.117  36.678  27.064  1.00  0.00    -0.237 OA
ATOM     97  O   UNL A   1      46.154  37.721  27.954  1.00  0.00    -0.744 OA
ENDBRANCH  91  94
ENDBRANCH  64  87
ENDBRANCH  38  39
ENDBRANCH  30  33
ENDBRANCH  28  29
ENDBRANCH  27  28
ENDBRANCH   1  27
TORSDOF 18
ENDMDL
MODEL 2
REMARK VINA RESULT:     -11.4      2.248      4.404
REMARK SMILES CC[C@@H](C(=O)NCCCNC(=O)c1ccc(-c2c3nc(c(-c4cccc(S(=O)(=O)[O-])c4F)c4ccc([nH]4)c(-c4cccc(S(=O)(=O)[O-])c4F)c4nc(c(-c5cccc(S(=O)(=O)[O-])c5F)c5ccc2[nH]5)C=C4)C=C3)cc1)N1C(=O)/C(=C\c2ccc(C(=O)OC)cc2)SC1=S
REMARK SMILES IDX 7 1 6 2 4 3 5 4 3 6 2 7 1 8 76 9 77 10 92 11 78 12 79 13
REMARK SMILES IDX 91 14 93 15 80 16 81 17 82 18 90 19 83 20 89 21 84 22 85 23
REMARK SMILES IDX 86 24 87 25 88 26 8 27 9 28 10 29 11 30 12 32 13 33 14 34
REMARK SMILES IDX 75 35 15 36 74 37 16 38 17 39 18 40 68 41 19 42 73 43 67 44
REMARK SMILES IDX 69 45 20 46 72 47 66 48 65 49 21 51 53 52 33 53 52 54 34 55
REMARK SMILES IDX 37 56 51 57 70 58 35 59 36 60 50 62 71 63 38 64 22 65 23 66
REMARK SMILES IDX 31 67 24 68 26 69 32 70 25 71 27 72 28 73 29 74 30 75 54 76
REMARK SMILES IDX 55 77 63 78 56 79 58 80 64 81 57 82 59 83 60 84 61 85 62 86
REMARK SMILES IDX 39 87 40 88 48 89 41 90 43 91 49 92 42 93 44 94 45 95 46 96
REMARK SMILES IDX 47 97
REMARK H PARENT 6 5 10 31 69 50 37 61
REMARK Flexibility Score: inf
ROOT
ATOM      1  C   UNL A   1      38.307  22.509  26.035  1.00  0.00     0.117 C 
ENDROOT
BRANCH   1   2
ATOM      2  N   UNL A   1      37.919  22.770  24.654  1.00  0.00    -0.354 N 
ATOM      3  C   UNL A   1      36.773  23.275  24.104  1.00  0.00     0.243 C 
ATOM      4  O   UNL A   1      36.737  23.350  22.870  1.00  0.00    -0.273 OA
ATOM      5  H   UNL A   1      38.612  22.538  23.993  1.00  0.00     0.163 HD
BRANCH   3   6
ATOM      6  C   UNL A   1      35.590  23.772  24.975  1.00  0.00     0.181 C 
BRANCH   6   7
ATOM      7  C   UNL A   1      35.553  23.171  26.390  1.00  0.00     0.032 C 
ATOM      8  C   UNL A   1      34.209  22.993  27.066  1.00  0.00     0.006 C 
ENDBRANCH   6   7
BRANCH   6   9
ATOM      9  N   UNL A   1      34.336  23.507  24.176  1.00  0.00    -0.280 N 
ATOM     10  C   UNL A   1      34.075  22.172  23.872  1.00  0.00     0.266 C 
ATOM     11  C   UNL A   1      33.333  24.390  23.808  1.00  0.00     0.149 C 
ATOM     12  O   UNL A   1      34.824  21.233  24.110  1.00  0.00    -0.268 OA
ATOM     13  C   UNL A   1      32.745  22.028  23.206  1.00  0.00     0.081 C 
ATOM     14  S   UNL A   1      32.171  23.577  22.754  1.00  0.00    -0.054 SA
ATOM     15  S   UNL A   1      33.069  26.001  24.153  1.00  0.00    -0.052 S 
ATOM     16  C   UNL A   1      31.995  20.930  23.032  1.00  0.00     0.029 C 
BRANCH  16  17
ATOM     17  C   UNL A   1      32.307  19.618  23.586  1.00  0.00    -0.024 A 
ATOM     18  C   UNL A   1      32.641  18.554  22.748  1.00  0.00     0.009 A 
ATOM     19  C   UNL A   1      32.264  19.429  24.973  1.00  0.00     0.009 A 
ATOM     20  C   UNL A   1      32.988  17.318  23.300  1.00  0.00     0.016 A 
ATOM     21  C   UNL A   1      32.609  18.196  25.524  1.00  0.00     0.016 A 
ATOM     22  C   UNL A   1      32.995  17.140  24.690  1.00  0.00     0.060 A 
BRANCH  22  23
ATOM     23  C   UNL A   1      33.450  15.834  25.234  1.00  0.00     0.337 C 
ATOM     24  O   UNL A   1      32.809  15.173  26.038  1.00  0.00    -0.246 OA
BRANCH  23  25
ATOM     25  O   UNL A   1      34.636  15.483  24.682  1.00  0.00    -0.465 OA
ATOM     26  C   UNL A   1      35.776  15.837  25.463  1.00  0.00     0.282 C 
ENDBRANCH  23  25
ENDBRANCH  22  23
ENDBRANCH  16  17
ENDBRANCH   6   9
ENDBRANCH   3   6
ENDBRANCH   1   2
BRANCH   1  27
ATOM     27  C   UNL A   1      38.372  21.008  26.321  1.00  0.00     0.042 C 
BRANCH  27  28
ATOM     28  C   UNL A   1      38.972  20.168  25.200  1.00  0.00     0.118 C 
BRANCH  28  29
ATOM     29  N   UNL A   1      39.971  19.226  25.675  1.00  0.00    -0.352 N 
ATOM     30  C   UNL A   1      41.236  19.450  26.171  1.00  0.00     0.251 C 
ATOM     31  H   UNL A   1      39.702  18.281  25.636  1.00  0.00     0.163 HD
ATOM     32  O   UNL A   1      41.982  18.489  26.344  1.00  0.00    -0.269 OA
BRANCH  30  33
ATOM     33  C   UNL A   1      41.719  20.821  26.480  1.00  0.00     0.039 A 
ATOM     34  C   UNL A   1      42.096  21.654  25.421  1.00  0.00     0.014 A 
ATOM     35  C   UNL A   1      41.851  21.282  27.792  1.00  0.00     0.014 A 
ATOM     36  C   UNL A   1      42.548  22.955  25.675  1.00  0.00     0.010 A 
ATOM     37  C   UNL A   1      42.207  22.608  28.039  1.00  0.00     0.010 A 
ATOM     38  C   UNL A   1      42.579  23.457  26.987  1.00  0.00    -0.014 A 
BRANCH  38  39
ATOM     39  C   UNL A   1      43.006  24.855  27.272  1.00  0.00     0.031 A 
ATOM     40  C   UNL A   1      42.058  25.829  27.921  1.00  0.00     0.074 A 
ATOM     41  C   UNL A   1      44.226  25.276  26.878  1.00  0.00     0.049 A 
ATOM     42  N   UNL A   1      42.241  27.093  28.209  1.00  0.00    -0.248 NA
ATOM     43  C   UNL A   1      40.718  25.328  28.268  1.00  0.00     0.031 C 
ATOM     44  C   UNL A   1      45.212  24.460  26.166  1.00  0.00     0.029 A 
ATOM     45  N   UNL A   1      44.833  26.502  26.995  1.00  0.00    -0.354 N 
ATOM     46  C   UNL A   1      41.033  27.546  28.728  1.00  0.00     0.074 A 
ATOM     47  C   UNL A   1      40.113  26.431  28.682  1.00  0.00     0.031 C 
ATOM     48  C   UNL A   1      46.301  25.204  25.917  1.00  0.00     0.029 A 
ATOM     49  C   UNL A   1      46.080  26.557  26.417  1.00  0.00     0.049 A 
ATOM     50  H   UNL A   1      44.416  27.269  27.450  1.00  0.00     0.167 HD
ATOM     51  C   UNL A   1      40.721  28.768  29.223  1.00  0.00     0.034 A 
ATOM     52  C   UNL A   1      46.947  27.582  26.290  1.00  0.00     0.034 A 
ATOM     53  C   UNL A   1      41.648  29.866  29.302  1.00  0.00     0.049 A 
ATOM     54  C   UNL A   1      46.595  28.921  26.880  1.00  0.00     0.074 A 
ATOM     55  C   UNL A   1      41.459  31.111  29.877  1.00  0.00     0.029 A 
ATOM     56  N   UNL A   1      42.930  29.859  28.776  1.00  0.00    -0.354 N 
ATOM     57  N   UNL A   1      45.506  29.281  27.513  1.00  0.00    -0.248 NA
ATOM     58  C   UNL A   1      47.605  29.982  26.771  1.00  0.00     0.031 C 
ATOM     59  C   UNL A   1      42.613  31.870  29.661  1.00  0.00     0.029 A 
ATOM     60  C   UNL A   1      43.538  31.084  28.994  1.00  0.00     0.049 A 
ATOM     61  H   UNL A   1      43.346  29.096  28.315  1.00  0.00     0.167 HD
ATOM     62  C   UNL A   1      45.712  30.598  27.909  1.00  0.00     0.074 A 
ATOM     63  C   UNL A   1      47.040  30.965  27.459  1.00  0.00     0.031 C 
ATOM     64  C   UNL A   1      44.874  31.429  28.577  1.00  0.00     0.034 A 
BRANCH  51  65
ATOM     65  C   UNL A   1      39.322  28.972  29.752  1.00  0.00     0.023 A 
ATOM     66  C   UNL A   1      38.988  28.524  31.047  1.00  0.00     0.012 A 
ATOM     67  C   UNL A   1      38.348  29.637  28.982  1.00  0.00     0.148 A 
ATOM     68  C   UNL A   1      37.697  28.691  31.548  1.00  0.00     0.002 A 
ATOM     69  C   UNL A   1      37.078  29.846  29.508  1.00  0.00     0.091 A 
ATOM     70  F   UNL A   1      38.674  30.041  27.745  1.00  0.00    -0.205 F 
ATOM     71  C   UNL A   1      36.746  29.360  30.783  1.00  0.00     0.022 A 
BRANCH  69  72
ATOM     72  S   UNL A   1      35.809  30.771  28.635  1.00  0.00     0.127 S 
ATOM     73  O   UNL A   1      35.139  29.711  27.881  1.00  0.00    -0.237 OA
ATOM     74  O   UNL A   1      35.021  31.327  29.736  1.00  0.00    -0.237 OA
ATOM     75  O   UNL A   1      36.514  31.761  27.833  1.00  0.00    -0.744 OA
ENDBRANCH  69  72
ENDBRANCH  51  65
BRANCH  52  76
ATOM     76  C   UNL A   1      48.258  27.358  25.617  1.00  0.00     0.023 A 
ATOM     77  C   UNL A   1      49.360  26.913  26.373  1.00  0.00     0.012 A 
ATOM     78  C   UNL A   1      48.403  27.535  24.228  1.00  0.00     0.148 A 
ATOM     79  C   UNL A   1      50.590  26.671  25.759  1.00  0.00     0.002 A 
ATOM     80  C   UNL A   1      49.613  27.237  23.614  1.00  0.00     0.091 A 
ATOM     81  F   UNL A   1      47.342  27.967  23.530  1.00  0.00    -0.205 F 
ATOM     82  C   UNL A   1      50.713  26.821  24.380  1.00  0.00     0.022 A 
BRANCH  80  83
ATOM     83  S   UNL A   1      49.827  27.268  21.831  1.00  0.00     0.127 S 
ATOM     84  O   UNL A   1      49.599  28.678  21.527  1.00  0.00    -0.237 OA
ATOM     85  O   UNL A   1      51.213  26.821  21.689  1.00  0.00    -0.237 OA
ATOM     86  O   UNL A   1      48.838  26.340  21.297  1.00  0.00    -0.744 OA
ENDBRANCH  80  83
ENDBRANCH  52  76
BRANCH  64  87
ATOM     87  C   UNL A   1      45.372  32.814  28.903  1.00  0.00     0.023 A 
ATOM     88  C   UNL A   1      46.088  33.045  30.094  1.00  0.00     0.012 A 
ATOM     89  C   UNL A   1      45.195  33.871  27.988  1.00  0.00     0.148 A 
ATOM     90  C   UNL A   1      46.589  34.313  30.385  1.00  0.00     0.002 A 
ATOM     91  C   UNL A   1      45.742  35.118  28.260  1.00  0.00     0.091 A 
ATOM     92  F   UNL A   1      44.496  33.636  26.868  1.00  0.00    -0.205 F 
ATOM     93  C   UNL A   1      46.427  35.346  29.464  1.00  0.00     0.022 A 
BRANCH  91  94
ATOM     94  S   UNL A   1      45.671  36.479  27.088  1.00  0.00     0.127 S 
ATOM     95  O   UNL A   1      46.331  35.901  25.920  1.00  0.00    -0.237 OA
ATOM     96  O   UNL A   1      44.230  36.682  26.937  1.00  0.00    -0.237 OA
ATOM     97  O   UNL A   1      46.375  37.589  27.716  1.00  0.00    -0.744 OA
ENDBRANCH  91  94
ENDBRANCH  64  87
ENDBRANCH  38  39
ENDBRANCH  30  33
ENDBRANCH  28  29
ENDBRANCH  27  28
ENDBRANCH   1  27
TORSDOF 18
ENDMDL
MODEL 3
REMARK VINA RESULT:     -11.4      5.879      9.802
REMARK SMILES CC[C@@H](C(=O)NCCCNC(=O)c1ccc(-c2c3nc(c(-c4cccc(S(=O)(=O)[O-])c4F)c4ccc([nH]4)c(-c4cccc(S(=O)(=O)[O-])c4F)c4nc(c(-c5cccc(S(=O)(=O)[O-])c5F)c5ccc2[nH]5)C=C4)C=C3)cc1)N1C(=O)/C(=C\c2ccc(C(=O)OC)cc2)SC1=S
REMARK SMILES IDX 7 1 6 2 4 3 5 4 3 6 2 7 1 8 76 9 77 10 92 11 78 12 79 13
REMARK SMILES IDX 91 14 93 15 80 16 81 17 82 18 90 19 83 20 89 21 84 22 85 23
REMARK SMILES IDX 86 24 87 25 88 26 8 27 9 28 10 29 11 30 12 32 13 33 14 34
REMARK SMILES IDX 75 35 15 36 74 37 16 38 17 39 18 40 68 41 19 42 73 43 67 44
REMARK SMILES IDX 69 45 20 46 72 47 66 48 65 49 21 51 53 52 33 53 52 54 34 55
REMARK SMILES IDX 37 56 51 57 70 58 35 59 36 60 50 62 71 63 38 64 22 65 23 66
REMARK SMILES IDX 31 67 24 68 26 69 32 70 25 71 27 72 28 73 29 74 30 75 54 76
REMARK SMILES IDX 55 77 63 78 56 79 58 80 64 81 57 82 59 83 60 84 61 85 62 86
REMARK SMILES IDX 39 87 40 88 48 89 41 90 43 91 49 92 42 93 44 94 45 95 46 96
REMARK SMILES IDX 47 97
REMARK H PARENT 6 5 10 31 69 50 37 61
REMARK Flexibility Score: inf
ROOT
ATOM      1  C   UNL A   1      31.372  30.538  25.764  1.00  0.00     0.117 C 
ENDROOT
BRANCH   1   2
ATOM      2  N   UNL A   1      32.338  29.629  26.370  1.00  0.00    -0.354 N 
ATOM      3  C   UNL A   1      32.444  28.265  26.361  1.00  0.00     0.243 C 
ATOM      4  O   UNL A   1      33.378  27.777  27.007  1.00  0.00    -0.273 OA
ATOM      5  H   UNL A   1      33.046  30.081  26.883  1.00  0.00     0.163 HD
BRANCH   3   6
ATOM      6  C   UNL A   1      31.472  27.368  25.550  1.00  0.00     0.181 C 
BRANCH   6   7
ATOM      7  C   UNL A   1      30.914  26.170  26.336  1.00  0.00     0.032 C 
ATOM      8  C   UNL A   1      29.572  25.598  25.928  1.00  0.00     0.006 C 
ENDBRANCH   6   7
BRANCH   6   9
ATOM      9  N   UNL A   1      32.211  26.972  24.294  1.00  0.00    -0.280 N 
ATOM     10  C   UNL A   1      32.838  25.727  24.321  1.00  0.00     0.266 C 
ATOM     11  C   UNL A   1      32.251  27.612  23.066  1.00  0.00     0.149 C 
ATOM     12  O   UNL A   1      32.918  24.997  25.300  1.00  0.00    -0.268 OA
ATOM     13  C   UNL A   1      33.411  25.391  22.982  1.00  0.00     0.081 C 
ATOM     14  S   UNL A   1      33.387  26.789  21.992  1.00  0.00    -0.054 SA
ATOM     15  S   UNL A   1      31.469  28.963  22.476  1.00  0.00    -0.052 S 
ATOM     16  C   UNL A   1      33.812  24.206  22.501  1.00  0.00     0.029 C 
BRANCH  16  17
ATOM     17  C   UNL A   1      33.653  22.934  23.197  1.00  0.00    -0.024 A 
ATOM     18  C   UNL A   1      32.414  22.292  23.230  1.00  0.00     0.009 A 
ATOM     19  C   UNL A   1      34.756  22.360  23.840  1.00  0.00     0.009 A 
ATOM     20  C   UNL A   1      32.293  21.049  23.857  1.00  0.00     0.016 A 
ATOM     21  C   UNL A   1      34.636  21.120  24.466  1.00  0.00     0.016 A 
ATOM     22  C   UNL A   1      33.408  20.448  24.458  1.00  0.00     0.060 A 
BRANCH  22  23
ATOM     23  C   UNL A   1      33.251  19.090  25.040  1.00  0.00     0.337 C 
ATOM     24  O   UNL A   1      32.354  18.780  25.811  1.00  0.00    -0.246 OA
BRANCH  23  25
ATOM     25  O   UNL A   1      34.211  18.261  24.563  1.00  0.00    -0.465 OA
ATOM     26  C   UNL A   1      33.794  17.443  23.472  1.00  0.00     0.282 C 
ENDBRANCH  23  25
ENDBRANCH  22  23
ENDBRANCH  16  17
ENDBRANCH   6   9
ENDBRANCH   3   6
ENDBRANCH   1   2
BRANCH   1  27
ATOM     27  C   UNL A   1      31.341  31.883  26.492  1.00  0.00     0.042 C 
BRANCH  27  28
ATOM     28  C   UNL A   1      32.664  32.300  27.121  1.00  0.00     0.118 C 
BRANCH  28  29
ATOM     29  N   UNL A   1      32.675  33.692  27.538  1.00  0.00    -0.352 N 
ATOM     30  C   UNL A   1      33.477  34.338  28.452  1.00  0.00     0.251 C 
ATOM     31  H   UNL A   1      32.005  34.263  27.098  1.00  0.00     0.163 HD
ATOM     32  O   UNL A   1      33.191  35.486  28.784  1.00  0.00    -0.269 OA
BRANCH  30  33
ATOM     33  C   UNL A   1      34.660  33.672  29.056  1.00  0.00     0.039 A 
ATOM     34  C   UNL A   1      34.453  32.690  30.032  1.00  0.00     0.014 A 
ATOM     35  C   UNL A   1      35.967  34.029  28.713  1.00  0.00     0.014 A 
ATOM     36  C   UNL A   1      35.545  32.036  30.615  1.00  0.00     0.010 A 
ATOM     37  C   UNL A   1      37.048  33.311  29.223  1.00  0.00     0.010 A 
ATOM     38  C   UNL A   1      36.855  32.318  30.194  1.00  0.00    -0.014 A 
BRANCH  38  39
ATOM     39  C   UNL A   1      38.025  31.596  30.766  1.00  0.00     0.031 A 
ATOM     40  C   UNL A   1      38.591  31.992  32.105  1.00  0.00     0.074 A 
ATOM     41  C   UNL A   1      38.632  30.629  30.047  1.00  0.00     0.049 A 
ATOM     42  N   UNL A   1      39.627  31.506  32.741  1.00  0.00    -0.248 NA
ATOM     43  C   UNL A   1      37.926  33.099  32.811  1.00  0.00     0.031 C 
ATOM     44  C   UNL A   1      38.238  30.202  28.704  1.00  0.00     0.029 A 
ATOM     45  N   UNL A   1      39.726  29.849  30.336  1.00  0.00    -0.354 N 
ATOM     46  C   UNL A   1      39.761  32.270  33.894  1.00  0.00     0.074 A 
ATOM     47  C   UNL A   1      38.724  33.277  33.853  1.00  0.00     0.031 C 
ATOM     48  C   UNL A   1      39.071  29.235  28.287  1.00  0.00     0.029 A 
ATOM     49  C   UNL A   1      40.079  28.997  29.315  1.00  0.00     0.049 A 
ATOM     50  H   UNL A   1      40.210  29.896  31.191  1.00  0.00     0.167 HD
ATOM     51  C   UNL A   1      40.647  32.136  34.910  1.00  0.00     0.034 A 
ATOM     52  C   UNL A   1      41.104  28.128  29.209  1.00  0.00     0.034 A 
ATOM     53  C   UNL A   1      41.656  31.111  34.968  1.00  0.00     0.049 A 
ATOM     54  C   UNL A   1      42.055  27.967  30.365  1.00  0.00     0.074 A 
ATOM     55  C   UNL A   1      42.536  30.828  35.998  1.00  0.00     0.029 A 
ATOM     56  N   UNL A   1      41.933  30.214  33.948  1.00  0.00    -0.354 N 
ATOM     57  N   UNL A   1      42.063  28.591  31.517  1.00  0.00    -0.248 NA
ATOM     58  C   UNL A   1      43.112  26.958  30.220  1.00  0.00     0.031 C 
ATOM     59  C   UNL A   1      43.373  29.787  35.584  1.00  0.00     0.029 A 
ATOM     60  C   UNL A   1      42.984  29.389  34.315  1.00  0.00     0.049 A 
ATOM     61  H   UNL A   1      41.454  30.170  33.090  1.00  0.00     0.167 HD
ATOM     62  C   UNL A   1      43.103  28.028  32.248  1.00  0.00     0.074 A 
ATOM     63  C   UNL A   1      43.689  26.999  31.414  1.00  0.00     0.031 C 
ATOM     64  C   UNL A   1      43.537  28.341  33.494  1.00  0.00     0.034 A 
BRANCH  51  65
ATOM     65  C   UNL A   1      40.543  33.104  36.063  1.00  0.00     0.023 A 
ATOM     66  C   UNL A   1      41.228  34.336  36.010  1.00  0.00     0.012 A 
ATOM     67  C   UNL A   1      39.738  32.812  37.182  1.00  0.00     0.148 A 
ATOM     68  C   UNL A   1      41.155  35.237  37.072  1.00  0.00     0.002 A 
ATOM     69  C   UNL A   1      39.629  33.738  38.213  1.00  0.00     0.091 A 
ATOM     70  F   UNL A   1      39.107  31.629  37.226  1.00  0.00    -0.205 F 
ATOM     71  C   UNL A   1      40.349  34.943  38.168  1.00  0.00     0.022 A 
BRANCH  69  72
ATOM     72  S   UNL A   1      38.549  33.489  39.627  1.00  0.00     0.127 S 
ATOM     73  O   UNL A   1      38.670  34.772  40.319  1.00  0.00    -0.237 OA
ATOM     74  O   UNL A   1      37.252  33.261  38.987  1.00  0.00    -0.237 OA
ATOM     75  O   UNL A   1      39.083  32.339  40.342  1.00  0.00    -0.744 OA
ENDBRANCH  69  72
ENDBRANCH  51  65
BRANCH  52  76
ATOM     76  C   UNL A   1      41.247  27.304  27.975  1.00  0.00     0.023 A 
ATOM     77  C   UNL A   1      41.817  27.875  26.820  1.00  0.00     0.012 A 
ATOM     78  C   UNL A   1      40.868  25.948  27.957  1.00  0.00     0.148 A 
ATOM     79  C   UNL A   1      41.986  27.114  25.662  1.00  0.00     0.002 A 
ATOM     80  C   UNL A   1      41.091  25.182  26.820  1.00  0.00     0.091 A 
ATOM     81  F   UNL A   1      40.321  25.429  29.065  1.00  0.00    -0.205 F 
ATOM     82  C   UNL A   1      41.634  25.767  25.665  1.00  0.00     0.022 A 
BRANCH  80  83
ATOM     83  S   UNL A   1      40.800  23.410  26.775  1.00  0.00     0.127 S 
ATOM     84  O   UNL A   1      39.364  23.350  26.516  1.00  0.00    -0.237 OA
ATOM     85  O   UNL A   1      41.648  22.997  25.657  1.00  0.00    -0.237 OA
ATOM     86  O   UNL A   1      41.228  22.905  28.073  1.00  0.00    -0.744 OA
ENDBRANCH  80  83
ENDBRANCH  52  76
BRANCH  64  87
ATOM     87  C   UNL A   1      44.681  27.540  34.061  1.00  0.00     0.023 A 
ATOM     88  C   UNL A   1      46.011  27.914  33.785  1.00  0.00     0.012 A 
ATOM     89  C   UNL A   1      44.435  26.460  34.932  1.00  0.00     0.148 A 
ATOM     90  C   UNL A   1      47.076  27.205  34.338  1.00  0.00     0.002 A 
ATOM     91  C   UNL A   1      45.500  25.792  35.522  1.00  0.00     0.091 A 
ATOM     92  F   UNL A   1      43.163  26.108  35.170  1.00  0.00    -0.205 F 
ATOM     93  C   UNL A   1      46.821  26.153  35.215  1.00  0.00     0.022 A 
BRANCH  91  94
ATOM     94  S   UNL A   1      45.268  24.491  36.740  1.00  0.00     0.127 S 
ATOM     95  O   UNL A   1      44.058  24.939  37.426  1.00  0.00    -0.237 OA
ATOM     96  O   UNL A   1      45.090  23.307  35.899  1.00  0.00    -0.237 OA
ATOM     97  O   UNL A   1      46.477  24.479  37.552  1.00  0.00    -0.744 OA
ENDBRANCH  91  94
ENDBRANCH  64  87
ENDBRANCH  38  39
ENDBRANCH  30  33
ENDBRANCH  28  29
ENDBRANCH  27  28
ENDBRANCH   1  27
TORSDOF 18
ENDMDL
