MODEL 1
REMARK VINA RESULT:     -13.1      0.000      0.000
REMARK SMILES Cc1ccc(NC(=O)N2CCCC[C@@H]2C(=O)NCCCNC(=O)c2ccc(-c3c4nc(c(-c5cccc(S(=O)(=O)[O-])c5F)c5ccc([nH]5)c(-c5cccc(S(=O)(=O)[O-])c5F)c5nc(c(-c6cccc(S(=O)(=O)[O-])c6F)c6ccc3[nH]6)C=C5)C=C4)cc2)cc1
REMARK SMILES IDX 19 1 18 2 17 3 15 4 16 5 14 7 9 8 10 9 11 10 13 11 12 12
REMARK SMILES IDX 7 13 6 14 8 16 5 17 1 18 2 19 3 20 88 21 4 22 87 23 20 24
REMARK SMILES IDX 21 25 22 26 23 28 24 29 25 30 86 31 26 32 85 33 27 34 28 35
REMARK SMILES IDX 29 36 79 37 30 38 84 39 78 40 80 41 31 42 83 43 77 44 76 45
REMARK SMILES IDX 32 47 64 48 44 49 63 50 45 51 48 52 62 53 81 54 46 55 47 56
REMARK SMILES IDX 61 58 82 59 49 60 33 61 34 62 42 63 35 64 37 65 43 66 36 67
REMARK SMILES IDX 38 68 39 69 40 70 41 71 65 72 66 73 74 74 67 75 69 76 75 77
REMARK SMILES IDX 68 78 70 79 71 80 72 81 73 82 50 83 51 84 59 85 52 86 54 87
REMARK SMILES IDX 60 88 53 89 55 90 56 91 57 92 58 93
REMARK H PARENT 17 6 6 15 21 27 80 46 48 57
REMARK Flexibility Score: inf
ROOT
ATOM      1  C   UNL A   1      32.633  30.641  26.460  1.00  0.00     0.042 C 
ENDROOT
BRANCH   1   2
ATOM      2  C   UNL A   1      32.368  29.480  25.515  1.00  0.00     0.117 C 
BRANCH   2   3
ATOM      3  N   UNL A   1      33.230  29.540  24.343  1.00  0.00    -0.354 N 
ATOM      4  C   UNL A   1      33.958  28.562  23.730  1.00  0.00     0.242 C 
ATOM      5  O   UNL A   1      34.839  28.923  22.941  1.00  0.00    -0.273 OA
ATOM      6  H   UNL A   1      33.298  30.429  23.927  1.00  0.00     0.163 HD
BRANCH   4   7
ATOM      7  C   UNL A   1      33.826  27.064  24.112  1.00  0.00     0.176 C 
ATOM      8  N   UNL A   1      32.720  26.344  23.423  1.00  0.00    -0.313 N 
ATOM      9  C   UNL A   1      32.128  25.178  24.068  1.00  0.00     0.122 C 
ATOM     10  C   UNL A   1      31.994  25.285  25.575  1.00  0.00     0.022 C 
ATOM     11  C   UNL A   1      33.769  26.999  25.651  1.00  0.00     0.035 C 
ATOM     12  C   UNL A   1      33.330  25.653  26.193  1.00  0.00     0.004 C 
BRANCH   8  13
ATOM     13  C   UNL A   1      32.390  26.509  22.082  1.00  0.00     0.322 C 
ATOM     14  N   UNL A   1      31.141  26.916  21.733  1.00  0.00    -0.308 N 
ATOM     15  H   UNL A   1      30.732  26.431  20.980  1.00  0.00     0.171 HD
ATOM     16  O   UNL A   1      33.181  26.203  21.186  1.00  0.00    -0.248 OA
BRANCH  14  17
ATOM     17  C   UNL A   1      30.351  27.932  22.295  1.00  0.00     0.042 A 
ATOM     18  C   UNL A   1      27.632  31.070  23.375  1.00  0.00     0.044 C 
ATOM     19  C   UNL A   1      28.649  30.001  23.118  1.00  0.00    -0.051 A 
ATOM     20  C   UNL A   1      28.382  28.679  23.485  1.00  0.00     0.005 A 
ATOM     21  C   UNL A   1      29.825  30.287  22.413  1.00  0.00     0.005 A 
ATOM     22  C   UNL A   1      29.249  27.657  23.107  1.00  0.00     0.026 A 
ATOM     23  C   UNL A   1      30.681  29.257  22.015  1.00  0.00     0.026 A 
ENDBRANCH  14  17
ENDBRANCH   8  13
ENDBRANCH   4   7
ENDBRANCH   2   3
ENDBRANCH   1   2
BRANCH   1  24
ATOM     24  C   UNL A   1      33.485  30.250  27.645  1.00  0.00     0.118 C 
BRANCH  24  25
ATOM     25  N   UNL A   1      34.269  31.352  28.165  1.00  0.00    -0.352 N 
ATOM     26  C   UNL A   1      35.420  31.304  28.929  1.00  0.00     0.251 C 
ATOM     27  H   UNL A   1      33.939  32.253  27.945  1.00  0.00     0.163 HD
ATOM     28  O   UNL A   1      35.749  32.297  29.572  1.00  0.00    -0.269 OA
BRANCH  26  29
ATOM     29  C   UNL A   1      36.324  30.134  28.792  1.00  0.00     0.039 A 
ATOM     30  C   UNL A   1      36.590  29.424  29.969  1.00  0.00     0.014 A 
ATOM     31  C   UNL A   1      37.160  29.995  27.691  1.00  0.00     0.014 A 
ATOM     32  C   UNL A   1      37.835  28.834  30.145  1.00  0.00     0.010 A 
ATOM     33  C   UNL A   1      38.435  29.539  27.904  1.00  0.00     0.010 A 
ATOM     34  C   UNL A   1      38.787  29.022  29.155  1.00  0.00    -0.014 A 
BRANCH  34  35
ATOM     35  C   UNL A   1      40.172  28.615  29.240  1.00  0.00     0.031 A 
ATOM     36  C   UNL A   1      40.485  27.205  28.966  1.00  0.00     0.074 A 
ATOM     37  C   UNL A   1      41.123  29.575  29.247  1.00  0.00     0.049 A 
ATOM     38  N   UNL A   1      41.641  26.671  29.133  1.00  0.00    -0.248 NA
ATOM     39  C   UNL A   1      39.471  26.268  28.495  1.00  0.00     0.031 C 
ATOM     40  C   UNL A   1      42.502  29.445  28.800  1.00  0.00     0.029 A 
ATOM     41  N   UNL A   1      41.074  30.834  29.855  1.00  0.00    -0.354 N 
ATOM     42  C   UNL A   1      41.610  25.433  28.526  1.00  0.00     0.074 A 
ATOM     43  C   UNL A   1      40.217  25.191  28.243  1.00  0.00     0.031 C 
ATOM     44  C   UNL A   1      43.231  30.418  29.367  1.00  0.00     0.029 A 
ATOM     45  C   UNL A   1      42.373  31.073  30.339  1.00  0.00     0.049 A 
ATOM     46  H   UNL A   1      40.293  31.429  29.928  1.00  0.00     0.167 HD
ATOM     47  C   UNL A   1      42.795  24.843  28.206  1.00  0.00     0.034 A 
ATOM     48  C   UNL A   1      42.668  31.223  31.664  1.00  0.00     0.034 A 
ATOM     49  C   UNL A   1      43.914  25.637  28.738  1.00  0.00     0.049 A 
ATOM     50  C   UNL A   1      43.646  30.179  32.178  1.00  0.00     0.074 A 
ATOM     51  C   UNL A   1      44.763  26.577  28.176  1.00  0.00     0.029 A 
ATOM     52  N   UNL A   1      44.071  25.742  30.115  1.00  0.00    -0.354 N 
ATOM     53  N   UNL A   1      44.044  29.142  31.492  1.00  0.00    -0.248 NA
ATOM     54  C   UNL A   1      44.247  30.213  33.507  1.00  0.00     0.031 C 
ATOM     55  C   UNL A   1      45.376  27.303  29.236  1.00  0.00     0.029 A 
ATOM     56  C   UNL A   1      44.929  26.783  30.439  1.00  0.00     0.049 A 
ATOM     57  H   UNL A   1      43.631  25.157  30.773  1.00  0.00     0.167 HD
ATOM     58  C   UNL A   1      44.827  28.325  32.268  1.00  0.00     0.074 A 
ATOM     59  C   UNL A   1      44.984  29.087  33.497  1.00  0.00     0.031 C 
ATOM     60  C   UNL A   1      45.220  27.080  31.840  1.00  0.00     0.034 A 
BRANCH  47  61
ATOM     61  C   UNL A   1      42.997  23.716  27.200  1.00  0.00     0.023 A 
ATOM     62  C   UNL A   1      43.647  24.054  25.991  1.00  0.00     0.012 A 
ATOM     63  C   UNL A   1      42.551  22.376  27.297  1.00  0.00     0.148 A 
ATOM     64  C   UNL A   1      43.773  23.160  24.921  1.00  0.00     0.002 A 
ATOM     65  C   UNL A   1      42.640  21.490  26.217  1.00  0.00     0.091 A 
ATOM     66  F   UNL A   1      42.088  21.904  28.451  1.00  0.00    -0.205 F 
ATOM     67  C   UNL A   1      43.246  21.883  25.023  1.00  0.00     0.022 A 
BRANCH  65  68
ATOM     68  S   UNL A   1      41.949  19.824  26.264  1.00  0.00     0.127 S 
ATOM     69  O   UNL A   1      40.511  20.086  26.172  1.00  0.00    -0.237 OA
ATOM     70  O   UNL A   1      42.530  19.208  25.073  1.00  0.00    -0.237 OA
ATOM     71  O   UNL A   1      42.367  19.238  27.532  1.00  0.00    -0.744 OA
ENDBRANCH  65  68
ENDBRANCH  47  61
BRANCH  48  72
ATOM     72  C   UNL A   1      41.572  31.870  32.443  1.00  0.00     0.023 A 
ATOM     73  C   UNL A   1      41.226  33.189  32.059  1.00  0.00     0.012 A 
ATOM     74  C   UNL A   1      40.636  31.103  33.159  1.00  0.00     0.148 A 
ATOM     75  C   UNL A   1      39.930  33.672  32.241  1.00  0.00     0.002 A 
ATOM     76  C   UNL A   1      39.340  31.590  33.330  1.00  0.00     0.091 A 
ATOM     77  F   UNL A   1      40.991  29.876  33.560  1.00  0.00    -0.205 F 
ATOM     78  C   UNL A   1      38.977  32.855  32.836  1.00  0.00     0.022 A 
BRANCH  76  79
ATOM     79  S   UNL A   1      38.021  30.585  34.025  1.00  0.00     0.127 S 
ATOM     80  O   UNL A   1      36.836  31.338  33.625  1.00  0.00    -0.237 OA
ATOM     81  O   UNL A   1      38.205  29.314  33.329  1.00  0.00    -0.237 OA
ATOM     82  O   UNL A   1      38.294  30.533  35.453  1.00  0.00    -0.744 OA
ENDBRANCH  76  79
ENDBRANCH  48  72
BRANCH  60  83
ATOM     83  C   UNL A   1      45.889  25.994  32.682  1.00  0.00     0.023 A 
ATOM     84  C   UNL A   1      47.284  25.874  32.812  1.00  0.00     0.012 A 
ATOM     85  C   UNL A   1      45.111  25.122  33.497  1.00  0.00     0.148 A 
ATOM     86  C   UNL A   1      47.878  24.934  33.666  1.00  0.00     0.002 A 
ATOM     87  C   UNL A   1      45.704  24.280  34.435  1.00  0.00     0.091 A 
ATOM     88  F   UNL A   1      43.780  25.072  33.354  1.00  0.00    -0.205 F 
ATOM     89  C   UNL A   1      47.090  24.159  34.502  1.00  0.00     0.022 A 
BRANCH  87  90
ATOM     90  S   UNL A   1      44.715  23.460  35.697  1.00  0.00     0.127 S 
ATOM     91  O   UNL A   1      45.735  22.765  36.479  1.00  0.00    -0.237 OA
ATOM     92  O   UNL A   1      44.086  24.590  36.385  1.00  0.00    -0.237 OA
ATOM     93  O   UNL A   1      43.784  22.622  34.957  1.00  0.00    -0.744 OA
ENDBRANCH  87  90
ENDBRANCH  60  83
ENDBRANCH  34  35
ENDBRANCH  26  29
ENDBRANCH  24  25
ENDBRANCH   1  24
TORSDOF 15
ENDMDL
MODEL 2
REMARK VINA RESULT:     -13.0      1.893      3.435
REMARK SMILES Cc1ccc(NC(=O)N2CCCC[C@@H]2C(=O)NCCCNC(=O)c2ccc(-c3c4nc(c(-c5cccc(S(=O)(=O)[O-])c5F)c5ccc([nH]5)c(-c5cccc(S(=O)(=O)[O-])c5F)c5nc(c(-c6cccc(S(=O)(=O)[O-])c6F)c6ccc3[nH]6)C=C5)C=C4)cc2)cc1
REMARK SMILES IDX 19 1 18 2 17 3 15 4 16 5 14 7 9 8 10 9 11 10 13 11 12 12
REMARK SMILES IDX 7 13 6 14 8 16 5 17 1 18 2 19 3 20 88 21 4 22 87 23 20 24
REMARK SMILES IDX 21 25 22 26 23 28 24 29 25 30 86 31 26 32 85 33 27 34 28 35
REMARK SMILES IDX 29 36 79 37 30 38 84 39 78 40 80 41 31 42 83 43 77 44 76 45
REMARK SMILES IDX 32 47 64 48 44 49 63 50 45 51 48 52 62 53 81 54 46 55 47 56
REMARK SMILES IDX 61 58 82 59 49 60 33 61 34 62 42 63 35 64 37 65 43 66 36 67
REMARK SMILES IDX 38 68 39 69 40 70 41 71 65 72 66 73 74 74 67 75 69 76 75 77
REMARK SMILES IDX 68 78 70 79 71 80 72 81 73 82 50 83 51 84 59 85 52 86 54 87
REMARK SMILES IDX 60 88 53 89 55 90 56 91 57 92 58 93
REMARK H PARENT 17 6 6 15 21 27 80 46 48 57
REMARK Flexibility Score: inf
ROOT
ATOM      1  C   UNL A   1      33.589  29.341  26.053  1.00  0.00     0.042 C 
ENDROOT
BRANCH   1   2
ATOM      2  C   UNL A   1      33.218  27.868  26.003  1.00  0.00     0.117 C 
BRANCH   2   3
ATOM      3  N   UNL A   1      31.925  27.666  25.367  1.00  0.00    -0.354 N 
ATOM      4  C   UNL A   1      31.257  26.514  25.064  1.00  0.00     0.242 C 
ATOM      5  O   UNL A   1      30.323  26.597  24.259  1.00  0.00    -0.273 OA
ATOM      6  H   UNL A   1      31.455  28.494  25.115  1.00  0.00     0.163 HD
BRANCH   4   7
ATOM      7  C   UNL A   1      31.735  25.123  25.556  1.00  0.00     0.176 C 
ATOM      8  N   UNL A   1      32.157  24.194  24.471  1.00  0.00    -0.313 N 
ATOM      9  C   UNL A   1      32.071  22.756  24.700  1.00  0.00     0.122 C 
ATOM     10  C   UNL A   1      30.861  22.313  25.501  1.00  0.00     0.022 C 
ATOM     11  C   UNL A   1      30.628  24.569  26.475  1.00  0.00     0.035 C 
ATOM     12  C   UNL A   1      30.778  23.095  26.798  1.00  0.00     0.004 C 
BRANCH   8  13
ATOM     13  C   UNL A   1      32.903  24.571  23.359  1.00  0.00     0.322 C 
ATOM     14  N   UNL A   1      34.237  24.802  23.479  1.00  0.00    -0.308 N 
ATOM     15  H   UNL A   1      34.571  25.605  23.019  1.00  0.00     0.171 HD
ATOM     16  O   UNL A   1      32.363  24.795  22.273  1.00  0.00    -0.248 OA
BRANCH  14  17
ATOM     17  C   UNL A   1      35.207  24.055  24.168  1.00  0.00     0.042 A 
ATOM     18  C   UNL A   1      38.638  22.159  25.911  1.00  0.00     0.044 C 
ATOM     19  C   UNL A   1      37.362  22.718  25.358  1.00  0.00    -0.051 A 
ATOM     20  C   UNL A   1      36.671  23.707  26.063  1.00  0.00     0.005 A 
ATOM     21  C   UNL A   1      36.907  22.341  24.089  1.00  0.00     0.005 A 
ATOM     22  C   UNL A   1      35.576  24.344  25.483  1.00  0.00     0.026 A 
ATOM     23  C   UNL A   1      35.823  22.997  23.501  1.00  0.00     0.026 A 
ENDBRANCH  14  17
ENDBRANCH   8  13
ENDBRANCH   4   7
ENDBRANCH   2   3
ENDBRANCH   1   2
BRANCH   1  24
ATOM     24  C   UNL A   1      33.320  29.969  27.401  1.00  0.00     0.118 C 
BRANCH  24  25
ATOM     25  N   UNL A   1      34.154  31.125  27.662  1.00  0.00    -0.352 N 
ATOM     26  C   UNL A   1      35.334  31.190  28.378  1.00  0.00     0.251 C 
ATOM     27  H   UNL A   1      33.839  31.974  27.278  1.00  0.00     0.163 HD
ATOM     28  O   UNL A   1      35.716  32.279  28.798  1.00  0.00    -0.269 OA
BRANCH  26  29
ATOM     29  C   UNL A   1      36.200  29.986  28.446  1.00  0.00     0.039 A 
ATOM     30  C   UNL A   1      36.498  29.516  29.731  1.00  0.00     0.014 A 
ATOM     31  C   UNL A   1      36.983  29.600  27.365  1.00  0.00     0.014 A 
ATOM     32  C   UNL A   1      37.735  28.931  29.975  1.00  0.00     0.010 A 
ATOM     33  C   UNL A   1      38.254  29.152  27.617  1.00  0.00     0.010 A 
ATOM     34  C   UNL A   1      38.647  28.884  28.932  1.00  0.00    -0.014 A 
BRANCH  34  35
ATOM     35  C   UNL A   1      40.023  28.455  29.045  1.00  0.00     0.031 A 
ATOM     36  C   UNL A   1      40.307  27.024  28.859  1.00  0.00     0.074 A 
ATOM     37  C   UNL A   1      40.993  29.393  28.996  1.00  0.00     0.049 A 
ATOM     38  N   UNL A   1      41.451  26.478  29.061  1.00  0.00    -0.248 NA
ATOM     39  C   UNL A   1      39.274  26.082  28.444  1.00  0.00     0.031 C 
ATOM     40  C   UNL A   1      42.370  29.209  28.561  1.00  0.00     0.029 A 
ATOM     41  N   UNL A   1      40.969  30.688  29.525  1.00  0.00    -0.354 N 
ATOM     42  C   UNL A   1      41.395  25.206  28.530  1.00  0.00     0.074 A 
ATOM     43  C   UNL A   1      39.999  24.976  28.260  1.00  0.00     0.031 C 
ATOM     44  C   UNL A   1      43.118  30.199  29.069  1.00  0.00     0.029 A 
ATOM     45  C   UNL A   1      42.272  30.929  29.997  1.00  0.00     0.049 A 
ATOM     46  H   UNL A   1      40.201  31.302  29.560  1.00  0.00     0.167 HD
ATOM     47  C   UNL A   1      42.569  24.573  28.250  1.00  0.00     0.034 A 
ATOM     48  C   UNL A   1      42.569  31.155  31.312  1.00  0.00     0.034 A 
ATOM     49  C   UNL A   1      43.703  25.376  28.736  1.00  0.00     0.049 A 
ATOM     50  C   UNL A   1      43.525  30.124  31.890  1.00  0.00     0.074 A 
ATOM     51  C   UNL A   1      44.572  26.261  28.119  1.00  0.00     0.029 A 
ATOM     52  N   UNL A   1      43.860  25.562  30.104  1.00  0.00    -0.354 N 
ATOM     53  N   UNL A   1      43.903  29.039  31.270  1.00  0.00    -0.248 NA
ATOM     54  C   UNL A   1      44.125  30.227  33.216  1.00  0.00     0.031 C 
ATOM     55  C   UNL A   1      45.199  27.039  29.134  1.00  0.00     0.029 A 
ATOM     56  C   UNL A   1      44.739  26.603  30.365  1.00  0.00     0.049 A 
ATOM     57  H   UNL A   1      43.408  25.027  30.795  1.00  0.00     0.167 HD
ATOM     58  C   UNL A   1      44.667  28.255  32.097  1.00  0.00     0.074 A 
ATOM     59  C   UNL A   1      44.839  29.087  33.277  1.00  0.00     0.031 C 
ATOM     60  C   UNL A   1      45.035  26.979  31.747  1.00  0.00     0.034 A 
BRANCH  47  61
ATOM     61  C   UNL A   1      42.748  23.384  27.315  1.00  0.00     0.023 A 
ATOM     62  C   UNL A   1      41.981  22.231  27.600  1.00  0.00     0.012 A 
ATOM     63  C   UNL A   1      43.645  23.264  26.226  1.00  0.00     0.148 A 
ATOM     64  C   UNL A   1      42.146  21.021  26.916  1.00  0.00     0.002 A 
ATOM     65  C   UNL A   1      43.842  22.046  25.565  1.00  0.00     0.091 A 
ATOM     66  F   UNL A   1      44.284  24.334  25.761  1.00  0.00    -0.205 F 
ATOM     67  C   UNL A   1      43.097  20.919  25.913  1.00  0.00     0.022 A 
BRANCH  65  68
ATOM     68  S   UNL A   1      45.082  21.829  24.273  1.00  0.00     0.127 S 
ATOM     69  O   UNL A   1      46.330  22.063  25.003  1.00  0.00    -0.237 OA
ATOM     70  O   UNL A   1      44.871  20.442  23.863  1.00  0.00    -0.237 OA
ATOM     71  O   UNL A   1      44.795  22.828  23.251  1.00  0.00    -0.744 OA
ENDBRANCH  65  68
ENDBRANCH  47  61
BRANCH  48  72
ATOM     72  C   UNL A   1      41.486  31.870  32.047  1.00  0.00     0.023 A 
ATOM     73  C   UNL A   1      41.131  33.148  31.548  1.00  0.00     0.012 A 
ATOM     74  C   UNL A   1      40.565  31.172  32.848  1.00  0.00     0.148 A 
ATOM     75  C   UNL A   1      39.837  33.645  31.708  1.00  0.00     0.002 A 
ATOM     76  C   UNL A   1      39.271  31.673  32.996  1.00  0.00     0.091 A 
ATOM     77  F   UNL A   1      40.929  29.988  33.354  1.00  0.00    -0.205 F 
ATOM     78  C   UNL A   1      38.896  32.886  32.394  1.00  0.00     0.022 A 
BRANCH  76  79
ATOM     79  S   UNL A   1      37.967  30.736  33.805  1.00  0.00     0.127 S 
ATOM     80  O   UNL A   1      36.769  31.361  33.251  1.00  0.00    -0.237 OA
ATOM     81  O   UNL A   1      38.226  29.378  33.331  1.00  0.00    -0.237 OA
ATOM     82  O   UNL A   1      38.188  30.927  35.230  1.00  0.00    -0.744 OA
ENDBRANCH  76  79
ENDBRANCH  48  72
BRANCH  60  83
ATOM     83  C   UNL A   1      45.680  25.932  32.654  1.00  0.00     0.023 A 
ATOM     84  C   UNL A   1      47.072  25.816  32.823  1.00  0.00     0.012 A 
ATOM     85  C   UNL A   1      44.881  25.103  33.493  1.00  0.00     0.148 A 
ATOM     86  C   UNL A   1      47.643  24.916  33.734  1.00  0.00     0.002 A 
ATOM     87  C   UNL A   1      45.449  24.306  34.484  1.00  0.00     0.091 A 
ATOM     88  F   UNL A   1      43.553  25.050  33.322  1.00  0.00    -0.205 F 
ATOM     89  C   UNL A   1      46.833  24.185  34.589  1.00  0.00     0.022 A 
BRANCH  87  90
ATOM     90  S   UNL A   1      44.429  23.551  35.761  1.00  0.00     0.127 S 
ATOM     91  O   UNL A   1      43.899  24.719  36.459  1.00  0.00    -0.237 OA
ATOM     92  O   UNL A   1      43.440  22.811  34.974  1.00  0.00    -0.237 OA
ATOM     93  O   UNL A   1      45.341  22.703  36.516  1.00  0.00    -0.744 OA
ENDBRANCH  87  90
ENDBRANCH  60  83
ENDBRANCH  34  35
ENDBRANCH  26  29
ENDBRANCH  24  25
ENDBRANCH   1  24
TORSDOF 15
ENDMDL
MODEL 3
REMARK VINA RESULT:     -12.9      4.073      9.135
REMARK SMILES Cc1ccc(NC(=O)N2CCCC[C@@H]2C(=O)NCCCNC(=O)c2ccc(-c3c4nc(c(-c5cccc(S(=O)(=O)[O-])c5F)c5ccc([nH]5)c(-c5cccc(S(=O)(=O)[O-])c5F)c5nc(c(-c6cccc(S(=O)(=O)[O-])c6F)c6ccc3[nH]6)C=C5)C=C4)cc2)cc1
REMARK SMILES IDX 19 1 18 2 17 3 15 4 16 5 14 7 9 8 10 9 11 10 13 11 12 12
REMARK SMILES IDX 7 13 6 14 8 16 5 17 1 18 2 19 3 20 88 21 4 22 87 23 20 24
REMARK SMILES IDX 21 25 22 26 23 28 24 29 25 30 86 31 26 32 85 33 27 34 28 35
REMARK SMILES IDX 29 36 79 37 30 38 84 39 78 40 80 41 31 42 83 43 77 44 76 45
REMARK SMILES IDX 32 47 64 48 44 49 63 50 45 51 48 52 62 53 81 54 46 55 47 56
REMARK SMILES IDX 61 58 82 59 49 60 33 61 34 62 42 63 35 64 37 65 43 66 36 67
REMARK SMILES IDX 38 68 39 69 40 70 41 71 65 72 66 73 74 74 67 75 69 76 75 77
REMARK SMILES IDX 68 78 70 79 71 80 72 81 73 82 50 83 51 84 59 85 52 86 54 87
REMARK SMILES IDX 60 88 53 89 55 90 56 91 57 92 58 93
REMARK H PARENT 17 6 6 15 21 27 80 46 48 57
REMARK Flexibility Score: inf
ROOT
ATOM      1  C   UNL A   1      37.539  21.457  24.822  1.00  0.00     0.042 C 
ENDROOT
BRANCH   1   2
ATOM      2  C   UNL A   1      36.573  22.147  23.872  1.00  0.00     0.117 C 
BRANCH   2   3
ATOM      3  N   UNL A   1      36.202  23.468  24.356  1.00  0.00    -0.354 N 
ATOM      4  C   UNL A   1      35.056  23.901  24.959  1.00  0.00     0.242 C 
ATOM      5  O   UNL A   1      34.864  25.121  25.001  1.00  0.00    -0.273 OA
ATOM      6  H   UNL A   1      36.889  24.162  24.229  1.00  0.00     0.163 HD
BRANCH   4   7
ATOM      7  C   UNL A   1      33.944  22.925  25.426  1.00  0.00     0.176 C 
ATOM      8  N   UNL A   1      32.676  23.015  24.649  1.00  0.00    -0.313 N 
ATOM      9  C   UNL A   1      31.427  22.624  25.291  1.00  0.00     0.122 C 
ATOM     10  C   UNL A   1      31.319  23.002  26.755  1.00  0.00     0.022 C 
ATOM     11  C   UNL A   1      33.777  23.129  26.945  1.00  0.00     0.035 C 
ATOM     12  C   UNL A   1      32.527  22.490  27.517  1.00  0.00     0.004 C 
BRANCH   8  13
ATOM     13  C   UNL A   1      32.609  23.165  23.268  1.00  0.00     0.322 C 
ATOM     14  N   UNL A   1      31.698  24.011  22.718  1.00  0.00    -0.308 N 
ATOM     15  H   UNL A   1      31.217  23.663  21.933  1.00  0.00     0.171 HD
ATOM     16  O   UNL A   1      33.300  22.475  22.515  1.00  0.00    -0.248 OA
BRANCH  14  17
ATOM     17  C   UNL A   1      31.346  25.313  23.112  1.00  0.00     0.042 A 
ATOM     18  C   UNL A   1      30.137  29.396  23.631  1.00  0.00     0.044 C 
ATOM     19  C   UNL A   1      30.609  27.975  23.582  1.00  0.00    -0.051 A 
ATOM     20  C   UNL A   1      29.723  26.935  23.878  1.00  0.00     0.005 A 
ATOM     21  C   UNL A   1      31.898  27.664  23.135  1.00  0.00     0.005 A 
ATOM     22  C   UNL A   1      30.106  25.610  23.679  1.00  0.00     0.026 A 
ATOM     23  C   UNL A   1      32.272  26.336  22.914  1.00  0.00     0.026 A 
ENDBRANCH  14  17
ENDBRANCH   8  13
ENDBRANCH   4   7
ENDBRANCH   2   3
ENDBRANCH   1   2
BRANCH   1  24
ATOM     24  C   UNL A   1      37.883  22.303  26.027  1.00  0.00     0.118 C 
BRANCH  24  25
ATOM     25  N   UNL A   1      39.265  22.166  26.437  1.00  0.00    -0.352 N 
ATOM     26  C   UNL A   1      40.233  23.148  26.538  1.00  0.00     0.251 C 
ATOM     27  H   UNL A   1      39.553  21.255  26.674  1.00  0.00     0.163 HD
ATOM     28  O   UNL A   1      41.416  22.818  26.552  1.00  0.00    -0.269 OA
BRANCH  26  29
ATOM     29  C   UNL A   1      39.814  24.542  26.827  1.00  0.00     0.039 A 
ATOM     30  C   UNL A   1      40.523  25.547  26.158  1.00  0.00     0.014 A 
ATOM     31  C   UNL A   1      39.073  24.851  27.961  1.00  0.00     0.014 A 
ATOM     32  C   UNL A   1      40.740  26.766  26.788  1.00  0.00     0.010 A 
ATOM     33  C   UNL A   1      39.393  25.993  28.649  1.00  0.00     0.010 A 
ATOM     34  C   UNL A   1      40.281  26.915  28.087  1.00  0.00    -0.014 A 
BRANCH  34  35
ATOM     35  C   UNL A   1      40.550  28.049  28.943  1.00  0.00     0.031 A 
ATOM     36  C   UNL A   1      39.636  29.198  28.858  1.00  0.00     0.074 A 
ATOM     37  C   UNL A   1      41.403  27.884  29.977  1.00  0.00     0.049 A 
ATOM     38  N   UNL A   1      39.822  30.321  29.452  1.00  0.00    -0.248 NA
ATOM     39  C   UNL A   1      38.425  29.160  28.047  1.00  0.00     0.031 C 
ATOM     40  C   UNL A   1      41.426  28.635  31.223  1.00  0.00     0.029 A 
ATOM     41  N   UNL A   1      42.567  27.109  30.020  1.00  0.00    -0.354 N 
ATOM     42  C   UNL A   1      38.645  31.034  29.356  1.00  0.00     0.074 A 
ATOM     43  C   UNL A   1      37.854  30.317  28.388  1.00  0.00     0.031 C 
ATOM     44  C   UNL A   1      42.641  28.512  31.777  1.00  0.00     0.029 A 
ATOM     45  C   UNL A   1      43.481  27.839  30.802  1.00  0.00     0.049 A 
ATOM     46  H   UNL A   1      42.716  26.235  29.592  1.00  0.00     0.167 HD
ATOM     47  C   UNL A   1      38.440  32.058  30.229  1.00  0.00     0.034 A 
ATOM     48  C   UNL A   1      44.664  28.325  30.323  1.00  0.00     0.034 A 
ATOM     49  C   UNL A   1      39.650  32.283  31.036  1.00  0.00     0.049 A 
ATOM     50  C   UNL A   1      44.766  29.839  30.416  1.00  0.00     0.074 A 
ATOM     51  C   UNL A   1      40.028  31.890  32.309  1.00  0.00     0.029 A 
ATOM     52  N   UNL A   1      40.803  32.740  30.409  1.00  0.00    -0.354 N 
ATOM     53  N   UNL A   1      43.780  30.624  30.754  1.00  0.00    -0.248 NA
ATOM     54  C   UNL A   1      45.982  30.591  30.126  1.00  0.00     0.031 C 
ATOM     55  C   UNL A   1      41.440  32.044  32.415  1.00  0.00     0.029 A 
ATOM     56  C   UNL A   1      41.914  32.562  31.221  1.00  0.00     0.049 A 
ATOM     57  H   UNL A   1      40.829  33.136  29.508  1.00  0.00     0.167 HD
ATOM     58  C   UNL A   1      44.148  31.940  30.627  1.00  0.00     0.074 A 
ATOM     59  C   UNL A   1      45.565  31.858  30.305  1.00  0.00     0.031 C 
ATOM     60  C   UNL A   1      43.238  32.961  30.746  1.00  0.00     0.034 A 
BRANCH  47  61
ATOM     61  C   UNL A   1      37.098  32.693  30.571  1.00  0.00     0.023 A 
ATOM     62  C   UNL A   1      36.624  32.504  31.890  1.00  0.00     0.012 A 
ATOM     63  C   UNL A   1      36.227  33.400  29.707  1.00  0.00     0.148 A 
ATOM     64  C   UNL A   1      35.349  32.906  32.303  1.00  0.00     0.002 A 
ATOM     65  C   UNL A   1      34.936  33.769  30.103  1.00  0.00     0.091 A 
ATOM     66  F   UNL A   1      36.642  33.787  28.504  1.00  0.00    -0.205 F 
ATOM     67  C   UNL A   1      34.492  33.518  31.401  1.00  0.00     0.022 A 
BRANCH  65  68
ATOM     68  S   UNL A   1      33.755  34.539  28.978  1.00  0.00     0.127 S 
ATOM     69  O   UNL A   1      34.522  35.672  28.455  1.00  0.00    -0.237 OA
ATOM     70  O   UNL A   1      33.507  33.475  28.006  1.00  0.00    -0.237 OA
ATOM     71  O   UNL A   1      32.603  34.922  29.784  1.00  0.00    -0.744 OA
ENDBRANCH  65  68
ENDBRANCH  47  61
BRANCH  48  72
ATOM     72  C   UNL A   1      45.278  27.457  29.276  1.00  0.00     0.023 A 
ATOM     73  C   UNL A   1      45.696  26.171  29.696  1.00  0.00     0.012 A 
ATOM     74  C   UNL A   1      45.033  27.681  27.909  1.00  0.00     0.148 A 
ATOM     75  C   UNL A   1      45.713  25.097  28.806  1.00  0.00     0.002 A 
ATOM     76  C   UNL A   1      45.045  26.600  27.028  1.00  0.00     0.091 A 
ATOM     77  F   UNL A   1      44.687  28.913  27.517  1.00  0.00    -0.205 F 
ATOM     78  C   UNL A   1      45.344  25.305  27.482  1.00  0.00     0.022 A 
BRANCH  76  79
ATOM     79  S   UNL A   1      44.518  26.754  25.315  1.00  0.00     0.127 S 
ATOM     80  O   UNL A   1      45.795  26.938  24.631  1.00  0.00    -0.237 OA
ATOM     81  O   UNL A   1      43.874  25.464  25.076  1.00  0.00    -0.237 OA
ATOM     82  O   UNL A   1      43.611  27.891  25.296  1.00  0.00    -0.744 OA
ENDBRANCH  76  79
ENDBRANCH  48  72
BRANCH  60  83
ATOM     83  C   UNL A   1      43.466  34.433  30.405  1.00  0.00     0.023 A 
ATOM     84  C   UNL A   1      43.880  35.385  31.354  1.00  0.00     0.012 A 
ATOM     85  C   UNL A   1      43.401  34.888  29.057  1.00  0.00     0.148 A 
ATOM     86  C   UNL A   1      44.180  36.710  31.005  1.00  0.00     0.002 A 
ATOM     87  C   UNL A   1      43.822  36.166  28.698  1.00  0.00     0.091 A 
ATOM     88  F   UNL A   1      42.900  34.094  28.100  1.00  0.00    -0.205 F 
ATOM     89  C   UNL A   1      44.183  37.093  29.673  1.00  0.00     0.022 A 
BRANCH  87  90
ATOM     90  S   UNL A   1      44.078  36.604  26.970  1.00  0.00     0.127 S 
ATOM     91  O   UNL A   1      42.738  36.445  26.413  1.00  0.00    -0.237 OA
ATOM     92  O   UNL A   1      44.538  37.992  27.064  1.00  0.00    -0.237 OA
ATOM     93  O   UNL A   1      45.092  35.674  26.494  1.00  0.00    -0.744 OA
ENDBRANCH  87  90
ENDBRANCH  60  83
ENDBRANCH  34  35
ENDBRANCH  26  29
ENDBRANCH  24  25
ENDBRANCH   1  24
TORSDOF 15
ENDMDL
