MODEL 1
REMARK VINA RESULT:     -12.9      0.000      0.000
REMARK SMILES CC(C)Nc1ncc(C(=O)N2CCC[C@H](c3cccc(C(=O)NCCCNC(=O)c4ccc(-c5c6nc(c(-c7cccc(S(=O)(=O)[O-])c7F)c7ccc([nH]7)c(-c7cccc(S(=O)(=O)[O-])c7F)c7nc(c(-c8cccc(S(=O)(=O)[O-])c8F)c8ccc5[nH]8)C=C7)C=C6)cc4)c3)C2)cn1
REMARK SMILES IDX 24 1 23 2 21 3 22 4 20 6 16 7 17 8 93 9 18 10 19 11 15 12
REMARK SMILES IDX 11 13 12 14 94 15 13 16 14 17 9 18 10 19 8 20 5 21 6 22
REMARK SMILES IDX 96 23 7 24 95 25 4 26 2 28 1 29 3 30 25 31 26 32 27 33 28 34
REMARK SMILES IDX 29 36 30 37 31 38 92 39 32 40 91 41 33 42 34 43 35 44 85 45
REMARK SMILES IDX 36 46 90 47 84 48 86 49 37 50 89 51 83 52 82 53 38 55 70 56
REMARK SMILES IDX 50 57 69 58 51 59 54 60 68 61 87 62 52 63 53 64 67 66 88 67
REMARK SMILES IDX 55 68 39 69 40 70 48 71 41 72 43 73 49 74 42 75 44 76 45 77
REMARK SMILES IDX 46 78 47 79 71 80 72 81 80 82 73 83 75 84 81 85 74 86 76 87
REMARK SMILES IDX 77 88 78 89 79 90 56 91 57 92 65 93 58 94 60 95 66 96 59 97
REMARK SMILES IDX 61 98 62 99 63 100 64 101
REMARK H PARENT 23 5 4 27 27 35 86 54 54 65
REMARK Flexibility Score: inf
ROOT
ATOM      1  C   UNL A   1      36.090  19.838  24.733  1.00  0.00     0.118 C 
ENDROOT
BRANCH   1   2
ATOM      2  N   UNL A   1      34.936  18.993  25.021  1.00  0.00    -0.352 N 
ATOM      3  C   UNL A   1      33.577  19.104  24.828  1.00  0.00     0.251 C 
ATOM      4  O   UNL A   1      32.878  18.158  25.196  1.00  0.00    -0.269 OA
ATOM      5  H   UNL A   1      35.188  18.145  25.452  1.00  0.00     0.163 HD
BRANCH   3   6
ATOM      6  C   UNL A   1      32.907  20.310  24.266  1.00  0.00     0.040 A 
ATOM      7  C   UNL A   1      31.763  22.464  24.565  1.00  0.00    -0.042 A 
ATOM      8  C   UNL A   1      31.379  22.415  23.220  1.00  0.00     0.004 A 
ATOM      9  C   UNL A   1      32.623  21.449  25.015  1.00  0.00     0.018 A 
ATOM     10  C   UNL A   1      31.806  21.371  22.390  1.00  0.00     0.001 A 
ATOM     11  C   UNL A   1      32.532  20.304  22.920  1.00  0.00     0.014 A 
BRANCH   7  12
ATOM     12  C   UNL A   1      31.164  23.450  25.580  1.00  0.00     0.039 C 
ATOM     13  N   UNL A   1      31.863  25.649  24.667  1.00  0.00    -0.338 N 
ATOM     14  C   UNL A   1      32.852  25.864  25.720  1.00  0.00     0.120 C 
ATOM     15  C   UNL A   1      30.709  24.812  25.012  1.00  0.00     0.128 C 
ATOM     16  C   UNL A   1      33.280  24.569  26.400  1.00  0.00     0.022 C 
ATOM     17  C   UNL A   1      32.057  23.751  26.809  1.00  0.00     0.012 C 
BRANCH  13  18
ATOM     18  C   UNL A   1      32.089  26.193  23.410  1.00  0.00     0.257 C 
ATOM     19  O   UNL A   1      32.912  25.746  22.616  1.00  0.00    -0.269 OA
BRANCH  18  20
ATOM     20  C   UNL A   1      31.402  27.439  23.047  1.00  0.00     0.076 A 
ATOM     21  C   UNL A   1      30.194  29.667  22.065  1.00  0.00     0.222 A 
ATOM     22  N   UNL A   1      31.512  29.717  22.303  1.00  0.00    -0.221 NA
ATOM     23  N   UNL A   1      29.434  28.582  22.287  1.00  0.00    -0.221 NA
ATOM     24  C   UNL A   1      32.090  28.601  22.790  1.00  0.00     0.130 A 
ATOM     25  C   UNL A   1      30.063  27.476  22.750  1.00  0.00     0.130 A 
BRANCH  21  26
ATOM     26  N   UNL A   1      29.663  30.813  21.549  1.00  0.00    -0.352 N 
ATOM     27  H   UNL A   1      30.216  31.355  20.941  1.00  0.00     0.163 HD
BRANCH  26  28
ATOM     28  C   UNL A   1      28.329  31.268  21.854  1.00  0.00     0.076 C 
ATOM     29  C   UNL A   1      28.287  31.650  23.334  1.00  0.00     0.030 C 
ATOM     30  C   UNL A   1      27.982  32.469  20.978  1.00  0.00     0.030 C 
ENDBRANCH  26  28
ENDBRANCH  21  26
ENDBRANCH  18  20
ENDBRANCH  13  18
ENDBRANCH   7  12
ENDBRANCH   3   6
ENDBRANCH   1   2
BRANCH   1  31
ATOM     31  C   UNL A   1      35.938  21.282  25.178  1.00  0.00     0.042 C 
BRANCH  31  32
ATOM     32  C   UNL A   1      37.253  21.965  25.518  1.00  0.00     0.118 C 
BRANCH  32  33
ATOM     33  N   UNL A   1      38.271  21.024  25.976  1.00  0.00    -0.352 N 
ATOM     34  C   UNL A   1      39.553  21.219  26.427  1.00  0.00     0.251 C 
ATOM     35  H   UNL A   1      37.987  20.081  25.959  1.00  0.00     0.163 HD
ATOM     36  O   UNL A   1      40.299  20.247  26.530  1.00  0.00    -0.269 OA
BRANCH  34  37
ATOM     37  C   UNL A   1      40.042  22.566  26.792  1.00  0.00     0.039 A 
ATOM     38  C   UNL A   1      41.018  22.689  27.786  1.00  0.00     0.014 A 
ATOM     39  C   UNL A   1      39.506  23.714  26.205  1.00  0.00     0.014 A 
ATOM     40  C   UNL A   1      41.488  23.954  28.150  1.00  0.00     0.010 A 
ATOM     41  C   UNL A   1      40.051  24.961  26.486  1.00  0.00     0.010 A 
ATOM     42  C   UNL A   1      41.027  25.100  27.481  1.00  0.00    -0.014 A 
BRANCH  42  43
ATOM     43  C   UNL A   1      41.534  26.454  27.819  1.00  0.00     0.031 A 
ATOM     44  C   UNL A   1      42.953  26.836  27.486  1.00  0.00     0.074 A 
ATOM     45  C   UNL A   1      40.750  27.303  28.511  1.00  0.00     0.049 A 
ATOM     46  N   UNL A   1      43.595  27.943  27.756  1.00  0.00    -0.248 NA
ATOM     47  C   UNL A   1      43.774  25.826  26.794  1.00  0.00     0.031 C 
ATOM     48  C   UNL A   1      39.394  27.009  28.981  1.00  0.00     0.029 A 
ATOM     49  N   UNL A   1      40.990  28.575  28.965  1.00  0.00    -0.354 N 
ATOM     50  C   UNL A   1      44.897  27.747  27.309  1.00  0.00     0.074 A 
ATOM     51  C   UNL A   1      44.967  26.399  26.791  1.00  0.00     0.031 C 
ATOM     52  C   UNL A   1      38.921  28.071  29.652  1.00  0.00     0.029 A 
ATOM     53  C   UNL A   1      39.946  29.110  29.683  1.00  0.00     0.049 A 
ATOM     54  H   UNL A   1      41.830  29.059  28.794  1.00  0.00     0.167 HD
ATOM     55  C   UNL A   1      45.931  28.621  27.293  1.00  0.00     0.034 A 
ATOM     56  C   UNL A   1      39.828  30.302  30.298  1.00  0.00     0.034 A 
ATOM     57  C   UNL A   1      45.837  29.979  27.757  1.00  0.00     0.049 A 
ATOM     58  C   UNL A   1      40.961  31.287  30.196  1.00  0.00     0.074 A 
ATOM     59  C   UNL A   1      46.790  30.979  27.695  1.00  0.00     0.029 A 
ATOM     60  N   UNL A   1      44.720  30.527  28.370  1.00  0.00    -0.354 N 
ATOM     61  N   UNL A   1      42.127  31.143  29.614  1.00  0.00    -0.248 NA
ATOM     62  C   UNL A   1      40.745  32.613  30.791  1.00  0.00     0.031 C 
ATOM     63  C   UNL A   1      46.255  32.128  28.287  1.00  0.00     0.029 A 
ATOM     64  C   UNL A   1      44.960  31.850  28.695  1.00  0.00     0.049 A 
ATOM     65  H   UNL A   1      43.880  30.044  28.548  1.00  0.00     0.167 HD
ATOM     66  C   UNL A   1      42.772  32.367  29.744  1.00  0.00     0.074 A 
ATOM     67  C   UNL A   1      41.855  33.249  30.439  1.00  0.00     0.031 C 
ATOM     68  C   UNL A   1      44.016  32.726  29.340  1.00  0.00     0.034 A 
BRANCH  55  69
ATOM     69  C   UNL A   1      47.235  28.150  26.699  1.00  0.00     0.023 A 
ATOM     70  C   UNL A   1      48.312  27.829  27.552  1.00  0.00     0.012 A 
ATOM     71  C   UNL A   1      47.385  27.984  25.308  1.00  0.00     0.148 A 
ATOM     72  C   UNL A   1      49.530  27.397  27.031  1.00  0.00     0.002 A 
ATOM     73  C   UNL A   1      48.588  27.505  24.799  1.00  0.00     0.091 A 
ATOM     74  F   UNL A   1      46.361  28.313  24.509  1.00  0.00    -0.205 F 
ATOM     75  C   UNL A   1      49.665  27.226  25.657  1.00  0.00     0.022 A 
BRANCH  73  76
ATOM     76  S   UNL A   1      48.834  27.173  23.051  1.00  0.00     0.127 S 
ATOM     77  O   UNL A   1      48.139  28.302  22.436  1.00  0.00    -0.237 OA
ATOM     78  O   UNL A   1      50.291  27.216  22.931  1.00  0.00    -0.237 OA
ATOM     79  O   UNL A   1      48.245  25.863  22.806  1.00  0.00    -0.744 OA
ENDBRANCH  73  76
ENDBRANCH  55  69
BRANCH  56  80
ATOM     80  C   UNL A   1      38.557  30.652  30.992  1.00  0.00     0.023 A 
ATOM     81  C   UNL A   1      38.408  30.345  32.360  1.00  0.00     0.012 A 
ATOM     82  C   UNL A   1      37.521  31.333  30.324  1.00  0.00     0.148 A 
ATOM     83  C   UNL A   1      37.239  30.683  33.041  1.00  0.00     0.002 A 
ATOM     84  C   UNL A   1      36.382  31.716  31.023  1.00  0.00     0.091 A 
ATOM     85  F   UNL A   1      37.678  31.609  29.022  1.00  0.00    -0.205 F 
ATOM     86  C   UNL A   1      36.231  31.377  32.377  1.00  0.00     0.022 A 
BRANCH  84  87
ATOM     87  S   UNL A   1      35.100  32.738  30.288  1.00  0.00     0.127 S 
ATOM     88  O   UNL A   1      34.196  32.942  31.416  1.00  0.00    -0.237 OA
ATOM     89  O   UNL A   1      35.854  33.923  29.878  1.00  0.00    -0.237 OA
ATOM     90  O   UNL A   1      34.565  31.958  29.178  1.00  0.00    -0.744 OA
ENDBRANCH  84  87
ENDBRANCH  56  80
BRANCH  68  91
ATOM     91  C   UNL A   1      44.451  34.143  29.604  1.00  0.00     0.023 A 
ATOM     92  C   UNL A   1      45.038  34.476  30.842  1.00  0.00     0.012 A 
ATOM     93  C   UNL A   1      44.344  35.126  28.602  1.00  0.00     0.148 A 
ATOM     94  C   UNL A   1      45.480  35.776  31.089  1.00  0.00     0.002 A 
ATOM     95  C   UNL A   1      44.832  36.406  28.837  1.00  0.00     0.091 A 
ATOM     96  F   UNL A   1      43.765  34.794  27.438  1.00  0.00    -0.205 F 
ATOM     97  C   UNL A   1      45.388  36.736  30.083  1.00  0.00     0.022 A 
BRANCH  95  98
ATOM     98  S   UNL A   1      44.843  37.676  27.567  1.00  0.00     0.127 S 
ATOM     99  O   UNL A   1      45.349  38.832  28.305  1.00  0.00    -0.237 OA
ATOM    100  O   UNL A   1      45.775  37.125  26.583  1.00  0.00    -0.237 OA
ATOM    101  O   UNL A   1      43.467  37.784  27.099  1.00  0.00    -0.744 OA
ENDBRANCH  95  98
ENDBRANCH  68  91
ENDBRANCH  42  43
ENDBRANCH  34  37
ENDBRANCH  32  33
ENDBRANCH  31  32
ENDBRANCH   1  31
TORSDOF 18
ENDMDL
MODEL 2
REMARK VINA RESULT:     -12.8      5.020     10.474
REMARK SMILES CC(C)Nc1ncc(C(=O)N2CCC[C@H](c3cccc(C(=O)NCCCNC(=O)c4ccc(-c5c6nc(c(-c7cccc(S(=O)(=O)[O-])c7F)c7ccc([nH]7)c(-c7cccc(S(=O)(=O)[O-])c7F)c7nc(c(-c8cccc(S(=O)(=O)[O-])c8F)c8ccc5[nH]8)C=C7)C=C6)cc4)c3)C2)cn1
REMARK SMILES IDX 24 1 23 2 21 3 22 4 20 6 16 7 17 8 93 9 18 10 19 11 15 12
REMARK SMILES IDX 11 13 12 14 94 15 13 16 14 17 9 18 10 19 8 20 5 21 6 22
REMARK SMILES IDX 96 23 7 24 95 25 4 26 2 28 1 29 3 30 25 31 26 32 27 33 28 34
REMARK SMILES IDX 29 36 30 37 31 38 92 39 32 40 91 41 33 42 34 43 35 44 85 45
REMARK SMILES IDX 36 46 90 47 84 48 86 49 37 50 89 51 83 52 82 53 38 55 70 56
REMARK SMILES IDX 50 57 69 58 51 59 54 60 68 61 87 62 52 63 53 64 67 66 88 67
REMARK SMILES IDX 55 68 39 69 40 70 48 71 41 72 43 73 49 74 42 75 44 76 45 77
REMARK SMILES IDX 46 78 47 79 71 80 72 81 80 82 73 83 75 84 81 85 74 86 76 87
REMARK SMILES IDX 77 88 78 89 79 90 56 91 57 92 65 93 58 94 60 95 66 96 59 97
REMARK SMILES IDX 61 98 62 99 63 100 64 101
REMARK H PARENT 23 5 4 27 27 35 86 54 54 65
REMARK Flexibility Score: inf
ROOT
ATOM      1  C   UNL A   1      31.714  30.007  25.899  1.00  0.00     0.118 C 
ENDROOT
BRANCH   1   2
ATOM      2  N   UNL A   1      31.002  30.289  24.658  1.00  0.00    -0.352 N 
ATOM      3  C   UNL A   1      30.372  29.524  23.702  1.00  0.00     0.251 C 
ATOM      4  O   UNL A   1      29.847  30.120  22.760  1.00  0.00    -0.269 OA
ATOM      5  H   UNL A   1      30.961  31.252  24.458  1.00  0.00     0.163 HD
BRANCH   3   6
ATOM      6  C   UNL A   1      30.344  28.034  23.708  1.00  0.00     0.040 A 
ATOM      7  C   UNL A   1      31.414  25.865  23.274  1.00  0.00    -0.042 A 
ATOM      8  C   UNL A   1      30.167  25.250  23.431  1.00  0.00     0.004 A 
ATOM      9  C   UNL A   1      31.477  27.243  23.536  1.00  0.00     0.018 A 
ATOM     10  C   UNL A   1      29.039  25.998  23.789  1.00  0.00     0.001 A 
ATOM     11  C   UNL A   1      29.118  27.387  23.888  1.00  0.00     0.014 A 
BRANCH   7  12
ATOM     12  C   UNL A   1      32.640  25.155  22.679  1.00  0.00     0.039 C 
ATOM     13  N   UNL A   1      32.792  23.101  24.063  1.00  0.00    -0.338 N 
ATOM     14  C   UNL A   1      33.976  23.572  24.778  1.00  0.00     0.120 C 
ATOM     15  C   UNL A   1      32.603  23.611  22.700  1.00  0.00     0.128 C 
ATOM     16  C   UNL A   1      34.136  25.086  24.717  1.00  0.00     0.022 C 
ATOM     17  C   UNL A   1      34.002  25.581  23.278  1.00  0.00     0.012 C 
BRANCH  13  18
ATOM     18  C   UNL A   1      31.904  22.256  24.714  1.00  0.00     0.257 C 
ATOM     19  O   UNL A   1      30.992  22.654  25.433  1.00  0.00    -0.269 OA
BRANCH  18  20
ATOM     20  C   UNL A   1      32.131  20.807  24.646  1.00  0.00     0.076 A 
ATOM     21  C   UNL A   1      32.865  18.195  24.482  1.00  0.00     0.222 A 
ATOM     22  N   UNL A   1      32.601  18.848  23.342  1.00  0.00    -0.221 NA
ATOM     23  N   UNL A   1      32.784  18.753  25.702  1.00  0.00    -0.221 NA
ATOM     24  C   UNL A   1      32.238  20.142  23.448  1.00  0.00     0.130 A 
ATOM     25  C   UNL A   1      32.443  20.062  25.755  1.00  0.00     0.130 A 
BRANCH  21  26
ATOM     26  N   UNL A   1      33.252  16.897  24.320  1.00  0.00    -0.352 N 
ATOM     27  H   UNL A   1      33.235  16.511  23.415  1.00  0.00     0.163 HD
BRANCH  26  28
ATOM     28  C   UNL A   1      33.685  16.063  25.415  1.00  0.00     0.076 C 
ATOM     29  C   UNL A   1      32.826  14.799  25.413  1.00  0.00     0.030 C 
ATOM     30  C   UNL A   1      35.160  15.711  25.241  1.00  0.00     0.030 C 
ENDBRANCH  26  28
ENDBRANCH  21  26
ENDBRANCH  18  20
ENDBRANCH  13  18
ENDBRANCH   7  12
ENDBRANCH   3   6
ENDBRANCH   1   2
BRANCH   1  31
ATOM     31  C   UNL A   1      33.195  29.719  25.723  1.00  0.00     0.042 C 
BRANCH  31  32
ATOM     32  C   UNL A   1      33.997  29.794  27.013  1.00  0.00     0.118 C 
BRANCH  32  33
ATOM     33  N   UNL A   1      33.930  31.113  27.637  1.00  0.00    -0.352 N 
ATOM     34  C   UNL A   1      34.691  31.692  28.622  1.00  0.00     0.251 C 
ATOM     35  H   UNL A   1      33.210  31.688  27.290  1.00  0.00     0.163 HD
ATOM     36  O   UNL A   1      34.290  32.727  29.149  1.00  0.00    -0.269 OA
BRANCH  34  37
ATOM     37  C   UNL A   1      35.976  31.096  29.049  1.00  0.00     0.039 A 
ATOM     38  C   UNL A   1      35.961  29.996  29.913  1.00  0.00     0.014 A 
ATOM     39  C   UNL A   1      37.196  31.648  28.654  1.00  0.00     0.014 A 
ATOM     40  C   UNL A   1      37.165  29.425  30.334  1.00  0.00     0.010 A 
ATOM     41  C   UNL A   1      38.388  31.013  28.983  1.00  0.00     0.010 A 
ATOM     42  C   UNL A   1      38.389  29.912  29.848  1.00  0.00    -0.014 A 
BRANCH  42  43
ATOM     43  C   UNL A   1      39.683  29.302  30.248  1.00  0.00     0.031 A 
ATOM     44  C   UNL A   1      40.492  29.910  31.365  1.00  0.00     0.074 A 
ATOM     45  C   UNL A   1      40.174  28.265  29.544  1.00  0.00     0.049 A 
ATOM     46  N   UNL A   1      41.670  29.561  31.815  1.00  0.00    -0.248 NA
ATOM     47  C   UNL A   1      39.923  31.089  32.040  1.00  0.00     0.031 C 
ATOM     48  C   UNL A   1      39.532  27.656  28.377  1.00  0.00     0.029 A 
ATOM     49  N   UNL A   1      41.340  27.557  29.687  1.00  0.00    -0.354 N 
ATOM     50  C   UNL A   1      41.999  30.497  32.788  1.00  0.00     0.074 A 
ATOM     51  C   UNL A   1      40.918  31.457  32.833  1.00  0.00     0.031 C 
ATOM     52  C   UNL A   1      40.309  26.664  27.914  1.00  0.00     0.029 A 
ATOM     53  C   UNL A   1      41.515  26.582  28.733  1.00  0.00     0.049 A 
ATOM     54  H   UNL A   1      41.991  27.731  30.406  1.00  0.00     0.167 HD
ATOM     55  C   UNL A   1      43.082  30.536  33.600  1.00  0.00     0.034 A 
ATOM     56  C   UNL A   1      42.531  25.721  28.539  1.00  0.00     0.034 A 
ATOM     57  C   UNL A   1      44.124  29.546  33.588  1.00  0.00     0.049 A 
ATOM     58  C   UNL A   1      43.685  25.730  29.504  1.00  0.00     0.074 A 
ATOM     59  C   UNL A   1      45.213  29.431  34.433  1.00  0.00     0.029 A 
ATOM     60  N   UNL A   1      44.206  28.498  32.684  1.00  0.00    -0.354 N 
ATOM     61  N   UNL A   1      43.894  26.519  30.531  1.00  0.00    -0.248 NA
ATOM     62  C   UNL A   1      44.718  24.703  29.315  1.00  0.00     0.031 C 
ATOM     63  C   UNL A   1      45.964  28.322  34.028  1.00  0.00     0.029 A 
ATOM     64  C   UNL A   1      45.328  27.732  32.947  1.00  0.00     0.049 A 
ATOM     65  H   UNL A   1      43.560  28.324  31.961  1.00  0.00     0.167 HD
ATOM     66  C   UNL A   1      45.063  26.065  31.129  1.00  0.00     0.074 A 
ATOM     67  C   UNL A   1      45.503  24.915  30.364  1.00  0.00     0.031 C 
ATOM     68  C   UNL A   1      45.722  26.562  32.206  1.00  0.00     0.034 A 
BRANCH  55  69
ATOM     69  C   UNL A   1      43.159  31.654  34.609  1.00  0.00     0.023 A 
ATOM     70  C   UNL A   1      43.833  32.848  34.274  1.00  0.00     0.012 A 
ATOM     71  C   UNL A   1      42.535  31.546  35.867  1.00  0.00     0.148 A 
ATOM     72  C   UNL A   1      43.925  33.895  35.188  1.00  0.00     0.002 A 
ATOM     73  C   UNL A   1      42.590  32.615  36.756  1.00  0.00     0.091 A 
ATOM     74  F   UNL A   1      41.918  30.398  36.180  1.00  0.00    -0.205 F 
ATOM     75  C   UNL A   1      43.296  33.783  36.424  1.00  0.00     0.022 A 
BRANCH  73  76
ATOM     76  S   UNL A   1      41.743  32.599  38.340  1.00  0.00     0.127 S 
ATOM     77  O   UNL A   1      41.917  33.982  38.782  1.00  0.00    -0.237 OA
ATOM     78  O   UNL A   1      40.375  32.250  37.955  1.00  0.00    -0.237 OA
ATOM     79  O   UNL A   1      42.420  31.592  39.145  1.00  0.00    -0.744 OA
ENDBRANCH  73  76
ENDBRANCH  55  69
BRANCH  56  80
ATOM     80  C   UNL A   1      42.456  24.729  27.430  1.00  0.00     0.023 A 
ATOM     81  C   UNL A   1      43.208  24.943  26.257  1.00  0.00     0.012 A 
ATOM     82  C   UNL A   1      41.692  23.552  27.550  1.00  0.00     0.148 A 
ATOM     83  C   UNL A   1      43.175  24.019  25.213  1.00  0.00     0.002 A 
ATOM     84  C   UNL A   1      41.709  22.609  26.529  1.00  0.00     0.091 A 
ATOM     85  F   UNL A   1      40.978  23.370  28.670  1.00  0.00    -0.205 F 
ATOM     86  C   UNL A   1      42.435  22.848  25.353  1.00  0.00     0.022 A 
BRANCH  84  87
ATOM     87  S   UNL A   1      40.905  21.010  26.683  1.00  0.00     0.127 S 
ATOM     88  O   UNL A   1      39.649  21.236  25.974  1.00  0.00    -0.237 OA
ATOM     89  O   UNL A   1      41.850  20.127  25.999  1.00  0.00    -0.237 OA
ATOM     90  O   UNL A   1      40.790  20.765  28.116  1.00  0.00    -0.744 OA
ENDBRANCH  84  87
ENDBRANCH  56  80
BRANCH  68  91
ATOM     91  C   UNL A   1      46.972  25.848  32.646  1.00  0.00     0.023 A 
ATOM     92  C   UNL A   1      48.217  26.208  32.092  1.00  0.00     0.012 A 
ATOM     93  C   UNL A   1      46.922  24.870  33.658  1.00  0.00     0.148 A 
ATOM     94  C   UNL A   1      49.389  25.582  32.515  1.00  0.00     0.002 A 
ATOM     95  C   UNL A   1      48.099  24.287  34.111  1.00  0.00     0.091 A 
ATOM     96  F   UNL A   1      45.726  24.527  34.159  1.00  0.00    -0.205 F 
ATOM     97  C   UNL A   1      49.331  24.631  33.532  1.00  0.00     0.022 A 
BRANCH  95  98
ATOM     98  S   UNL A   1      48.128  23.126  35.482  1.00  0.00     0.127 S 
ATOM     99  O   UNL A   1      47.477  23.896  36.539  1.00  0.00    -0.237 OA
ATOM    100  O   UNL A   1      47.336  22.011  34.963  1.00  0.00    -0.237 OA
ATOM    101  O   UNL A   1      49.532  22.812  35.709  1.00  0.00    -0.744 OA
ENDBRANCH  95  98
ENDBRANCH  68  91
ENDBRANCH  42  43
ENDBRANCH  34  37
ENDBRANCH  32  33
ENDBRANCH  31  32
ENDBRANCH   1  31
TORSDOF 18
ENDMDL
MODEL 3
REMARK VINA RESULT:     -12.5      4.945     10.914
REMARK SMILES CC(C)Nc1ncc(C(=O)N2CCC[C@H](c3cccc(C(=O)NCCCNC(=O)c4ccc(-c5c6nc(c(-c7cccc(S(=O)(=O)[O-])c7F)c7ccc([nH]7)c(-c7cccc(S(=O)(=O)[O-])c7F)c7nc(c(-c8cccc(S(=O)(=O)[O-])c8F)c8ccc5[nH]8)C=C7)C=C6)cc4)c3)C2)cn1
REMARK SMILES IDX 24 1 23 2 21 3 22 4 20 6 16 7 17 8 93 9 18 10 19 11 15 12
REMARK SMILES IDX 11 13 12 14 94 15 13 16 14 17 9 18 10 19 8 20 5 21 6 22
REMARK SMILES IDX 96 23 7 24 95 25 4 26 2 28 1 29 3 30 25 31 26 32 27 33 28 34
REMARK SMILES IDX 29 36 30 37 31 38 92 39 32 40 91 41 33 42 34 43 35 44 85 45
REMARK SMILES IDX 36 46 90 47 84 48 86 49 37 50 89 51 83 52 82 53 38 55 70 56
REMARK SMILES IDX 50 57 69 58 51 59 54 60 68 61 87 62 52 63 53 64 67 66 88 67
REMARK SMILES IDX 55 68 39 69 40 70 48 71 41 72 43 73 49 74 42 75 44 76 45 77
REMARK SMILES IDX 46 78 47 79 71 80 72 81 80 82 73 83 75 84 81 85 74 86 76 87
REMARK SMILES IDX 77 88 78 89 79 90 56 91 57 92 65 93 58 94 60 95 66 96 59 97
REMARK SMILES IDX 61 98 62 99 63 100 64 101
REMARK H PARENT 23 5 4 27 27 35 86 54 54 65
REMARK Flexibility Score: inf
ROOT
ATOM      1  C   UNL A   1      31.107  30.811  25.437  1.00  0.00     0.118 C 
ENDROOT
BRANCH   1   2
ATOM      2  N   UNL A   1      30.203  30.853  24.293  1.00  0.00    -0.352 N 
ATOM      3  C   UNL A   1      29.626  29.908  23.474  1.00  0.00     0.251 C 
ATOM      4  O   UNL A   1      28.878  30.316  22.584  1.00  0.00    -0.269 OA
ATOM      5  H   UNL A   1      29.945  31.771  24.050  1.00  0.00     0.163 HD
BRANCH   3   6
ATOM      6  C   UNL A   1      29.898  28.446  23.563  1.00  0.00     0.040 A 
ATOM      7  C   UNL A   1      31.434  26.535  23.397  1.00  0.00    -0.042 A 
ATOM      8  C   UNL A   1      30.327  25.679  23.426  1.00  0.00     0.004 A 
ATOM      9  C   UNL A   1      31.180  27.903  23.584  1.00  0.00     0.018 A 
ATOM     10  C   UNL A   1      29.032  26.186  23.591  1.00  0.00     0.001 A 
ATOM     11  C   UNL A   1      28.815  27.564  23.619  1.00  0.00     0.014 A 
BRANCH   7  12
ATOM     12  C   UNL A   1      32.847  26.077  23.008  1.00  0.00     0.039 C 
ATOM     13  N   UNL A   1      33.319  24.310  24.686  1.00  0.00    -0.338 N 
ATOM     14  C   UNL A   1      34.276  25.142  25.412  1.00  0.00     0.120 C 
ATOM     15  C   UNL A   1      33.167  24.586  23.252  1.00  0.00     0.128 C 
ATOM     16  C   UNL A   1      34.088  26.629  25.142  1.00  0.00     0.022 C 
ATOM     17  C   UNL A   1      34.000  26.894  23.641  1.00  0.00     0.012 C 
BRANCH  13  18
ATOM     18  C   UNL A   1      32.585  23.361  25.384  1.00  0.00     0.257 C 
ATOM     19  O   UNL A   1      31.751  23.644  26.239  1.00  0.00    -0.269 OA
BRANCH  18  20
ATOM     20  C   UNL A   1      32.900  21.941  25.187  1.00  0.00     0.076 A 
ATOM     21  C   UNL A   1      33.457  19.281  25.144  1.00  0.00     0.222 A 
ATOM     22  N   UNL A   1      34.473  20.135  25.329  1.00  0.00    -0.221 NA
ATOM     23  N   UNL A   1      32.179  19.662  24.975  1.00  0.00    -0.221 NA
ATOM     24  C   UNL A   1      34.174  21.449  25.346  1.00  0.00     0.130 A 
ATOM     25  C   UNL A   1      31.924  20.990  25.027  1.00  0.00     0.130 A 
BRANCH  21  26
ATOM     26  N   UNL A   1      33.808  17.963  25.161  1.00  0.00    -0.352 N 
ATOM     27  H   UNL A   1      34.542  17.680  25.753  1.00  0.00     0.163 HD
BRANCH  26  28
ATOM     28  C   UNL A   1      33.154  16.964  24.351  1.00  0.00     0.076 C 
ATOM     29  C   UNL A   1      33.928  16.841  23.039  1.00  0.00     0.030 C 
ATOM     30  C   UNL A   1      33.137  15.631  25.093  1.00  0.00     0.030 C 
ENDBRANCH  26  28
ENDBRANCH  21  26
ENDBRANCH  18  20
ENDBRANCH  13  18
ENDBRANCH   7  12
ENDBRANCH   3   6
ENDBRANCH   1   2
BRANCH   1  31
ATOM     31  C   UNL A   1      31.057  32.044  26.323  1.00  0.00     0.042 C 
BRANCH  31  32
ATOM     32  C   UNL A   1      32.393  32.409  26.950  1.00  0.00     0.118 C 
BRANCH  32  33
ATOM     33  N   UNL A   1      32.438  33.796  27.403  1.00  0.00    -0.352 N 
ATOM     34  C   UNL A   1      33.172  34.407  28.390  1.00  0.00     0.251 C 
ATOM     35  H   UNL A   1      31.836  34.402  26.913  1.00  0.00     0.163 HD
ATOM     36  O   UNL A   1      32.861  35.542  28.744  1.00  0.00    -0.269 OA
BRANCH  34  37
ATOM     37  C   UNL A   1      34.322  33.727  29.024  1.00  0.00     0.039 A 
ATOM     38  C   UNL A   1      34.085  32.659  29.895  1.00  0.00     0.014 A 
ATOM     39  C   UNL A   1      35.630  34.168  28.813  1.00  0.00     0.014 A 
ATOM     40  C   UNL A   1      35.159  32.008  30.510  1.00  0.00     0.010 A 
ATOM     41  C   UNL A   1      36.701  33.453  29.335  1.00  0.00     0.010 A 
ATOM     42  C   UNL A   1      36.478  32.383  30.211  1.00  0.00    -0.014 A 
BRANCH  42  43
ATOM     43  C   UNL A   1      37.641  31.687  30.819  1.00  0.00     0.031 A 
ATOM     44  C   UNL A   1      38.038  31.979  32.243  1.00  0.00     0.074 A 
ATOM     45  C   UNL A   1      38.396  30.869  30.061  1.00  0.00     0.049 A 
ATOM     46  N   UNL A   1      39.055  31.523  32.927  1.00  0.00    -0.248 NA
ATOM     47  C   UNL A   1      37.206  32.943  32.986  1.00  0.00     0.031 C 
ATOM     48  C   UNL A   1      38.174  30.588  28.641  1.00  0.00     0.029 A 
ATOM     49  N   UNL A   1      39.520  30.146  30.370  1.00  0.00    -0.354 N 
ATOM     50  C   UNL A   1      39.011  32.171  34.155  1.00  0.00     0.074 A 
ATOM     51  C   UNL A   1      37.894  33.088  34.109  1.00  0.00     0.031 C 
ATOM     52  C   UNL A   1      39.127  29.750  28.204  1.00  0.00     0.029 A 
ATOM     53  C   UNL A   1      40.042  29.454  29.302  1.00  0.00     0.049 A 
ATOM     54  H   UNL A   1      39.916  30.124  31.272  1.00  0.00     0.167 HD
ATOM     55  C   UNL A   1      39.801  31.994  35.240  1.00  0.00     0.034 A 
ATOM     56  C   UNL A   1      41.133  28.671  29.217  1.00  0.00     0.034 A 
ATOM     57  C   UNL A   1      40.874  31.038  35.299  1.00  0.00     0.049 A 
ATOM     58  C   UNL A   1      41.949  28.424  30.457  1.00  0.00     0.074 A 
ATOM     59  C   UNL A   1      41.673  30.705  36.378  1.00  0.00     0.029 A 
ATOM     60  N   UNL A   1      41.299  30.263  34.230  1.00  0.00    -0.354 N 
ATOM     61  N   UNL A   1      41.786  28.917  31.661  1.00  0.00    -0.248 NA
ATOM     62  C   UNL A   1      43.068  27.480  30.340  1.00  0.00     0.031 C 
ATOM     63  C   UNL A   1      42.593  29.738  35.955  1.00  0.00     0.029 A 
ATOM     64  C   UNL A   1      42.349  29.453  34.621  1.00  0.00     0.049 A 
ATOM     65  H   UNL A   1      40.909  30.286  33.326  1.00  0.00     0.167 HD
ATOM     66  C   UNL A   1      42.759  28.319  32.453  1.00  0.00     0.074 A 
ATOM     67  C   UNL A   1      43.492  27.409  31.595  1.00  0.00     0.031 C 
ATOM     68  C   UNL A   1      43.033  28.516  33.767  1.00  0.00     0.034 A 
BRANCH  55  69
ATOM     69  C   UNL A   1      39.492  32.809  36.471  1.00  0.00     0.023 A 
ATOM     70  C   UNL A   1      40.091  34.076  36.634  1.00  0.00     0.012 A 
ATOM     71  C   UNL A   1      38.584  32.346  37.443  1.00  0.00     0.148 A 
ATOM     72  C   UNL A   1      39.828  34.849  37.763  1.00  0.00     0.002 A 
ATOM     73  C   UNL A   1      38.290  33.145  38.544  1.00  0.00     0.091 A 
ATOM     74  F   UNL A   1      38.040  31.132  37.287  1.00  0.00    -0.205 F 
ATOM     75  C   UNL A   1      38.922  34.388  38.713  1.00  0.00     0.022 A 
BRANCH  73  76
ATOM     76  S   UNL A   1      37.074  32.677  39.781  1.00  0.00     0.127 S 
ATOM     77  O   UNL A   1      37.595  31.388  40.233  1.00  0.00    -0.237 OA
ATOM     78  O   UNL A   1      37.194  33.760  40.757  1.00  0.00    -0.237 OA
ATOM     79  O   UNL A   1      35.795  32.629  39.086  1.00  0.00    -0.744 OA
ENDBRANCH  73  76
ENDBRANCH  55  69
BRANCH  56  80
ATOM     80  C   UNL A   1      41.464  28.003  27.927  1.00  0.00     0.023 A 
ATOM     81  C   UNL A   1      41.917  28.780  26.841  1.00  0.00     0.012 A 
ATOM     82  C   UNL A   1      41.386  26.605  27.785  1.00  0.00     0.148 A 
ATOM     83  C   UNL A   1      42.256  28.178  25.629  1.00  0.00     0.002 A 
ATOM     84  C   UNL A   1      41.779  26.007  26.593  1.00  0.00     0.091 A 
ATOM     85  F   UNL A   1      40.945  25.884  28.825  1.00  0.00    -0.205 F 
ATOM     86  C   UNL A   1      42.198  26.793  25.508  1.00  0.00     0.022 A 
BRANCH  84  87
ATOM     87  S   UNL A   1      41.875  24.224  26.396  1.00  0.00     0.127 S 
ATOM     88  O   UNL A   1      42.527  24.100  25.096  1.00  0.00    -0.237 OA
ATOM     89  O   UNL A   1      42.701  23.836  27.541  1.00  0.00    -0.237 OA
ATOM     90  O   UNL A   1      40.499  23.747  26.464  1.00  0.00    -0.744 OA
ENDBRANCH  84  87
ENDBRANCH  56  80
BRANCH  68  91
ATOM     91  C   UNL A   1      44.150  27.709  34.373  1.00  0.00     0.023 A 
ATOM     92  C   UNL A   1      43.878  26.445  34.933  1.00  0.00     0.012 A 
ATOM     93  C   UNL A   1      45.479  28.173  34.323  1.00  0.00     0.148 A 
ATOM     94  C   UNL A   1      44.908  25.670  35.465  1.00  0.00     0.002 A 
ATOM     95  C   UNL A   1      46.506  27.373  34.810  1.00  0.00     0.091 A 
ATOM     96  F   UNL A   1      45.715  29.387  33.804  1.00  0.00    -0.205 F 
ATOM     97  C   UNL A   1      46.221  26.128  35.392  1.00  0.00     0.022 A 
BRANCH  95  98
ATOM     98  S   UNL A   1      48.235  27.842  34.669  1.00  0.00     0.127 S 
ATOM     99  O   UNL A   1      48.912  26.610  35.069  1.00  0.00    -0.237 OA
ATOM    100  O   UNL A   1      48.354  28.171  33.249  1.00  0.00    -0.237 OA
ATOM    101  O   UNL A   1      48.414  28.976  35.566  1.00  0.00    -0.744 OA
ENDBRANCH  95  98
ENDBRANCH  68  91
ENDBRANCH  42  43
ENDBRANCH  34  37
ENDBRANCH  32  33
ENDBRANCH  31  32
ENDBRANCH   1  31
TORSDOF 18
ENDMDL
