MODEL 1
REMARK VINA RESULT:     -12.1      0.000      0.000
REMARK SMILES CC[C@H](C(=O)NCCCNC(=O)c1ccc(-c2c3nc(c(-c4cccc(S(=O)(=O)[O-])c4F)c4ccc([nH]4)c(-c4cccc(S(=O)(=O)[O-])c4F)c4nc(c(-c5cccc(S(=O)(=O)[O-])c5F)c5ccc2[nH]5)C=C4)C=C3)cc1)N1C(=O)c2ccc([N+](=O)[O-])cc2C1=O
REMARK SMILES IDX 8 1 7 2 6 3 4 4 5 5 3 7 2 8 1 9 76 10 77 11 88 12 78 13
REMARK SMILES IDX 79 14 87 15 89 16 80 17 86 18 81 19 82 20 83 21 84 22 85 23
REMARK SMILES IDX 9 24 10 25 11 26 12 28 13 29 14 30 75 31 15 32 74 33 16 34
REMARK SMILES IDX 17 35 18 36 68 37 19 38 73 39 67 40 69 41 20 42 72 43 66 44
REMARK SMILES IDX 65 45 21 47 53 48 33 49 52 50 34 51 37 52 51 53 70 54 35 55
REMARK SMILES IDX 36 56 50 58 71 59 38 60 22 61 23 62 31 63 24 64 26 65 32 66
REMARK SMILES IDX 25 67 27 68 28 69 29 70 30 71 54 72 55 73 63 74 56 75 58 76
REMARK SMILES IDX 64 77 57 78 59 79 60 80 61 81 62 82 39 83 40 84 48 85 41 86
REMARK SMILES IDX 43 87 49 88 42 89 44 90 45 91 46 92 47 93
REMARK H PARENT 6 6 10 27 69 46 37 57
REMARK Flexibility Score: inf
ROOT
ATOM      1  C   UNL A   1      32.945  28.116  27.265  1.00  0.00     0.042 C 
ENDROOT
BRANCH   1   2
ATOM      2  C   UNL A   1      31.510  27.958  26.779  1.00  0.00     0.117 C 
BRANCH   2   3
ATOM      3  N   UNL A   1      31.156  26.567  26.550  1.00  0.00    -0.354 N 
ATOM      4  C   UNL A   1      31.234  25.788  25.436  1.00  0.00     0.243 C 
ATOM      5  O   UNL A   1      31.113  24.568  25.611  1.00  0.00    -0.273 OA
ATOM      6  H   UNL A   1      30.794  26.105  27.341  1.00  0.00     0.163 HD
BRANCH   4   7
ATOM      7  C   UNL A   1      31.607  26.321  24.032  1.00  0.00     0.183 C 
BRANCH   7   8
ATOM      8  C   UNL A   1      31.928  25.359  22.884  1.00  0.00     0.032 C 
ATOM      9  C   UNL A   1      33.192  25.724  22.115  1.00  0.00     0.006 C 
ENDBRANCH   7   8
BRANCH   7  10
ATOM     10  N   UNL A   1      30.681  27.391  23.654  1.00  0.00    -0.262 N 
ATOM     11  C   UNL A   1      29.322  27.275  23.558  1.00  0.00     0.262 C 
ATOM     12  C   UNL A   1      31.101  28.612  23.195  1.00  0.00     0.262 C 
ATOM     13  O   UNL A   1      28.586  26.324  23.723  1.00  0.00    -0.269 OA
ATOM     14  C   UNL A   1      28.813  28.579  23.151  1.00  0.00     0.053 A 
ATOM     15  C   UNL A   1      29.901  29.386  22.884  1.00  0.00     0.060 A 
ATOM     16  O   UNL A   1      32.229  29.029  23.016  1.00  0.00    -0.269 OA
ATOM     17  C   UNL A   1      27.510  29.015  23.005  1.00  0.00     0.022 A 
ATOM     18  C   UNL A   1      29.755  30.672  22.398  1.00  0.00     0.100 A 
ATOM     19  C   UNL A   1      27.321  30.321  22.541  1.00  0.00     0.086 A 
ATOM     20  C   UNL A   1      28.439  31.131  22.223  1.00  0.00     0.270 A 
BRANCH  20  21
ATOM     21  N   UNL A   1      28.213  32.478  21.685  1.00  0.00     0.062 N 
ATOM     22  O   UNL A   1      28.416  33.439  22.440  1.00  0.00    -0.258 OA
ATOM     23  O   UNL A   1      27.823  32.569  20.513  1.00  0.00    -0.258 OA
ENDBRANCH  20  21
ENDBRANCH   7  10
ENDBRANCH   4   7
ENDBRANCH   2   3
ENDBRANCH   1   2
BRANCH   1  24
ATOM     24  C   UNL A   1      33.777  29.011  26.354  1.00  0.00     0.118 C 
BRANCH  24  25
ATOM     25  N   UNL A   1      33.765  30.401  26.798  1.00  0.00    -0.352 N 
ATOM     26  C   UNL A   1      34.598  31.051  27.675  1.00  0.00     0.251 C 
ATOM     27  H   UNL A   1      33.051  30.957  26.409  1.00  0.00     0.163 HD
ATOM     28  O   UNL A   1      34.288  32.165  28.090  1.00  0.00    -0.269 OA
BRANCH  26  29
ATOM     29  C   UNL A   1      35.855  30.416  28.131  1.00  0.00     0.039 A 
ATOM     30  C   UNL A   1      36.991  30.505  27.321  1.00  0.00     0.014 A 
ATOM     31  C   UNL A   1      35.912  29.711  29.336  1.00  0.00     0.014 A 
ATOM     32  C   UNL A   1      38.196  29.941  27.748  1.00  0.00     0.010 A 
ATOM     33  C   UNL A   1      37.130  29.220  29.797  1.00  0.00     0.010 A 
ATOM     34  C   UNL A   1      38.284  29.321  29.006  1.00  0.00    -0.014 A 
BRANCH  34  35
ATOM     35  C   UNL A   1      39.572  28.786  29.518  1.00  0.00     0.031 A 
ATOM     36  C   UNL A   1      40.298  29.486  30.635  1.00  0.00     0.074 A 
ATOM     37  C   UNL A   1      40.134  27.721  28.913  1.00  0.00     0.049 A 
ATOM     38  N   UNL A   1      41.459  29.203  31.167  1.00  0.00    -0.248 NA
ATOM     39  C   UNL A   1      39.651  30.677  31.209  1.00  0.00     0.031 C 
ATOM     40  C   UNL A   1      39.572  27.006  27.765  1.00  0.00     0.029 A 
ATOM     41  N   UNL A   1      41.319  27.073  29.158  1.00  0.00    -0.354 N 
ATOM     42  C   UNL A   1      41.699  30.197  32.107  1.00  0.00     0.074 A 
ATOM     43  C   UNL A   1      40.578  31.111  32.051  1.00  0.00     0.031 C 
ATOM     44  C   UNL A   1      40.408  26.019  27.408  1.00  0.00     0.029 A 
ATOM     45  C   UNL A   1      41.577  26.046  28.281  1.00  0.00     0.049 A 
ATOM     46  H   UNL A   1      41.927  27.320  29.893  1.00  0.00     0.167 HD
ATOM     47  C   UNL A   1      42.741  30.324  32.964  1.00  0.00     0.034 A 
ATOM     48  C   UNL A   1      42.639  25.221  28.185  1.00  0.00     0.034 A 
ATOM     49  C   UNL A   1      43.826  29.385  33.057  1.00  0.00     0.049 A 
ATOM     50  C   UNL A   1      43.761  25.353  29.179  1.00  0.00     0.074 A 
ATOM     51  C   UNL A   1      44.871  29.364  33.963  1.00  0.00     0.029 A 
ATOM     52  N   UNL A   1      44.011  28.304  32.208  1.00  0.00    -0.354 N 
ATOM     53  N   UNL A   1      43.884  26.195  30.176  1.00  0.00    -0.248 NA
ATOM     54  C   UNL A   1      44.873  24.400  29.056  1.00  0.00     0.031 C 
ATOM     55  C   UNL A   1      45.697  28.279  33.652  1.00  0.00     0.029 A 
ATOM     56  C   UNL A   1      45.159  27.616  32.561  1.00  0.00     0.049 A 
ATOM     57  H   UNL A   1      43.413  28.061  31.465  1.00  0.00     0.167 HD
ATOM     58  C   UNL A   1      45.072  25.859  30.814  1.00  0.00     0.074 A 
ATOM     59  C   UNL A   1      45.617  24.718  30.108  1.00  0.00     0.031 C 
ATOM     60  C   UNL A   1      45.668  26.454  31.878  1.00  0.00     0.034 A 
BRANCH  47  61
ATOM     61  C   UNL A   1      42.724  31.490  33.918  1.00  0.00     0.023 A 
ATOM     62  C   UNL A   1      43.225  32.738  33.493  1.00  0.00     0.012 A 
ATOM     63  C   UNL A   1      42.169  31.372  35.207  1.00  0.00     0.148 A 
ATOM     64  C   UNL A   1      43.206  33.840  34.346  1.00  0.00     0.002 A 
ATOM     65  C   UNL A   1      42.116  32.486  36.037  1.00  0.00     0.091 A 
ATOM     66  F   UNL A   1      41.719  30.173  35.603  1.00  0.00    -0.205 F 
ATOM     67  C   UNL A   1      42.643  33.717  35.613  1.00  0.00     0.022 A 
BRANCH  65  68
ATOM     68  S   UNL A   1      41.342  32.447  37.659  1.00  0.00     0.127 S 
ATOM     69  O   UNL A   1      41.423  33.851  38.058  1.00  0.00    -0.237 OA
ATOM     70  O   UNL A   1      39.991  31.979  37.346  1.00  0.00    -0.237 OA
ATOM     71  O   UNL A   1      42.133  31.520  38.456  1.00  0.00    -0.744 OA
ENDBRANCH  65  68
ENDBRANCH  47  61
BRANCH  48  72
ATOM     72  C   UNL A   1      42.652  24.149  27.150  1.00  0.00     0.023 A 
ATOM     73  C   UNL A   1      43.355  24.362  25.949  1.00  0.00     0.012 A 
ATOM     74  C   UNL A   1      42.014  22.912  27.363  1.00  0.00     0.148 A 
ATOM     75  C   UNL A   1      43.404  23.371  24.968  1.00  0.00     0.002 A 
ATOM     76  C   UNL A   1      42.113  21.908  26.405  1.00  0.00     0.091 A 
ATOM     77  F   UNL A   1      41.337  22.734  28.506  1.00  0.00    -0.205 F 
ATOM     78  C   UNL A   1      42.795  22.141  25.201  1.00  0.00     0.022 A 
BRANCH  76  79
ATOM     79  S   UNL A   1      41.476  20.251  26.682  1.00  0.00     0.127 S 
ATOM     80  O   UNL A   1      41.866  19.571  25.450  1.00  0.00    -0.237 OA
ATOM     81  O   UNL A   1      42.216  19.837  27.875  1.00  0.00    -0.237 OA
ATOM     82  O   UNL A   1      40.044  20.413  26.894  1.00  0.00    -0.744 OA
ENDBRANCH  76  79
ENDBRANCH  48  72
BRANCH  60  83
ATOM     83  C   UNL A   1      46.976  25.880  32.354  1.00  0.00     0.023 A 
ATOM     84  C   UNL A   1      48.182  26.355  31.804  1.00  0.00     0.012 A 
ATOM     85  C   UNL A   1      47.016  24.929  33.393  1.00  0.00     0.148 A 
ATOM     86  C   UNL A   1      49.408  25.874  32.261  1.00  0.00     0.002 A 
ATOM     87  C   UNL A   1      48.242  24.487  33.874  1.00  0.00     0.091 A 
ATOM     88  F   UNL A   1      45.855  24.476  33.890  1.00  0.00    -0.205 F 
ATOM     89  C   UNL A   1      49.438  24.949  33.302  1.00  0.00     0.022 A 
BRANCH  87  90
ATOM     90  S   UNL A   1      48.379  23.367  35.273  1.00  0.00     0.127 S 
ATOM     91  O   UNL A   1      47.686  24.115  36.321  1.00  0.00    -0.237 OA
ATOM     92  O   UNL A   1      47.664  22.183  34.795  1.00  0.00    -0.237 OA
ATOM     93  O   UNL A   1      49.806  23.166  35.486  1.00  0.00    -0.744 OA
ENDBRANCH  87  90
ENDBRANCH  60  83
ENDBRANCH  34  35
ENDBRANCH  26  29
ENDBRANCH  24  25
ENDBRANCH   1  24
TORSDOF 16
ENDMDL
MODEL 2
REMARK VINA RESULT:     -12.0      5.836     10.745
REMARK SMILES CC[C@H](C(=O)NCCCNC(=O)c1ccc(-c2c3nc(c(-c4cccc(S(=O)(=O)[O-])c4F)c4ccc([nH]4)c(-c4cccc(S(=O)(=O)[O-])c4F)c4nc(c(-c5cccc(S(=O)(=O)[O-])c5F)c5ccc2[nH]5)C=C4)C=C3)cc1)N1C(=O)c2ccc([N+](=O)[O-])cc2C1=O
REMARK SMILES IDX 8 1 7 2 6 3 4 4 5 5 3 7 2 8 1 9 76 10 77 11 88 12 78 13
REMARK SMILES IDX 79 14 87 15 89 16 80 17 86 18 81 19 82 20 83 21 84 22 85 23
REMARK SMILES IDX 9 24 10 25 11 26 12 28 13 29 14 30 75 31 15 32 74 33 16 34
REMARK SMILES IDX 17 35 18 36 68 37 19 38 73 39 67 40 69 41 20 42 72 43 66 44
REMARK SMILES IDX 65 45 21 47 53 48 33 49 52 50 34 51 37 52 51 53 70 54 35 55
REMARK SMILES IDX 36 56 50 58 71 59 38 60 22 61 23 62 31 63 24 64 26 65 32 66
REMARK SMILES IDX 25 67 27 68 28 69 29 70 30 71 54 72 55 73 63 74 56 75 58 76
REMARK SMILES IDX 64 77 57 78 59 79 60 80 61 81 62 82 39 83 40 84 48 85 41 86
REMARK SMILES IDX 43 87 49 88 42 89 44 90 45 91 46 92 47 93
REMARK H PARENT 6 6 10 27 69 46 37 57
REMARK Flexibility Score: inf
ROOT
ATOM      1  C   UNL A   1      36.342  21.982  25.245  1.00  0.00     0.042 C 
ENDROOT
BRANCH   1   2
ATOM      2  C   UNL A   1      35.765  23.390  25.315  1.00  0.00     0.117 C 
BRANCH   2   3
ATOM      3  N   UNL A   1      34.963  23.717  24.147  1.00  0.00    -0.354 N 
ATOM      4  C   UNL A   1      33.632  23.576  23.899  1.00  0.00     0.243 C 
ATOM      5  O   UNL A   1      33.190  24.190  22.919  1.00  0.00    -0.273 OA
ATOM      6  H   UNL A   1      35.474  24.109  23.402  1.00  0.00     0.163 HD
BRANCH   4   7
ATOM      7  C   UNL A   1      32.651  22.836  24.837  1.00  0.00     0.183 C 
BRANCH   7   8
ATOM      8  C   UNL A   1      31.207  23.319  25.008  1.00  0.00     0.032 C 
ATOM      9  C   UNL A   1      30.477  22.667  26.175  1.00  0.00     0.006 C 
ENDBRANCH   7   8
BRANCH   7  10
ATOM     10  N   UNL A   1      32.759  21.391  24.617  1.00  0.00    -0.262 N 
ATOM     11  C   UNL A   1      32.403  20.729  23.475  1.00  0.00     0.262 C 
ATOM     12  C   UNL A   1      33.092  20.509  25.610  1.00  0.00     0.262 C 
ATOM     13  O   UNL A   1      31.919  21.128  22.435  1.00  0.00    -0.269 OA
ATOM     14  C   UNL A   1      32.677  19.315  23.702  1.00  0.00     0.053 A 
ATOM     15  C   UNL A   1      33.055  19.171  25.022  1.00  0.00     0.060 A 
ATOM     16  O   UNL A   1      33.342  20.715  26.782  1.00  0.00    -0.269 OA
ATOM     17  C   UNL A   1      32.582  18.244  22.835  1.00  0.00     0.022 A 
ATOM     18  C   UNL A   1      33.311  17.932  25.578  1.00  0.00     0.100 A 
ATOM     19  C   UNL A   1      32.861  16.975  23.353  1.00  0.00     0.086 A 
ATOM     20  C   UNL A   1      33.203  16.825  24.720  1.00  0.00     0.270 A 
BRANCH  20  21
ATOM     21  N   UNL A   1      33.435  15.477  25.252  1.00  0.00     0.062 N 
ATOM     22  O   UNL A   1      34.594  15.041  25.225  1.00  0.00    -0.258 OA
ATOM     23  O   UNL A   1      32.455  14.856  25.687  1.00  0.00    -0.258 OA
ENDBRANCH  20  21
ENDBRANCH   7  10
ENDBRANCH   4   7
ENDBRANCH   2   3
ENDBRANCH   1   2
BRANCH   1  24
ATOM     24  C   UNL A   1      37.828  21.973  24.905  1.00  0.00     0.118 C 
BRANCH  24  25
ATOM     25  N   UNL A   1      38.564  21.002  25.706  1.00  0.00    -0.352 N 
ATOM     26  C   UNL A   1      39.647  21.184  26.533  1.00  0.00     0.251 C 
ATOM     27  H   UNL A   1      38.236  20.076  25.645  1.00  0.00     0.163 HD
ATOM     28  O   UNL A   1      40.262  20.205  26.946  1.00  0.00    -0.269 OA
BRANCH  26  29
ATOM     29  C   UNL A   1      40.080  22.546  26.916  1.00  0.00     0.039 A 
ATOM     30  C   UNL A   1      41.044  22.692  27.919  1.00  0.00     0.014 A 
ATOM     31  C   UNL A   1      39.523  23.678  26.315  1.00  0.00     0.014 A 
ATOM     32  C   UNL A   1      41.491  23.968  28.273  1.00  0.00     0.010 A 
ATOM     33  C   UNL A   1      40.027  24.941  26.611  1.00  0.00     0.010 A 
ATOM     34  C   UNL A   1      41.010  25.102  27.599  1.00  0.00    -0.014 A 
BRANCH  34  35
ATOM     35  C   UNL A   1      41.528  26.462  27.900  1.00  0.00     0.031 A 
ATOM     36  C   UNL A   1      42.947  26.829  27.558  1.00  0.00     0.074 A 
ATOM     37  C   UNL A   1      40.749  27.335  28.568  1.00  0.00     0.049 A 
ATOM     38  N   UNL A   1      43.591  27.942  27.802  1.00  0.00    -0.248 NA
ATOM     39  C   UNL A   1      43.759  25.804  26.881  1.00  0.00     0.031 C 
ATOM     40  C   UNL A   1      39.385  27.069  29.031  1.00  0.00     0.029 A 
ATOM     41  N   UNL A   1      41.002  28.613  29.000  1.00  0.00    -0.354 N 
ATOM     42  C   UNL A   1      44.888  27.738  27.346  1.00  0.00     0.074 A 
ATOM     43  C   UNL A   1      44.949  26.384  26.839  1.00  0.00     0.031 C 
ATOM     44  C   UNL A   1      38.922  28.149  29.679  1.00  0.00     0.029 A 
ATOM     45  C   UNL A   1      39.961  29.173  29.703  1.00  0.00     0.049 A 
ATOM     46  H   UNL A   1      41.849  29.084  28.824  1.00  0.00     0.167 HD
ATOM     47  C   UNL A   1      45.926  28.608  27.319  1.00  0.00     0.034 A 
ATOM     48  C   UNL A   1      39.856  30.374  30.305  1.00  0.00     0.034 A 
ATOM     49  C   UNL A   1      45.847  29.970  27.771  1.00  0.00     0.049 A 
ATOM     50  C   UNL A   1      41.007  31.340  30.220  1.00  0.00     0.074 A 
ATOM     51  C   UNL A   1      46.808  30.962  27.687  1.00  0.00     0.029 A 
ATOM     52  N   UNL A   1      44.746  30.532  28.399  1.00  0.00    -0.354 N 
ATOM     53  N   UNL A   1      42.166  31.189  29.627  1.00  0.00    -0.248 NA
ATOM     54  C   UNL A   1      40.822  32.652  30.856  1.00  0.00     0.031 C 
ATOM     55  C   UNL A   1      46.294  32.120  28.280  1.00  0.00     0.029 A 
ATOM     56  C   UNL A   1      45.007  31.854  28.720  1.00  0.00     0.049 A 
ATOM     57  H   UNL A   1      43.903  30.061  28.589  1.00  0.00     0.167 HD
ATOM     58  C   UNL A   1      42.840  32.393  29.797  1.00  0.00     0.074 A 
ATOM     59  C   UNL A   1      41.947  33.272  30.523  1.00  0.00     0.031 C 
ATOM     60  C   UNL A   1      44.093  32.733  29.404  1.00  0.00     0.034 A 
BRANCH  47  61
ATOM     61  C   UNL A   1      47.224  28.130  26.720  1.00  0.00     0.023 A 
ATOM     62  C   UNL A   1      48.279  27.748  27.574  1.00  0.00     0.012 A 
ATOM     63  C   UNL A   1      47.384  28.006  25.327  1.00  0.00     0.148 A 
ATOM     64  C   UNL A   1      49.485  27.284  27.052  1.00  0.00     0.002 A 
ATOM     65  C   UNL A   1      48.576  27.502  24.814  1.00  0.00     0.091 A 
ATOM     66  F   UNL A   1      46.380  28.394  24.529  1.00  0.00    -0.205 F 
ATOM     67  C   UNL A   1      49.629  27.152  25.674  1.00  0.00     0.022 A 
BRANCH  65  68
ATOM     68  S   UNL A   1      48.830  27.224  23.058  1.00  0.00     0.127 S 
ATOM     69  O   UNL A   1      50.289  27.204  22.970  1.00  0.00    -0.237 OA
ATOM     70  O   UNL A   1      48.190  25.924  22.854  1.00  0.00    -0.237 OA
ATOM     71  O   UNL A   1      48.175  28.333  22.379  1.00  0.00    -0.744 OA
ENDBRANCH  65  68
ENDBRANCH  47  61
BRANCH  48  72
ATOM     72  C   UNL A   1      38.582  30.755  30.978  1.00  0.00     0.023 A 
ATOM     73  C   UNL A   1      38.442  30.535  32.362  1.00  0.00     0.012 A 
ATOM     74  C   UNL A   1      37.531  31.372  30.271  1.00  0.00     0.148 A 
ATOM     75  C   UNL A   1      37.270  30.899  33.025  1.00  0.00     0.002 A 
ATOM     76  C   UNL A   1      36.388  31.782  30.948  1.00  0.00     0.091 A 
ATOM     77  F   UNL A   1      37.677  31.560  28.951  1.00  0.00    -0.205 F 
ATOM     78  C   UNL A   1      36.250  31.534  32.322  1.00  0.00     0.022 A 
BRANCH  76  79
ATOM     79  S   UNL A   1      35.086  32.728  30.149  1.00  0.00     0.127 S 
ATOM     80  O   UNL A   1      34.164  32.964  31.257  1.00  0.00    -0.237 OA
ATOM     81  O   UNL A   1      35.811  33.912  29.687  1.00  0.00    -0.237 OA
ATOM     82  O   UNL A   1      34.588  31.877  29.076  1.00  0.00    -0.744 OA
ENDBRANCH  76  79
ENDBRANCH  48  72
BRANCH  60  83
ATOM     83  C   UNL A   1      44.576  34.119  29.740  1.00  0.00     0.023 A 
ATOM     84  C   UNL A   1      45.303  34.330  30.928  1.00  0.00     0.012 A 
ATOM     85  C   UNL A   1      44.378  35.192  28.850  1.00  0.00     0.148 A 
ATOM     86  C   UNL A   1      45.801  35.594  31.239  1.00  0.00     0.002 A 
ATOM     87  C   UNL A   1      44.916  36.439  29.145  1.00  0.00     0.091 A 
ATOM     88  F   UNL A   1      43.667  34.974  27.733  1.00  0.00    -0.205 F 
ATOM     89  C   UNL A   1      45.617  36.645  30.343  1.00  0.00     0.022 A 
BRANCH  87  90
ATOM     90  S   UNL A   1      44.808  37.826  28.007  1.00  0.00     0.127 S 
ATOM     91  O   UNL A   1      45.450  37.281  26.811  1.00  0.00    -0.237 OA
ATOM     92  O   UNL A   1      43.362  38.020  27.887  1.00  0.00    -0.237 OA
ATOM     93  O   UNL A   1      45.513  38.927  28.650  1.00  0.00    -0.744 OA
ENDBRANCH  87  90
ENDBRANCH  60  83
ENDBRANCH  34  35
ENDBRANCH  26  29
ENDBRANCH  24  25
ENDBRANCH   1  24
TORSDOF 16
ENDMDL
MODEL 3
REMARK VINA RESULT:     -11.8      3.561      9.230
REMARK SMILES CC[C@H](C(=O)NCCCNC(=O)c1ccc(-c2c3nc(c(-c4cccc(S(=O)(=O)[O-])c4F)c4ccc([nH]4)c(-c4cccc(S(=O)(=O)[O-])c4F)c4nc(c(-c5cccc(S(=O)(=O)[O-])c5F)c5ccc2[nH]5)C=C4)C=C3)cc1)N1C(=O)c2ccc([N+](=O)[O-])cc2C1=O
REMARK SMILES IDX 8 1 7 2 6 3 4 4 5 5 3 7 2 8 1 9 76 10 77 11 88 12 78 13
REMARK SMILES IDX 79 14 87 15 89 16 80 17 86 18 81 19 82 20 83 21 84 22 85 23
REMARK SMILES IDX 9 24 10 25 11 26 12 28 13 29 14 30 75 31 15 32 74 33 16 34
REMARK SMILES IDX 17 35 18 36 68 37 19 38 73 39 67 40 69 41 20 42 72 43 66 44
REMARK SMILES IDX 65 45 21 47 53 48 33 49 52 50 34 51 37 52 51 53 70 54 35 55
REMARK SMILES IDX 36 56 50 58 71 59 38 60 22 61 23 62 31 63 24 64 26 65 32 66
REMARK SMILES IDX 25 67 27 68 28 69 29 70 30 71 54 72 55 73 63 74 56 75 58 76
REMARK SMILES IDX 64 77 57 78 59 79 60 80 61 81 62 82 39 83 40 84 48 85 41 86
REMARK SMILES IDX 43 87 49 88 42 89 44 90 45 91 46 92 47 93
REMARK H PARENT 6 6 10 27 69 46 37 57
REMARK Flexibility Score: inf
ROOT
ATOM      1  C   UNL A   1      31.566  31.939  26.491  1.00  0.00     0.042 C 
ENDROOT
BRANCH   1   2
ATOM      2  C   UNL A   1      31.598  30.419  26.392  1.00  0.00     0.117 C 
BRANCH   2   3
ATOM      3  N   UNL A   1      32.276  29.959  25.191  1.00  0.00    -0.354 N 
ATOM      4  C   UNL A   1      31.886  29.103  24.207  1.00  0.00     0.243 C 
ATOM      5  O   UNL A   1      32.566  29.112  23.172  1.00  0.00    -0.273 OA
ATOM      6  H   UNL A   1      33.178  30.333  25.067  1.00  0.00     0.163 HD
BRANCH   4   7
ATOM      7  C   UNL A   1      30.589  28.261  24.257  1.00  0.00     0.183 C 
BRANCH   7   8
ATOM      8  C   UNL A   1      29.549  28.348  23.136  1.00  0.00     0.032 C 
ATOM      9  C   UNL A   1      29.090  29.769  22.835  1.00  0.00     0.006 C 
ENDBRANCH   7   8
BRANCH   7  10
ATOM     10  N   UNL A   1      30.915  26.885  24.644  1.00  0.00    -0.262 N 
ATOM     11  C   UNL A   1      31.053  26.428  25.925  1.00  0.00     0.262 C 
ATOM     12  C   UNL A   1      31.276  25.923  23.739  1.00  0.00     0.262 C 
ATOM     13  O   UNL A   1      30.974  27.000  26.993  1.00  0.00    -0.269 OA
ATOM     14  C   UNL A   1      31.381  25.010  25.835  1.00  0.00     0.053 A 
ATOM     15  C   UNL A   1      31.563  24.708  24.500  1.00  0.00     0.060 A 
ATOM     16  O   UNL A   1      31.398  25.997  22.531  1.00  0.00    -0.269 OA
ATOM     17  C   UNL A   1      31.528  24.070  26.837  1.00  0.00     0.022 A 
ATOM     18  C   UNL A   1      31.961  23.452  24.083  1.00  0.00     0.100 A 
ATOM     19  C   UNL A   1      31.904  22.779  26.452  1.00  0.00     0.086 A 
ATOM     20  C   UNL A   1      32.136  22.484  25.085  1.00  0.00     0.270 A 
BRANCH  20  21
ATOM     21  N   UNL A   1      32.585  21.136  24.714  1.00  0.00     0.062 N 
ATOM     22  O   UNL A   1      33.614  21.043  24.031  1.00  0.00    -0.258 OA
ATOM     23  O   UNL A   1      31.901  20.178  25.098  1.00  0.00    -0.258 OA
ENDBRANCH  20  21
ENDBRANCH   7  10
ENDBRANCH   4   7
ENDBRANCH   2   3
ENDBRANCH   1   2
BRANCH   1  24
ATOM     24  C   UNL A   1      32.729  32.499  27.302  1.00  0.00     0.118 C 
BRANCH  24  25
ATOM     25  N   UNL A   1      32.542  33.910  27.618  1.00  0.00    -0.352 N 
ATOM     26  C   UNL A   1      33.129  34.677  28.595  1.00  0.00     0.251 C 
ATOM     27  H   UNL A   1      31.898  34.385  27.045  1.00  0.00     0.163 HD
ATOM     28  O   UNL A   1      32.674  35.791  28.843  1.00  0.00    -0.269 OA
BRANCH  26  29
ATOM     29  C   UNL A   1      34.293  34.168  29.354  1.00  0.00     0.039 A 
ATOM     30  C   UNL A   1      34.070  33.429  30.520  1.00  0.00     0.014 A 
ATOM     31  C   UNL A   1      35.600  34.436  28.939  1.00  0.00     0.014 A 
ATOM     32  C   UNL A   1      35.154  32.911  31.234  1.00  0.00     0.010 A 
ATOM     33  C   UNL A   1      36.674  33.853  29.604  1.00  0.00     0.010 A 
ATOM     34  C   UNL A   1      36.465  33.091  30.763  1.00  0.00    -0.014 A 
BRANCH  34  35
ATOM     35  C   UNL A   1      37.629  32.481  31.457  1.00  0.00     0.031 A 
ATOM     36  C   UNL A   1      38.379  31.338  30.828  1.00  0.00     0.074 A 
ATOM     37  C   UNL A   1      37.951  32.895  32.699  1.00  0.00     0.049 A 
ATOM     38  N   UNL A   1      39.376  30.642  31.312  1.00  0.00    -0.248 NA
ATOM     39  C   UNL A   1      37.934  30.900  29.495  1.00  0.00     0.031 C 
ATOM     40  C   UNL A   1      37.248  33.936  33.452  1.00  0.00     0.029 A 
ATOM     41  N   UNL A   1      38.934  32.471  33.559  1.00  0.00    -0.354 N 
ATOM     42  C   UNL A   1      39.650  29.663  30.364  1.00  0.00     0.074 A 
ATOM     43  C   UNL A   1      38.695  29.835  29.291  1.00  0.00     0.031 C 
ATOM     44  C   UNL A   1      37.822  34.071  34.658  1.00  0.00     0.029 A 
ATOM     45  C   UNL A   1      38.914  33.110  34.776  1.00  0.00     0.049 A 
ATOM     46  H   UNL A   1      39.590  31.775  33.326  1.00  0.00     0.167 HD
ATOM     47  C   UNL A   1      40.629  28.727  30.369  1.00  0.00     0.034 A 
ATOM     48  C   UNL A   1      39.685  32.939  35.869  1.00  0.00     0.034 A 
ATOM     49  C   UNL A   1      41.612  28.594  31.410  1.00  0.00     0.049 A 
ATOM     50  C   UNL A   1      40.795  31.925  35.830  1.00  0.00     0.074 A 
ATOM     51  C   UNL A   1      42.708  27.751  31.456  1.00  0.00     0.029 A 
ATOM     52  N   UNL A   1      41.615  29.319  32.592  1.00  0.00    -0.354 N 
ATOM     53  N   UNL A   1      41.149  31.128  34.851  1.00  0.00    -0.248 NA
ATOM     54  C   UNL A   1      41.633  31.810  37.032  1.00  0.00     0.031 C 
ATOM     55  C   UNL A   1      43.364  27.954  32.675  1.00  0.00     0.029 A 
ATOM     56  C   UNL A   1      42.686  28.934  33.380  1.00  0.00     0.049 A 
ATOM     57  H   UNL A   1      40.953  30.007  32.834  1.00  0.00     0.167 HD
ATOM     58  C   UNL A   1      42.264  30.435  35.308  1.00  0.00     0.074 A 
ATOM     59  C   UNL A   1      42.543  30.927  36.642  1.00  0.00     0.031 C 
ATOM     60  C   UNL A   1      42.980  29.465  34.688  1.00  0.00     0.034 A 
BRANCH  47  61
ATOM     61  C   UNL A   1      40.726  27.810  29.177  1.00  0.00     0.023 A 
ATOM     62  C   UNL A   1      39.887  26.679  29.105  1.00  0.00     0.012 A 
ATOM     63  C   UNL A   1      41.598  28.091  28.108  1.00  0.00     0.148 A 
ATOM     64  C   UNL A   1      39.939  25.823  28.007  1.00  0.00     0.002 A 
ATOM     65  C   UNL A   1      41.615  27.254  26.996  1.00  0.00     0.091 A 
ATOM     66  F   UNL A   1      42.405  29.157  28.202  1.00  0.00    -0.205 F 
ATOM     67  C   UNL A   1      40.795  26.115  26.949  1.00  0.00     0.022 A 
BRANCH  65  68
ATOM     68  S   UNL A   1      42.628  27.589  25.551  1.00  0.00     0.127 S 
ATOM     69  O   UNL A   1      42.044  28.837  25.064  1.00  0.00    -0.237 OA
ATOM     70  O   UNL A   1      43.963  27.729  26.134  1.00  0.00    -0.237 OA
ATOM     71  O   UNL A   1      42.469  26.437  24.676  1.00  0.00    -0.744 OA
ENDBRANCH  65  68
ENDBRANCH  47  61
BRANCH  48  72
ATOM     72  C   UNL A   1      39.475  33.804  37.064  1.00  0.00     0.023 A 
ATOM     73  C   UNL A   1      39.874  35.154  37.015  1.00  0.00     0.012 A 
ATOM     74  C   UNL A   1      38.847  33.315  38.226  1.00  0.00     0.148 A 
ATOM     75  C   UNL A   1      39.672  35.995  38.109  1.00  0.00     0.002 A 
ATOM     76  C   UNL A   1      38.599  34.172  39.293  1.00  0.00     0.091 A 
ATOM     77  F   UNL A   1      38.488  32.023  38.259  1.00  0.00    -0.205 F 
ATOM     78  C   UNL A   1      39.025  35.508  39.242  1.00  0.00     0.022 A 
BRANCH  76  79
ATOM     79  S   UNL A   1      37.651  33.666  40.731  1.00  0.00     0.127 S 
ATOM     80  O   UNL A   1      36.452  33.103  40.117  1.00  0.00    -0.237 OA
ATOM     81  O   UNL A   1      38.543  32.687  41.354  1.00  0.00    -0.237 OA
ATOM     82  O   UNL A   1      37.455  34.878  41.516  1.00  0.00    -0.744 OA
ENDBRANCH  76  79
ENDBRANCH  48  72
BRANCH  60  83
ATOM     83  C   UNL A   1      44.144  28.872  35.436  1.00  0.00     0.023 A 
ATOM     84  C   UNL A   1      45.427  29.433  35.279  1.00  0.00     0.012 A 
ATOM     85  C   UNL A   1      43.959  27.813  36.347  1.00  0.00     0.148 A 
ATOM     86  C   UNL A   1      46.512  28.932  35.996  1.00  0.00     0.002 A 
ATOM     87  C   UNL A   1      45.036  27.349  37.091  1.00  0.00     0.091 A 
ATOM     88  F   UNL A   1      42.733  27.281  36.468  1.00  0.00    -0.205 F 
ATOM     89  C   UNL A   1      46.315  27.899  36.910  1.00  0.00     0.022 A 
BRANCH  87  90
ATOM     90  S   UNL A   1      44.858  26.085  38.356  1.00  0.00     0.127 S 
ATOM     91  O   UNL A   1      44.409  24.937  37.568  1.00  0.00    -0.237 OA
ATOM     92  O   UNL A   1      46.221  25.970  38.877  1.00  0.00    -0.237 OA
ATOM     93  O   UNL A   1      43.889  26.607  39.310  1.00  0.00    -0.744 OA
ENDBRANCH  87  90
ENDBRANCH  60  83
ENDBRANCH  34  35
ENDBRANCH  26  29
ENDBRANCH  24  25
ENDBRANCH   1  24
TORSDOF 16
ENDMDL
