MODEL 1
REMARK VINA RESULT:     -10.7      0.000      0.000
REMARK SMILES CC(C)S(=O)(=O)N[C@](C)(C(=O)NCCCNC(=O)c1ccc(-c2c3nc(c(-c4cccc(S(=O)(=O)[O-])c4F)c4ccc([nH]4)c(-c4cccc(S(=O)(=O)[O-])c4F)c4nc(c(-c5cccc(S(=O)(=O)[O-])c5F)c5ccc2[nH]5)C=C4)C=C3)cc1)C(F)(F)F
REMARK SMILES IDX 14 1 13 2 12 3 10 4 11 5 8 7 9 8 7 9 4 11 5 12 6 13 2 14
REMARK SMILES IDX 1 15 3 16 82 17 83 18 84 19 85 20 15 21 16 22 17 23 18 25
REMARK SMILES IDX 19 26 20 27 81 28 21 29 80 30 22 31 23 32 24 33 74 34 25 35
REMARK SMILES IDX 79 36 73 37 75 38 26 39 78 40 72 41 71 42 27 44 59 45 39 46
REMARK SMILES IDX 58 47 40 48 43 49 57 50 76 51 41 52 42 53 56 55 77 56 44 57
REMARK SMILES IDX 28 58 29 59 37 60 30 61 32 62 38 63 31 64 33 65 34 66 35 67
REMARK SMILES IDX 36 68 60 69 61 70 69 71 62 72 64 73 70 74 63 75 65 76 66 77
REMARK SMILES IDX 67 78 68 79 45 80 46 81 54 82 47 83 49 84 55 85 48 86 50 87
REMARK SMILES IDX 51 88 52 89 53 90
REMARK H PARENT 12 6 7 10 16 24 75 43 43 54
REMARK Flexibility Score: inf
ROOT
ATOM      1  C   UNL A   1      31.508  32.050  26.623  1.00  0.00     0.042 C 
ENDROOT
BRANCH   1   2
ATOM      2  C   UNL A   1      31.555  30.530  26.594  1.00  0.00     0.117 C 
BRANCH   2   3
ATOM      3  N   UNL A   1      32.733  29.987  25.937  1.00  0.00    -0.354 N 
ATOM      4  C   UNL A   1      32.877  29.152  24.858  1.00  0.00     0.250 C 
ATOM      5  O   UNL A   1      34.028  29.049  24.428  1.00  0.00    -0.273 OA
ATOM      6  H   UNL A   1      33.584  30.271  26.341  1.00  0.00     0.163 HD
BRANCH   4   7
ATOM      7  C   UNL A   1      31.666  28.407  24.228  1.00  0.00     0.204 C 
ATOM      8  C   UNL A   1      30.997  27.594  25.332  1.00  0.00     0.050 C 
BRANCH   7   9
ATOM      9  N   UNL A   1      30.758  29.516  23.718  1.00  0.00    -0.191 NA
ATOM     10  H   UNL A   1      30.419  29.988  24.556  1.00  0.00     0.142 HD
BRANCH   9  11
ATOM     11  S   UNL A   1      29.422  29.329  22.759  1.00  0.00     0.215 S 
ATOM     12  O   UNL A   1      28.698  28.161  23.183  1.00  0.00    -0.212 OA
ATOM     13  O   UNL A   1      29.975  29.380  21.419  1.00  0.00    -0.212 OA
BRANCH  11  14
ATOM     14  C   UNL A   1      28.387  30.804  22.946  1.00  0.00     0.118 C 
ATOM     15  C   UNL A   1      28.954  31.842  23.903  1.00  0.00     0.026 C 
ATOM     16  C   UNL A   1      27.993  31.423  21.610  1.00  0.00     0.026 C 
ENDBRANCH  11  14
ENDBRANCH   9  11
ENDBRANCH   7   9
BRANCH   7  17
ATOM     17  C   UNL A   1      32.250  27.445  23.165  1.00  0.00     0.416 C 
ATOM     18  F   UNL A   1      32.900  28.113  22.178  1.00  0.00    -0.168 F 
ATOM     19  F   UNL A   1      33.186  26.621  23.693  1.00  0.00    -0.168 F 
ATOM     20  F   UNL A   1      31.297  26.676  22.590  1.00  0.00    -0.168 F 
ENDBRANCH   7  17
ENDBRANCH   4   7
ENDBRANCH   2   3
ENDBRANCH   1   2
BRANCH   1  21
ATOM     21  C   UNL A   1      32.808  32.705  27.062  1.00  0.00     0.118 C 
BRANCH  21  22
ATOM     22  N   UNL A   1      32.601  34.028  27.632  1.00  0.00    -0.352 N 
ATOM     23  C   UNL A   1      33.169  34.617  28.732  1.00  0.00     0.251 C 
ATOM     24  H   UNL A   1      31.951  34.589  27.149  1.00  0.00     0.163 HD
ATOM     25  O   UNL A   1      32.697  35.671  29.151  1.00  0.00    -0.269 OA
BRANCH  23  26
ATOM     26  C   UNL A   1      34.326  33.998  29.416  1.00  0.00     0.039 A 
ATOM     27  C   UNL A   1      34.088  33.071  30.435  1.00  0.00     0.014 A 
ATOM     28  C   UNL A   1      35.638  34.362  29.102  1.00  0.00     0.014 A 
ATOM     29  C   UNL A   1      35.164  32.492  31.112  1.00  0.00     0.010 A 
ATOM     30  C   UNL A   1      36.708  33.709  29.707  1.00  0.00     0.010 A 
ATOM     31  C   UNL A   1      36.485  32.793  30.742  1.00  0.00    -0.014 A 
BRANCH  31  32
ATOM     32  C   UNL A   1      37.641  32.202  31.463  1.00  0.00     0.031 A 
ATOM     33  C   UNL A   1      38.429  31.082  30.831  1.00  0.00     0.074 A 
ATOM     34  C   UNL A   1      37.949  32.626  32.704  1.00  0.00     0.049 A 
ATOM     35  N   UNL A   1      39.444  30.413  31.315  1.00  0.00    -0.248 NA
ATOM     36  C   UNL A   1      38.004  30.636  29.493  1.00  0.00     0.031 C 
ATOM     37  C   UNL A   1      37.219  33.652  33.453  1.00  0.00     0.029 A 
ATOM     38  N   UNL A   1      38.943  32.232  33.563  1.00  0.00    -0.354 N 
ATOM     39  C   UNL A   1      39.752  29.447  30.362  1.00  0.00     0.074 A 
ATOM     40  C   UNL A   1      38.789  29.587  29.293  1.00  0.00     0.031 C 
ATOM     41  C   UNL A   1      37.796  33.811  34.654  1.00  0.00     0.029 A 
ATOM     42  C   UNL A   1      38.914  32.880  34.775  1.00  0.00     0.049 A 
ATOM     43  H   UNL A   1      39.614  31.549  33.333  1.00  0.00     0.167 HD
ATOM     44  C   UNL A   1      40.762  28.546  30.360  1.00  0.00     0.034 A 
ATOM     45  C   UNL A   1      39.694  32.735  35.864  1.00  0.00     0.034 A 
ATOM     46  C   UNL A   1      41.740  28.434  31.407  1.00  0.00     0.049 A 
ATOM     47  C   UNL A   1      40.833  31.753  35.821  1.00  0.00     0.074 A 
ATOM     48  C   UNL A   1      42.846  27.607  31.466  1.00  0.00     0.029 A 
ATOM     49  N   UNL A   1      41.725  29.167  32.583  1.00  0.00    -0.354 N 
ATOM     50  N   UNL A   1      41.190  30.945  34.853  1.00  0.00    -0.248 NA
ATOM     51  C   UNL A   1      41.704  31.696  37.003  1.00  0.00     0.031 C 
ATOM     52  C   UNL A   1      43.482  27.813  32.695  1.00  0.00     0.029 A 
ATOM     53  C   UNL A   1      42.799  28.808  33.377  1.00  0.00     0.049 A 
ATOM     54  H   UNL A   1      41.050  29.843  32.819  1.00  0.00     0.167 HD
ATOM     55  C   UNL A   1      42.354  30.321  35.288  1.00  0.00     0.074 A 
ATOM     56  C   UNL A   1      42.647  30.856  36.602  1.00  0.00     0.031 C 
ATOM     57  C   UNL A   1      43.110  29.388  34.659  1.00  0.00     0.034 A 
BRANCH  44  58
ATOM     58  C   UNL A   1      40.882  27.632  29.166  1.00  0.00     0.023 A 
ATOM     59  C   UNL A   1      40.121  26.445  29.111  1.00  0.00     0.012 A 
ATOM     60  C   UNL A   1      41.707  27.972  28.076  1.00  0.00     0.148 A 
ATOM     61  C   UNL A   1      40.214  25.591  28.013  1.00  0.00     0.002 A 
ATOM     62  C   UNL A   1      41.754  27.142  26.962  1.00  0.00     0.091 A 
ATOM     63  F   UNL A   1      42.437  29.094  28.153  1.00  0.00    -0.205 F 
ATOM     64  C   UNL A   1      41.020  25.945  26.935  1.00  0.00     0.022 A 
BRANCH  62  65
ATOM     65  S   UNL A   1      42.694  27.550  25.489  1.00  0.00     0.127 S 
ATOM     66  O   UNL A   1      44.045  27.693  26.031  1.00  0.00    -0.237 OA
ATOM     67  O   UNL A   1      42.493  26.363  24.658  1.00  0.00    -0.237 OA
ATOM     68  O   UNL A   1      42.104  28.771  24.957  1.00  0.00    -0.744 OA
ENDBRANCH  62  65
ENDBRANCH  44  58
BRANCH  45  69
ATOM     69  C   UNL A   1      39.461  33.583  37.067  1.00  0.00     0.023 A 
ATOM     70  C   UNL A   1      39.944  34.907  37.091  1.00  0.00     0.012 A 
ATOM     71  C   UNL A   1      38.752  33.091  38.180  1.00  0.00     0.148 A 
ATOM     72  C   UNL A   1      39.762  35.710  38.217  1.00  0.00     0.002 A 
ATOM     73  C   UNL A   1      38.523  33.915  39.274  1.00  0.00     0.091 A 
ATOM     74  F   UNL A   1      38.305  31.828  38.138  1.00  0.00    -0.205 F 
ATOM     75  C   UNL A   1      39.045  35.218  39.304  1.00  0.00     0.022 A 
BRANCH  73  76
ATOM     76  S   UNL A   1      37.499  33.413  40.660  1.00  0.00     0.127 S 
ATOM     77  O   UNL A   1      37.394  34.656  41.420  1.00  0.00    -0.237 OA
ATOM     78  O   UNL A   1      36.269  32.994  39.988  1.00  0.00    -0.237 OA
ATOM     79  O   UNL A   1      38.223  32.332  41.316  1.00  0.00    -0.744 OA
ENDBRANCH  73  76
ENDBRANCH  45  69
BRANCH  57  80
ATOM     80  C   UNL A   1      44.373  28.932  35.343  1.00  0.00     0.023 A 
ATOM     81  C   UNL A   1      45.607  29.549  35.054  1.00  0.00     0.012 A 
ATOM     82  C   UNL A   1      44.320  27.922  36.325  1.00  0.00     0.148 A 
ATOM     83  C   UNL A   1      46.773  29.137  35.698  1.00  0.00     0.002 A 
ATOM     84  C   UNL A   1      45.475  27.557  37.004  1.00  0.00     0.091 A 
ATOM     85  F   UNL A   1      43.141  27.333  36.573  1.00  0.00    -0.205 F 
ATOM     86  C   UNL A   1      46.705  28.151  36.680  1.00  0.00     0.022 A 
BRANCH  84  87
ATOM     87  S   UNL A   1      45.461  26.373  38.354  1.00  0.00     0.127 S 
ATOM     88  O   UNL A   1      46.852  26.418  38.803  1.00  0.00    -0.237 OA
ATOM     89  O   UNL A   1      44.500  26.972  39.281  1.00  0.00    -0.237 OA
ATOM     90  O   UNL A   1      45.031  25.107  37.774  1.00  0.00    -0.744 OA
ENDBRANCH  84  87
ENDBRANCH  57  80
ENDBRANCH  31  32
ENDBRANCH  23  26
ENDBRANCH  21  22
ENDBRANCH   1  21
TORSDOF 17
ENDMDL
MODEL 2
REMARK VINA RESULT:     -10.6      3.877      9.033
REMARK SMILES CC(C)S(=O)(=O)N[C@](C)(C(=O)NCCCNC(=O)c1ccc(-c2c3nc(c(-c4cccc(S(=O)(=O)[O-])c4F)c4ccc([nH]4)c(-c4cccc(S(=O)(=O)[O-])c4F)c4nc(c(-c5cccc(S(=O)(=O)[O-])c5F)c5ccc2[nH]5)C=C4)C=C3)cc1)C(F)(F)F
REMARK SMILES IDX 14 1 13 2 12 3 10 4 11 5 8 7 9 8 7 9 4 11 5 12 6 13 2 14
REMARK SMILES IDX 1 15 3 16 82 17 83 18 84 19 85 20 15 21 16 22 17 23 18 25
REMARK SMILES IDX 19 26 20 27 81 28 21 29 80 30 22 31 23 32 24 33 74 34 25 35
REMARK SMILES IDX 79 36 73 37 75 38 26 39 78 40 72 41 71 42 27 44 59 45 39 46
REMARK SMILES IDX 58 47 40 48 43 49 57 50 76 51 41 52 42 53 56 55 77 56 44 57
REMARK SMILES IDX 28 58 29 59 37 60 30 61 32 62 38 63 31 64 33 65 34 66 35 67
REMARK SMILES IDX 36 68 60 69 61 70 69 71 62 72 64 73 70 74 63 75 65 76 66 77
REMARK SMILES IDX 67 78 68 79 45 80 46 81 54 82 47 83 49 84 55 85 48 86 50 87
REMARK SMILES IDX 51 88 52 89 53 90
REMARK H PARENT 12 6 7 10 16 24 75 43 43 54
REMARK Flexibility Score: inf
ROOT
ATOM      1  C   UNL A   1      32.503  27.480  27.034  1.00  0.00     0.042 C 
ENDROOT
BRANCH   1   2
ATOM      2  C   UNL A   1      31.608  26.762  26.036  1.00  0.00     0.117 C 
BRANCH   2   3
ATOM      3  N   UNL A   1      30.923  25.602  26.584  1.00  0.00    -0.354 N 
ATOM      4  C   UNL A   1      31.173  24.257  26.483  1.00  0.00     0.250 C 
ATOM      5  O   UNL A   1      30.513  23.545  27.243  1.00  0.00    -0.273 OA
ATOM      6  H   UNL A   1      30.133  25.823  27.129  1.00  0.00     0.163 HD
BRANCH   4   7
ATOM      7  C   UNL A   1      32.221  23.689  25.484  1.00  0.00     0.204 C 
ATOM      8  C   UNL A   1      31.798  22.268  25.125  1.00  0.00     0.050 C 
BRANCH   7   9
ATOM      9  N   UNL A   1      32.144  24.618  24.281  1.00  0.00    -0.191 NA
ATOM     10  H   UNL A   1      31.163  24.613  24.004  1.00  0.00     0.142 HD
BRANCH   9  11
ATOM     11  S   UNL A   1      32.992  24.467  22.867  1.00  0.00     0.215 S 
ATOM     12  O   UNL A   1      32.574  23.267  22.194  1.00  0.00    -0.212 OA
ATOM     13  O   UNL A   1      34.370  24.600  23.300  1.00  0.00    -0.212 OA
BRANCH  11  14
ATOM     14  C   UNL A   1      32.631  25.914  21.840  1.00  0.00     0.118 C 
ATOM     15  C   UNL A   1      33.537  27.107  22.109  1.00  0.00     0.026 C 
ATOM     16  C   UNL A   1      32.560  25.582  20.354  1.00  0.00     0.026 C 
ENDBRANCH  11  14
ENDBRANCH   9  11
ENDBRANCH   7   9
BRANCH   7  17
ATOM     17  C   UNL A   1      33.570  23.646  26.243  1.00  0.00     0.416 C 
ATOM     18  F   UNL A   1      33.409  23.295  27.543  1.00  0.00    -0.168 F 
ATOM     19  F   UNL A   1      34.402  22.705  25.735  1.00  0.00    -0.168 F 
ATOM     20  F   UNL A   1      34.215  24.834  26.208  1.00  0.00    -0.168 F 
ENDBRANCH   7  17
ENDBRANCH   4   7
ENDBRANCH   2   3
ENDBRANCH   1   2
BRANCH   1  21
ATOM     21  C   UNL A   1      33.592  28.327  26.397  1.00  0.00     0.118 C 
BRANCH  21  22
ATOM     22  N   UNL A   1      33.454  29.741  26.710  1.00  0.00    -0.352 N 
ATOM     23  C   UNL A   1      34.223  30.552  27.505  1.00  0.00     0.251 C 
ATOM     24  H   UNL A   1      32.687  30.186  26.282  1.00  0.00     0.163 HD
ATOM     25  O   UNL A   1      33.805  31.672  27.790  1.00  0.00    -0.269 OA
BRANCH  23  26
ATOM     26  C   UNL A   1      35.532  30.094  28.021  1.00  0.00     0.039 A 
ATOM     27  C   UNL A   1      36.667  30.268  27.223  1.00  0.00     0.014 A 
ATOM     28  C   UNL A   1      35.644  29.449  29.254  1.00  0.00     0.014 A 
ATOM     29  C   UNL A   1      37.911  29.822  27.676  1.00  0.00     0.010 A 
ATOM     30  C   UNL A   1      36.897  29.098  29.748  1.00  0.00     0.010 A 
ATOM     31  C   UNL A   1      38.040  29.248  28.951  1.00  0.00    -0.014 A 
BRANCH  31  32
ATOM     32  C   UNL A   1      39.350  28.752  29.443  1.00  0.00     0.031 A 
ATOM     33  C   UNL A   1      40.053  29.469  30.568  1.00  0.00     0.074 A 
ATOM     34  C   UNL A   1      39.936  27.695  28.846  1.00  0.00     0.049 A 
ATOM     35  N   UNL A   1      41.216  29.213  31.110  1.00  0.00    -0.248 NA
ATOM     36  C   UNL A   1      39.376  30.646  31.139  1.00  0.00     0.031 C 
ATOM     37  C   UNL A   1      39.392  26.960  27.703  1.00  0.00     0.029 A 
ATOM     38  N   UNL A   1      41.130  27.071  29.106  1.00  0.00    -0.354 N 
ATOM     39  C   UNL A   1      41.424  30.213  32.054  1.00  0.00     0.074 A 
ATOM     40  C   UNL A   1      40.290  31.106  31.980  1.00  0.00     0.031 C 
ATOM     41  C   UNL A   1      40.245  25.980  27.365  1.00  0.00     0.029 A 
ATOM     42  C   UNL A   1      41.409  26.035  28.245  1.00  0.00     0.049 A 
ATOM     43  H   UNL A   1      41.730  27.339  29.839  1.00  0.00     0.167 HD
ATOM     44  C   UNL A   1      42.449  30.360  32.926  1.00  0.00     0.034 A 
ATOM     45  C   UNL A   1      42.484  25.227  28.168  1.00  0.00     0.034 A 
ATOM     46  C   UNL A   1      43.557  29.449  33.023  1.00  0.00     0.049 A 
ATOM     47  C   UNL A   1      43.592  25.387  29.173  1.00  0.00     0.074 A 
ATOM     48  C   UNL A   1      44.608  29.465  33.922  1.00  0.00     0.029 A 
ATOM     49  N   UNL A   1      43.762  28.363  32.187  1.00  0.00    -0.354 N 
ATOM     50  N   UNL A   1      43.704  26.257  30.147  1.00  0.00    -0.248 NA
ATOM     51  C   UNL A   1      44.700  24.426  29.096  1.00  0.00     0.031 C 
ATOM     52  C   UNL A   1      45.468  28.409  33.608  1.00  0.00     0.029 A 
ATOM     53  C   UNL A   1      44.925  27.704  32.545  1.00  0.00     0.049 A 
ATOM     54  H   UNL A   1      43.168  28.099  31.448  1.00  0.00     0.167 HD
ATOM     55  C   UNL A   1      44.867  25.917  30.830  1.00  0.00     0.074 A 
ATOM     56  C   UNL A   1      45.415  24.754  30.164  1.00  0.00     0.031 C 
ATOM     57  C   UNL A   1      45.430  26.515  31.908  1.00  0.00     0.034 A 
BRANCH  44  58
ATOM     58  C   UNL A   1      42.400  31.532  33.873  1.00  0.00     0.023 A 
ATOM     59  C   UNL A   1      42.920  32.781  33.472  1.00  0.00     0.012 A 
ATOM     60  C   UNL A   1      41.794  31.413  35.139  1.00  0.00     0.148 A 
ATOM     61  C   UNL A   1      42.878  33.878  34.331  1.00  0.00     0.002 A 
ATOM     62  C   UNL A   1      41.708  32.525  35.969  1.00  0.00     0.091 A 
ATOM     63  F   UNL A   1      41.322  30.215  35.512  1.00  0.00    -0.205 F 
ATOM     64  C   UNL A   1      42.262  33.754  35.574  1.00  0.00     0.022 A 
BRANCH  62  65
ATOM     65  S   UNL A   1      40.861  32.490  37.551  1.00  0.00     0.127 S 
ATOM     66  O   UNL A   1      39.558  31.943  37.176  1.00  0.00    -0.237 OA
ATOM     67  O   UNL A   1      41.703  31.582  38.330  1.00  0.00    -0.237 OA
ATOM     68  O   UNL A   1      40.844  33.865  38.031  1.00  0.00    -0.744 OA
ENDBRANCH  62  65
ENDBRANCH  44  58
BRANCH  45  69
ATOM     69  C   UNL A   1      42.538  24.154  27.135  1.00  0.00     0.023 A 
ATOM     70  C   UNL A   1      43.365  24.313  26.005  1.00  0.00     0.012 A 
ATOM     71  C   UNL A   1      41.786  22.971  27.275  1.00  0.00     0.148 A 
ATOM     72  C   UNL A   1      43.409  23.334  25.014  1.00  0.00     0.002 A 
ATOM     73  C   UNL A   1      41.881  21.974  26.312  1.00  0.00     0.091 A 
ATOM     74  F   UNL A   1      41.003  22.841  28.355  1.00  0.00    -0.205 F 
ATOM     75  C   UNL A   1      42.675  22.162  25.170  1.00  0.00     0.022 A 
BRANCH  73  76
ATOM     76  S   UNL A   1      41.077  20.379  26.496  1.00  0.00     0.127 S 
ATOM     77  O   UNL A   1      39.681  20.716  26.229  1.00  0.00    -0.237 OA
ATOM     78  O   UNL A   1      41.733  19.590  25.453  1.00  0.00    -0.237 OA
ATOM     79  O   UNL A   1      41.372  19.941  27.854  1.00  0.00    -0.744 OA
ENDBRANCH  73  76
ENDBRANCH  45  69
BRANCH  57  80
ATOM     80  C   UNL A   1      46.669  25.885  32.491  1.00  0.00     0.023 A 
ATOM     81  C   UNL A   1      47.949  26.294  32.063  1.00  0.00     0.012 A 
ATOM     82  C   UNL A   1      46.558  24.922  33.514  1.00  0.00     0.148 A 
ATOM     83  C   UNL A   1      49.095  25.721  32.614  1.00  0.00     0.002 A 
ATOM     84  C   UNL A   1      47.704  24.398  34.097  1.00  0.00     0.091 A 
ATOM     85  F   UNL A   1      45.332  24.532  33.894  1.00  0.00    -0.205 F 
ATOM     86  C   UNL A   1      48.973  24.783  33.637  1.00  0.00     0.022 A 
BRANCH  84  87
ATOM     87  S   UNL A   1      47.640  23.267  35.491  1.00  0.00     0.127 S 
ATOM     88  O   UNL A   1      49.060  23.032  35.747  1.00  0.00    -0.237 OA
ATOM     89  O   UNL A   1      46.960  24.067  36.509  1.00  0.00    -0.237 OA
ATOM     90  O   UNL A   1      46.887  22.107  35.032  1.00  0.00    -0.744 OA
ENDBRANCH  84  87
ENDBRANCH  57  80
ENDBRANCH  31  32
ENDBRANCH  23  26
ENDBRANCH  21  22
ENDBRANCH   1  21
TORSDOF 17
ENDMDL
MODEL 3
REMARK VINA RESULT:     -10.6      3.947      9.209
REMARK SMILES CC(C)S(=O)(=O)N[C@](C)(C(=O)NCCCNC(=O)c1ccc(-c2c3nc(c(-c4cccc(S(=O)(=O)[O-])c4F)c4ccc([nH]4)c(-c4cccc(S(=O)(=O)[O-])c4F)c4nc(c(-c5cccc(S(=O)(=O)[O-])c5F)c5ccc2[nH]5)C=C4)C=C3)cc1)C(F)(F)F
REMARK SMILES IDX 14 1 13 2 12 3 10 4 11 5 8 7 9 8 7 9 4 11 5 12 6 13 2 14
REMARK SMILES IDX 1 15 3 16 82 17 83 18 84 19 85 20 15 21 16 22 17 23 18 25
REMARK SMILES IDX 19 26 20 27 81 28 21 29 80 30 22 31 23 32 24 33 74 34 25 35
REMARK SMILES IDX 79 36 73 37 75 38 26 39 78 40 72 41 71 42 27 44 59 45 39 46
REMARK SMILES IDX 58 47 40 48 43 49 57 50 76 51 41 52 42 53 56 55 77 56 44 57
REMARK SMILES IDX 28 58 29 59 37 60 30 61 32 62 38 63 31 64 33 65 34 66 35 67
REMARK SMILES IDX 36 68 60 69 61 70 69 71 62 72 64 73 70 74 63 75 65 76 66 77
REMARK SMILES IDX 67 78 68 79 45 80 46 81 54 82 47 83 49 84 55 85 48 86 50 87
REMARK SMILES IDX 51 88 52 89 53 90
REMARK H PARENT 12 6 7 10 16 24 75 43 43 54
REMARK Flexibility Score: inf
ROOT
ATOM      1  C   UNL A   1      33.013  27.940  26.583  1.00  0.00     0.042 C 
ENDROOT
BRANCH   1   2
ATOM      2  C   UNL A   1      33.089  26.549  25.971  1.00  0.00     0.117 C 
BRANCH   2   3
ATOM      3  N   UNL A   1      33.555  26.534  24.594  1.00  0.00    -0.354 N 
ATOM      4  C   UNL A   1      33.327  25.663  23.559  1.00  0.00     0.250 C 
ATOM      5  O   UNL A   1      33.711  26.054  22.454  1.00  0.00    -0.273 OA
ATOM      6  H   UNL A   1      34.144  27.288  24.362  1.00  0.00     0.163 HD
BRANCH   4   7
ATOM      7  C   UNL A   1      32.625  24.292  23.777  1.00  0.00     0.204 C 
ATOM      8  C   UNL A   1      32.961  23.404  22.584  1.00  0.00     0.050 C 
BRANCH   7   9
ATOM      9  N   UNL A   1      33.232  23.755  25.065  1.00  0.00    -0.191 NA
ATOM     10  H   UNL A   1      34.238  23.877  24.956  1.00  0.00     0.142 HD
BRANCH   9  11
ATOM     11  S   UNL A   1      33.048  22.226  25.675  1.00  0.00     0.215 S 
ATOM     12  O   UNL A   1      31.755  21.721  25.296  1.00  0.00    -0.212 OA
ATOM     13  O   UNL A   1      33.364  22.398  27.080  1.00  0.00    -0.212 OA
BRANCH  11  14
ATOM     14  C   UNL A   1      34.353  21.183  24.975  1.00  0.00     0.118 C 
ATOM     15  C   UNL A   1      35.679  21.269  25.716  1.00  0.00     0.026 C 
ATOM     16  C   UNL A   1      33.911  19.739  24.772  1.00  0.00     0.026 C 
ENDBRANCH  11  14
ENDBRANCH   9  11
ENDBRANCH   7   9
BRANCH   7  17
ATOM     17  C   UNL A   1      31.104  24.578  23.793  1.00  0.00     0.416 C 
ATOM     18  F   UNL A   1      30.793  25.707  23.109  1.00  0.00    -0.168 F 
ATOM     19  F   UNL A   1      30.403  23.599  23.172  1.00  0.00    -0.168 F 
ATOM     20  F   UNL A   1      30.619  24.703  25.049  1.00  0.00    -0.168 F 
ENDBRANCH   7  17
ENDBRANCH   4   7
ENDBRANCH   2   3
ENDBRANCH   1   2
BRANCH   1  21
ATOM     21  C   UNL A   1      33.906  28.967  25.907  1.00  0.00     0.118 C 
BRANCH  21  22
ATOM     22  N   UNL A   1      33.753  30.298  26.475  1.00  0.00    -0.352 N 
ATOM     23  C   UNL A   1      34.469  30.927  27.461  1.00  0.00     0.251 C 
ATOM     24  H   UNL A   1      33.021  30.831  26.089  1.00  0.00     0.163 HD
ATOM     25  O   UNL A   1      34.038  31.980  27.927  1.00  0.00    -0.269 OA
BRANCH  23  26
ATOM     26  C   UNL A   1      35.736  30.355  27.967  1.00  0.00     0.039 A 
ATOM     27  C   UNL A   1      35.723  29.667  29.185  1.00  0.00     0.014 A 
ATOM     28  C   UNL A   1      36.941  30.535  27.285  1.00  0.00     0.014 A 
ATOM     29  C   UNL A   1      36.911  29.139  29.697  1.00  0.00     0.010 A 
ATOM     30  C   UNL A   1      38.102  29.921  27.744  1.00  0.00     0.010 A 
ATOM     31  C   UNL A   1      38.109  29.246  28.972  1.00  0.00    -0.014 A 
BRANCH  31  32
ATOM     32  C   UNL A   1      39.385  28.707  29.508  1.00  0.00     0.031 A 
ATOM     33  C   UNL A   1      40.064  29.391  30.667  1.00  0.00     0.074 A 
ATOM     34  C   UNL A   1      39.963  27.640  28.921  1.00  0.00     0.049 A 
ATOM     35  N   UNL A   1      41.198  29.095  31.250  1.00  0.00    -0.248 NA
ATOM     36  C   UNL A   1      39.400  30.581  31.226  1.00  0.00     0.031 C 
ATOM     37  C   UNL A   1      39.442  26.933  27.749  1.00  0.00     0.029 A 
ATOM     38  N   UNL A   1      41.127  26.978  29.218  1.00  0.00    -0.354 N 
ATOM     39  C   UNL A   1      41.398  30.078  32.212  1.00  0.00     0.074 A 
ATOM     40  C   UNL A   1      40.294  31.005  32.106  1.00  0.00     0.031 C 
ATOM     41  C   UNL A   1      40.279  25.932  27.433  1.00  0.00     0.029 A 
ATOM     42  C   UNL A   1      41.410  25.944  28.357  1.00  0.00     0.049 A 
ATOM     43  H   UNL A   1      41.707  27.221  29.977  1.00  0.00     0.167 HD
ATOM     44  C   UNL A   1      42.393  30.186  33.125  1.00  0.00     0.034 A 
ATOM     45  C   UNL A   1      42.463  25.106  28.311  1.00  0.00     0.034 A 
ATOM     46  C   UNL A   1      43.470  29.243  33.253  1.00  0.00     0.049 A 
ATOM     47  C   UNL A   1      43.536  25.223  29.360  1.00  0.00     0.074 A 
ATOM     48  C   UNL A   1      44.485  29.219  34.192  1.00  0.00     0.029 A 
ATOM     49  N   UNL A   1      43.675  28.160  32.413  1.00  0.00    -0.354 N 
ATOM     50  N   UNL A   1      43.635  26.078  30.347  1.00  0.00    -0.248 NA
ATOM     51  C   UNL A   1      44.618  24.231  29.314  1.00  0.00     0.031 C 
ATOM     52  C   UNL A   1      45.326  28.140  33.898  1.00  0.00     0.029 A 
ATOM     53  C   UNL A   1      44.804  27.464  32.807  1.00  0.00     0.049 A 
ATOM     54  H   UNL A   1      43.103  27.921  31.648  1.00  0.00     0.167 HD
ATOM     55  C   UNL A   1      44.760  25.697  31.070  1.00  0.00     0.074 A 
ATOM     56  C   UNL A   1      45.300  24.526  30.411  1.00  0.00     0.031 C 
ATOM     57  C   UNL A   1      45.299  26.267  32.176  1.00  0.00     0.034 A 
BRANCH  44  58
ATOM     58  C   UNL A   1      42.341  31.350  34.083  1.00  0.00     0.023 A 
ATOM     59  C   UNL A   1      43.144  32.486  33.852  1.00  0.00     0.012 A 
ATOM     60  C   UNL A   1      41.461  31.340  35.183  1.00  0.00     0.148 A 
ATOM     61  C   UNL A   1      43.105  33.574  34.723  1.00  0.00     0.002 A 
ATOM     62  C   UNL A   1      41.390  32.450  36.017  1.00  0.00     0.091 A 
ATOM     63  F   UNL A   1      40.719  30.245  35.399  1.00  0.00    -0.205 F 
ATOM     64  C   UNL A   1      42.221  33.561  35.798  1.00  0.00     0.022 A 
BRANCH  62  65
ATOM     65  S   UNL A   1      40.224  32.567  37.377  1.00  0.00     0.127 S 
ATOM     66  O   UNL A   1      41.069  32.227  38.520  1.00  0.00    -0.237 OA
ATOM     67  O   UNL A   1      39.819  33.971  37.314  1.00  0.00    -0.237 OA
ATOM     68  O   UNL A   1      39.162  31.614  37.082  1.00  0.00    -0.744 OA
ENDBRANCH  62  65
ENDBRANCH  44  58
BRANCH  45  69
ATOM     69  C   UNL A   1      42.525  24.043  27.269  1.00  0.00     0.023 A 
ATOM     70  C   UNL A   1      43.420  24.176  26.188  1.00  0.00     0.012 A 
ATOM     71  C   UNL A   1      41.714  22.894  27.351  1.00  0.00     0.148 A 
ATOM     72  C   UNL A   1      43.475  23.207  25.187  1.00  0.00     0.002 A 
ATOM     73  C   UNL A   1      41.817  21.905  26.382  1.00  0.00     0.091 A 
ATOM     74  F   UNL A   1      40.868  22.788  28.384  1.00  0.00    -0.205 F 
ATOM     75  C   UNL A   1      42.681  22.068  25.287  1.00  0.00     0.022 A 
BRANCH  73  76
ATOM     76  S   UNL A   1      40.933  20.346  26.499  1.00  0.00     0.127 S 
ATOM     77  O   UNL A   1      39.586  20.735  26.087  1.00  0.00    -0.237 OA
ATOM     78  O   UNL A   1      41.658  19.516  25.537  1.00  0.00    -0.237 OA
ATOM     79  O   UNL A   1      41.070  19.917  27.885  1.00  0.00    -0.744 OA
ENDBRANCH  73  76
ENDBRANCH  45  69
BRANCH  57  80
ATOM     80  C   UNL A   1      46.496  25.595  32.797  1.00  0.00     0.023 A 
ATOM     81  C   UNL A   1      47.802  26.014  32.472  1.00  0.00     0.012 A 
ATOM     82  C   UNL A   1      46.316  24.579  33.758  1.00  0.00     0.148 A 
ATOM     83  C   UNL A   1      48.909  25.402  33.059  1.00  0.00     0.002 A 
ATOM     84  C   UNL A   1      47.421  24.014  34.380  1.00  0.00     0.091 A 
ATOM     85  F   UNL A   1      45.067  24.180  34.041  1.00  0.00    -0.205 F 
ATOM     86  C   UNL A   1      48.719  24.411  34.021  1.00  0.00     0.022 A 
BRANCH  84  87
ATOM     87  S   UNL A   1      47.265  22.809  35.704  1.00  0.00     0.127 S 
ATOM     88  O   UNL A   1      46.913  21.599  34.963  1.00  0.00    -0.237 OA
ATOM     89  O   UNL A   1      48.610  22.805  36.279  1.00  0.00    -0.237 OA
ATOM     90  O   UNL A   1      46.231  23.322  36.593  1.00  0.00    -0.744 OA
ENDBRANCH  84  87
ENDBRANCH  57  80
ENDBRANCH  31  32
ENDBRANCH  23  26
ENDBRANCH  21  22
ENDBRANCH   1  21
TORSDOF 17
ENDMDL
