MODEL 1
REMARK VINA RESULT:     -10.7      0.000      0.000
REMARK SMILES COCCCNC(=O)[C@@H]1[C@@H](C(=O)NCCCNC(=O)c2ccc(-c3c4nc(c(-c5cccc(S(=O)(=O)[O-])c5F)c5ccc([nH]5)c(-c5cccc(S(=O)(=O)[O-])c5F)c5nc(c(-c6cccc(S(=O)(=O)[O-])c6F)c6ccc3[nH]6)C=C5)C=C4)cc2)[C@@H]2C=C[C@H]1C2
REMARK SMILES IDX 14 1 13 2 11 3 12 4 10 6 9 7 86 8 83 9 85 10 87 11 84 12
REMARK SMILES IDX 7 13 6 14 8 16 5 17 4 18 3 19 2 20 1 21 15 22 16 23 17 24
REMARK SMILES IDX 18 25 19 27 20 28 21 29 82 30 22 31 81 32 23 33 24 34 25 35
REMARK SMILES IDX 75 36 26 37 80 38 74 39 76 40 27 41 79 42 73 43 72 44 28 46
REMARK SMILES IDX 60 47 40 48 59 49 41 50 44 51 58 52 77 53 42 54 43 55 57 57
REMARK SMILES IDX 78 58 45 59 29 60 30 61 38 62 31 63 33 64 39 65 32 66 34 67
REMARK SMILES IDX 35 68 36 69 37 70 61 71 62 72 70 73 63 74 65 75 71 76 64 77
REMARK SMILES IDX 66 78 67 79 68 80 69 81 46 82 47 83 55 84 48 85 50 86 56 87
REMARK SMILES IDX 49 88 51 89 52 90 53 91 54 92
REMARK H PARENT 13 5 6 15 17 26 76 45 44 56
REMARK Flexibility Score: inf
ROOT
ATOM      1  C   UNL A   1      37.248  21.290  24.233  1.00  0.00     0.117 C 
ENDROOT
BRANCH   1   2
ATOM      2  N   UNL A   1      37.591  22.522  24.917  1.00  0.00    -0.356 N 
ATOM      3  C   UNL A   1      36.994  23.334  25.813  1.00  0.00     0.224 C 
ATOM      4  O   UNL A   1      37.786  24.093  26.395  1.00  0.00    -0.275 OA
ATOM      5  H   UNL A   1      38.485  22.847  24.664  1.00  0.00     0.163 HD
BRANCH   3   6
ATOM      6  C   UNL A   1      35.502  23.419  26.180  1.00  0.00     0.098 C 
ATOM      7  C   UNL A   1      34.486  22.357  25.688  1.00  0.00     0.098 C 
ATOM      8  C   UNL A   1      33.549  23.135  24.723  1.00  0.00     0.025 C 
ATOM      9  C   UNL A   1      34.996  24.691  25.405  1.00  0.00     0.025 C 
ATOM     10  C   UNL A   1      32.760  24.197  25.437  1.00  0.00    -0.027 C 
ATOM     11  C   UNL A   1      34.568  24.068  24.063  1.00  0.00     0.017 C 
ATOM     12  C   UNL A   1      33.630  25.112  25.885  1.00  0.00    -0.027 C 
BRANCH   7  13
ATOM     13  C   UNL A   1      33.787  21.474  26.726  1.00  0.00     0.224 C 
ATOM     14  N   UNL A   1      33.378  20.189  26.590  1.00  0.00    -0.356 N 
ATOM     15  H   UNL A   1      33.302  19.723  27.453  1.00  0.00     0.163 HD
ATOM     16  O   UNL A   1      33.578  21.958  27.849  1.00  0.00    -0.275 OA
BRANCH  14  17
ATOM     17  C   UNL A   1      33.022  19.333  25.463  1.00  0.00     0.118 C 
BRANCH  17  18
ATOM     18  C   UNL A   1      34.236  18.825  24.665  1.00  0.00     0.050 C 
BRANCH  18  19
ATOM     19  C   UNL A   1      33.960  17.617  23.764  1.00  0.00     0.161 C 
BRANCH  19  20
ATOM     20  O   UNL A   1      32.596  17.510  23.355  1.00  0.00    -0.385 OA
ATOM     21  C   UNL A   1      32.311  18.103  22.098  1.00  0.00     0.194 C 
ENDBRANCH  19  20
ENDBRANCH  18  19
ENDBRANCH  17  18
ENDBRANCH  14  17
ENDBRANCH   7  13
ENDBRANCH   3   6
ENDBRANCH   1   2
BRANCH   1  22
ATOM     22  C   UNL A   1      37.865  20.034  24.858  1.00  0.00     0.042 C 
BRANCH  22  23
ATOM     23  C   UNL A   1      38.954  20.227  25.921  1.00  0.00     0.118 C 
BRANCH  23  24
ATOM     24  N   UNL A   1      40.039  19.257  25.883  1.00  0.00    -0.352 N 
ATOM     25  C   UNL A   1      41.389  19.415  26.115  1.00  0.00     0.251 C 
ATOM     26  H   UNL A   1      39.764  18.340  25.655  1.00  0.00     0.163 HD
ATOM     27  O   UNL A   1      42.126  18.435  26.007  1.00  0.00    -0.269 OA
BRANCH  25  28
ATOM     28  C   UNL A   1      41.983  20.737  26.447  1.00  0.00     0.039 A 
ATOM     29  C   UNL A   1      42.174  21.658  25.408  1.00  0.00     0.014 A 
ATOM     30  C   UNL A   1      42.381  21.078  27.741  1.00  0.00     0.014 A 
ATOM     31  C   UNL A   1      42.676  22.938  25.679  1.00  0.00     0.010 A 
ATOM     32  C   UNL A   1      42.826  22.375  28.020  1.00  0.00     0.010 A 
ATOM     33  C   UNL A   1      42.966  23.326  26.996  1.00  0.00    -0.014 A 
BRANCH  33  34
ATOM     34  C   UNL A   1      43.365  24.727  27.320  1.00  0.00     0.031 A 
ATOM     35  C   UNL A   1      42.373  25.704  27.894  1.00  0.00     0.074 A 
ATOM     36  C   UNL A   1      44.608  25.151  27.010  1.00  0.00     0.049 A 
ATOM     37  N   UNL A   1      42.533  26.974  28.173  1.00  0.00    -0.248 NA
ATOM     38  C   UNL A   1      41.020  25.198  28.169  1.00  0.00     0.031 C 
ATOM     39  C   UNL A   1      45.648  24.334  26.382  1.00  0.00     0.029 A 
ATOM     40  N   UNL A   1      45.200  26.385  27.152  1.00  0.00    -0.354 N 
ATOM     41  C   UNL A   1      41.297  27.427  28.623  1.00  0.00     0.074 A 
ATOM     42  C   UNL A   1      40.391  26.300  28.554  1.00  0.00     0.031 C 
ATOM     43  C   UNL A   1      46.745  25.085  26.190  1.00  0.00     0.029 A 
ATOM     44  C   UNL A   1      46.480  26.445  26.653  1.00  0.00     0.049 A 
ATOM     45  H   UNL A   1      44.748  27.153  27.570  1.00  0.00     0.167 HD
ATOM     46  C   UNL A   1      40.953  28.657  29.074  1.00  0.00     0.034 A 
ATOM     47  C   UNL A   1      47.347  27.475  26.567  1.00  0.00     0.034 A 
ATOM     48  C   UNL A   1      41.862  29.769  29.184  1.00  0.00     0.049 A 
ATOM     49  C   UNL A   1      46.951  28.821  27.113  1.00  0.00     0.074 A 
ATOM     50  C   UNL A   1      41.622  31.025  29.713  1.00  0.00     0.029 A 
ATOM     51  N   UNL A   1      43.179  29.762  28.756  1.00  0.00    -0.354 N 
ATOM     52  N   UNL A   1      45.827  29.181  27.683  1.00  0.00    -0.248 NA
ATOM     53  C   UNL A   1      47.957  29.891  27.040  1.00  0.00     0.031 C 
ATOM     54  C   UNL A   1      42.791  31.786  29.586  1.00  0.00     0.029 A 
ATOM     55  C   UNL A   1      43.764  30.994  28.999  1.00  0.00     0.049 A 
ATOM     56  H   UNL A   1      43.634  28.995  28.338  1.00  0.00     0.167 HD
ATOM     57  C   UNL A   1      46.004  30.506  28.069  1.00  0.00     0.074 A 
ATOM     58  C   UNL A   1      47.350  30.878  27.687  1.00  0.00     0.031 C 
ATOM     59  C   UNL A   1      45.123  31.341  28.672  1.00  0.00     0.034 A 
BRANCH  46  60
ATOM     60  C   UNL A   1      39.534  28.861  29.542  1.00  0.00     0.023 A 
ATOM     61  C   UNL A   1      39.185  28.520  30.865  1.00  0.00     0.012 A 
ATOM     62  C   UNL A   1      38.566  29.450  28.705  1.00  0.00     0.148 A 
ATOM     63  C   UNL A   1      37.891  28.729  31.337  1.00  0.00     0.002 A 
ATOM     64  C   UNL A   1      37.288  29.697  29.196  1.00  0.00     0.091 A 
ATOM     65  F   UNL A   1      38.909  29.753  27.444  1.00  0.00    -0.205 F 
ATOM     66  C   UNL A   1      36.946  29.327  30.506  1.00  0.00     0.022 A 
BRANCH  64  67
ATOM     67  S   UNL A   1      36.024  30.534  28.231  1.00  0.00     0.127 S 
ATOM     68  O   UNL A   1      34.929  30.625  29.197  1.00  0.00    -0.237 OA
ATOM     69  O   UNL A   1      36.668  31.810  27.918  1.00  0.00    -0.237 OA
ATOM     70  O   UNL A   1      35.771  29.684  27.077  1.00  0.00    -0.744 OA
ENDBRANCH  64  67
ENDBRANCH  46  60
BRANCH  47  71
ATOM     71  C   UNL A   1      48.708  27.257  25.997  1.00  0.00     0.023 A 
ATOM     72  C   UNL A   1      49.733  26.766  26.828  1.00  0.00     0.012 A 
ATOM     73  C   UNL A   1      48.987  27.510  24.640  1.00  0.00     0.148 A 
ATOM     74  C   UNL A   1      51.019  26.560  26.328  1.00  0.00     0.002 A 
ATOM     75  C   UNL A   1      50.255  27.250  24.135  1.00  0.00     0.091 A 
ATOM     76  F   UNL A   1      48.002  27.991  23.868  1.00  0.00    -0.205 F 
ATOM     77  C   UNL A   1      51.277  26.791  24.979  1.00  0.00     0.022 A 
BRANCH  75  78
ATOM     78  S   UNL A   1      50.641  27.395  22.385  1.00  0.00     0.127 S 
ATOM     79  O   UNL A   1      49.608  26.559  21.781  1.00  0.00    -0.237 OA
ATOM     80  O   UNL A   1      50.482  28.832  22.158  1.00  0.00    -0.237 OA
ATOM     81  O   UNL A   1      52.009  26.914  22.246  1.00  0.00    -0.744 OA
ENDBRANCH  75  78
ENDBRANCH  47  71
BRANCH  59  82
ATOM     82  C   UNL A   1      45.589  32.737  28.999  1.00  0.00     0.023 A 
ATOM     83  C   UNL A   1      46.266  32.985  30.211  1.00  0.00     0.012 A 
ATOM     84  C   UNL A   1      45.421  33.788  28.076  1.00  0.00     0.148 A 
ATOM     85  C   UNL A   1      46.740  34.261  30.510  1.00  0.00     0.002 A 
ATOM     86  C   UNL A   1      45.937  35.046  28.360  1.00  0.00     0.091 A 
ATOM     87  F   UNL A   1      44.755  33.538  26.938  1.00  0.00    -0.205 F 
ATOM     88  C   UNL A   1      46.587  35.288  29.581  1.00  0.00     0.022 A 
BRANCH  86  89
ATOM     89  S   UNL A   1      45.869  36.402  27.182  1.00  0.00     0.127 S 
ATOM     90  O   UNL A   1      46.836  37.340  27.751  1.00  0.00    -0.237 OA
ATOM     91  O   UNL A   1      46.302  35.759  25.941  1.00  0.00    -0.237 OA
ATOM     92  O   UNL A   1      44.485  36.856  27.174  1.00  0.00    -0.744 OA
ENDBRANCH  86  89
ENDBRANCH  59  82
ENDBRANCH  33  34
ENDBRANCH  25  28
ENDBRANCH  23  24
ENDBRANCH  22  23
ENDBRANCH   1  22
TORSDOF 18
ENDMDL
MODEL 2
REMARK VINA RESULT:     -10.7      5.732     10.530
REMARK SMILES COCCCNC(=O)[C@@H]1[C@@H](C(=O)NCCCNC(=O)c2ccc(-c3c4nc(c(-c5cccc(S(=O)(=O)[O-])c5F)c5ccc([nH]5)c(-c5cccc(S(=O)(=O)[O-])c5F)c5nc(c(-c6cccc(S(=O)(=O)[O-])c6F)c6ccc3[nH]6)C=C5)C=C4)cc2)[C@@H]2C=C[C@H]1C2
REMARK SMILES IDX 14 1 13 2 11 3 12 4 10 6 9 7 86 8 83 9 85 10 87 11 84 12
REMARK SMILES IDX 7 13 6 14 8 16 5 17 4 18 3 19 2 20 1 21 15 22 16 23 17 24
REMARK SMILES IDX 18 25 19 27 20 28 21 29 82 30 22 31 81 32 23 33 24 34 25 35
REMARK SMILES IDX 75 36 26 37 80 38 74 39 76 40 27 41 79 42 73 43 72 44 28 46
REMARK SMILES IDX 60 47 40 48 59 49 41 50 44 51 58 52 77 53 42 54 43 55 57 57
REMARK SMILES IDX 78 58 45 59 29 60 30 61 38 62 31 63 33 64 39 65 32 66 34 67
REMARK SMILES IDX 35 68 36 69 37 70 61 71 62 72 70 73 63 74 65 75 71 76 64 77
REMARK SMILES IDX 66 78 67 79 68 80 69 81 46 82 47 83 55 84 48 85 50 86 56 87
REMARK SMILES IDX 49 88 51 89 52 90 53 91 54 92
REMARK H PARENT 13 5 6 15 17 26 76 45 44 56
REMARK Flexibility Score: inf
ROOT
ATOM      1  C   UNL A   1      32.316  26.828  25.447  1.00  0.00     0.117 C 
ENDROOT
BRANCH   1   2
ATOM      2  N   UNL A   1      31.628  25.734  26.106  1.00  0.00    -0.356 N 
ATOM      3  C   UNL A   1      31.883  24.432  26.347  1.00  0.00     0.224 C 
ATOM      4  O   UNL A   1      31.179  23.951  27.250  1.00  0.00    -0.275 OA
ATOM      5  H   UNL A   1      30.757  26.012  26.469  1.00  0.00     0.163 HD
BRANCH   3   6
ATOM      6  C   UNL A   1      32.908  23.515  25.657  1.00  0.00     0.098 C 
ATOM      7  C   UNL A   1      32.758  21.973  25.679  1.00  0.00     0.098 C 
ATOM      8  C   UNL A   1      33.964  21.477  26.523  1.00  0.00     0.025 C 
ATOM      9  C   UNL A   1      34.213  23.695  26.518  1.00  0.00     0.025 C 
ATOM     10  C   UNL A   1      35.278  21.778  25.859  1.00  0.00    -0.027 C 
ATOM     11  C   UNL A   1      34.024  22.589  27.574  1.00  0.00     0.017 C 
ATOM     12  C   UNL A   1      35.412  23.110  25.816  1.00  0.00    -0.027 C 
BRANCH   7  13
ATOM     13  C   UNL A   1      32.525  21.239  24.355  1.00  0.00     0.224 C 
ATOM     14  N   UNL A   1      32.604  19.908  24.112  1.00  0.00    -0.356 N 
ATOM     15  H   UNL A   1      32.074  19.636  23.328  1.00  0.00     0.163 HD
ATOM     16  O   UNL A   1      32.199  21.918  23.369  1.00  0.00    -0.275 OA
BRANCH  14  17
ATOM     17  C   UNL A   1      33.290  18.783  24.739  1.00  0.00     0.118 C 
BRANCH  17  18
ATOM     18  C   UNL A   1      32.512  17.459  24.652  1.00  0.00     0.050 C 
BRANCH  18  19
ATOM     19  C   UNL A   1      33.176  16.269  25.353  1.00  0.00     0.161 C 
BRANCH  19  20
ATOM     20  O   UNL A   1      34.308  15.755  24.652  1.00  0.00    -0.385 OA
ATOM     21  C   UNL A   1      35.528  15.822  25.374  1.00  0.00     0.194 C 
ENDBRANCH  19  20
ENDBRANCH  18  19
ENDBRANCH  17  18
ENDBRANCH  14  17
ENDBRANCH   7  13
ENDBRANCH   3   6
ENDBRANCH   1   2
BRANCH   1  22
ATOM     22  C   UNL A   1      31.695  28.205  25.707  1.00  0.00     0.042 C 
BRANCH  22  23
ATOM     23  C   UNL A   1      32.502  29.441  25.289  1.00  0.00     0.118 C 
BRANCH  23  24
ATOM     24  N   UNL A   1      32.089  30.692  25.911  1.00  0.00    -0.352 N 
ATOM     25  C   UNL A   1      32.717  31.468  26.863  1.00  0.00     0.251 C 
ATOM     26  H   UNL A   1      31.222  31.040  25.601  1.00  0.00     0.163 HD
ATOM     27  O   UNL A   1      32.157  32.492  27.253  1.00  0.00    -0.269 OA
BRANCH  25  28
ATOM     28  C   UNL A   1      34.022  31.081  27.461  1.00  0.00     0.039 A 
ATOM     29  C   UNL A   1      34.982  32.081  27.661  1.00  0.00     0.014 A 
ATOM     30  C   UNL A   1      34.331  29.762  27.799  1.00  0.00     0.014 A 
ATOM     31  C   UNL A   1      36.205  31.778  28.274  1.00  0.00     0.010 A 
ATOM     32  C   UNL A   1      35.527  29.469  28.465  1.00  0.00     0.010 A 
ATOM     33  C   UNL A   1      36.473  30.475  28.724  1.00  0.00    -0.014 A 
BRANCH  33  34
ATOM     34  C   UNL A   1      37.706  30.164  29.504  1.00  0.00     0.031 A 
ATOM     35  C   UNL A   1      38.739  29.204  28.976  1.00  0.00     0.074 A 
ATOM     36  C   UNL A   1      37.855  30.679  30.743  1.00  0.00     0.049 A 
ATOM     37  N   UNL A   1      39.834  28.771  29.549  1.00  0.00    -0.248 NA
ATOM     38  C   UNL A   1      38.501  28.638  27.639  1.00  0.00     0.031 C 
ATOM     39  C   UNL A   1      36.899  31.563  31.411  1.00  0.00     0.029 A 
ATOM     40  N   UNL A   1      38.852  30.509  31.675  1.00  0.00    -0.354 N 
ATOM     41  C   UNL A   1      40.397  27.859  28.664  1.00  0.00     0.074 A 
ATOM     42  C   UNL A   1      39.508  27.782  27.524  1.00  0.00     0.031 C 
ATOM     43  C   UNL A   1      37.351  31.856  32.641  1.00  0.00     0.029 A 
ATOM     44  C   UNL A   1      38.615  31.159  32.864  1.00  0.00     0.049 A 
ATOM     45  H   UNL A   1      39.661  29.973  31.506  1.00  0.00     0.167 HD
ATOM     46  C   UNL A   1      41.558  27.168  28.775  1.00  0.00     0.034 A 
ATOM     47  C   UNL A   1      39.323  31.187  34.011  1.00  0.00     0.034 A 
ATOM     48  C   UNL A   1      42.466  27.274  29.887  1.00  0.00     0.049 A 
ATOM     49  C   UNL A   1      40.630  30.443  34.091  1.00  0.00     0.074 A 
ATOM     50  C   UNL A   1      43.707  26.680  30.043  1.00  0.00     0.029 A 
ATOM     51  N   UNL A   1      42.234  28.017  31.033  1.00  0.00    -0.354 N 
ATOM     52  N   UNL A   1      41.221  29.714  33.176  1.00  0.00    -0.248 NA
ATOM     53  C   UNL A   1      41.384  30.555  35.348  1.00  0.00     0.031 C 
ATOM     54  C   UNL A   1      44.216  27.048  31.294  1.00  0.00     0.029 A 
ATOM     55  C   UNL A   1      43.303  27.890  31.905  1.00  0.00     0.049 A 
ATOM     56  H   UNL A   1      41.428  28.555  31.204  1.00  0.00     0.167 HD
ATOM     57  C   UNL A   1      42.432  29.314  33.732  1.00  0.00     0.074 A 
ATOM     58  C   UNL A   1      42.499  29.898  35.055  1.00  0.00     0.031 C 
ATOM     59  C   UNL A   1      43.393  28.521  33.197  1.00  0.00     0.034 A 
BRANCH  46  60
ATOM     60  C   UNL A   1      41.949  26.267  27.631  1.00  0.00     0.023 A 
ATOM     61  C   UNL A   1      42.729  26.785  26.576  1.00  0.00     0.012 A 
ATOM     62  C   UNL A   1      41.611  24.899  27.630  1.00  0.00     0.148 A 
ATOM     63  C   UNL A   1      43.136  25.967  25.523  1.00  0.00     0.002 A 
ATOM     64  C   UNL A   1      42.057  24.080  26.599  1.00  0.00     0.091 A 
ATOM     65  F   UNL A   1      40.855  24.426  28.632  1.00  0.00    -0.205 F 
ATOM     66  C   UNL A   1      42.809  24.614  25.540  1.00  0.00     0.022 A 
BRANCH  64  67
ATOM     67  S   UNL A   1      41.757  22.308  26.569  1.00  0.00     0.127 S 
ATOM     68  O   UNL A   1      42.351  21.887  27.837  1.00  0.00    -0.237 OA
ATOM     69  O   UNL A   1      40.295  22.243  26.530  1.00  0.00    -0.237 OA
ATOM     70  O   UNL A   1      42.417  21.809  25.372  1.00  0.00    -0.744 OA
ENDBRANCH  64  67
ENDBRANCH  46  60
BRANCH  47  71
ATOM     71  C   UNL A   1      38.846  32.008  35.161  1.00  0.00     0.023 A 
ATOM     72  C   UNL A   1      38.932  33.412  35.089  1.00  0.00     0.012 A 
ATOM     73  C   UNL A   1      38.289  31.413  36.309  1.00  0.00     0.148 A 
ATOM     74  C   UNL A   1      38.501  34.208  36.151  1.00  0.00     0.002 A 
ATOM     75  C   UNL A   1      37.812  32.213  37.341  1.00  0.00     0.091 A 
ATOM     76  F   UNL A   1      38.230  30.075  36.365  1.00  0.00    -0.205 F 
ATOM     77  C   UNL A   1      37.931  33.609  37.272  1.00  0.00     0.022 A 
BRANCH  75  78
ATOM     78  S   UNL A   1      36.946  31.534  38.762  1.00  0.00     0.127 S 
ATOM     79  O   UNL A   1      36.748  30.146  38.356  1.00  0.00    -0.237 OA
ATOM     80  O   UNL A   1      37.924  31.729  39.833  1.00  0.00    -0.237 OA
ATOM     81  O   UNL A   1      35.737  32.333  38.902  1.00  0.00    -0.744 OA
ENDBRANCH  75  78
ENDBRANCH  47  71
BRANCH  59  82
ATOM     82  C   UNL A   1      44.628  28.262  34.020  1.00  0.00     0.023 A 
ATOM     83  C   UNL A   1      45.732  29.133  33.923  1.00  0.00     0.012 A 
ATOM     84  C   UNL A   1      44.668  27.198  34.943  1.00  0.00     0.148 A 
ATOM     85  C   UNL A   1      46.866  28.931  34.709  1.00  0.00     0.002 A 
ATOM     86  C   UNL A   1      45.783  27.030  35.756  1.00  0.00     0.091 A 
ATOM     87  F   UNL A   1      43.618  26.366  35.006  1.00  0.00    -0.205 F 
ATOM     88  C   UNL A   1      46.888  27.889  35.633  1.00  0.00     0.022 A 
BRANCH  86  89
ATOM     89  S   UNL A   1      45.859  25.773  37.038  1.00  0.00     0.127 S 
ATOM     90  O   UNL A   1      44.637  26.046  37.795  1.00  0.00    -0.237 OA
ATOM     91  O   UNL A   1      45.829  24.533  36.261  1.00  0.00    -0.237 OA
ATOM     92  O   UNL A   1      47.105  26.005  37.753  1.00  0.00    -0.744 OA
ENDBRANCH  86  89
ENDBRANCH  59  82
ENDBRANCH  33  34
ENDBRANCH  25  28
ENDBRANCH  23  24
ENDBRANCH  22  23
ENDBRANCH   1  22
TORSDOF 18
ENDMDL
MODEL 3
REMARK VINA RESULT:     -10.6      2.731      8.535
REMARK SMILES COCCCNC(=O)[C@@H]1[C@@H](C(=O)NCCCNC(=O)c2ccc(-c3c4nc(c(-c5cccc(S(=O)(=O)[O-])c5F)c5ccc([nH]5)c(-c5cccc(S(=O)(=O)[O-])c5F)c5nc(c(-c6cccc(S(=O)(=O)[O-])c6F)c6ccc3[nH]6)C=C5)C=C4)cc2)[C@@H]2C=C[C@H]1C2
REMARK SMILES IDX 14 1 13 2 11 3 12 4 10 6 9 7 86 8 83 9 85 10 87 11 84 12
REMARK SMILES IDX 7 13 6 14 8 16 5 17 4 18 3 19 2 20 1 21 15 22 16 23 17 24
REMARK SMILES IDX 18 25 19 27 20 28 21 29 82 30 22 31 81 32 23 33 24 34 25 35
REMARK SMILES IDX 75 36 26 37 80 38 74 39 76 40 27 41 79 42 73 43 72 44 28 46
REMARK SMILES IDX 60 47 40 48 59 49 41 50 44 51 58 52 77 53 42 54 43 55 57 57
REMARK SMILES IDX 78 58 45 59 29 60 30 61 38 62 31 63 33 64 39 65 32 66 34 67
REMARK SMILES IDX 35 68 36 69 37 70 61 71 62 72 70 73 63 74 65 75 71 76 64 77
REMARK SMILES IDX 66 78 67 79 68 80 69 81 46 82 47 83 55 84 48 85 50 86 56 87
REMARK SMILES IDX 49 88 51 89 52 90 53 91 54 92
REMARK H PARENT 13 5 6 15 17 26 76 45 44 56
REMARK Flexibility Score: inf
ROOT
ATOM      1  C   UNL A   1      34.576  21.993  24.137  1.00  0.00     0.117 C 
ENDROOT
BRANCH   1   2
ATOM      2  N   UNL A   1      33.267  22.039  24.763  1.00  0.00    -0.356 N 
ATOM      3  C   UNL A   1      32.283  22.951  24.888  1.00  0.00     0.224 C 
ATOM      4  O   UNL A   1      31.189  22.456  25.202  1.00  0.00    -0.275 OA
ATOM      5  H   UNL A   1      33.041  21.190  25.206  1.00  0.00     0.163 HD
BRANCH   3   6
ATOM      6  C   UNL A   1      32.362  24.476  24.692  1.00  0.00     0.098 C 
ATOM      7  C   UNL A   1      33.435  25.120  23.778  1.00  0.00     0.098 C 
ATOM      8  C   UNL A   1      34.341  25.925  24.750  1.00  0.00     0.025 C 
ATOM      9  C   UNL A   1      32.816  25.013  26.101  1.00  0.00     0.025 C 
ATOM     10  C   UNL A   1      33.597  27.052  25.410  1.00  0.00    -0.027 C 
ATOM     11  C   UNL A   1      34.348  24.974  25.951  1.00  0.00     0.017 C 
ATOM     12  C   UNL A   1      32.652  26.509  26.190  1.00  0.00    -0.027 C 
BRANCH   7  13
ATOM     13  C   UNL A   1      32.977  25.867  22.522  1.00  0.00     0.224 C 
ATOM     14  N   UNL A   1      31.912  26.692  22.383  1.00  0.00    -0.356 N 
ATOM     15  H   UNL A   1      32.019  27.325  21.636  1.00  0.00     0.163 HD
ATOM     16  O   UNL A   1      33.660  25.739  21.494  1.00  0.00    -0.275 OA
BRANCH  14  17
ATOM     17  C   UNL A   1      30.641  26.865  23.079  1.00  0.00     0.118 C 
BRANCH  17  18
ATOM     18  C   UNL A   1      30.534  28.191  23.851  1.00  0.00     0.050 C 
BRANCH  18  19
ATOM     19  C   UNL A   1      30.230  29.420  22.989  1.00  0.00     0.161 C 
BRANCH  19  20
ATOM     20  O   UNL A   1      29.294  29.165  21.941  1.00  0.00    -0.385 OA
ATOM     21  C   UNL A   1      27.940  29.397  22.292  1.00  0.00     0.194 C 
ENDBRANCH  19  20
ENDBRANCH  18  19
ENDBRANCH  17  18
ENDBRANCH  14  17
ENDBRANCH   7  13
ENDBRANCH   3   6
ENDBRANCH   1   2
BRANCH   1  22
ATOM     22  C   UNL A   1      35.624  21.208  24.934  1.00  0.00     0.042 C 
BRANCH  22  23
ATOM     23  C   UNL A   1      37.102  21.534  24.683  1.00  0.00     0.118 C 
BRANCH  23  24
ATOM     24  N   UNL A   1      38.051  20.566  25.215  1.00  0.00    -0.352 N 
ATOM     25  C   UNL A   1      39.167  20.749  26.003  1.00  0.00     0.251 C 
ATOM     26  H   UNL A   1      37.865  19.631  24.974  1.00  0.00     0.163 HD
ATOM     27  O   UNL A   1      39.835  19.765  26.320  1.00  0.00    -0.269 OA
BRANCH  25  28
ATOM     28  C   UNL A   1      39.612  22.099  26.442  1.00  0.00     0.039 A 
ATOM     29  C   UNL A   1      40.701  22.186  27.319  1.00  0.00     0.014 A 
ATOM     30  C   UNL A   1      38.968  23.269  26.036  1.00  0.00     0.014 A 
ATOM     31  C   UNL A   1      41.194  23.436  27.714  1.00  0.00     0.010 A 
ATOM     32  C   UNL A   1      39.496  24.518  26.384  1.00  0.00     0.010 A 
ATOM     33  C   UNL A   1      40.624  24.618  27.215  1.00  0.00    -0.014 A 
BRANCH  33  34
ATOM     34  C   UNL A   1      41.223  25.952  27.511  1.00  0.00     0.031 A 
ATOM     35  C   UNL A   1      42.642  26.271  27.121  1.00  0.00     0.074 A 
ATOM     36  C   UNL A   1      40.514  26.855  28.221  1.00  0.00     0.049 A 
ATOM     37  N   UNL A   1      43.340  27.354  27.357  1.00  0.00    -0.248 NA
ATOM     38  C   UNL A   1      43.382  25.232  26.389  1.00  0.00     0.031 C 
ATOM     39  C   UNL A   1      39.156  26.653  28.729  1.00  0.00     0.029 A 
ATOM     40  N   UNL A   1      40.848  28.113  28.666  1.00  0.00    -0.354 N 
ATOM     41  C   UNL A   1      44.608  27.115  26.838  1.00  0.00     0.074 A 
ATOM     42  C   UNL A   1      44.589  25.773  26.295  1.00  0.00     0.031 C 
ATOM     43  C   UNL A   1      38.774  27.741  29.416  1.00  0.00     0.029 A 
ATOM     44  C   UNL A   1      39.867  28.710  29.424  1.00  0.00     0.049 A 
ATOM     45  H   UNL A   1      41.708  28.546  28.461  1.00  0.00     0.167 HD
ATOM     46  C   UNL A   1      45.680  27.942  26.793  1.00  0.00     0.034 A 
ATOM     47  C   UNL A   1      39.845  29.897  30.064  1.00  0.00     0.034 A 
ATOM     48  C   UNL A   1      45.690  29.292  27.293  1.00  0.00     0.049 A 
ATOM     49  C   UNL A   1      41.036  30.812  29.962  1.00  0.00     0.074 A 
ATOM     50  C   UNL A   1      46.702  30.232  27.211  1.00  0.00     0.029 A 
ATOM     51  N   UNL A   1      44.643  29.895  27.972  1.00  0.00    -0.354 N 
ATOM     52  N   UNL A   1      42.167  30.627  29.325  1.00  0.00    -0.248 NA
ATOM     53  C   UNL A   1      40.934  32.116  30.636  1.00  0.00     0.031 C 
ATOM     54  C   UNL A   1      46.275  31.398  27.858  1.00  0.00     0.029 A 
ATOM     55  C   UNL A   1      44.987  31.190  28.322  1.00  0.00     0.049 A 
ATOM     56  H   UNL A   1      43.781  29.465  28.177  1.00  0.00     0.167 HD
ATOM     57  C   UNL A   1      42.893  31.802  29.489  1.00  0.00     0.074 A 
ATOM     58  C   UNL A   1      42.066  32.701  30.267  1.00  0.00     0.031 C 
ATOM     59  C   UNL A   1      44.138  32.102  29.045  1.00  0.00     0.034 A 
BRANCH  46  60
ATOM     60  C   UNL A   1      46.933  27.431  26.126  1.00  0.00     0.023 A 
ATOM     61  C   UNL A   1      47.160  27.721  24.765  1.00  0.00     0.012 A 
ATOM     62  C   UNL A   1      47.913  26.729  26.854  1.00  0.00     0.148 A 
ATOM     63  C   UNL A   1      48.325  27.292  24.130  1.00  0.00     0.002 A 
ATOM     64  C   UNL A   1      49.093  26.342  26.226  1.00  0.00     0.091 A 
ATOM     65  F   UNL A   1      47.674  26.447  28.143  1.00  0.00    -0.205 F 
ATOM     66  C   UNL A   1      49.295  26.612  24.863  1.00  0.00     0.022 A 
BRANCH  64  67
ATOM     67  S   UNL A   1      50.437  25.532  27.102  1.00  0.00     0.127 S 
ATOM     68  O   UNL A   1      51.438  25.398  26.044  1.00  0.00    -0.237 OA
ATOM     69  O   UNL A   1      50.770  26.515  28.134  1.00  0.00    -0.237 OA
ATOM     70  O   UNL A   1      49.890  24.283  27.609  1.00  0.00    -0.744 OA
ENDBRANCH  64  67
ENDBRANCH  46  60
BRANCH  47  71
ATOM     71  C   UNL A   1      38.623  30.321  30.805  1.00  0.00     0.023 A 
ATOM     72  C   UNL A   1      38.494  29.989  32.168  1.00  0.00     0.012 A 
ATOM     73  C   UNL A   1      37.604  31.065  30.181  1.00  0.00     0.148 A 
ATOM     74  C   UNL A   1      37.359  30.364  32.888  1.00  0.00     0.002 A 
ATOM     75  C   UNL A   1      36.502  31.482  30.917  1.00  0.00     0.091 A 
ATOM     76  F   UNL A   1      37.738  31.358  28.879  1.00  0.00    -0.205 F 
ATOM     77  C   UNL A   1      36.369  31.120  32.266  1.00  0.00     0.022 A 
BRANCH  75  78
ATOM     78  S   UNL A   1      35.243  32.568  30.233  1.00  0.00     0.127 S 
ATOM     79  O   UNL A   1      34.766  31.790  29.093  1.00  0.00    -0.237 OA
ATOM     80  O   UNL A   1      34.298  32.673  31.345  1.00  0.00    -0.237 OA
ATOM     81  O   UNL A   1      35.931  33.810  29.911  1.00  0.00    -0.744 OA
ENDBRANCH  75  78
ENDBRANCH  47  71
BRANCH  59  82
ATOM     82  C   UNL A   1      44.683  33.474  29.352  1.00  0.00     0.023 A 
ATOM     83  C   UNL A   1      45.384  33.698  30.554  1.00  0.00     0.012 A 
ATOM     84  C   UNL A   1      44.562  34.521  28.417  1.00  0.00     0.148 A 
ATOM     85  C   UNL A   1      45.930  34.950  30.834  1.00  0.00     0.002 A 
ATOM     86  C   UNL A   1      45.149  35.754  28.682  1.00  0.00     0.091 A 
ATOM     87  F   UNL A   1      43.873  34.296  27.289  1.00  0.00    -0.205 F 
ATOM     88  C   UNL A   1      45.824  35.973  29.894  1.00  0.00     0.022 A 
BRANCH  86  89
ATOM     89  S   UNL A   1      45.143  37.098  27.490  1.00  0.00     0.127 S 
ATOM     90  O   UNL A   1      43.724  37.185  27.146  1.00  0.00    -0.237 OA
ATOM     91  O   UNL A   1      45.647  38.220  28.282  1.00  0.00    -0.237 OA
ATOM     92  O   UNL A   1      46.025  36.679  26.410  1.00  0.00    -0.744 OA
ENDBRANCH  86  89
ENDBRANCH  59  82
ENDBRANCH  33  34
ENDBRANCH  25  28
ENDBRANCH  23  24
ENDBRANCH  22  23
ENDBRANCH   1  22
TORSDOF 18
ENDMDL
