MODEL 1
REMARK VINA RESULT:     -11.2      0.000      0.000
REMARK SMILES COc1ccc(/C=C2/SC(=S)N(CC(=O)NCCCNC(=O)c3ccc(-c4c5nc(c(-c6cccc(S(=O)(=O)[O-])c6F)c6ccc([nH]6)c(-c6cccc(S(=O)(=O)[O-])c6F)c6nc(c(-c7cccc(S(=O)(=O)[O-])c7F)c7ccc4[nH]7)C=C6)C=C5)cc3)C2=O)cc1[N+](=O)[O-]
REMARK SMILES IDX 18 1 17 2 16 3 14 4 15 5 13 7 12 8 7 9 8 10 9 11 86 12 10 13
REMARK SMILES IDX 87 14 11 15 6 16 3 17 4 18 89 19 5 20 88 21 2 22 1 23 90 24
REMARK SMILES IDX 91 25 92 26 19 27 20 28 21 29 22 31 23 32 24 33 85 34 25 35
REMARK SMILES IDX 84 36 26 37 27 38 28 39 78 40 29 41 83 42 77 43 79 44 30 45
REMARK SMILES IDX 82 46 76 47 75 48 31 50 63 51 43 52 62 53 44 54 47 55 61 56
REMARK SMILES IDX 80 57 45 58 46 59 60 61 81 62 48 63 32 64 33 65 41 66 34 67
REMARK SMILES IDX 36 68 42 69 35 70 37 71 38 72 39 73 40 74 64 75 65 76 73 77
REMARK SMILES IDX 66 78 68 79 74 80 67 81 69 82 70 83 71 84 72 85 49 86 50 87
REMARK SMILES IDX 58 88 51 89 53 90 59 91 52 92 54 93 55 94 56 95 57 96
REMARK H PARENT 16 6 20 30 79 49 47 60
REMARK Flexibility Score: inf
ROOT
ATOM      1  C   UNL A   1      38.093  19.828  24.974  1.00  0.00     0.042 C 
ENDROOT
BRANCH   1   2
ATOM      2  C   UNL A   1      36.873  20.709  24.748  1.00  0.00     0.117 C 
BRANCH   2   3
ATOM      3  N   UNL A   1      36.725  21.726  25.766  1.00  0.00    -0.354 N 
ATOM      4  C   UNL A   1      35.806  22.729  25.859  1.00  0.00     0.240 C 
ATOM      5  O   UNL A   1      35.650  23.253  26.965  1.00  0.00    -0.273 OA
ATOM      6  H   UNL A   1      37.383  21.688  26.497  1.00  0.00     0.163 HD
BRANCH   4   7
ATOM      7  C   UNL A   1      34.871  23.067  24.691  1.00  0.00     0.227 C 
BRANCH   7   8
ATOM      8  N   UNL A   1      33.444  23.046  25.023  1.00  0.00    -0.283 N 
ATOM      9  C   UNL A   1      30.513  25.008  25.999  1.00  0.00     0.029 C 
ATOM     10  C   UNL A   1      31.421  24.055  25.731  1.00  0.00     0.081 C 
ATOM     11  S   UNL A   1      31.042  22.375  25.680  1.00  0.00    -0.054 SA
ATOM     12  C   UNL A   1      32.868  24.241  25.418  1.00  0.00     0.266 C 
ATOM     13  C   UNL A   1      32.671  21.918  25.190  1.00  0.00     0.148 C 
ATOM     14  O   UNL A   1      33.476  25.297  25.546  1.00  0.00    -0.268 OA
ATOM     15  S   UNL A   1      33.118  20.318  25.022  1.00  0.00    -0.052 S 
BRANCH   9  16
ATOM     16  C   UNL A   1      30.803  26.445  25.963  1.00  0.00    -0.017 A 
ATOM     17  C   UNL A   1      31.691  29.121  25.784  1.00  0.00     0.196 A 
ATOM     18  C   UNL A   1      31.689  28.444  27.012  1.00  0.00     0.054 A 
ATOM     19  C   UNL A   1      31.197  28.456  24.657  1.00  0.00     0.311 A 
ATOM     20  C   UNL A   1      31.247  27.117  27.105  1.00  0.00     0.012 A 
ATOM     21  C   UNL A   1      30.726  27.135  24.749  1.00  0.00     0.098 A 
BRANCH  17  22
ATOM     22  O   UNL A   1      32.393  30.296  25.772  1.00  0.00    -0.490 OA
ATOM     23  C   UNL A   1      31.849  31.336  26.583  1.00  0.00     0.278 C 
ENDBRANCH  17  22
BRANCH  19  24
ATOM     24  N   UNL A   1      31.236  29.032  23.321  1.00  0.00     0.066 N 
ATOM     25  O   UNL A   1      30.224  29.636  22.935  1.00  0.00    -0.258 OA
ATOM     26  O   UNL A   1      32.294  28.959  22.686  1.00  0.00    -0.258 OA
ENDBRANCH  19  24
ENDBRANCH   9  16
ENDBRANCH   7   8
ENDBRANCH   4   7
ENDBRANCH   2   3
ENDBRANCH   1   2
BRANCH   1  27
ATOM     27  C   UNL A   1      39.095  20.410  25.966  1.00  0.00     0.118 C 
BRANCH  27  28
ATOM     28  N   UNL A   1      40.296  19.594  26.090  1.00  0.00    -0.352 N 
ATOM     29  C   UNL A   1      41.602  19.961  26.293  1.00  0.00     0.251 C 
ATOM     30  H   UNL A   1      40.145  18.625  26.015  1.00  0.00     0.163 HD
ATOM     31  O   UNL A   1      42.484  19.114  26.172  1.00  0.00    -0.269 OA
BRANCH  29  32
ATOM     32  C   UNL A   1      41.955  21.353  26.649  1.00  0.00     0.039 A 
ATOM     33  C   UNL A   1      42.242  21.655  27.984  1.00  0.00     0.014 A 
ATOM     34  C   UNL A   1      41.949  22.373  25.694  1.00  0.00     0.014 A 
ATOM     35  C   UNL A   1      42.551  22.966  28.351  1.00  0.00     0.010 A 
ATOM     36  C   UNL A   1      42.348  23.660  26.043  1.00  0.00     0.010 A 
ATOM     37  C   UNL A   1      42.623  23.979  27.380  1.00  0.00    -0.014 A 
BRANCH  37  38
ATOM     38  C   UNL A   1      42.928  25.384  27.754  1.00  0.00     0.031 A 
ATOM     39  C   UNL A   1      44.347  25.892  27.677  1.00  0.00     0.074 A 
ATOM     40  C   UNL A   1      41.945  26.189  28.205  1.00  0.00     0.049 A 
ATOM     41  N   UNL A   1      44.821  27.067  28.003  1.00  0.00    -0.248 NA
ATOM     42  C   UNL A   1      45.372  24.950  27.196  1.00  0.00     0.031 C 
ATOM     43  C   UNL A   1      40.544  25.800  28.385  1.00  0.00     0.029 A 
ATOM     44  N   UNL A   1      41.978  27.499  28.612  1.00  0.00    -0.354 N 
ATOM     45  C   UNL A   1      46.194  26.996  27.792  1.00  0.00     0.074 A 
ATOM     46  C   UNL A   1      46.486  25.648  27.359  1.00  0.00     0.031 C 
ATOM     47  C   UNL A   1      39.852  26.849  28.859  1.00  0.00     0.029 A 
ATOM     48  C   UNL A   1      40.762  27.975  29.046  1.00  0.00     0.049 A 
ATOM     49  H   UNL A   1      42.794  28.048  28.597  1.00  0.00     0.167 HD
ATOM     50  C   UNL A   1      47.126  27.972  27.908  1.00  0.00     0.034 A 
ATOM     51  C   UNL A   1      40.421  29.180  29.544  1.00  0.00     0.034 A 
ATOM     52  C   UNL A   1      46.830  29.322  28.301  1.00  0.00     0.049 A 
ATOM     53  C   UNL A   1      41.477  30.250  29.642  1.00  0.00     0.074 A 
ATOM     54  C   UNL A   1      47.693  30.398  28.403  1.00  0.00     0.029 A 
ATOM     55  N   UNL A   1      45.572  29.784  28.653  1.00  0.00    -0.354 N 
ATOM     56  N   UNL A   1      42.745  30.195  29.316  1.00  0.00    -0.248 NA
ATOM     57  C   UNL A   1      41.042  31.565  30.137  1.00  0.00     0.031 C 
ATOM     58  C   UNL A   1      46.960  31.508  28.835  1.00  0.00     0.029 A 
ATOM     59  C   UNL A   1      45.634  31.132  28.965  1.00  0.00     0.049 A 
ATOM     60  H   UNL A   1      44.755  29.236  28.677  1.00  0.00     0.167 HD
ATOM     61  C   UNL A   1      43.244  31.479  29.511  1.00  0.00     0.074 A 
ATOM     62  C   UNL A   1      42.136  32.292  29.965  1.00  0.00     0.031 C 
ATOM     63  C   UNL A   1      44.508  31.942  29.347  1.00  0.00     0.034 A 
BRANCH  50  64
ATOM     64  C   UNL A   1      48.549  27.634  27.543  1.00  0.00     0.023 A 
ATOM     65  C   UNL A   1      49.405  27.091  28.523  1.00  0.00     0.012 A 
ATOM     66  C   UNL A   1      49.016  27.779  26.222  1.00  0.00     0.148 A 
ATOM     67  C   UNL A   1      50.712  26.725  28.203  1.00  0.00     0.002 A 
ATOM     68  C   UNL A   1      50.304  27.366  25.899  1.00  0.00     0.091 A 
ATOM     69  F   UNL A   1      48.192  28.310  25.308  1.00  0.00    -0.205 F 
ATOM     70  C   UNL A   1      51.156  26.852  26.890  1.00  0.00     0.022 A 
BRANCH  68  71
ATOM     71  S   UNL A   1      50.948  27.406  24.223  1.00  0.00     0.127 S 
ATOM     72  O   UNL A   1      49.851  26.800  23.470  1.00  0.00    -0.237 OA
ATOM     73  O   UNL A   1      51.122  28.840  23.998  1.00  0.00    -0.237 OA
ATOM     74  O   UNL A   1      52.184  26.635  24.246  1.00  0.00    -0.744 OA
ENDBRANCH  68  71
ENDBRANCH  50  64
BRANCH  51  75
ATOM     75  C   UNL A   1      39.013  29.470  29.943  1.00  0.00     0.023 A 
ATOM     76  C   UNL A   1      38.581  29.153  31.247  1.00  0.00     0.012 A 
ATOM     77  C   UNL A   1      38.094  30.023  29.032  1.00  0.00     0.148 A 
ATOM     78  C   UNL A   1      37.246  29.323  31.615  1.00  0.00     0.002 A 
ATOM     79  C   UNL A   1      36.778  30.247  29.426  1.00  0.00     0.091 A 
ATOM     80  F   UNL A   1      38.518  30.312  27.795  1.00  0.00    -0.205 F 
ATOM     81  C   UNL A   1      36.346  29.875  30.708  1.00  0.00     0.022 A 
BRANCH  79  82
ATOM     82  S   UNL A   1      35.589  31.070  28.363  1.00  0.00     0.127 S 
ATOM     83  O   UNL A   1      36.390  32.154  27.800  1.00  0.00    -0.237 OA
ATOM     84  O   UNL A   1      35.237  30.008  27.420  1.00  0.00    -0.237 OA
ATOM     85  O   UNL A   1      34.497  31.475  29.238  1.00  0.00    -0.744 OA
ENDBRANCH  79  82
ENDBRANCH  51  75
BRANCH  63  86
ATOM     86  C   UNL A   1      44.748  33.411  29.580  1.00  0.00     0.023 A 
ATOM     87  C   UNL A   1      45.151  33.875  30.847  1.00  0.00     0.012 A 
ATOM     88  C   UNL A   1      44.611  34.329  28.519  1.00  0.00     0.148 A 
ATOM     89  C   UNL A   1      45.366  35.234  31.070  1.00  0.00     0.002 A 
ATOM     90  C   UNL A   1      44.882  35.674  28.734  1.00  0.00     0.091 A 
ATOM     91  F   UNL A   1      44.209  33.873  27.324  1.00  0.00    -0.205 F 
ATOM     92  C   UNL A   1      45.241  36.132  30.012  1.00  0.00     0.022 A 
BRANCH  90  93
ATOM     93  S   UNL A   1      44.848  36.884  27.406  1.00  0.00     0.127 S 
ATOM     94  O   UNL A   1      45.221  38.110  28.109  1.00  0.00    -0.237 OA
ATOM     95  O   UNL A   1      45.870  36.370  26.493  1.00  0.00    -0.237 OA
ATOM     96  O   UNL A   1      43.493  36.855  26.873  1.00  0.00    -0.744 OA
ENDBRANCH  90  93
ENDBRANCH  63  86
ENDBRANCH  37  38
ENDBRANCH  29  32
ENDBRANCH  27  28
ENDBRANCH   1  27
TORSDOF 17
ENDMDL
MODEL 2
REMARK VINA RESULT:     -11.2      1.876      7.619
REMARK SMILES COc1ccc(/C=C2/SC(=S)N(CC(=O)NCCCNC(=O)c3ccc(-c4c5nc(c(-c6cccc(S(=O)(=O)[O-])c6F)c6ccc([nH]6)c(-c6cccc(S(=O)(=O)[O-])c6F)c6nc(c(-c7cccc(S(=O)(=O)[O-])c7F)c7ccc4[nH]7)C=C6)C=C5)cc3)C2=O)cc1[N+](=O)[O-]
REMARK SMILES IDX 18 1 17 2 16 3 14 4 15 5 13 7 12 8 7 9 8 10 9 11 86 12 10 13
REMARK SMILES IDX 87 14 11 15 6 16 3 17 4 18 89 19 5 20 88 21 2 22 1 23 90 24
REMARK SMILES IDX 91 25 92 26 19 27 20 28 21 29 22 31 23 32 24 33 85 34 25 35
REMARK SMILES IDX 84 36 26 37 27 38 28 39 78 40 29 41 83 42 77 43 79 44 30 45
REMARK SMILES IDX 82 46 76 47 75 48 31 50 63 51 43 52 62 53 44 54 47 55 61 56
REMARK SMILES IDX 80 57 45 58 46 59 60 61 81 62 48 63 32 64 33 65 41 66 34 67
REMARK SMILES IDX 36 68 42 69 35 70 37 71 38 72 39 73 40 74 64 75 65 76 73 77
REMARK SMILES IDX 66 78 68 79 74 80 67 81 69 82 70 83 71 84 72 85 49 86 50 87
REMARK SMILES IDX 58 88 51 89 53 90 59 91 52 92 54 93 55 94 56 95 57 96
REMARK H PARENT 16 6 20 30 79 49 47 60
REMARK Flexibility Score: inf
ROOT
ATOM      1  C   UNL A   1      38.058  19.659  24.865  1.00  0.00     0.042 C 
ENDROOT
BRANCH   1   2
ATOM      2  C   UNL A   1      36.712  20.328  25.106  1.00  0.00     0.117 C 
BRANCH   2   3
ATOM      3  N   UNL A   1      36.540  21.530  24.319  1.00  0.00    -0.354 N 
ATOM      4  C   UNL A   1      35.955  22.712  24.665  1.00  0.00     0.240 C 
ATOM      5  O   UNL A   1      36.225  23.700  23.976  1.00  0.00    -0.273 OA
ATOM      6  H   UNL A   1      36.898  21.488  23.404  1.00  0.00     0.163 HD
BRANCH   4   7
ATOM      7  C   UNL A   1      35.145  22.854  25.960  1.00  0.00     0.227 C 
BRANCH   7   8
ATOM      8  N   UNL A   1      33.692  22.909  25.771  1.00  0.00    -0.283 N 
ATOM      9  C   UNL A   1      30.721  25.038  25.595  1.00  0.00     0.029 C 
ATOM     10  C   UNL A   1      31.610  24.037  25.692  1.00  0.00     0.081 C 
ATOM     11  S   UNL A   1      31.179  22.373  25.562  1.00  0.00    -0.054 SA
ATOM     12  C   UNL A   1      33.083  24.146  25.902  1.00  0.00     0.266 C 
ATOM     13  C   UNL A   1      32.847  21.825  25.690  1.00  0.00     0.148 C 
ATOM     14  O   UNL A   1      33.667  25.180  26.202  1.00  0.00    -0.268 OA
ATOM     15  S   UNL A   1      33.234  20.202  25.739  1.00  0.00    -0.052 S 
BRANCH   9  16
ATOM     16  C   UNL A   1      31.086  26.458  25.620  1.00  0.00    -0.017 A 
ATOM     17  C   UNL A   1      32.130  29.084  25.649  1.00  0.00     0.196 A 
ATOM     18  C   UNL A   1      31.771  28.438  26.841  1.00  0.00     0.054 A 
ATOM     19  C   UNL A   1      31.913  28.415  24.439  1.00  0.00     0.311 A 
ATOM     20  C   UNL A   1      31.251  27.137  26.830  1.00  0.00     0.012 A 
ATOM     21  C   UNL A   1      31.365  27.121  24.420  1.00  0.00     0.098 A 
BRANCH  17  22
ATOM     22  O   UNL A   1      32.872  30.223  25.807  1.00  0.00    -0.490 OA
ATOM     23  C   UNL A   1      33.335  30.465  27.135  1.00  0.00     0.278 C 
ENDBRANCH  17  22
BRANCH  19  24
ATOM     24  N   UNL A   1      32.330  28.955  23.153  1.00  0.00     0.066 N 
ATOM     25  O   UNL A   1      33.542  28.918  22.890  1.00  0.00    -0.258 OA
ATOM     26  O   UNL A   1      31.454  29.338  22.370  1.00  0.00    -0.258 OA
ENDBRANCH  19  24
ENDBRANCH   9  16
ENDBRANCH   7   8
ENDBRANCH   4   7
ENDBRANCH   2   3
ENDBRANCH   1   2
BRANCH   1  27
ATOM     27  C   UNL A   1      39.177  20.195  25.752  1.00  0.00     0.118 C 
BRANCH  27  28
ATOM     28  N   UNL A   1      40.236  19.218  25.965  1.00  0.00    -0.352 N 
ATOM     29  C   UNL A   1      41.585  19.394  26.143  1.00  0.00     0.251 C 
ATOM     30  H   UNL A   1      39.936  18.280  25.984  1.00  0.00     0.163 HD
ATOM     31  O   UNL A   1      42.323  18.412  26.112  1.00  0.00    -0.269 OA
BRANCH  29  32
ATOM     32  C   UNL A   1      42.154  20.742  26.365  1.00  0.00     0.039 A 
ATOM     33  C   UNL A   1      42.342  21.185  27.677  1.00  0.00     0.014 A 
ATOM     34  C   UNL A   1      42.447  21.593  25.296  1.00  0.00     0.014 A 
ATOM     35  C   UNL A   1      42.851  22.464  27.915  1.00  0.00     0.010 A 
ATOM     36  C   UNL A   1      43.041  22.830  25.531  1.00  0.00     0.010 A 
ATOM     37  C   UNL A   1      43.221  23.292  26.843  1.00  0.00    -0.014 A 
BRANCH  37  38
ATOM     38  C   UNL A   1      43.743  24.665  27.074  1.00  0.00     0.031 A 
ATOM     39  C   UNL A   1      42.827  25.736  27.612  1.00  0.00     0.074 A 
ATOM     40  C   UNL A   1      45.021  24.961  26.761  1.00  0.00     0.049 A 
ATOM     41  N   UNL A   1      43.080  27.000  27.836  1.00  0.00    -0.248 NA
ATOM     42  C   UNL A   1      41.439  25.345  27.912  1.00  0.00     0.031 C 
ATOM     43  C   UNL A   1      45.990  24.030  26.175  1.00  0.00     0.029 A 
ATOM     44  N   UNL A   1      45.719  26.137  26.872  1.00  0.00    -0.354 N 
ATOM     45  C   UNL A   1      41.883  27.556  28.277  1.00  0.00     0.074 A 
ATOM     46  C   UNL A   1      40.890  26.505  28.239  1.00  0.00     0.031 C 
ATOM     47  C   UNL A   1      47.157  24.668  25.988  1.00  0.00     0.029 A 
ATOM     48  C   UNL A   1      47.012  26.058  26.409  1.00  0.00     0.049 A 
ATOM     49  H   UNL A   1      45.332  26.959  27.249  1.00  0.00     0.167 HD
ATOM     50  C   UNL A   1      41.637  28.814  28.711  1.00  0.00     0.034 A 
ATOM     51  C   UNL A   1      47.970  27.003  26.325  1.00  0.00     0.034 A 
ATOM     52  C   UNL A   1      42.633  29.848  28.786  1.00  0.00     0.049 A 
ATOM     53  C   UNL A   1      47.670  28.388  26.835  1.00  0.00     0.074 A 
ATOM     54  C   UNL A   1      42.497  31.142  29.256  1.00  0.00     0.029 A 
ATOM     55  N   UNL A   1      43.951  29.705  28.383  1.00  0.00    -0.354 N 
ATOM     56  N   UNL A   1      46.566  28.855  27.365  1.00  0.00    -0.248 NA
ATOM     57  C   UNL A   1      48.766  29.367  26.776  1.00  0.00     0.031 C 
ATOM     58  C   UNL A   1      43.730  31.788  29.120  1.00  0.00     0.029 A 
ATOM     59  C   UNL A   1      44.642  30.884  28.600  1.00  0.00     0.049 A 
ATOM     60  H   UNL A   1      44.338  28.885  27.998  1.00  0.00     0.167 HD
ATOM     61  C   UNL A   1      46.853  30.160  27.753  1.00  0.00     0.074 A 
ATOM     62  C   UNL A   1      48.240  30.401  27.416  1.00  0.00     0.031 C 
ATOM     63  C   UNL A   1      46.040  31.083  28.323  1.00  0.00     0.034 A 
BRANCH  50  64
ATOM     64  C   UNL A   1      40.248  29.130  29.205  1.00  0.00     0.023 A 
ATOM     65  C   UNL A   1      39.255  29.518  28.281  1.00  0.00     0.012 A 
ATOM     66  C   UNL A   1      39.902  28.969  30.560  1.00  0.00     0.148 A 
ATOM     67  C   UNL A   1      37.950  29.771  28.701  1.00  0.00     0.002 A 
ATOM     68  C   UNL A   1      38.587  29.174  30.964  1.00  0.00     0.091 A 
ATOM     69  F   UNL A   1      40.862  28.613  31.426  1.00  0.00    -0.205 F 
ATOM     70  C   UNL A   1      37.615  29.588  30.039  1.00  0.00     0.022 A 
BRANCH  68  71
ATOM     71  S   UNL A   1      38.028  28.885  32.646  1.00  0.00     0.127 S 
ATOM     72  O   UNL A   1      38.949  29.721  33.413  1.00  0.00    -0.237 OA
ATOM     73  O   UNL A   1      36.652  29.379  32.599  1.00  0.00    -0.237 OA
ATOM     74  O   UNL A   1      38.156  27.452  32.874  1.00  0.00    -0.744 OA
ENDBRANCH  68  71
ENDBRANCH  50  64
BRANCH  51  75
ATOM     75  C   UNL A   1      49.321  26.673  25.787  1.00  0.00     0.023 A 
ATOM     76  C   UNL A   1      50.242  25.977  26.596  1.00  0.00     0.012 A 
ATOM     77  C   UNL A   1      49.712  27.075  24.496  1.00  0.00     0.148 A 
ATOM     78  C   UNL A   1      51.545  25.743  26.154  1.00  0.00     0.002 A 
ATOM     79  C   UNL A   1      50.993  26.783  24.038  1.00  0.00     0.091 A 
ATOM     80  F   UNL A   1      48.828  27.742  23.741  1.00  0.00    -0.205 F 
ATOM     81  C   UNL A   1      51.918  26.140  24.873  1.00  0.00     0.022 A 
BRANCH  79  82
ATOM     82  S   UNL A   1      51.513  27.145  22.358  1.00  0.00     0.127 S 
ATOM     83  O   UNL A   1      51.727  28.589  22.414  1.00  0.00    -0.237 OA
ATOM     84  O   UNL A   1      52.732  26.345  22.238  1.00  0.00    -0.237 OA
ATOM     85  O   UNL A   1      50.421  26.698  21.504  1.00  0.00    -0.744 OA
ENDBRANCH  79  82
ENDBRANCH  51  75
BRANCH  63  86
ATOM     86  C   UNL A   1      46.646  32.413  28.693  1.00  0.00     0.023 A 
ATOM     87  C   UNL A   1      47.215  32.606  29.966  1.00  0.00     0.012 A 
ATOM     88  C   UNL A   1      46.685  33.461  27.751  1.00  0.00     0.148 A 
ATOM     89  C   UNL A   1      47.769  33.836  30.316  1.00  0.00     0.002 A 
ATOM     90  C   UNL A   1      47.290  34.665  28.087  1.00  0.00     0.091 A 
ATOM     91  F   UNL A   1      46.123  33.265  26.550  1.00  0.00    -0.205 F 
ATOM     92  C   UNL A   1      47.815  34.862  29.374  1.00  0.00     0.022 A 
BRANCH  90  93
ATOM     93  S   UNL A   1      47.488  36.003  26.904  1.00  0.00     0.127 S 
ATOM     94  O   UNL A   1      48.534  36.806  27.535  1.00  0.00    -0.237 OA
ATOM     95  O   UNL A   1      47.910  35.290  25.698  1.00  0.00    -0.237 OA
ATOM     96  O   UNL A   1      46.182  36.642  26.802  1.00  0.00    -0.744 OA
ENDBRANCH  90  93
ENDBRANCH  63  86
ENDBRANCH  37  38
ENDBRANCH  29  32
ENDBRANCH  27  28
ENDBRANCH   1  27
TORSDOF 17
ENDMDL
MODEL 3
REMARK VINA RESULT:     -11.0      5.642     11.104
REMARK SMILES COc1ccc(/C=C2/SC(=S)N(CC(=O)NCCCNC(=O)c3ccc(-c4c5nc(c(-c6cccc(S(=O)(=O)[O-])c6F)c6ccc([nH]6)c(-c6cccc(S(=O)(=O)[O-])c6F)c6nc(c(-c7cccc(S(=O)(=O)[O-])c7F)c7ccc4[nH]7)C=C6)C=C5)cc3)C2=O)cc1[N+](=O)[O-]
REMARK SMILES IDX 18 1 17 2 16 3 14 4 15 5 13 7 12 8 7 9 8 10 9 11 86 12 10 13
REMARK SMILES IDX 87 14 11 15 6 16 3 17 4 18 89 19 5 20 88 21 2 22 1 23 90 24
REMARK SMILES IDX 91 25 92 26 19 27 20 28 21 29 22 31 23 32 24 33 85 34 25 35
REMARK SMILES IDX 84 36 26 37 27 38 28 39 78 40 29 41 83 42 77 43 79 44 30 45
REMARK SMILES IDX 82 46 76 47 75 48 31 50 63 51 43 52 62 53 44 54 47 55 61 56
REMARK SMILES IDX 80 57 45 58 46 59 60 61 81 62 48 63 32 64 33 65 41 66 34 67
REMARK SMILES IDX 36 68 42 69 35 70 37 71 38 72 39 73 40 74 64 75 65 76 73 77
REMARK SMILES IDX 66 78 68 79 74 80 67 81 69 82 70 83 71 84 72 85 49 86 50 87
REMARK SMILES IDX 58 88 51 89 53 90 59 91 52 92 54 93 55 94 56 95 57 96
REMARK H PARENT 16 6 20 30 79 49 47 60
REMARK Flexibility Score: inf
ROOT
ATOM      1  C   UNL A   1      31.940  31.363  27.148  1.00  0.00     0.042 C 
ENDROOT
BRANCH   1   2
ATOM      2  C   UNL A   1      32.629  30.006  27.176  1.00  0.00     0.117 C 
BRANCH   2   3
ATOM      3  N   UNL A   1      31.699  28.907  27.026  1.00  0.00    -0.354 N 
ATOM      4  C   UNL A   1      31.943  27.610  26.687  1.00  0.00     0.240 C 
ATOM      5  O   UNL A   1      31.070  26.780  26.957  1.00  0.00    -0.273 OA
ATOM      6  H   UNL A   1      30.756  29.129  27.195  1.00  0.00     0.163 HD
BRANCH   4   7
ATOM      7  C   UNL A   1      33.315  27.164  26.165  1.00  0.00     0.227 C 
BRANCH   7   8
ATOM      8  N   UNL A   1      33.305  26.625  24.802  1.00  0.00    -0.283 N 
ATOM      9  C   UNL A   1      33.558  23.635  22.706  1.00  0.00     0.029 C 
ATOM     10  C   UNL A   1      33.515  24.876  23.217  1.00  0.00     0.081 C 
ATOM     11  S   UNL A   1      33.388  26.295  22.246  1.00  0.00    -0.054 SA
ATOM     12  C   UNL A   1      33.547  25.269  24.656  1.00  0.00     0.266 C 
ATOM     13  C   UNL A   1      33.295  27.365  23.641  1.00  0.00     0.148 C 
ATOM     14  O   UNL A   1      33.806  24.506  25.578  1.00  0.00    -0.268 OA
ATOM     15  S   UNL A   1      33.247  29.025  23.469  1.00  0.00    -0.052 S 
BRANCH   9  16
ATOM     16  C   UNL A   1      33.581  22.417  23.523  1.00  0.00    -0.017 A 
ATOM     17  C   UNL A   1      33.750  19.903  24.802  1.00  0.00     0.196 A 
ATOM     18  C   UNL A   1      32.532  20.367  24.283  1.00  0.00     0.054 A 
ATOM     19  C   UNL A   1      34.870  20.737  24.716  1.00  0.00     0.311 A 
ATOM     20  C   UNL A   1      32.445  21.615  23.650  1.00  0.00     0.012 A 
ATOM     21  C   UNL A   1      34.782  22.000  24.106  1.00  0.00     0.098 A 
BRANCH  17  22
ATOM     22  O   UNL A   1      33.767  18.578  25.142  1.00  0.00    -0.490 OA
ATOM     23  C   UNL A   1      32.509  17.911  25.049  1.00  0.00     0.278 C 
ENDBRANCH  17  22
BRANCH  19  24
ATOM     24  N   UNL A   1      36.198  20.320  25.140  1.00  0.00     0.066 N 
ATOM     25  O   UNL A   1      36.593  19.208  24.755  1.00  0.00    -0.258 OA
ATOM     26  O   UNL A   1      36.883  21.122  25.785  1.00  0.00    -0.258 OA
ENDBRANCH  19  24
ENDBRANCH   9  16
ENDBRANCH   7   8
ENDBRANCH   4   7
ENDBRANCH   2   3
ENDBRANCH   1   2
BRANCH   1  27
ATOM     27  C   UNL A   1      32.827  32.491  26.631  1.00  0.00     0.118 C 
BRANCH  27  28
ATOM     28  N   UNL A   1      32.571  33.756  27.308  1.00  0.00    -0.352 N 
ATOM     29  C   UNL A   1      33.117  34.276  28.454  1.00  0.00     0.251 C 
ATOM     30  H   UNL A   1      31.899  34.328  26.873  1.00  0.00     0.163 HD
ATOM     31  O   UNL A   1      32.612  35.280  28.951  1.00  0.00    -0.269 OA
BRANCH  29  32
ATOM     32  C   UNL A   1      34.292  33.644  29.092  1.00  0.00     0.039 A 
ATOM     33  C   UNL A   1      35.561  34.180  28.847  1.00  0.00     0.014 A 
ATOM     34  C   UNL A   1      34.165  32.497  29.880  1.00  0.00     0.014 A 
ATOM     35  C   UNL A   1      36.690  33.586  29.415  1.00  0.00     0.010 A 
ATOM     36  C   UNL A   1      35.278  31.961  30.520  1.00  0.00     0.010 A 
ATOM     37  C   UNL A   1      36.557  32.480  30.271  1.00  0.00    -0.014 A 
BRANCH  37  38
ATOM     38  C   UNL A   1      37.748  31.819  30.867  1.00  0.00     0.031 A 
ATOM     39  C   UNL A   1      38.143  32.123  32.291  1.00  0.00     0.074 A 
ATOM     40  C   UNL A   1      38.499  30.985  30.120  1.00  0.00     0.049 A 
ATOM     41  N   UNL A   1      39.170  31.687  32.973  1.00  0.00    -0.248 NA
ATOM     42  C   UNL A   1      37.286  33.059  33.040  1.00  0.00     0.031 C 
ATOM     43  C   UNL A   1      38.261  30.658  28.711  1.00  0.00     0.029 A 
ATOM     44  N   UNL A   1      39.630  30.276  30.436  1.00  0.00    -0.354 N 
ATOM     45  C   UNL A   1      39.097  32.311  34.213  1.00  0.00     0.074 A 
ATOM     46  C   UNL A   1      37.955  33.197  34.175  1.00  0.00     0.031 C 
ATOM     47  C   UNL A   1      39.210  29.807  28.289  1.00  0.00     0.029 A 
ATOM     48  C   UNL A   1      40.141  29.551  29.383  1.00  0.00     0.049 A 
ATOM     49  H   UNL A   1      40.038  30.283  31.331  1.00  0.00     0.167 HD
ATOM     50  C   UNL A   1      39.884  32.138  35.302  1.00  0.00     0.034 A 
ATOM     51  C   UNL A   1      41.241  28.776  29.308  1.00  0.00     0.034 A 
ATOM     52  C   UNL A   1      40.996  31.229  35.354  1.00  0.00     0.049 A 
ATOM     53  C   UNL A   1      42.084  28.588  30.542  1.00  0.00     0.074 A 
ATOM     54  C   UNL A   1      41.826  30.943  36.423  1.00  0.00     0.029 A 
ATOM     55  N   UNL A   1      41.431  30.453  34.291  1.00  0.00    -0.354 N 
ATOM     56  N   UNL A   1      41.921  29.092  31.741  1.00  0.00    -0.248 NA
ATOM     57  C   UNL A   1      43.239  27.686  30.423  1.00  0.00     0.031 C 
ATOM     58  C   UNL A   1      42.776  30.008  36.001  1.00  0.00     0.029 A 
ATOM     59  C   UNL A   1      42.513  29.683  34.681  1.00  0.00     0.049 A 
ATOM     60  H   UNL A   1      41.030  30.450  33.392  1.00  0.00     0.167 HD
ATOM     61  C   UNL A   1      42.917  28.525  32.530  1.00  0.00     0.074 A 
ATOM     62  C   UNL A   1      43.663  27.625  31.677  1.00  0.00     0.031 C 
ATOM     63  C   UNL A   1      43.200  28.740  33.838  1.00  0.00     0.034 A 
BRANCH  50  64
ATOM     64  C   UNL A   1      39.531  32.900  36.554  1.00  0.00     0.023 A 
ATOM     65  C   UNL A   1      40.064  34.191  36.753  1.00  0.00     0.012 A 
ATOM     66  C   UNL A   1      38.619  32.379  37.491  1.00  0.00     0.148 A 
ATOM     67  C   UNL A   1      39.720  34.939  37.878  1.00  0.00     0.002 A 
ATOM     68  C   UNL A   1      38.241  33.151  38.586  1.00  0.00     0.091 A 
ATOM     69  F   UNL A   1      38.133  31.146  37.293  1.00  0.00    -0.205 F 
ATOM     70  C   UNL A   1      38.800  34.423  38.787  1.00  0.00     0.022 A 
BRANCH  68  71
ATOM     71  S   UNL A   1      37.001  32.619  39.771  1.00  0.00     0.127 S 
ATOM     72  O   UNL A   1      35.789  32.624  38.953  1.00  0.00    -0.237 OA
ATOM     73  O   UNL A   1      37.482  31.288  40.138  1.00  0.00    -0.237 OA
ATOM     74  O   UNL A   1      37.025  33.598  40.849  1.00  0.00    -0.744 OA
ENDBRANCH  68  71
ENDBRANCH  50  64
BRANCH  51  75
ATOM     75  C   UNL A   1      41.592  28.072  28.040  1.00  0.00     0.023 A 
ATOM     76  C   UNL A   1      42.052  28.817  26.935  1.00  0.00     0.012 A 
ATOM     77  C   UNL A   1      41.440  26.679  27.911  1.00  0.00     0.148 A 
ATOM     78  C   UNL A   1      42.293  28.197  25.709  1.00  0.00     0.002 A 
ATOM     79  C   UNL A   1      41.741  26.058  26.703  1.00  0.00     0.091 A 
ATOM     80  F   UNL A   1      40.994  25.986  28.968  1.00  0.00    -0.205 F 
ATOM     81  C   UNL A   1      42.144  26.817  25.594  1.00  0.00     0.022 A 
BRANCH  79  82
ATOM     82  S   UNL A   1      41.699  24.274  26.507  1.00  0.00     0.127 S 
ATOM     83  O   UNL A   1      42.409  23.824  27.702  1.00  0.00    -0.237 OA
ATOM     84  O   UNL A   1      40.261  24.003  26.504  1.00  0.00    -0.237 OA
ATOM     85  O   UNL A   1      42.359  24.004  25.236  1.00  0.00    -0.744 OA
ENDBRANCH  79  82
ENDBRANCH  51  75
BRANCH  63  86
ATOM     86  C   UNL A   1      44.314  27.932  34.452  1.00  0.00     0.023 A 
ATOM     87  C   UNL A   1      45.635  28.419  34.445  1.00  0.00     0.012 A 
ATOM     88  C   UNL A   1      44.035  26.700  35.078  1.00  0.00     0.148 A 
ATOM     89  C   UNL A   1      46.670  27.671  35.004  1.00  0.00     0.002 A 
ATOM     90  C   UNL A   1      45.061  25.987  35.683  1.00  0.00     0.091 A 
ATOM     91  F   UNL A   1      42.774  26.243  35.060  1.00  0.00    -0.205 F 
ATOM     92  C   UNL A   1      46.382  26.461  35.631  1.00  0.00     0.022 A 
BRANCH  90  93
ATOM     93  S   UNL A   1      44.766  24.473  36.603  1.00  0.00     0.127 S 
ATOM     94  O   UNL A   1      43.925  24.949  37.700  1.00  0.00    -0.237 OA
ATOM     95  O   UNL A   1      44.071  23.643  35.619  1.00  0.00    -0.237 OA
ATOM     96  O   UNL A   1      46.080  23.977  36.991  1.00  0.00    -0.744 OA
ENDBRANCH  90  93
ENDBRANCH  63  86
ENDBRANCH  37  38
ENDBRANCH  29  32
ENDBRANCH  27  28
ENDBRANCH   1  27
TORSDOF 17
ENDMDL
