MODEL 1
REMARK VINA RESULT:     -12.5      0.000      0.000
REMARK SMILES O=CN1CCN(S(=O)(=O)c2ccc(C(=O)NCCCNC(=O)c3ccc(-c4c5nc(c(-c6cccc(S(=O)(=O)[O-])c6F)c6ccc([nH]6)c(-c6cccc(S(=O)(=O)[O-])c6F)c6nc(c(-c7cccc(S(=O)(=O)[O-])c7F)c7ccc4[nH]7)C=C6)C=C5)cc3)cc2)CC1
REMARK SMILES IDX 18 1 17 2 16 3 14 4 15 5 13 7 10 8 11 9 87 10 12 11 86 12
REMARK SMILES IDX 7 13 8 14 9 15 6 16 1 17 2 18 3 19 4 20 89 21 5 22 88 23
REMARK SMILES IDX 19 24 20 25 21 26 22 28 23 29 24 30 85 31 25 32 84 33 26 34
REMARK SMILES IDX 27 35 28 36 78 37 29 38 83 39 77 40 79 41 30 42 82 43 76 44
REMARK SMILES IDX 75 45 31 47 63 48 43 49 62 50 44 51 47 52 61 53 80 54 45 55
REMARK SMILES IDX 46 56 60 58 81 59 48 60 32 61 33 62 41 63 34 64 36 65 42 66
REMARK SMILES IDX 35 67 37 68 38 69 39 70 40 71 64 72 65 73 73 74 66 75 68 76
REMARK SMILES IDX 74 77 67 78 69 79 70 80 71 81 72 82 49 83 50 84 58 85 51 86
REMARK SMILES IDX 53 87 59 88 52 89 54 90 55 91 56 92 57 93
REMARK H PARENT 16 6 20 27 79 46 47 57
REMARK Flexibility Score: inf
ROOT
ATOM      1  C   UNL A   1      31.458  32.036  26.621  1.00  0.00     0.042 C 
ENDROOT
BRANCH   1   2
ATOM      2  C   UNL A   1      31.617  30.609  26.102  1.00  0.00     0.118 C 
BRANCH   2   3
ATOM      3  N   UNL A   1      31.020  30.424  24.790  1.00  0.00    -0.352 N 
ATOM      4  C   UNL A   1      30.862  29.293  24.030  1.00  0.00     0.251 C 
ATOM      5  O   UNL A   1      30.135  29.335  23.039  1.00  0.00    -0.269 OA
ATOM      6  H   UNL A   1      30.671  31.248  24.377  1.00  0.00     0.163 HD
BRANCH   4   7
ATOM      7  C   UNL A   1      31.508  28.008  24.394  1.00  0.00     0.039 A 
ATOM      8  C   UNL A   1      32.840  25.643  25.077  1.00  0.00     0.082 A 
ATOM      9  C   UNL A   1      33.477  26.582  24.262  1.00  0.00     0.022 A 
ATOM     10  C   UNL A   1      31.569  25.907  25.600  1.00  0.00     0.022 A 
ATOM     11  C   UNL A   1      32.809  27.764  23.926  1.00  0.00     0.015 A 
ATOM     12  C   UNL A   1      30.907  27.088  25.259  1.00  0.00     0.015 A 
BRANCH   8  13
ATOM     13  S   UNL A   1      33.696  24.175  25.592  1.00  0.00     0.243 S 
ATOM     14  O   UNL A   1      32.995  23.642  26.742  1.00  0.00    -0.207 OA
ATOM     15  O   UNL A   1      35.106  24.484  25.675  1.00  0.00    -0.207 OA
BRANCH  13  16
ATOM     16  N   UNL A   1      33.503  23.078  24.294  1.00  0.00    -0.194 NA
ATOM     17  O   UNL A   1      32.028  18.342  25.181  1.00  0.00    -0.279 OA
ATOM     18  C   UNL A   1      33.093  18.946  25.210  1.00  0.00     0.340 C 
ATOM     19  N   UNL A   1      33.241  20.311  25.138  1.00  0.00    -0.343 N 
ATOM     20  C   UNL A   1      34.552  20.954  25.179  1.00  0.00     0.136 C 
ATOM     21  C   UNL A   1      32.074  21.188  25.174  1.00  0.00     0.136 C 
ATOM     22  C   UNL A   1      34.651  22.111  24.167  1.00  0.00     0.124 C 
ATOM     23  C   UNL A   1      32.203  22.338  24.170  1.00  0.00     0.124 C 
ENDBRANCH  13  16
ENDBRANCH   8  13
ENDBRANCH   4   7
ENDBRANCH   2   3
ENDBRANCH   1   2
BRANCH   1  24
ATOM     24  C   UNL A   1      32.731  32.637  27.214  1.00  0.00     0.118 C 
BRANCH  24  25
ATOM     25  N   UNL A   1      32.551  34.019  27.632  1.00  0.00    -0.352 N 
ATOM     26  C   UNL A   1      33.166  34.725  28.637  1.00  0.00     0.251 C 
ATOM     27  H   UNL A   1      31.884  34.527  27.115  1.00  0.00     0.163 HD
ATOM     28  O   UNL A   1      32.728  35.834  28.940  1.00  0.00    -0.269 OA
BRANCH  26  29
ATOM     29  C   UNL A   1      34.332  34.170  29.363  1.00  0.00     0.039 A 
ATOM     30  C   UNL A   1      34.103  33.379  30.494  1.00  0.00     0.014 A 
ATOM     31  C   UNL A   1      35.643  34.461  28.975  1.00  0.00     0.014 A 
ATOM     32  C   UNL A   1      35.181  32.839  31.201  1.00  0.00     0.010 A 
ATOM     33  C   UNL A   1      36.717  33.871  29.644  1.00  0.00     0.010 A 
ATOM     34  C   UNL A   1      36.498  33.060  30.767  1.00  0.00    -0.014 A 
BRANCH  34  35
ATOM     35  C   UNL A   1      37.652  32.436  31.465  1.00  0.00     0.031 A 
ATOM     36  C   UNL A   1      38.400  31.291  30.837  1.00  0.00     0.074 A 
ATOM     37  C   UNL A   1      37.975  32.847  32.708  1.00  0.00     0.049 A 
ATOM     38  N   UNL A   1      39.404  30.603  31.315  1.00  0.00    -0.248 NA
ATOM     39  C   UNL A   1      37.947  30.845  29.509  1.00  0.00     0.031 C 
ATOM     40  C   UNL A   1      37.274  33.890  33.459  1.00  0.00     0.029 A 
ATOM     41  N   UNL A   1      38.955  32.419  33.567  1.00  0.00    -0.354 N 
ATOM     42  C   UNL A   1      39.680  29.623  30.370  1.00  0.00     0.074 A 
ATOM     43  C   UNL A   1      38.720  29.789  29.299  1.00  0.00     0.031 C 
ATOM     44  C   UNL A   1      37.847  34.020  34.667  1.00  0.00     0.029 A 
ATOM     45  C   UNL A   1      38.941  33.062  34.783  1.00  0.00     0.049 A 
ATOM     46  H   UNL A   1      39.607  31.718  33.336  1.00  0.00     0.167 HD
ATOM     47  C   UNL A   1      40.662  28.690  30.374  1.00  0.00     0.034 A 
ATOM     48  C   UNL A   1      39.722  32.900  35.870  1.00  0.00     0.034 A 
ATOM     49  C   UNL A   1      41.651  28.562  31.411  1.00  0.00     0.049 A 
ATOM     50  C   UNL A   1      40.844  31.900  35.824  1.00  0.00     0.074 A 
ATOM     51  C   UNL A   1      42.745  27.716  31.459  1.00  0.00     0.029 A 
ATOM     52  N   UNL A   1      41.666  29.299  32.585  1.00  0.00    -0.354 N 
ATOM     53  N   UNL A   1      41.196  31.101  34.846  1.00  0.00    -0.248 NA
ATOM     54  C   UNL A   1      41.701  31.805  37.015  1.00  0.00     0.031 C 
ATOM     55  C   UNL A   1      43.418  27.937  32.666  1.00  0.00     0.029 A 
ATOM     56  C   UNL A   1      42.746  28.927  33.366  1.00  0.00     0.049 A 
ATOM     57  H   UNL A   1      41.005  29.987  32.828  1.00  0.00     0.167 HD
ATOM     58  C   UNL A   1      42.331  30.433  35.289  1.00  0.00     0.074 A 
ATOM     59  C   UNL A   1      42.621  30.936  36.617  1.00  0.00     0.031 C 
ATOM     60  C   UNL A   1      43.057  29.475  34.661  1.00  0.00     0.034 A 
BRANCH  47  61
ATOM     61  C   UNL A   1      40.761  27.773  29.182  1.00  0.00     0.023 A 
ATOM     62  C   UNL A   1      39.929  26.638  29.116  1.00  0.00     0.012 A 
ATOM     63  C   UNL A   1      41.626  28.059  28.108  1.00  0.00     0.148 A 
ATOM     64  C   UNL A   1      39.977  25.783  28.016  1.00  0.00     0.002 A 
ATOM     65  C   UNL A   1      41.641  27.223  26.997  1.00  0.00     0.091 A 
ATOM     66  F   UNL A   1      42.428  29.131  28.197  1.00  0.00    -0.205 F 
ATOM     67  C   UNL A   1      40.825  26.081  26.953  1.00  0.00     0.022 A 
BRANCH  65  68
ATOM     68  S   UNL A   1      42.648  27.566  25.548  1.00  0.00     0.127 S 
ATOM     69  O   UNL A   1      43.987  27.637  26.129  1.00  0.00    -0.237 OA
ATOM     70  O   UNL A   1      42.407  26.387  24.714  1.00  0.00    -0.237 OA
ATOM     71  O   UNL A   1      42.132  28.810  24.994  1.00  0.00    -0.744 OA
ENDBRANCH  65  68
ENDBRANCH  47  61
BRANCH  48  72
ATOM     72  C   UNL A   1      39.520  33.776  37.058  1.00  0.00     0.023 A 
ATOM     73  C   UNL A   1      39.929  35.122  36.995  1.00  0.00     0.012 A 
ATOM     74  C   UNL A   1      38.882  33.305  38.221  1.00  0.00     0.148 A 
ATOM     75  C   UNL A   1      39.726  35.978  38.077  1.00  0.00     0.002 A 
ATOM     76  C   UNL A   1      38.637  34.177  39.276  1.00  0.00     0.091 A 
ATOM     77  F   UNL A   1      38.516  32.016  38.269  1.00  0.00    -0.205 F 
ATOM     78  C   UNL A   1      39.070  35.510  39.212  1.00  0.00     0.022 A 
BRANCH  76  79
ATOM     79  S   UNL A   1      37.677  33.690  40.715  1.00  0.00     0.127 S 
ATOM     80  O   UNL A   1      36.486  33.112  40.099  1.00  0.00    -0.237 OA
ATOM     81  O   UNL A   1      38.566  32.725  41.364  1.00  0.00    -0.237 OA
ATOM     82  O   UNL A   1      37.472  34.915  41.476  1.00  0.00    -0.744 OA
ENDBRANCH  76  79
ENDBRANCH  48  72
BRANCH  60  83
ATOM     83  C   UNL A   1      44.250  28.915  35.388  1.00  0.00     0.023 A 
ATOM     84  C   UNL A   1      45.520  29.491  35.184  1.00  0.00     0.012 A 
ATOM     85  C   UNL A   1      44.105  27.876  36.328  1.00  0.00     0.148 A 
ATOM     86  C   UNL A   1      46.631  29.025  35.885  1.00  0.00     0.002 A 
ATOM     87  C   UNL A   1      45.209  27.444  37.053  1.00  0.00     0.091 A 
ATOM     88  F   UNL A   1      42.893  27.324  36.492  1.00  0.00    -0.205 F 
ATOM     89  C   UNL A   1      46.474  28.011  36.827  1.00  0.00     0.022 A 
BRANCH  87  90
ATOM     90  S   UNL A   1      45.076  26.205  38.348  1.00  0.00     0.127 S 
ATOM     91  O   UNL A   1      44.661  25.026  37.591  1.00  0.00    -0.237 OA
ATOM     92  O   UNL A   1      46.443  26.145  38.868  1.00  0.00    -0.237 OA
ATOM     93  O   UNL A   1      44.098  26.725  39.293  1.00  0.00    -0.744 OA
ENDBRANCH  87  90
ENDBRANCH  60  83
ENDBRANCH  34  35
ENDBRANCH  26  29
ENDBRANCH  24  25
ENDBRANCH   1  24
TORSDOF 15
ENDMDL
MODEL 2
REMARK VINA RESULT:     -12.3      6.305     11.863
REMARK SMILES O=CN1CCN(S(=O)(=O)c2ccc(C(=O)NCCCNC(=O)c3ccc(-c4c5nc(c(-c6cccc(S(=O)(=O)[O-])c6F)c6ccc([nH]6)c(-c6cccc(S(=O)(=O)[O-])c6F)c6nc(c(-c7cccc(S(=O)(=O)[O-])c7F)c7ccc4[nH]7)C=C6)C=C5)cc3)cc2)CC1
REMARK SMILES IDX 18 1 17 2 16 3 14 4 15 5 13 7 10 8 11 9 87 10 12 11 86 12
REMARK SMILES IDX 7 13 8 14 9 15 6 16 1 17 2 18 3 19 4 20 89 21 5 22 88 23
REMARK SMILES IDX 19 24 20 25 21 26 22 28 23 29 24 30 85 31 25 32 84 33 26 34
REMARK SMILES IDX 27 35 28 36 78 37 29 38 83 39 77 40 79 41 30 42 82 43 76 44
REMARK SMILES IDX 75 45 31 47 63 48 43 49 62 50 44 51 47 52 61 53 80 54 45 55
REMARK SMILES IDX 46 56 60 58 81 59 48 60 32 61 33 62 41 63 34 64 36 65 42 66
REMARK SMILES IDX 35 67 37 68 38 69 39 70 40 71 64 72 65 73 73 74 66 75 68 76
REMARK SMILES IDX 74 77 67 78 69 79 70 80 71 81 72 82 49 83 50 84 58 85 51 86
REMARK SMILES IDX 53 87 59 88 52 89 54 90 55 91 56 92 57 93
REMARK H PARENT 16 6 20 27 79 46 47 57
REMARK Flexibility Score: inf
ROOT
ATOM      1  C   UNL A   1      37.967  19.612  25.000  1.00  0.00     0.042 C 
ENDROOT
BRANCH   1   2
ATOM      2  C   UNL A   1      36.840  20.612  24.750  1.00  0.00     0.118 C 
BRANCH   2   3
ATOM      3  N   UNL A   1      35.528  20.054  25.034  1.00  0.00    -0.352 N 
ATOM      4  C   UNL A   1      34.284  20.632  25.002  1.00  0.00     0.251 C 
ATOM      5  O   UNL A   1      33.289  19.913  25.074  1.00  0.00    -0.269 OA
ATOM      6  H   UNL A   1      35.533  19.103  25.292  1.00  0.00     0.163 HD
BRANCH   4   7
ATOM      7  C   UNL A   1      34.104  22.096  24.841  1.00  0.00     0.039 A 
ATOM      8  C   UNL A   1      33.693  24.834  24.437  1.00  0.00     0.082 A 
ATOM      9  C   UNL A   1      33.718  23.971  23.339  1.00  0.00     0.022 A 
ATOM     10  C   UNL A   1      33.811  24.328  25.737  1.00  0.00     0.022 A 
ATOM     11  C   UNL A   1      33.920  22.603  23.545  1.00  0.00     0.015 A 
ATOM     12  C   UNL A   1      34.015  22.961  25.935  1.00  0.00     0.015 A 
BRANCH   8  13
ATOM     13  S   UNL A   1      33.350  26.562  24.213  1.00  0.00     0.243 S 
ATOM     14  O   UNL A   1      33.603  26.880  22.822  1.00  0.00    -0.207 OA
ATOM     15  O   UNL A   1      34.025  27.293  25.263  1.00  0.00    -0.207 OA
BRANCH  13  16
ATOM     16  N   UNL A   1      31.672  26.716  24.500  1.00  0.00    -0.194 NA
ATOM     17  O   UNL A   1      28.867  29.703  21.566  1.00  0.00    -0.279 OA
ATOM     18  C   UNL A   1      29.587  29.864  22.542  1.00  0.00     0.340 C 
ATOM     19  N   UNL A   1      30.445  28.926  23.068  1.00  0.00    -0.343 N 
ATOM     20  C   UNL A   1      31.273  29.200  24.241  1.00  0.00     0.136 C 
ATOM     21  C   UNL A   1      30.677  27.661  22.377  1.00  0.00     0.136 C 
ATOM     22  C   UNL A   1      31.312  27.999  25.204  1.00  0.00     0.124 C 
ATOM     23  C   UNL A   1      30.726  26.485  23.357  1.00  0.00     0.124 C 
ENDBRANCH  13  16
ENDBRANCH   8  13
ENDBRANCH   4   7
ENDBRANCH   2   3
ENDBRANCH   1   2
BRANCH   1  24
ATOM     24  C   UNL A   1      39.029  20.094  25.986  1.00  0.00     0.118 C 
BRANCH  24  25
ATOM     25  N   UNL A   1      40.176  19.201  26.047  1.00  0.00    -0.352 N 
ATOM     26  C   UNL A   1      41.515  19.488  26.159  1.00  0.00     0.251 C 
ATOM     27  H   UNL A   1      39.959  18.241  26.001  1.00  0.00     0.163 HD
ATOM     28  O   UNL A   1      42.333  18.583  26.005  1.00  0.00    -0.269 OA
BRANCH  26  29
ATOM     29  C   UNL A   1      41.984  20.864  26.447  1.00  0.00     0.039 A 
ATOM     30  C   UNL A   1      42.187  21.741  25.376  1.00  0.00     0.014 A 
ATOM     31  C   UNL A   1      42.273  21.282  27.749  1.00  0.00     0.014 A 
ATOM     32  C   UNL A   1      42.627  23.047  25.613  1.00  0.00     0.010 A 
ATOM     33  C   UNL A   1      42.653  22.603  27.991  1.00  0.00     0.010 A 
ATOM     34  C   UNL A   1      42.841  23.497  26.926  1.00  0.00    -0.014 A 
BRANCH  34  35
ATOM     35  C   UNL A   1      43.241  24.901  27.202  1.00  0.00     0.031 A 
ATOM     36  C   UNL A   1      42.283  25.857  27.861  1.00  0.00     0.074 A 
ATOM     37  C   UNL A   1      44.442  25.342  26.778  1.00  0.00     0.049 A 
ATOM     38  N   UNL A   1      42.447  27.123  28.143  1.00  0.00    -0.248 NA
ATOM     39  C   UNL A   1      40.960  25.327  28.231  1.00  0.00     0.031 C 
ATOM     40  C   UNL A   1      45.427  24.538  26.051  1.00  0.00     0.029 A 
ATOM     41  N   UNL A   1      45.028  26.580  26.873  1.00  0.00    -0.354 N 
ATOM     42  C   UNL A   1      41.243  27.551  28.689  1.00  0.00     0.074 A 
ATOM     43  C   UNL A   1      40.347  26.415  28.674  1.00  0.00     0.031 C 
ATOM     44  C   UNL A   1      46.494  25.302  25.766  1.00  0.00     0.029 A 
ATOM     45  C   UNL A   1      46.263  26.652  26.272  1.00  0.00     0.049 A 
ATOM     46  H   UNL A   1      44.604  27.343  27.326  1.00  0.00     0.167 HD
ATOM     47  C   UNL A   1      40.921  28.770  29.186  1.00  0.00     0.034 A 
ATOM     48  C   UNL A   1      47.117  27.688  26.144  1.00  0.00     0.034 A 
ATOM     49  C   UNL A   1      41.830  29.882  29.252  1.00  0.00     0.049 A 
ATOM     50  C   UNL A   1      46.760  29.012  26.760  1.00  0.00     0.074 A 
ATOM     51  C   UNL A   1      41.631  31.124  29.828  1.00  0.00     0.029 A 
ATOM     52  N   UNL A   1      43.111  29.889  28.723  1.00  0.00    -0.354 N 
ATOM     53  N   UNL A   1      45.682  29.347  27.427  1.00  0.00    -0.248 NA
ATOM     54  C   UNL A   1      47.752  30.091  26.642  1.00  0.00     0.031 C 
ATOM     55  C   UNL A   1      42.791  31.885  29.641  1.00  0.00     0.029 A 
ATOM     56  C   UNL A   1      43.715  31.113  28.955  1.00  0.00     0.049 A 
ATOM     57  H   UNL A   1      43.532  29.133  28.252  1.00  0.00     0.167 HD
ATOM     58  C   UNL A   1      45.878  30.661  27.834  1.00  0.00     0.074 A 
ATOM     59  C   UNL A   1      47.188  31.056  27.357  1.00  0.00     0.031 C 
ATOM     60  C   UNL A   1      45.040  31.474  28.524  1.00  0.00     0.034 A 
BRANCH  47  61
ATOM     61  C   UNL A   1      39.541  28.945  29.766  1.00  0.00     0.023 A 
ATOM     62  C   UNL A   1      39.294  28.528  31.090  1.00  0.00     0.012 A 
ATOM     63  C   UNL A   1      38.512  29.568  29.034  1.00  0.00     0.148 A 
ATOM     64  C   UNL A   1      38.036  28.698  31.666  1.00  0.00     0.002 A 
ATOM     65  C   UNL A   1      37.271  29.769  29.629  1.00  0.00     0.091 A 
ATOM     66  F   UNL A   1      38.757  29.937  27.768  1.00  0.00    -0.205 F 
ATOM     67  C   UNL A   1      37.029  29.328  30.940  1.00  0.00     0.022 A 
BRANCH  65  68
ATOM     68  S   UNL A   1      35.934  30.634  28.796  1.00  0.00     0.127 S 
ATOM     69  O   UNL A   1      35.191  31.188  29.927  1.00  0.00    -0.237 OA
ATOM     70  O   UNL A   1      36.654  31.626  27.996  1.00  0.00    -0.237 OA
ATOM     71  O   UNL A   1      35.235  29.623  28.015  1.00  0.00    -0.744 OA
ENDBRANCH  65  68
ENDBRANCH  47  61
BRANCH  48  72
ATOM     72  C   UNL A   1      48.433  27.478  25.479  1.00  0.00     0.023 A 
ATOM     73  C   UNL A   1      49.546  27.114  26.261  1.00  0.00     0.012 A 
ATOM     74  C   UNL A   1      48.579  27.582  24.083  1.00  0.00     0.148 A 
ATOM     75  C   UNL A   1      50.786  26.879  25.667  1.00  0.00     0.002 A 
ATOM     76  C   UNL A   1      49.805  27.296  23.492  1.00  0.00     0.091 A 
ATOM     77  F   UNL A   1      47.511  27.947  23.357  1.00  0.00    -0.205 F 
ATOM     78  C   UNL A   1      50.913  26.957  24.283  1.00  0.00     0.022 A 
BRANCH  76  79
ATOM     79  S   UNL A   1      50.016  27.240  21.709  1.00  0.00     0.127 S 
ATOM     80  O   UNL A   1      48.946  26.332  21.308  1.00  0.00    -0.237 OA
ATOM     81  O   UNL A   1      49.811  28.640  21.332  1.00  0.00    -0.237 OA
ATOM     82  O   UNL A   1      51.375  26.760  21.495  1.00  0.00    -0.744 OA
ENDBRANCH  76  79
ENDBRANCH  48  72
BRANCH  60  83
ATOM     83  C   UNL A   1      45.516  32.870  28.827  1.00  0.00     0.023 A 
ATOM     84  C   UNL A   1      46.267  33.109  29.995  1.00  0.00     0.012 A 
ATOM     85  C   UNL A   1      45.290  33.926  27.922  1.00  0.00     0.148 A 
ATOM     86  C   UNL A   1      46.763  34.382  30.270  1.00  0.00     0.002 A 
ATOM     87  C   UNL A   1      45.823  35.183  28.182  1.00  0.00     0.091 A 
ATOM     88  F   UNL A   1      44.553  33.685  26.827  1.00  0.00    -0.205 F 
ATOM     89  C   UNL A   1      46.552  35.415  29.360  1.00  0.00     0.022 A 
BRANCH  87  90
ATOM     90  S   UNL A   1      45.672  36.544  27.019  1.00  0.00     0.127 S 
ATOM     91  O   UNL A   1      46.353  36.007  25.842  1.00  0.00    -0.237 OA
ATOM     92  O   UNL A   1      44.222  36.676  26.876  1.00  0.00    -0.237 OA
ATOM     93  O   UNL A   1      46.318  37.682  27.656  1.00  0.00    -0.744 OA
ENDBRANCH  87  90
ENDBRANCH  60  83
ENDBRANCH  34  35
ENDBRANCH  26  29
ENDBRANCH  24  25
ENDBRANCH   1  24
TORSDOF 15
ENDMDL
MODEL 3
REMARK VINA RESULT:     -12.2      2.406      3.262
REMARK SMILES O=CN1CCN(S(=O)(=O)c2ccc(C(=O)NCCCNC(=O)c3ccc(-c4c5nc(c(-c6cccc(S(=O)(=O)[O-])c6F)c6ccc([nH]6)c(-c6cccc(S(=O)(=O)[O-])c6F)c6nc(c(-c7cccc(S(=O)(=O)[O-])c7F)c7ccc4[nH]7)C=C6)C=C5)cc3)cc2)CC1
REMARK SMILES IDX 18 1 17 2 16 3 14 4 15 5 13 7 10 8 11 9 87 10 12 11 86 12
REMARK SMILES IDX 7 13 8 14 9 15 6 16 1 17 2 18 3 19 4 20 89 21 5 22 88 23
REMARK SMILES IDX 19 24 20 25 21 26 22 28 23 29 24 30 85 31 25 32 84 33 26 34
REMARK SMILES IDX 27 35 28 36 78 37 29 38 83 39 77 40 79 41 30 42 82 43 76 44
REMARK SMILES IDX 75 45 31 47 63 48 43 49 62 50 44 51 47 52 61 53 80 54 45 55
REMARK SMILES IDX 46 56 60 58 81 59 48 60 32 61 33 62 41 63 34 64 36 65 42 66
REMARK SMILES IDX 35 67 37 68 38 69 39 70 40 71 64 72 65 73 73 74 66 75 68 76
REMARK SMILES IDX 74 77 67 78 69 79 70 80 71 81 72 82 49 83 50 84 58 85 51 86
REMARK SMILES IDX 53 87 59 88 52 89 54 90 55 91 56 92 57 93
REMARK H PARENT 16 6 20 27 79 46 47 57
REMARK Flexibility Score: inf
ROOT
ATOM      1  C   UNL A   1      33.685  29.326  23.378  1.00  0.00     0.042 C 
ENDROOT
BRANCH   1   2
ATOM      2  C   UNL A   1      33.159  28.267  22.411  1.00  0.00     0.118 C 
BRANCH   2   3
ATOM      3  N   UNL A   1      31.737  28.414  22.145  1.00  0.00    -0.352 N 
ATOM      4  C   UNL A   1      30.653  27.783  22.701  1.00  0.00     0.251 C 
ATOM      5  O   UNL A   1      29.526  28.218  22.473  1.00  0.00    -0.269 OA
ATOM      6  H   UNL A   1      31.515  29.077  21.451  1.00  0.00     0.163 HD
BRANCH   4   7
ATOM      7  C   UNL A   1      30.805  26.615  23.604  1.00  0.00     0.039 A 
ATOM      8  C   UNL A   1      31.009  24.467  25.385  1.00  0.00     0.082 A 
ATOM      9  C   UNL A   1      30.754  25.748  25.878  1.00  0.00     0.022 A 
ATOM     10  C   UNL A   1      31.101  24.244  24.006  1.00  0.00     0.022 A 
ATOM     11  C   UNL A   1      30.649  26.820  24.984  1.00  0.00     0.015 A 
ATOM     12  C   UNL A   1      30.998  25.318  23.120  1.00  0.00     0.015 A 
BRANCH   8  13
ATOM     13  S   UNL A   1      31.059  23.075  26.488  1.00  0.00     0.243 S 
ATOM     14  O   UNL A   1      30.983  21.876  25.680  1.00  0.00    -0.207 OA
ATOM     15  O   UNL A   1      30.098  23.306  27.545  1.00  0.00    -0.207 OA
BRANCH  13  16
ATOM     16  N   UNL A   1      32.610  23.140  27.204  1.00  0.00    -0.194 NA
ATOM     17  O   UNL A   1      36.662  21.656  24.600  1.00  0.00    -0.279 OA
ATOM     18  C   UNL A   1      35.797  21.099  25.263  1.00  0.00     0.340 C 
ATOM     19  N   UNL A   1      34.638  21.682  25.720  1.00  0.00    -0.343 N 
ATOM     20  C   UNL A   1      33.653  20.944  26.508  1.00  0.00     0.136 C 
ATOM     21  C   UNL A   1      34.270  23.032  25.301  1.00  0.00     0.136 C 
ATOM     22  C   UNL A   1      33.100  21.792  27.667  1.00  0.00     0.124 C 
ATOM     23  C   UNL A   1      33.709  23.850  26.468  1.00  0.00     0.124 C 
ENDBRANCH  13  16
ENDBRANCH   8  13
ENDBRANCH   4   7
ENDBRANCH   2   3
ENDBRANCH   1   2
BRANCH   1  24
ATOM     24  C   UNL A   1      33.294  29.098  24.836  1.00  0.00     0.118 C 
BRANCH  24  25
ATOM     25  N   UNL A   1      32.563  30.224  25.398  1.00  0.00    -0.352 N 
ATOM     26  C   UNL A   1      32.775  30.922  26.562  1.00  0.00     0.251 C 
ATOM     27  H   UNL A   1      31.798  30.533  24.861  1.00  0.00     0.163 HD
ATOM     28  O   UNL A   1      31.922  31.723  26.940  1.00  0.00    -0.269 OA
BRANCH  26  29
ATOM     29  C   UNL A   1      34.000  30.716  27.370  1.00  0.00     0.039 A 
ATOM     30  C   UNL A   1      34.231  29.454  27.927  1.00  0.00     0.014 A 
ATOM     31  C   UNL A   1      34.894  31.761  27.625  1.00  0.00     0.014 A 
ATOM     32  C   UNL A   1      35.379  29.226  28.693  1.00  0.00     0.010 A 
ATOM     33  C   UNL A   1      36.069  31.517  28.337  1.00  0.00     0.010 A 
ATOM     34  C   UNL A   1      36.320  30.249  28.884  1.00  0.00    -0.014 A 
BRANCH  34  35
ATOM     35  C   UNL A   1      37.579  30.005  29.635  1.00  0.00     0.031 A 
ATOM     36  C   UNL A   1      38.645  29.103  29.074  1.00  0.00     0.074 A 
ATOM     37  C   UNL A   1      37.726  30.531  30.868  1.00  0.00     0.049 A 
ATOM     38  N   UNL A   1      39.786  28.747  29.605  1.00  0.00    -0.248 NA
ATOM     39  C   UNL A   1      38.386  28.504  27.754  1.00  0.00     0.031 C 
ATOM     40  C   UNL A   1      36.730  31.352  31.559  1.00  0.00     0.029 A 
ATOM     41  N   UNL A   1      38.757  30.429  31.769  1.00  0.00    -0.354 N 
ATOM     42  C   UNL A   1      40.364  27.858  28.707  1.00  0.00     0.074 A 
ATOM     43  C   UNL A   1      39.435  27.708  27.608  1.00  0.00     0.031 C 
ATOM     44  C   UNL A   1      37.198  31.680  32.774  1.00  0.00     0.029 A 
ATOM     45  C   UNL A   1      38.516  31.080  32.957  1.00  0.00     0.049 A 
ATOM     46  H   UNL A   1      39.589  29.938  31.583  1.00  0.00     0.167 HD
ATOM     47  C   UNL A   1      41.570  27.246  28.775  1.00  0.00     0.034 A 
ATOM     48  C   UNL A   1      39.271  31.184  34.068  1.00  0.00     0.034 A 
ATOM     49  C   UNL A   1      42.516  27.440  29.841  1.00  0.00     0.049 A 
ATOM     50  C   UNL A   1      40.632  30.546  34.092  1.00  0.00     0.074 A 
ATOM     51  C   UNL A   1      43.804  26.945  29.950  1.00  0.00     0.029 A 
ATOM     52  N   UNL A   1      42.278  28.188  30.984  1.00  0.00    -0.354 N 
ATOM     53  N   UNL A   1      41.233  29.851  33.156  1.00  0.00    -0.248 NA
ATOM     54  C   UNL A   1      41.438  30.739  35.307  1.00  0.00     0.031 C 
ATOM     55  C   UNL A   1      44.343  27.388  31.164  1.00  0.00     0.029 A 
ATOM     56  C   UNL A   1      43.391  28.166  31.806  1.00  0.00     0.049 A 
ATOM     57  H   UNL A   1      41.441  28.665  31.182  1.00  0.00     0.167 HD
ATOM     58  C   UNL A   1      42.495  29.551  33.655  1.00  0.00     0.074 A 
ATOM     59  C   UNL A   1      42.581  30.158  34.968  1.00  0.00     0.031 C 
ATOM     60  C   UNL A   1      43.486  28.821  33.085  1.00  0.00     0.034 A 
BRANCH  47  61
ATOM     61  C   UNL A   1      41.970  26.359  27.624  1.00  0.00     0.023 A 
ATOM     62  C   UNL A   1      42.658  26.920  26.530  1.00  0.00     0.012 A 
ATOM     63  C   UNL A   1      41.720  24.973  27.647  1.00  0.00     0.148 A 
ATOM     64  C   UNL A   1      43.063  26.124  25.460  1.00  0.00     0.002 A 
ATOM     65  C   UNL A   1      42.161  24.178  26.594  1.00  0.00     0.091 A 
ATOM     66  F   UNL A   1      41.043  24.459  28.684  1.00  0.00    -0.205 F 
ATOM     67  C   UNL A   1      42.825  24.752  25.497  1.00  0.00     0.022 A 
BRANCH  65  68
ATOM     68  S   UNL A   1      41.963  22.392  26.587  1.00  0.00     0.127 S 
ATOM     69  O   UNL A   1      40.508  22.257  26.595  1.00  0.00    -0.237 OA
ATOM     70  O   UNL A   1      42.603  22.011  25.327  1.00  0.00    -0.237 OA
ATOM     71  O   UNL A   1      42.649  21.914  27.780  1.00  0.00    -0.744 OA
ENDBRANCH  65  68
ENDBRANCH  47  61
BRANCH  48  72
ATOM     72  C   UNL A   1      38.785  32.002  35.214  1.00  0.00     0.023 A 
ATOM     73  C   UNL A   1      38.765  33.405  35.095  1.00  0.00     0.012 A 
ATOM     74  C   UNL A   1      38.294  31.406  36.391  1.00  0.00     0.148 A 
ATOM     75  C   UNL A   1      38.287  34.201  36.136  1.00  0.00     0.002 A 
ATOM     76  C   UNL A   1      37.771  32.202  37.404  1.00  0.00     0.091 A 
ATOM     77  F   UNL A   1      38.337  30.069  36.493  1.00  0.00    -0.205 F 
ATOM     78  C   UNL A   1      37.778  33.600  37.284  1.00  0.00     0.022 A 
BRANCH  76  79
ATOM     79  S   UNL A   1      36.973  31.503  38.853  1.00  0.00     0.127 S 
ATOM     80  O   UNL A   1      37.997  31.683  39.877  1.00  0.00    -0.237 OA
ATOM     81  O   UNL A   1      35.796  32.361  38.999  1.00  0.00    -0.237 OA
ATOM     82  O   UNL A   1      36.662  30.124  38.497  1.00  0.00    -0.744 OA
ENDBRANCH  76  79
ENDBRANCH  48  72
BRANCH  60  83
ATOM     83  C   UNL A   1      44.763  28.650  33.864  1.00  0.00     0.023 A 
ATOM     84  C   UNL A   1      45.808  29.580  33.694  1.00  0.00     0.012 A 
ATOM     85  C   UNL A   1      44.899  27.623  34.818  1.00  0.00     0.148 A 
ATOM     86  C   UNL A   1      46.980  29.473  34.442  1.00  0.00     0.002 A 
ATOM     87  C   UNL A   1      46.052  27.548  35.590  1.00  0.00     0.091 A 
ATOM     88  F   UNL A   1      43.902  26.735  34.950  1.00  0.00    -0.205 F 
ATOM     89  C   UNL A   1      47.097  28.466  35.398  1.00  0.00     0.022 A 
BRANCH  87  90
ATOM     90  S   UNL A   1      46.245  26.336  36.902  1.00  0.00     0.127 S 
ATOM     91  O   UNL A   1      45.107  26.647  37.765  1.00  0.00    -0.237 OA
ATOM     92  O   UNL A   1      46.133  25.068  36.180  1.00  0.00    -0.237 OA
ATOM     93  O   UNL A   1      47.559  26.583  37.479  1.00  0.00    -0.744 OA
ENDBRANCH  87  90
ENDBRANCH  60  83
ENDBRANCH  34  35
ENDBRANCH  26  29
ENDBRANCH  24  25
ENDBRANCH   1  24
TORSDOF 15
ENDMDL
