MODEL 1
REMARK VINA RESULT:     -13.8      0.000      0.000
REMARK SMILES O=C(NCCCNC(=O)c1ccc(N2C(=O)/C(=C\c3ccc4c(c3)OCO4)[NH+]=C2c2ccccc2)cc1)c1ccc(-c2c3nc(c(-c4cccc(S(=O)(=O)[O-])c4F)c4ccc([nH]4)c(-c4cccc(S(=O)(=O)[O-])c4F)c4nc(c(-c5cccc(S(=O)(=O)[O-])c5F)c5ccc2[nH]5)C=C4)C=C3)cc1
REMARK SMILES IDX 4 1 3 2 1 3 2 4 38 6 39 7 100 8 40 9 99 10 41 11 42 12 43 13
REMARK SMILES IDX 93 14 44 15 98 16 92 17 94 18 45 19 97 20 91 21 90 22 46 24
REMARK SMILES IDX 78 25 58 26 77 27 59 28 62 29 76 30 95 31 60 32 61 33 75 35
REMARK SMILES IDX 96 36 63 37 47 38 48 39 56 40 49 41 51 42 57 43 50 44 52 45
REMARK SMILES IDX 53 46 54 47 55 48 79 49 80 50 88 51 81 52 83 53 89 54 82 55
REMARK SMILES IDX 84 56 85 57 86 58 87 59 64 60 65 61 73 62 66 63 68 64 74 65
REMARK SMILES IDX 67 66 69 67 70 68 71 69 72 70 5 71 6 72 7 73 8 74 9 76 10 77
REMARK SMILES IDX 11 78 37 79 12 80 36 81 13 82 14 83 15 84 29 85 16 86 17 87
REMARK SMILES IDX 28 88 18 89 30 91 31 92 35 93 32 94 34 95 33 96 19 97 20 98
REMARK SMILES IDX 24 99 21 100 23 101 22 102 25 103 27 104 26 105
REMARK H PARENT 3 5 94 23 62 34 7 75 28 90
REMARK Flexibility Score: inf
ROOT
ATOM      1  C   UNL A   1      39.247  19.627  26.265  1.00  0.00     0.118 C 
ENDROOT
BRANCH   1   2
ATOM      2  N   UNL A   1      40.506  18.918  26.080  1.00  0.00    -0.352 N 
ATOM      3  O   UNL A   1      42.693  18.675  25.614  1.00  0.00    -0.269 OA
ATOM      4  C   UNL A   1      41.785  19.413  25.985  1.00  0.00     0.251 C 
ATOM      5  H   UNL A   1      40.429  17.938  26.013  1.00  0.00     0.163 HD
BRANCH   4   6
ATOM      6  C   UNL A   1      42.049  20.831  26.312  1.00  0.00     0.039 A 
ATOM      7  C   UNL A   1      42.368  21.202  27.619  1.00  0.00     0.014 A 
ATOM      8  C   UNL A   1      41.998  21.796  25.303  1.00  0.00     0.014 A 
ATOM      9  C   UNL A   1      42.479  22.543  27.952  1.00  0.00     0.010 A 
ATOM     10  C   UNL A   1      42.227  23.139  25.619  1.00  0.00     0.010 A 
ATOM     11  C   UNL A   1      42.454  23.525  26.950  1.00  0.00    -0.014 A 
BRANCH  11  12
ATOM     12  C   UNL A   1      42.822  24.916  27.308  1.00  0.00     0.031 A 
ATOM     13  C   UNL A   1      41.853  25.846  27.977  1.00  0.00     0.074 A 
ATOM     14  C   UNL A   1      44.068  25.332  27.000  1.00  0.00     0.049 A 
ATOM     15  N   UNL A   1      42.040  27.085  28.353  1.00  0.00    -0.248 NA
ATOM     16  C   UNL A   1      40.502  25.333  28.261  1.00  0.00     0.031 C 
ATOM     17  C   UNL A   1      45.075  24.523  26.303  1.00  0.00     0.029 A 
ATOM     18  N   UNL A   1      44.701  26.528  27.217  1.00  0.00    -0.354 N 
ATOM     19  C   UNL A   1      40.827  27.517  28.872  1.00  0.00     0.074 A 
ATOM     20  C   UNL A   1      39.908  26.404  28.776  1.00  0.00     0.031 C 
ATOM     21  C   UNL A   1      46.199  25.237  26.164  1.00  0.00     0.029 A 
ATOM     22  C   UNL A   1      45.972  26.575  26.691  1.00  0.00     0.049 A 
ATOM     23  H   UNL A   1      44.286  27.278  27.700  1.00  0.00     0.167 HD
ATOM     24  C   UNL A   1      40.516  28.733  29.383  1.00  0.00     0.034 A 
ATOM     25  C   UNL A   1      46.845  27.593  26.602  1.00  0.00     0.034 A 
ATOM     26  C   UNL A   1      41.450  29.824  29.499  1.00  0.00     0.049 A 
ATOM     27  C   UNL A   1      46.463  28.923  27.181  1.00  0.00     0.074 A 
ATOM     28  C   UNL A   1      41.254  31.060  30.091  1.00  0.00     0.029 A 
ATOM     29  N   UNL A   1      42.740  29.824  28.992  1.00  0.00    -0.354 N 
ATOM     30  N   UNL A   1      45.369  29.259  27.819  1.00  0.00    -0.248 NA
ATOM     31  C   UNL A   1      47.444  30.008  27.050  1.00  0.00     0.031 C 
ATOM     32  C   UNL A   1      42.409  31.824  29.901  1.00  0.00     0.029 A 
ATOM     33  C   UNL A   1      43.340  31.051  29.226  1.00  0.00     0.049 A 
ATOM     34  H   UNL A   1      43.168  29.066  28.534  1.00  0.00     0.167 HD
ATOM     35  C   UNL A   1      45.535  30.589  28.179  1.00  0.00     0.074 A 
ATOM     36  C   UNL A   1      46.853  30.984  27.725  1.00  0.00     0.031 C 
ATOM     37  C   UNL A   1      44.666  31.418  28.805  1.00  0.00     0.034 A 
BRANCH  24  38
ATOM     38  C   UNL A   1      39.115  28.970  29.879  1.00  0.00     0.023 A 
ATOM     39  C   UNL A   1      38.783  28.670  31.214  1.00  0.00     0.012 A 
ATOM     40  C   UNL A   1      38.168  29.618  29.058  1.00  0.00     0.148 A 
ATOM     41  C   UNL A   1      37.527  29.002  31.724  1.00  0.00     0.002 A 
ATOM     42  C   UNL A   1      36.935  29.982  29.585  1.00  0.00     0.091 A 
ATOM     43  F   UNL A   1      38.501  29.881  27.787  1.00  0.00    -0.205 F 
ATOM     44  C   UNL A   1      36.610  29.669  30.915  1.00  0.00     0.022 A 
BRANCH  42  45
ATOM     45  S   UNL A   1      35.716  30.917  28.652  1.00  0.00     0.127 S 
ATOM     46  O   UNL A   1      34.950  29.846  28.016  1.00  0.00    -0.237 OA
ATOM     47  O   UNL A   1      35.003  31.630  29.711  1.00  0.00    -0.237 OA
ATOM     48  O   UNL A   1      36.469  31.766  27.740  1.00  0.00    -0.744 OA
ENDBRANCH  42  45
ENDBRANCH  24  38
BRANCH  25  49
ATOM     49  C   UNL A   1      48.156  27.396  25.921  1.00  0.00     0.023 A 
ATOM     50  C   UNL A   1      49.284  27.020  26.671  1.00  0.00     0.012 A 
ATOM     51  C   UNL A   1      48.282  27.573  24.528  1.00  0.00     0.148 A 
ATOM     52  C   UNL A   1      50.526  26.865  26.053  1.00  0.00     0.002 A 
ATOM     53  C   UNL A   1      49.505  27.352  23.911  1.00  0.00     0.091 A 
ATOM     54  F   UNL A   1      47.199  27.946  23.833  1.00  0.00    -0.205 F 
ATOM     55  C   UNL A   1      50.635  27.020  24.673  1.00  0.00     0.022 A 
BRANCH  53  56
ATOM     56  S   UNL A   1      49.689  27.388  22.124  1.00  0.00     0.127 S 
ATOM     57  O   UNL A   1      51.082  26.982  21.959  1.00  0.00    -0.237 OA
ATOM     58  O   UNL A   1      48.702  26.395  21.697  1.00  0.00    -0.237 OA
ATOM     59  O   UNL A   1      49.370  28.753  21.729  1.00  0.00    -0.744 OA
ENDBRANCH  53  56
ENDBRANCH  25  49
BRANCH  37  60
ATOM     60  C   UNL A   1      45.119  32.832  29.052  1.00  0.00     0.023 A 
ATOM     61  C   UNL A   1      45.805  33.148  30.242  1.00  0.00     0.012 A 
ATOM     62  C   UNL A   1      44.912  33.834  28.085  1.00  0.00     0.148 A 
ATOM     63  C   UNL A   1      46.247  34.447  30.481  1.00  0.00     0.002 A 
ATOM     64  C   UNL A   1      45.403  35.114  28.306  1.00  0.00     0.091 A 
ATOM     65  F   UNL A   1      44.242  33.516  26.967  1.00  0.00    -0.205 F 
ATOM     66  C   UNL A   1      46.057  35.427  29.509  1.00  0.00     0.022 A 
BRANCH  64  67
ATOM     67  S   UNL A   1      45.289  36.417  27.076  1.00  0.00     0.127 S 
ATOM     68  O   UNL A   1      46.066  35.855  25.973  1.00  0.00    -0.237 OA
ATOM     69  O   UNL A   1      43.848  36.488  26.835  1.00  0.00    -0.237 OA
ATOM     70  O   UNL A   1      45.859  37.608  27.694  1.00  0.00    -0.744 OA
ENDBRANCH  64  67
ENDBRANCH  37  60
ENDBRANCH  11  12
ENDBRANCH   4   6
ENDBRANCH   1   2
BRANCH   1  71
ATOM     71  C   UNL A   1      38.418  19.679  24.994  1.00  0.00     0.042 C 
BRANCH  71  72
ATOM     72  C   UNL A   1      37.712  21.008  24.792  1.00  0.00     0.118 C 
BRANCH  72  73
ATOM     73  N   UNL A   1      38.385  22.101  25.487  1.00  0.00    -0.352 N 
ATOM     74  C   UNL A   1      37.973  23.400  25.648  1.00  0.00     0.251 C 
ATOM     75  H   UNL A   1      39.251  21.875  25.896  1.00  0.00     0.163 HD
ATOM     76  O   UNL A   1      38.723  24.256  26.103  1.00  0.00    -0.269 OA
BRANCH  74  77
ATOM     77  C   UNL A   1      36.602  23.755  25.245  1.00  0.00     0.040 A 
ATOM     78  C   UNL A   1      36.261  23.752  23.894  1.00  0.00     0.018 A 
ATOM     79  C   UNL A   1      35.645  24.032  26.222  1.00  0.00     0.018 A 
ATOM     80  C   UNL A   1      34.922  23.909  23.524  1.00  0.00     0.053 A 
ATOM     81  C   UNL A   1      34.316  24.193  25.847  1.00  0.00     0.053 A 
ATOM     82  C   UNL A   1      33.931  24.085  24.501  1.00  0.00     0.136 A 
BRANCH  82  83
ATOM     83  N   UNL A   1      32.560  24.140  24.172  1.00  0.00    -0.154 N 
ATOM     84  C   UNL A   1      31.844  25.310  24.156  1.00  0.00     0.385 C 
ATOM     85  C   UNL A   1      31.695  23.128  23.843  1.00  0.00     0.295 C 
ATOM     86  O   UNL A   1      32.206  26.443  24.425  1.00  0.00    -0.236 OA
ATOM     87  C   UNL A   1      30.483  24.862  23.710  1.00  0.00     0.216 C 
ATOM     88  N   UNL A   1      30.470  23.493  23.576  1.00  0.00    -0.233 N 
ATOM     89  C   UNL A   1      29.452  25.661  23.392  1.00  0.00     0.068 C 
ATOM     90  H   UNL A   1      29.710  22.917  23.333  1.00  0.00     0.312 HD
BRANCH  85  91
ATOM     91  C   UNL A   1      32.074  21.708  23.863  1.00  0.00     0.065 A 
ATOM     92  C   UNL A   1      32.097  21.001  22.657  1.00  0.00     0.017 A 
ATOM     93  C   UNL A   1      32.330  21.057  25.074  1.00  0.00     0.017 A 
ATOM     94  C   UNL A   1      32.407  19.641  22.663  1.00  0.00     0.001 A 
ATOM     95  C   UNL A   1      32.634  19.696  25.073  1.00  0.00     0.001 A 
ATOM     96  C   UNL A   1      32.674  18.991  23.869  1.00  0.00     0.000 A 
ENDBRANCH  85  91
BRANCH  89  97
ATOM     97  C   UNL A   1      29.651  27.103  23.243  1.00  0.00    -0.017 A 
ATOM     98  C   UNL A   1      30.743  27.633  22.524  1.00  0.00     0.012 A 
ATOM     99  C   UNL A   1      28.579  27.925  23.624  1.00  0.00     0.059 A 
ATOM    100  C   UNL A   1      30.728  28.970  22.108  1.00  0.00     0.051 A 
ATOM    101  C   UNL A   1      28.570  29.213  23.151  1.00  0.00     0.166 A 
ATOM    102  C   UNL A   1      29.606  29.718  22.399  1.00  0.00     0.165 A 
ATOM    103  O   UNL A   1      27.531  30.084  23.260  1.00  0.00    -0.454 OA
ATOM    104  O   UNL A   1      29.332  30.972  21.941  1.00  0.00    -0.454 OA
ATOM    105  C   UNL A   1      27.929  31.059  22.277  1.00  0.00     0.468 C 
ENDBRANCH  89  97
ENDBRANCH  82  83
ENDBRANCH  74  77
ENDBRANCH  72  73
ENDBRANCH  71  72
ENDBRANCH   1  71
TORSDOF 16
ENDMDL
MODEL 2
REMARK VINA RESULT:     -13.7      5.585     11.211
REMARK SMILES O=C(NCCCNC(=O)c1ccc(N2C(=O)/C(=C\c3ccc4c(c3)OCO4)[NH+]=C2c2ccccc2)cc1)c1ccc(-c2c3nc(c(-c4cccc(S(=O)(=O)[O-])c4F)c4ccc([nH]4)c(-c4cccc(S(=O)(=O)[O-])c4F)c4nc(c(-c5cccc(S(=O)(=O)[O-])c5F)c5ccc2[nH]5)C=C4)C=C3)cc1
REMARK SMILES IDX 4 1 3 2 1 3 2 4 38 6 39 7 100 8 40 9 99 10 41 11 42 12 43 13
REMARK SMILES IDX 93 14 44 15 98 16 92 17 94 18 45 19 97 20 91 21 90 22 46 24
REMARK SMILES IDX 78 25 58 26 77 27 59 28 62 29 76 30 95 31 60 32 61 33 75 35
REMARK SMILES IDX 96 36 63 37 47 38 48 39 56 40 49 41 51 42 57 43 50 44 52 45
REMARK SMILES IDX 53 46 54 47 55 48 79 49 80 50 88 51 81 52 83 53 89 54 82 55
REMARK SMILES IDX 84 56 85 57 86 58 87 59 64 60 65 61 73 62 66 63 68 64 74 65
REMARK SMILES IDX 67 66 69 67 70 68 71 69 72 70 5 71 6 72 7 73 8 74 9 76 10 77
REMARK SMILES IDX 11 78 37 79 12 80 36 81 13 82 14 83 15 84 29 85 16 86 17 87
REMARK SMILES IDX 28 88 18 89 30 91 31 92 35 93 32 94 34 95 33 96 19 97 20 98
REMARK SMILES IDX 24 99 21 100 23 101 22 102 25 103 27 104 26 105
REMARK H PARENT 3 5 94 23 62 34 7 75 28 90
REMARK Flexibility Score: inf
ROOT
ATOM      1  C   UNL A   1      32.724  33.072  26.801  1.00  0.00     0.118 C 
ENDROOT
BRANCH   1   2
ATOM      2  N   UNL A   1      32.505  34.266  27.606  1.00  0.00    -0.352 N 
ATOM      3  O   UNL A   1      32.608  35.576  29.431  1.00  0.00    -0.269 OA
ATOM      4  C   UNL A   1      33.079  34.635  28.799  1.00  0.00     0.251 C 
ATOM      5  H   UNL A   1      31.850  34.904  27.240  1.00  0.00     0.163 HD
BRANCH   4   6
ATOM      6  C   UNL A   1      34.244  33.885  29.316  1.00  0.00     0.039 A 
ATOM      7  C   UNL A   1      35.537  34.366  29.106  1.00  0.00     0.014 A 
ATOM      8  C   UNL A   1      34.045  32.704  30.034  1.00  0.00     0.014 A 
ATOM      9  C   UNL A   1      36.632  33.596  29.470  1.00  0.00     0.010 A 
ATOM     10  C   UNL A   1      35.149  31.984  30.503  1.00  0.00     0.010 A 
ATOM     11  C   UNL A   1      36.452  32.418  30.210  1.00  0.00    -0.014 A 
BRANCH  11  12
ATOM     12  C   UNL A   1      37.644  31.755  30.792  1.00  0.00     0.031 A 
ATOM     13  C   UNL A   1      38.446  30.746  30.022  1.00  0.00     0.074 A 
ATOM     14  C   UNL A   1      37.987  32.081  32.055  1.00  0.00     0.049 A 
ATOM     15  N   UNL A   1      39.513  30.093  30.402  1.00  0.00    -0.248 NA
ATOM     16  C   UNL A   1      38.000  30.420  28.658  1.00  0.00     0.031 C 
ATOM     17  C   UNL A   1      37.246  33.015  32.912  1.00  0.00     0.029 A 
ATOM     18  N   UNL A   1      39.027  31.666  32.846  1.00  0.00    -0.354 N 
ATOM     19  C   UNL A   1      39.842  29.247  29.352  1.00  0.00     0.074 A 
ATOM     20  C   UNL A   1      38.867  29.476  28.307  1.00  0.00     0.031 C 
ATOM     21  C   UNL A   1      37.861  33.113  34.097  1.00  0.00     0.029 A 
ATOM     22  C   UNL A   1      38.992  32.197  34.115  1.00  0.00     0.049 A 
ATOM     23  H   UNL A   1      39.728  31.049  32.535  1.00  0.00     0.167 HD
ATOM     24  C   UNL A   1      40.866  28.364  29.271  1.00  0.00     0.034 A 
ATOM     25  C   UNL A   1      39.758  31.944  35.191  1.00  0.00     0.034 A 
ATOM     26  C   UNL A   1      41.847  28.168  30.308  1.00  0.00     0.049 A 
ATOM     27  C   UNL A   1      40.883  30.961  35.060  1.00  0.00     0.074 A 
ATOM     28  C   UNL A   1      42.976  27.367  30.277  1.00  0.00     0.029 A 
ATOM     29  N   UNL A   1      41.805  28.750  31.565  1.00  0.00    -0.354 N 
ATOM     30  N   UNL A   1      41.276  30.297  34.001  1.00  0.00    -0.248 NA
ATOM     31  C   UNL A   1      41.685  30.709  36.264  1.00  0.00     0.031 C 
ATOM     32  C   UNL A   1      43.591  27.429  31.532  1.00  0.00     0.029 A 
ATOM     33  C   UNL A   1      42.867  28.299  32.331  1.00  0.00     0.049 A 
ATOM     34  H   UNL A   1      41.122  29.390  31.868  1.00  0.00     0.167 HD
ATOM     35  C   UNL A   1      42.380  29.560  34.406  1.00  0.00     0.074 A 
ATOM     36  C   UNL A   1      42.618  29.893  35.795  1.00  0.00     0.031 C 
ATOM     37  C   UNL A   1      43.115  28.668  33.700  1.00  0.00     0.034 A 
BRANCH  24  38
ATOM     38  C   UNL A   1      41.011  27.540  28.020  1.00  0.00     0.023 A 
ATOM     39  C   UNL A   1      41.608  28.103  26.874  1.00  0.00     0.012 A 
ATOM     40  C   UNL A   1      40.682  26.168  28.027  1.00  0.00     0.148 A 
ATOM     41  C   UNL A   1      41.865  27.316  25.750  1.00  0.00     0.002 A 
ATOM     42  C   UNL A   1      40.979  25.383  26.920  1.00  0.00     0.091 A 
ATOM     43  F   UNL A   1      40.103  25.659  29.123  1.00  0.00    -0.205 F 
ATOM     44  C   UNL A   1      41.564  25.956  25.779  1.00  0.00     0.022 A 
BRANCH  42  45
ATOM     45  S   UNL A   1      40.708  23.608  26.886  1.00  0.00     0.127 S 
ATOM     46  O   UNL A   1      41.538  23.206  25.751  1.00  0.00    -0.237 OA
ATOM     47  O   UNL A   1      41.221  23.195  28.192  1.00  0.00    -0.237 OA
ATOM     48  O   UNL A   1      39.276  23.420  26.702  1.00  0.00    -0.744 OA
ENDBRANCH  42  45
ENDBRANCH  24  38
BRANCH  25  49
ATOM     49  C   UNL A   1      39.471  32.620  36.487  1.00  0.00     0.023 A 
ATOM     50  C   UNL A   1      40.151  33.805  36.824  1.00  0.00     0.012 A 
ATOM     51  C   UNL A   1      38.519  32.094  37.384  1.00  0.00     0.148 A 
ATOM     52  C   UNL A   1      39.918  34.430  38.050  1.00  0.00     0.002 A 
ATOM     53  C   UNL A   1      38.244  32.758  38.571  1.00  0.00     0.091 A 
ATOM     54  F   UNL A   1      37.893  30.956  37.051  1.00  0.00    -0.205 F 
ATOM     55  C   UNL A   1      38.958  33.914  38.918  1.00  0.00     0.022 A 
BRANCH  53  56
ATOM     56  S   UNL A   1      36.921  32.238  39.668  1.00  0.00     0.127 S 
ATOM     57  O   UNL A   1      37.347  30.889  40.032  1.00  0.00    -0.237 OA
ATOM     58  O   UNL A   1      37.011  33.226  40.744  1.00  0.00    -0.237 OA
ATOM     59  O   UNL A   1      35.702  32.330  38.875  1.00  0.00    -0.744 OA
ENDBRANCH  53  56
ENDBRANCH  25  49
BRANCH  37  60
ATOM     60  C   UNL A   1      44.259  28.000  34.414  1.00  0.00     0.023 A 
ATOM     61  C   UNL A   1      45.530  28.609  34.422  1.00  0.00     0.012 A 
ATOM     62  C   UNL A   1      44.064  26.798  35.121  1.00  0.00     0.148 A 
ATOM     63  C   UNL A   1      46.597  28.015  35.091  1.00  0.00     0.002 A 
ATOM     64  C   UNL A   1      45.118  26.239  35.831  1.00  0.00     0.091 A 
ATOM     65  F   UNL A   1      42.851  26.226  35.086  1.00  0.00    -0.205 F 
ATOM     66  C   UNL A   1      46.389  26.837  35.805  1.00  0.00     0.022 A 
BRANCH  64  67
ATOM     67  S   UNL A   1      44.924  24.777  36.855  1.00  0.00     0.127 S 
ATOM     68  O   UNL A   1      46.243  24.670  37.475  1.00  0.00    -0.237 OA
ATOM     69  O   UNL A   1      43.852  25.178  37.765  1.00  0.00    -0.237 OA
ATOM     70  O   UNL A   1      44.575  23.691  35.947  1.00  0.00    -0.744 OA
ENDBRANCH  64  67
ENDBRANCH  37  60
ENDBRANCH  11  12
ENDBRANCH   4   6
ENDBRANCH   1   2
BRANCH   1  71
ATOM     71  C   UNL A   1      31.547  32.112  26.856  1.00  0.00     0.042 C 
BRANCH  71  72
ATOM     72  C   UNL A   1      31.965  30.652  26.878  1.00  0.00     0.118 C 
BRANCH  72  73
ATOM     73  N   UNL A   1      33.296  30.469  27.449  1.00  0.00    -0.352 N 
ATOM     74  C   UNL A   1      34.048  29.323  27.523  1.00  0.00     0.251 C 
ATOM     75  H   UNL A   1      33.710  31.276  27.831  1.00  0.00     0.163 HD
ATOM     76  O   UNL A   1      35.076  29.277  28.189  1.00  0.00    -0.269 OA
BRANCH  74  77
ATOM     77  C   UNL A   1      33.584  28.132  26.793  1.00  0.00     0.040 A 
ATOM     78  C   UNL A   1      32.465  27.438  27.251  1.00  0.00     0.018 A 
ATOM     79  C   UNL A   1      34.232  27.745  25.619  1.00  0.00     0.018 A 
ATOM     80  C   UNL A   1      31.918  26.423  26.462  1.00  0.00     0.053 A 
ATOM     81  C   UNL A   1      33.686  26.731  24.842  1.00  0.00     0.053 A 
ATOM     82  C   UNL A   1      32.497  26.091  25.228  1.00  0.00     0.136 A 
BRANCH  82  83
ATOM     83  N   UNL A   1      31.911  25.147  24.358  1.00  0.00    -0.154 N 
ATOM     84  C   UNL A   1      32.387  23.868  24.217  1.00  0.00     0.385 C 
ATOM     85  C   UNL A   1      30.841  25.279  23.511  1.00  0.00     0.295 C 
ATOM     86  O   UNL A   1      33.347  23.336  24.750  1.00  0.00    -0.236 OA
ATOM     87  C   UNL A   1      31.422  23.258  23.243  1.00  0.00     0.216 C 
ATOM     88  N   UNL A   1      30.522  24.213  22.829  1.00  0.00    -0.233 N 
ATOM     89  C   UNL A   1      31.366  21.965  22.889  1.00  0.00     0.068 C 
ATOM     90  H   UNL A   1      29.799  24.115  22.169  1.00  0.00     0.312 HD
BRANCH  85  91
ATOM     91  C   UNL A   1      30.134  26.551  23.301  1.00  0.00     0.065 A 
ATOM     92  C   UNL A   1      28.810  26.663  23.735  1.00  0.00     0.017 A 
ATOM     93  C   UNL A   1      30.748  27.602  22.612  1.00  0.00     0.017 A 
ATOM     94  C   UNL A   1      28.107  27.845  23.501  1.00  0.00     0.001 A 
ATOM     95  C   UNL A   1      30.038  28.779  22.377  1.00  0.00     0.001 A 
ATOM     96  C   UNL A   1      28.722  28.900  22.823  1.00  0.00     0.000 A 
ENDBRANCH  85  91
BRANCH  89  97
ATOM     97  C   UNL A   1      32.140  20.962  23.621  1.00  0.00    -0.017 A 
ATOM     98  C   UNL A   1      32.207  20.958  25.031  1.00  0.00     0.012 A 
ATOM     99  C   UNL A   1      32.600  19.862  22.881  1.00  0.00     0.059 A 
ATOM    100  C   UNL A   1      32.655  19.818  25.710  1.00  0.00     0.051 A 
ATOM    101  C   UNL A   1      32.977  18.743  23.579  1.00  0.00     0.166 A 
ATOM    102  C   UNL A   1      32.989  18.713  24.954  1.00  0.00     0.165 A 
ATOM    103  O   UNL A   1      33.267  17.533  23.028  1.00  0.00    -0.454 OA
ATOM    104  O   UNL A   1      33.283  17.470  25.430  1.00  0.00    -0.454 OA
ATOM    105  C   UNL A   1      33.189  16.707  24.206  1.00  0.00     0.468 C 
ENDBRANCH  89  97
ENDBRANCH  82  83
ENDBRANCH  74  77
ENDBRANCH  72  73
ENDBRANCH  71  72
ENDBRANCH   1  71
TORSDOF 16
ENDMDL
MODEL 3
REMARK VINA RESULT:     -13.5      6.087     11.450
REMARK SMILES O=C(NCCCNC(=O)c1ccc(N2C(=O)/C(=C\c3ccc4c(c3)OCO4)[NH+]=C2c2ccccc2)cc1)c1ccc(-c2c3nc(c(-c4cccc(S(=O)(=O)[O-])c4F)c4ccc([nH]4)c(-c4cccc(S(=O)(=O)[O-])c4F)c4nc(c(-c5cccc(S(=O)(=O)[O-])c5F)c5ccc2[nH]5)C=C4)C=C3)cc1
REMARK SMILES IDX 4 1 3 2 1 3 2 4 38 6 39 7 100 8 40 9 99 10 41 11 42 12 43 13
REMARK SMILES IDX 93 14 44 15 98 16 92 17 94 18 45 19 97 20 91 21 90 22 46 24
REMARK SMILES IDX 78 25 58 26 77 27 59 28 62 29 76 30 95 31 60 32 61 33 75 35
REMARK SMILES IDX 96 36 63 37 47 38 48 39 56 40 49 41 51 42 57 43 50 44 52 45
REMARK SMILES IDX 53 46 54 47 55 48 79 49 80 50 88 51 81 52 83 53 89 54 82 55
REMARK SMILES IDX 84 56 85 57 86 58 87 59 64 60 65 61 73 62 66 63 68 64 74 65
REMARK SMILES IDX 67 66 69 67 70 68 71 69 72 70 5 71 6 72 7 73 8 74 9 76 10 77
REMARK SMILES IDX 11 78 37 79 12 80 36 81 13 82 14 83 15 84 29 85 16 86 17 87
REMARK SMILES IDX 28 88 18 89 30 91 31 92 35 93 32 94 34 95 33 96 19 97 20 98
REMARK SMILES IDX 24 99 21 100 23 101 22 102 25 103 27 104 26 105
REMARK H PARENT 3 5 94 23 62 34 7 75 28 90
REMARK Flexibility Score: inf
ROOT
ATOM      1  C   UNL A   1      32.937  33.065  27.038  1.00  0.00     0.118 C 
ENDROOT
BRANCH   1   2
ATOM      2  N   UNL A   1      32.574  34.323  27.678  1.00  0.00    -0.352 N 
ATOM      3  O   UNL A   1      32.466  35.846  29.330  1.00  0.00    -0.269 OA
ATOM      4  C   UNL A   1      33.049  34.882  28.841  1.00  0.00     0.251 C 
ATOM      5  H   UNL A   1      31.889  34.850  27.208  1.00  0.00     0.163 HD
BRANCH   4   6
ATOM      6  C   UNL A   1      34.242  34.308  29.498  1.00  0.00     0.039 A 
ATOM      7  C   UNL A   1      34.100  33.486  30.617  1.00  0.00     0.014 A 
ATOM      8  C   UNL A   1      35.513  34.574  28.983  1.00  0.00     0.014 A 
ATOM      9  C   UNL A   1      35.222  33.062  31.314  1.00  0.00     0.010 A 
ATOM     10  C   UNL A   1      36.642  34.048  29.619  1.00  0.00     0.010 A 
ATOM     11  C   UNL A   1      36.505  33.301  30.799  1.00  0.00    -0.014 A 
BRANCH  11  12
ATOM     12  C   UNL A   1      37.662  32.624  31.434  1.00  0.00     0.031 A 
ATOM     13  C   UNL A   1      38.384  31.491  30.765  1.00  0.00     0.074 A 
ATOM     14  C   UNL A   1      38.045  33.054  32.654  1.00  0.00     0.049 A 
ATOM     15  N   UNL A   1      39.413  30.811  31.200  1.00  0.00    -0.248 NA
ATOM     16  C   UNL A   1      37.896  31.057  29.446  1.00  0.00     0.031 C 
ATOM     17  C   UNL A   1      37.381  34.117  33.417  1.00  0.00     0.029 A 
ATOM     18  N   UNL A   1      39.069  32.654  33.473  1.00  0.00    -0.354 N 
ATOM     19  C   UNL A   1      39.669  29.842  30.239  1.00  0.00     0.074 A 
ATOM     20  C   UNL A   1      38.694  30.027  29.186  1.00  0.00     0.031 C 
ATOM     21  C   UNL A   1      38.020  34.295  34.580  1.00  0.00     0.029 A 
ATOM     22  C   UNL A   1      39.090  33.313  34.681  1.00  0.00     0.049 A 
ATOM     23  H   UNL A   1      39.724  31.964  33.221  1.00  0.00     0.167 HD
ATOM     24  C   UNL A   1      40.633  28.891  30.240  1.00  0.00     0.034 A 
ATOM     25  C   UNL A   1      39.855  33.122  35.770  1.00  0.00     0.034 A 
ATOM     26  C   UNL A   1      41.616  28.737  31.281  1.00  0.00     0.049 A 
ATOM     27  C   UNL A   1      40.912  32.058  35.730  1.00  0.00     0.074 A 
ATOM     28  C   UNL A   1      42.691  27.864  31.323  1.00  0.00     0.029 A 
ATOM     29  N   UNL A   1      41.632  29.446  32.472  1.00  0.00    -0.354 N 
ATOM     30  N   UNL A   1      41.245  31.265  34.741  1.00  0.00    -0.248 NA
ATOM     31  C   UNL A   1      41.716  31.878  36.945  1.00  0.00     0.031 C 
ATOM     32  C   UNL A   1      43.328  28.014  32.558  1.00  0.00     0.029 A 
ATOM     33  C   UNL A   1      42.676  29.007  33.270  1.00  0.00     0.049 A 
ATOM     34  H   UNL A   1      40.997  30.157  32.715  1.00  0.00     0.167 HD
ATOM     35  C   UNL A   1      42.306  30.502  35.209  1.00  0.00     0.074 A 
ATOM     36  C   UNL A   1      42.587  30.959  36.555  1.00  0.00     0.031 C 
ATOM     37  C   UNL A   1      42.970  29.497  34.591  1.00  0.00     0.034 A 
BRANCH  24  38
ATOM     38  C   UNL A   1      40.704  27.935  29.078  1.00  0.00     0.023 A 
ATOM     39  C   UNL A   1      39.749  26.907  28.956  1.00  0.00     0.012 A 
ATOM     40  C   UNL A   1      41.634  28.145  28.039  1.00  0.00     0.148 A 
ATOM     41  C   UNL A   1      39.725  26.095  27.822  1.00  0.00     0.002 A 
ATOM     42  C   UNL A   1      41.577  27.359  26.895  1.00  0.00     0.091 A 
ATOM     43  F   UNL A   1      42.543  29.120  28.184  1.00  0.00    -0.205 F 
ATOM     44  C   UNL A   1      40.628  26.329  26.788  1.00  0.00     0.022 A 
BRANCH  42  45
ATOM     45  S   UNL A   1      42.639  27.632  25.472  1.00  0.00     0.127 S 
ATOM     46  O   UNL A   1      42.401  26.419  24.691  1.00  0.00    -0.237 OA
ATOM     47  O   UNL A   1      42.070  28.849  24.895  1.00  0.00    -0.237 OA
ATOM     48  O   UNL A   1      43.990  27.775  25.996  1.00  0.00    -0.744 OA
ENDBRANCH  42  45
ENDBRANCH  24  38
BRANCH  25  49
ATOM     49  C   UNL A   1      39.634  33.944  36.992  1.00  0.00     0.023 A 
ATOM     50  C   UNL A   1      40.062  35.283  37.022  1.00  0.00     0.012 A 
ATOM     51  C   UNL A   1      38.992  33.401  38.124  1.00  0.00     0.148 A 
ATOM     52  C   UNL A   1      39.893  36.056  38.172  1.00  0.00     0.002 A 
ATOM     53  C   UNL A   1      38.767  34.195  39.240  1.00  0.00     0.091 A 
ATOM     54  F   UNL A   1      38.605  32.118  38.082  1.00  0.00    -0.205 F 
ATOM     55  C   UNL A   1      39.236  35.516  39.276  1.00  0.00     0.022 A 
BRANCH  53  56
ATOM     56  S   UNL A   1      37.801  33.617  40.639  1.00  0.00     0.127 S 
ATOM     57  O   UNL A   1      37.672  34.835  41.436  1.00  0.00    -0.237 OA
ATOM     58  O   UNL A   1      36.567  33.168  39.993  1.00  0.00    -0.237 OA
ATOM     59  O   UNL A   1      38.586  32.544  41.236  1.00  0.00    -0.744 OA
ENDBRANCH  53  56
ENDBRANCH  25  49
BRANCH  37  60
ATOM     60  C   UNL A   1      44.080  28.831  35.359  1.00  0.00     0.023 A 
ATOM     61  C   UNL A   1      45.404  29.291  35.214  1.00  0.00     0.012 A 
ATOM     62  C   UNL A   1      43.805  27.787  36.263  1.00  0.00     0.148 A 
ATOM     63  C   UNL A   1      46.443  28.699  35.928  1.00  0.00     0.002 A 
ATOM     64  C   UNL A   1      44.837  27.238  37.013  1.00  0.00     0.091 A 
ATOM     65  F   UNL A   1      42.541  27.354  36.374  1.00  0.00    -0.205 F 
ATOM     66  C   UNL A   1      46.158  27.681  36.837  1.00  0.00     0.022 A 
BRANCH  64  67
ATOM     67  S   UNL A   1      44.556  25.990  38.273  1.00  0.00     0.127 S 
ATOM     68  O   UNL A   1      43.843  24.960  37.519  1.00  0.00    -0.237 OA
ATOM     69  O   UNL A   1      45.920  25.629  38.659  1.00  0.00    -0.237 OA
ATOM     70  O   UNL A   1      43.781  26.641  39.322  1.00  0.00    -0.744 OA
ENDBRANCH  64  67
ENDBRANCH  37  60
ENDBRANCH  11  12
ENDBRANCH   4   6
ENDBRANCH   1   2
BRANCH   1  71
ATOM     71  C   UNL A   1      31.750  32.132  26.881  1.00  0.00     0.042 C 
BRANCH  71  72
ATOM     72  C   UNL A   1      32.136  30.663  26.897  1.00  0.00     0.118 C 
BRANCH  72  73
ATOM     73  N   UNL A   1      33.466  30.449  27.459  1.00  0.00    -0.352 N 
ATOM     74  C   UNL A   1      34.189  29.284  27.537  1.00  0.00     0.251 C 
ATOM     75  H   UNL A   1      33.904  31.248  27.832  1.00  0.00     0.163 HD
ATOM     76  O   UNL A   1      35.220  29.217  28.196  1.00  0.00    -0.269 OA
BRANCH  74  77
ATOM     77  C   UNL A   1      33.688  28.100  26.819  1.00  0.00     0.040 A 
ATOM     78  C   UNL A   1      32.520  27.477  27.255  1.00  0.00     0.018 A 
ATOM     79  C   UNL A   1      34.354  27.652  25.679  1.00  0.00     0.018 A 
ATOM     80  C   UNL A   1      31.948  26.470  26.472  1.00  0.00     0.053 A 
ATOM     81  C   UNL A   1      33.783  26.647  24.907  1.00  0.00     0.053 A 
ATOM     82  C   UNL A   1      32.550  26.078  25.267  1.00  0.00     0.136 A 
BRANCH  82  83
ATOM     83  N   UNL A   1      31.945  25.143  24.400  1.00  0.00    -0.154 N 
ATOM     84  C   UNL A   1      32.402  23.857  24.256  1.00  0.00     0.385 C 
ATOM     85  C   UNL A   1      30.873  25.292  23.558  1.00  0.00     0.295 C 
ATOM     86  O   UNL A   1      33.356  23.311  24.783  1.00  0.00    -0.236 OA
ATOM     87  C   UNL A   1      31.423  23.263  23.287  1.00  0.00     0.216 C 
ATOM     88  N   UNL A   1      30.535  24.231  22.878  1.00  0.00    -0.233 N 
ATOM     89  C   UNL A   1      31.346  21.970  22.932  1.00  0.00     0.068 C 
ATOM     90  H   UNL A   1      29.807  24.144  22.221  1.00  0.00     0.312 HD
BRANCH  85  91
ATOM     91  C   UNL A   1      30.184  26.574  23.353  1.00  0.00     0.065 A 
ATOM     92  C   UNL A   1      28.857  26.699  23.772  1.00  0.00     0.017 A 
ATOM     93  C   UNL A   1      30.819  27.624  22.680  1.00  0.00     0.017 A 
ATOM     94  C   UNL A   1      28.171  27.891  23.541  1.00  0.00     0.001 A 
ATOM     95  C   UNL A   1      30.127  28.812  22.449  1.00  0.00     0.001 A 
ATOM     96  C   UNL A   1      28.806  28.944  22.880  1.00  0.00     0.000 A 
ENDBRANCH  85  91
BRANCH  89  97
ATOM     97  C   UNL A   1      32.108  20.956  23.661  1.00  0.00    -0.017 A 
ATOM     98  C   UNL A   1      32.154  20.929  25.071  1.00  0.00     0.012 A 
ATOM     99  C   UNL A   1      32.579  19.868  22.910  1.00  0.00     0.059 A 
ATOM    100  C   UNL A   1      32.592  19.779  25.738  1.00  0.00     0.051 A 
ATOM    101  C   UNL A   1      32.945  18.737  23.596  1.00  0.00     0.166 A 
ATOM    102  C   UNL A   1      32.936  18.686  24.971  1.00  0.00     0.165 A 
ATOM    103  O   UNL A   1      33.243  17.536  23.030  1.00  0.00    -0.454 OA
ATOM    104  O   UNL A   1      33.223  17.436  25.431  1.00  0.00    -0.454 OA
ATOM    105  C   UNL A   1      33.147  16.692  24.194  1.00  0.00     0.468 C 
ENDBRANCH  89  97
ENDBRANCH  82  83
ENDBRANCH  74  77
ENDBRANCH  72  73
ENDBRANCH  71  72
ENDBRANCH   1  71
TORSDOF 16
ENDMDL
