MODEL 1
REMARK VINA RESULT:     -12.8      0.000      0.000
REMARK SMILES Cc1ccc(C(=O)NCCCNC(=O)c2ccc(-c3c4nc(c(-c5cccc(S(=O)(=O)[O-])c5F)c5ccc([nH]5)c(-c5cccc(S(=O)(=O)[O-])c5F)c5nc(c(-c6cccc(S(=O)(=O)[O-])c6F)c6ccc3[nH]6)C=C5)C=C4)cc2)cc1/[NH+]=C1\NCCS1
REMARK SMILES IDX 11 1 10 2 9 3 8 4 6 5 7 6 5 8 1 9 2 10 3 11 79 12 4 13 78 14
REMARK SMILES IDX 80 15 81 16 82 18 85 19 83 20 84 22 12 23 13 24 14 26 15 27
REMARK SMILES IDX 16 28 77 29 17 30 76 31 18 32 19 33 20 34 70 35 21 36 75 37
REMARK SMILES IDX 69 38 71 39 22 40 74 41 68 42 67 43 23 45 55 46 35 47 54 48
REMARK SMILES IDX 36 49 39 50 53 51 72 52 37 53 38 54 52 56 73 57 40 58 24 59
REMARK SMILES IDX 25 60 33 61 26 62 28 63 34 64 27 65 29 66 30 67 31 68 32 69
REMARK SMILES IDX 56 70 57 71 65 72 58 73 60 74 66 75 59 76 61 77 62 78 63 79
REMARK SMILES IDX 64 80 41 81 42 82 50 83 43 84 45 85 51 86 44 87 46 88 47 89
REMARK SMILES IDX 48 90 49 91
REMARK H PARENT 8 7 80 17 82 21 12 25 71 44 39 55
REMARK Flexibility Score: inf
ROOT
ATOM      1  C   UNL A   1      34.478  30.149  27.251  1.00  0.00     0.118 C 
ENDROOT
BRANCH   1   2
ATOM      2  C   UNL A   1      33.055  30.586  26.953  1.00  0.00     0.042 C 
BRANCH   2   3
ATOM      3  C   UNL A   1      32.420  29.815  25.796  1.00  0.00     0.118 C 
BRANCH   3   4
ATOM      4  N   UNL A   1      33.312  29.700  24.653  1.00  0.00    -0.352 N 
ATOM      5  C   UNL A   1      33.539  28.699  23.738  1.00  0.00     0.251 C 
ATOM      6  O   UNL A   1      34.303  28.953  22.805  1.00  0.00    -0.269 OA
ATOM      7  H   UNL A   1      33.867  30.501  24.506  1.00  0.00     0.163 HD
BRANCH   5   8
ATOM      8  C   UNL A   1      32.926  27.333  23.793  1.00  0.00     0.044 A 
ATOM      9  C   UNL A   1      31.018  23.435  23.643  1.00  0.00     0.049 C 
ATOM     10  C   UNL A   1      31.694  24.773  23.712  1.00  0.00    -0.004 A 
ATOM     11  C   UNL A   1      31.411  25.735  22.733  1.00  0.00     0.008 A 
ATOM     12  C   UNL A   1      32.630  25.081  24.707  1.00  0.00     0.129 A 
ATOM     13  C   UNL A   1      32.020  26.994  22.774  1.00  0.00     0.014 A 
ATOM     14  C   UNL A   1      33.216  26.353  24.738  1.00  0.00     0.065 A 
BRANCH  12  15
ATOM     15  N   UNL A   1      32.986  24.188  25.727  1.00  0.00    -0.235 N 
ATOM     16  C   UNL A   1      34.033  23.458  25.577  1.00  0.00     0.309 C 
ATOM     17  H   UNL A   1      32.443  24.122  26.546  1.00  0.00     0.313 HD
ATOM     18  N   UNL A   1      34.915  23.347  24.544  1.00  0.00    -0.268 N 
ATOM     19  S   UNL A   1      34.480  22.353  26.873  1.00  0.00    -0.035 SA
ATOM     20  C   UNL A   1      36.019  22.434  24.708  1.00  0.00     0.246 C 
ATOM     21  H   UNL A   1      34.802  23.870  23.718  1.00  0.00     0.305 HD
ATOM     22  C   UNL A   1      35.601  21.430  25.781  1.00  0.00     0.128 C 
ENDBRANCH  12  15
ENDBRANCH   5   8
ENDBRANCH   3   4
ENDBRANCH   2   3
ENDBRANCH   1   2
BRANCH   1  23
ATOM     23  N   UNL A   1      35.307  31.198  27.835  1.00  0.00    -0.352 N 
ATOM     24  C   UNL A   1      36.553  31.067  28.429  1.00  0.00     0.251 C 
ATOM     25  H   UNL A   1      34.938  32.110  27.803  1.00  0.00     0.163 HD
ATOM     26  O   UNL A   1      37.075  32.018  28.999  1.00  0.00    -0.269 OA
BRANCH  24  27
ATOM     27  C   UNL A   1      37.257  29.776  28.272  1.00  0.00     0.039 A 
ATOM     28  C   UNL A   1      37.392  28.970  29.405  1.00  0.00     0.014 A 
ATOM     29  C   UNL A   1      38.035  29.555  27.139  1.00  0.00     0.014 A 
ATOM     30  C   UNL A   1      38.489  28.119  29.500  1.00  0.00     0.010 A 
ATOM     31  C   UNL A   1      39.174  28.790  27.267  1.00  0.00     0.010 A 
ATOM     32  C   UNL A   1      39.431  28.131  28.475  1.00  0.00    -0.014 A 
BRANCH  32  33
ATOM     33  C   UNL A   1      40.713  27.453  28.554  1.00  0.00     0.031 A 
ATOM     34  C   UNL A   1      40.756  25.996  28.363  1.00  0.00     0.074 A 
ATOM     35  C   UNL A   1      41.850  28.163  28.712  1.00  0.00     0.049 A 
ATOM     36  N   UNL A   1      41.682  25.227  28.823  1.00  0.00    -0.248 NA
ATOM     37  C   UNL A   1      39.696  25.289  27.663  1.00  0.00     0.031 C 
ATOM     38  C   UNL A   1      43.213  27.700  28.489  1.00  0.00     0.029 A 
ATOM     39  N   UNL A   1      42.002  29.413  29.321  1.00  0.00    -0.354 N 
ATOM     40  C   UNL A   1      41.495  23.983  28.257  1.00  0.00     0.074 A 
ATOM     41  C   UNL A   1      40.197  24.052  27.628  1.00  0.00     0.031 C 
ATOM     42  C   UNL A   1      44.054  28.493  29.171  1.00  0.00     0.029 A 
ATOM     43  C   UNL A   1      43.244  29.382  29.984  1.00  0.00     0.049 A 
ATOM     44  H   UNL A   1      41.368  30.164  29.290  1.00  0.00     0.167 HD
ATOM     45  C   UNL A   1      42.534  23.100  28.246  1.00  0.00     0.034 A 
ATOM     46  C   UNL A   1      43.403  29.602  31.322  1.00  0.00     0.034 A 
ATOM     47  C   UNL A   1      43.691  23.646  28.973  1.00  0.00     0.049 A 
ATOM     48  C   UNL A   1      44.054  28.437  32.041  1.00  0.00     0.074 A 
ATOM     49  C   UNL A   1      44.824  24.321  28.546  1.00  0.00     0.029 A 
ATOM     50  N   UNL A   1      43.636  23.808  30.354  1.00  0.00    -0.354 N 
ATOM     51  N   UNL A   1      44.310  27.284  31.487  1.00  0.00    -0.248 NA
ATOM     52  C   UNL A   1      44.412  28.459  33.457  1.00  0.00     0.031 C 
ATOM     53  C   UNL A   1      45.404  24.963  29.671  1.00  0.00     0.029 A 
ATOM     54  C   UNL A   1      44.646  24.657  30.789  1.00  0.00     0.049 A 
ATOM     55  H   UNL A   1      42.973  23.380  30.942  1.00  0.00     0.167 HD
ATOM     56  C   UNL A   1      44.679  26.382  32.450  1.00  0.00     0.074 A 
ATOM     57  C   UNL A   1      44.825  27.194  33.647  1.00  0.00     0.031 C 
ATOM     58  C   UNL A   1      44.749  25.037  32.196  1.00  0.00     0.034 A 
BRANCH  45  59
ATOM     59  C   UNL A   1      42.648  21.917  27.290  1.00  0.00     0.023 A 
ATOM     60  C   UNL A   1      41.778  20.824  27.513  1.00  0.00     0.012 A 
ATOM     61  C   UNL A   1      43.586  21.748  26.245  1.00  0.00     0.148 A 
ATOM     62  C   UNL A   1      41.908  19.604  26.838  1.00  0.00     0.002 A 
ATOM     63  C   UNL A   1      43.767  20.507  25.620  1.00  0.00     0.091 A 
ATOM     64  F   UNL A   1      44.252  22.802  25.770  1.00  0.00    -0.205 F 
ATOM     65  C   UNL A   1      42.931  19.430  25.920  1.00  0.00     0.022 A 
BRANCH  63  66
ATOM     66  S   UNL A   1      45.117  20.189  24.469  1.00  0.00     0.127 S 
ATOM     67  O   UNL A   1      45.181  18.725  24.466  1.00  0.00    -0.237 OA
ATOM     68  O   UNL A   1      44.618  20.776  23.229  1.00  0.00    -0.237 OA
ATOM     69  O   UNL A   1      46.296  20.831  25.039  1.00  0.00    -0.744 OA
ENDBRANCH  63  66
ENDBRANCH  45  59
BRANCH  46  70
ATOM     70  C   UNL A   1      42.350  30.484  31.906  1.00  0.00     0.023 A 
ATOM     71  C   UNL A   1      42.261  31.796  31.385  1.00  0.00     0.012 A 
ATOM     72  C   UNL A   1      41.244  29.940  32.578  1.00  0.00     0.148 A 
ATOM     73  C   UNL A   1      41.040  32.471  31.366  1.00  0.00     0.002 A 
ATOM     74  C   UNL A   1      40.031  30.622  32.555  1.00  0.00     0.091 A 
ATOM     75  F   UNL A   1      41.363  28.736  33.151  1.00  0.00    -0.205 F 
ATOM     76  C   UNL A   1      39.913  31.860  31.902  1.00  0.00     0.022 A 
BRANCH  74  77
ATOM     77  S   UNL A   1      38.550  29.881  33.251  1.00  0.00     0.127 S 
ATOM     78  O   UNL A   1      37.500  30.645  32.586  1.00  0.00    -0.237 OA
ATOM     79  O   UNL A   1      38.660  28.487  32.822  1.00  0.00    -0.237 OA
ATOM     80  O   UNL A   1      38.687  30.076  34.687  1.00  0.00    -0.744 OA
ENDBRANCH  74  77
ENDBRANCH  46  70
BRANCH  58  81
ATOM     81  C   UNL A   1      44.923  23.962  33.254  1.00  0.00     0.023 A 
ATOM     82  C   UNL A   1      43.906  23.034  33.560  1.00  0.00     0.012 A 
ATOM     83  C   UNL A   1      46.174  23.763  33.894  1.00  0.00     0.148 A 
ATOM     84  C   UNL A   1      44.082  22.025  34.513  1.00  0.00     0.002 A 
ATOM     85  C   UNL A   1      46.380  22.685  34.754  1.00  0.00     0.091 A 
ATOM     86  F   UNL A   1      47.173  24.633  33.690  1.00  0.00    -0.205 F 
ATOM     87  C   UNL A   1      45.326  21.838  35.098  1.00  0.00     0.022 A 
BRANCH  85  88
ATOM     88  S   UNL A   1      48.030  22.259  35.329  1.00  0.00     0.127 S 
ATOM     89  O   UNL A   1      47.833  20.907  35.847  1.00  0.00    -0.237 OA
ATOM     90  O   UNL A   1      48.821  22.328  34.098  1.00  0.00    -0.237 OA
ATOM     91  O   UNL A   1      48.366  23.284  36.308  1.00  0.00    -0.744 OA
ENDBRANCH  85  88
ENDBRANCH  58  81
ENDBRANCH  32  33
ENDBRANCH  24  27
ENDBRANCH   1  23
TORSDOF 14
ENDMDL
MODEL 2
REMARK VINA RESULT:     -12.6      4.535     10.784
REMARK SMILES Cc1ccc(C(=O)NCCCNC(=O)c2ccc(-c3c4nc(c(-c5cccc(S(=O)(=O)[O-])c5F)c5ccc([nH]5)c(-c5cccc(S(=O)(=O)[O-])c5F)c5nc(c(-c6cccc(S(=O)(=O)[O-])c6F)c6ccc3[nH]6)C=C5)C=C4)cc2)cc1/[NH+]=C1\NCCS1
REMARK SMILES IDX 11 1 10 2 9 3 8 4 6 5 7 6 5 8 1 9 2 10 3 11 79 12 4 13 78 14
REMARK SMILES IDX 80 15 81 16 82 18 85 19 83 20 84 22 12 23 13 24 14 26 15 27
REMARK SMILES IDX 16 28 77 29 17 30 76 31 18 32 19 33 20 34 70 35 21 36 75 37
REMARK SMILES IDX 69 38 71 39 22 40 74 41 68 42 67 43 23 45 55 46 35 47 54 48
REMARK SMILES IDX 36 49 39 50 53 51 72 52 37 53 38 54 52 56 73 57 40 58 24 59
REMARK SMILES IDX 25 60 33 61 26 62 28 63 34 64 27 65 29 66 30 67 31 68 32 69
REMARK SMILES IDX 56 70 57 71 65 72 58 73 60 74 66 75 59 76 61 77 62 78 63 79
REMARK SMILES IDX 64 80 41 81 42 82 50 83 43 84 45 85 51 86 44 87 46 88 47 89
REMARK SMILES IDX 48 90 49 91
REMARK H PARENT 8 7 80 17 82 21 12 25 71 44 39 55
REMARK Flexibility Score: inf
ROOT
ATOM      1  C   UNL A   1      38.754  23.032  26.199  1.00  0.00     0.118 C 
ENDROOT
BRANCH   1   2
ATOM      2  C   UNL A   1      38.311  21.674  25.685  1.00  0.00     0.042 C 
BRANCH   2   3
ATOM      3  C   UNL A   1      36.855  21.654  25.218  1.00  0.00     0.118 C 
BRANCH   3   4
ATOM      4  N   UNL A   1      35.923  21.874  26.313  1.00  0.00    -0.352 N 
ATOM      5  C   UNL A   1      34.820  22.683  26.455  1.00  0.00     0.251 C 
ATOM      6  O   UNL A   1      34.166  22.562  27.492  1.00  0.00    -0.269 OA
ATOM      7  H   UNL A   1      36.121  21.335  27.113  1.00  0.00     0.163 HD
BRANCH   5   8
ATOM      8  C   UNL A   1      34.360  23.692  25.448  1.00  0.00     0.044 A 
ATOM      9  C   UNL A   1      32.892  26.360  22.352  1.00  0.00     0.049 C 
ATOM     10  C   UNL A   1      33.401  25.457  23.438  1.00  0.00    -0.004 A 
ATOM     11  C   UNL A   1      33.324  24.069  23.267  1.00  0.00     0.008 A 
ATOM     12  C   UNL A   1      33.918  25.960  24.638  1.00  0.00     0.129 A 
ATOM     13  C   UNL A   1      33.797  23.202  24.259  1.00  0.00     0.014 A 
ATOM     14  C   UNL A   1      34.400  25.074  25.610  1.00  0.00     0.065 A 
BRANCH  12  15
ATOM     15  N   UNL A   1      34.033  27.331  24.909  1.00  0.00    -0.235 N 
ATOM     16  C   UNL A   1      33.278  27.851  25.810  1.00  0.00     0.309 C 
ATOM     17  H   UNL A   1      34.681  27.885  24.418  1.00  0.00     0.313 HD
ATOM     18  N   UNL A   1      32.301  27.311  26.591  1.00  0.00    -0.268 N 
ATOM     19  S   UNL A   1      33.444  29.570  26.153  1.00  0.00    -0.035 SA
ATOM     20  C   UNL A   1      31.650  28.182  27.538  1.00  0.00     0.246 C 
ATOM     21  H   UNL A   1      32.049  26.363  26.511  1.00  0.00     0.305 HD
ATOM     22  C   UNL A   1      31.854  29.608  27.032  1.00  0.00     0.128 C 
ENDBRANCH  12  15
ENDBRANCH   5   8
ENDBRANCH   3   4
ENDBRANCH   2   3
ENDBRANCH   1   2
BRANCH   1  23
ATOM     23  N   UNL A   1      40.088  23.032  26.789  1.00  0.00    -0.352 N 
ATOM     24  C   UNL A   1      40.784  24.107  27.320  1.00  0.00     0.251 C 
ATOM     25  H   UNL A   1      40.552  22.163  26.815  1.00  0.00     0.163 HD
ATOM     26  O   UNL A   1      41.956  23.985  27.660  1.00  0.00    -0.269 OA
BRANCH  24  27
ATOM     27  C   UNL A   1      40.041  25.366  27.539  1.00  0.00     0.039 A 
ATOM     28  C   UNL A   1      40.373  26.463  26.739  1.00  0.00     0.014 A 
ATOM     29  C   UNL A   1      39.305  25.531  28.710  1.00  0.00     0.014 A 
ATOM     30  C   UNL A   1      40.201  27.746  27.249  1.00  0.00     0.010 A 
ATOM     31  C   UNL A   1      39.224  26.793  29.259  1.00  0.00     0.010 A 
ATOM     32  C   UNL A   1      39.737  27.887  28.554  1.00  0.00    -0.014 A 
BRANCH  32  33
ATOM     33  C   UNL A   1      39.717  29.152  29.267  1.00  0.00     0.031 A 
ATOM     34  C   UNL A   1      38.714  30.160  28.891  1.00  0.00     0.074 A 
ATOM     35  C   UNL A   1      40.546  29.359  30.311  1.00  0.00     0.049 A 
ATOM     36  N   UNL A   1      38.840  31.426  29.095  1.00  0.00    -0.248 NA
ATOM     37  C   UNL A   1      37.492  29.794  28.193  1.00  0.00     0.031 C 
ATOM     38  C   UNL A   1      40.443  30.403  31.321  1.00  0.00     0.029 A 
ATOM     39  N   UNL A   1      41.793  28.770  30.545  1.00  0.00    -0.354 N 
ATOM     40  C   UNL A   1      37.620  32.006  28.814  1.00  0.00     0.074 A 
ATOM     41  C   UNL A   1      36.855  30.967  28.166  1.00  0.00     0.031 C 
ATOM     42  C   UNL A   1      41.647  30.573  31.889  1.00  0.00     0.029 A 
ATOM     43  C   UNL A   1      42.593  29.761  31.145  1.00  0.00     0.049 A 
ATOM     44  H   UNL A   1      42.057  27.847  30.334  1.00  0.00     0.167 HD
ATOM     45  C   UNL A   1      37.348  33.244  29.315  1.00  0.00     0.034 A 
ATOM     46  C   UNL A   1      43.785  30.194  30.638  1.00  0.00     0.034 A 
ATOM     47  C   UNL A   1      38.519  33.793  30.017  1.00  0.00     0.049 A 
ATOM     48  C   UNL A   1      43.803  31.683  30.354  1.00  0.00     0.074 A 
ATOM     49  C   UNL A   1      38.880  33.805  31.355  1.00  0.00     0.029 A 
ATOM     50  N   UNL A   1      39.655  34.159  29.302  1.00  0.00    -0.354 N 
ATOM     51  N   UNL A   1      42.758  32.459  30.441  1.00  0.00    -0.248 NA
ATOM     52  C   UNL A   1      44.987  32.403  29.891  1.00  0.00     0.031 C 
ATOM     53  C   UNL A   1      40.266  34.097  31.434  1.00  0.00     0.029 A 
ATOM     54  C   UNL A   1      40.746  34.294  30.150  1.00  0.00     0.049 A 
ATOM     55  H   UNL A   1      39.682  34.302  28.328  1.00  0.00     0.167 HD
ATOM     56  C   UNL A   1      43.049  33.685  29.902  1.00  0.00     0.074 A 
ATOM     57  C   UNL A   1      44.483  33.629  29.667  1.00  0.00     0.031 C 
ATOM     58  C   UNL A   1      42.073  34.603  29.620  1.00  0.00     0.034 A 
BRANCH  45  59
ATOM     59  C   UNL A   1      35.942  33.810  29.494  1.00  0.00     0.023 A 
ATOM     60  C   UNL A   1      35.238  34.166  28.320  1.00  0.00     0.012 A 
ATOM     61  C   UNL A   1      35.285  34.099  30.712  1.00  0.00     0.148 A 
ATOM     62  C   UNL A   1      34.029  34.871  28.348  1.00  0.00     0.002 A 
ATOM     63  C   UNL A   1      34.114  34.867  30.745  1.00  0.00     0.091 A 
ATOM     64  F   UNL A   1      35.722  33.558  31.850  1.00  0.00    -0.205 F 
ATOM     65  C   UNL A   1      33.486  35.260  29.562  1.00  0.00     0.022 A 
BRANCH  63  66
ATOM     66  S   UNL A   1      33.390  35.467  32.283  1.00  0.00     0.127 S 
ATOM     67  O   UNL A   1      32.924  34.227  32.910  1.00  0.00    -0.237 OA
ATOM     68  O   UNL A   1      34.533  36.089  32.947  1.00  0.00    -0.237 OA
ATOM     69  O   UNL A   1      32.316  36.376  31.899  1.00  0.00    -0.744 OA
ENDBRANCH  63  66
ENDBRANCH  45  59
BRANCH  46  70
ATOM     70  C   UNL A   1      44.491  29.162  29.824  1.00  0.00     0.023 A 
ATOM     71  C   UNL A   1      44.920  27.999  30.507  1.00  0.00     0.012 A 
ATOM     72  C   UNL A   1      44.342  29.117  28.428  1.00  0.00     0.148 A 
ATOM     73  C   UNL A   1      45.013  26.778  29.840  1.00  0.00     0.002 A 
ATOM     74  C   UNL A   1      44.438  27.893  27.772  1.00  0.00     0.091 A 
ATOM     75  F   UNL A   1      44.027  30.243  27.775  1.00  0.00    -0.205 F 
ATOM     76  C   UNL A   1      44.717  26.715  28.483  1.00  0.00     0.022 A 
BRANCH  74  77
ATOM     77  S   UNL A   1      44.083  27.765  26.016  1.00  0.00     0.127 S 
ATOM     78  O   UNL A   1      42.964  28.690  25.875  1.00  0.00    -0.237 OA
ATOM     79  O   UNL A   1      45.333  28.216  25.405  1.00  0.00    -0.237 OA
ATOM     80  O   UNL A   1      43.793  26.354  25.807  1.00  0.00    -0.744 OA
ENDBRANCH  74  77
ENDBRANCH  46  70
BRANCH  58  81
ATOM     81  C   UNL A   1      42.283  35.876  28.819  1.00  0.00     0.023 A 
ATOM     82  C   UNL A   1      41.681  36.084  27.562  1.00  0.00     0.012 A 
ATOM     83  C   UNL A   1      42.997  36.973  29.367  1.00  0.00     0.148 A 
ATOM     84  C   UNL A   1      41.852  37.272  26.841  1.00  0.00     0.002 A 
ATOM     85  C   UNL A   1      43.067  38.195  28.698  1.00  0.00     0.091 A 
ATOM     86  F   UNL A   1      43.638  36.835  30.537  1.00  0.00    -0.205 F 
ATOM     87  C   UNL A   1      42.530  38.336  27.418  1.00  0.00     0.022 A 
BRANCH  85  88
ATOM     88  S   UNL A   1      43.708  39.664  29.513  1.00  0.00     0.127 S 
ATOM     89  O   UNL A   1      43.281  39.458  30.895  1.00  0.00    -0.237 OA
ATOM     90  O   UNL A   1      45.151  39.541  29.298  1.00  0.00    -0.237 OA
ATOM     91  O   UNL A   1      43.096  40.784  28.809  1.00  0.00    -0.744 OA
ENDBRANCH  85  88
ENDBRANCH  58  81
ENDBRANCH  32  33
ENDBRANCH  24  27
ENDBRANCH   1  23
TORSDOF 14
ENDMDL
MODEL 3
REMARK VINA RESULT:     -12.4      1.641      2.028
REMARK SMILES Cc1ccc(C(=O)NCCCNC(=O)c2ccc(-c3c4nc(c(-c5cccc(S(=O)(=O)[O-])c5F)c5ccc([nH]5)c(-c5cccc(S(=O)(=O)[O-])c5F)c5nc(c(-c6cccc(S(=O)(=O)[O-])c6F)c6ccc3[nH]6)C=C5)C=C4)cc2)cc1/[NH+]=C1\NCCS1
REMARK SMILES IDX 11 1 10 2 9 3 8 4 6 5 7 6 5 8 1 9 2 10 3 11 79 12 4 13 78 14
REMARK SMILES IDX 80 15 81 16 82 18 85 19 83 20 84 22 12 23 13 24 14 26 15 27
REMARK SMILES IDX 16 28 77 29 17 30 76 31 18 32 19 33 20 34 70 35 21 36 75 37
REMARK SMILES IDX 69 38 71 39 22 40 74 41 68 42 67 43 23 45 55 46 35 47 54 48
REMARK SMILES IDX 36 49 39 50 53 51 72 52 37 53 38 54 52 56 73 57 40 58 24 59
REMARK SMILES IDX 25 60 33 61 26 62 28 63 34 64 27 65 29 66 30 67 31 68 32 69
REMARK SMILES IDX 56 70 57 71 65 72 58 73 60 74 66 75 59 76 61 77 62 78 63 79
REMARK SMILES IDX 64 80 41 81 42 82 50 83 43 84 45 85 51 86 44 87 46 88 47 89
REMARK SMILES IDX 48 90 49 91
REMARK H PARENT 8 7 80 17 82 21 12 25 71 44 39 55
REMARK Flexibility Score: inf
ROOT
ATOM      1  C   UNL A   1      33.811  30.570  27.576  1.00  0.00     0.118 C 
ENDROOT
BRANCH   1   2
ATOM      2  C   UNL A   1      32.572  31.104  26.882  1.00  0.00     0.042 C 
BRANCH   2   3
ATOM      3  C   UNL A   1      31.843  30.045  26.055  1.00  0.00     0.118 C 
BRANCH   3   4
ATOM      4  N   UNL A   1      32.481  29.816  24.768  1.00  0.00    -0.352 N 
ATOM      5  C   UNL A   1      32.841  28.675  24.092  1.00  0.00     0.251 C 
ATOM      6  O   UNL A   1      33.280  28.814  22.949  1.00  0.00    -0.269 OA
ATOM      7  H   UNL A   1      32.699  30.646  24.284  1.00  0.00     0.163 HD
BRANCH   5   8
ATOM      8  C   UNL A   1      32.738  27.284  24.639  1.00  0.00     0.044 A 
ATOM      9  C   UNL A   1      32.116  23.249  26.120  1.00  0.00     0.049 C 
ATOM     10  C   UNL A   1      32.357  24.639  25.608  1.00  0.00    -0.004 A 
ATOM     11  C   UNL A   1      31.275  25.386  25.122  1.00  0.00     0.008 A 
ATOM     12  C   UNL A   1      33.637  25.203  25.565  1.00  0.00     0.129 A 
ATOM     13  C   UNL A   1      31.466  26.689  24.645  1.00  0.00     0.014 A 
ATOM     14  C   UNL A   1      33.803  26.514  25.098  1.00  0.00     0.065 A 
BRANCH  12  15
ATOM     15  N   UNL A   1      34.784  24.537  26.021  1.00  0.00    -0.235 N 
ATOM     16  C   UNL A   1      35.510  23.900  25.173  1.00  0.00     0.309 C 
ATOM     17  H   UNL A   1      35.029  24.558  26.974  1.00  0.00     0.313 HD
ATOM     18  N   UNL A   1      35.369  23.702  23.833  1.00  0.00    -0.268 N 
ATOM     19  S   UNL A   1      36.957  23.082  25.755  1.00  0.00    -0.035 SA
ATOM     20  C   UNL A   1      36.395  22.944  23.161  1.00  0.00     0.246 C 
ATOM     21  H   UNL A   1      34.595  24.062  23.342  1.00  0.00     0.305 HD
ATOM     22  C   UNL A   1      37.088  22.102  24.231  1.00  0.00     0.128 C 
ENDBRANCH  12  15
ENDBRANCH   5   8
ENDBRANCH   3   4
ENDBRANCH   2   3
ENDBRANCH   1   2
BRANCH   1  23
ATOM     23  N   UNL A   1      34.352  31.467  28.592  1.00  0.00    -0.352 N 
ATOM     24  C   UNL A   1      35.443  31.257  29.421  1.00  0.00     0.251 C 
ATOM     25  H   UNL A   1      33.886  32.328  28.703  1.00  0.00     0.163 HD
ATOM     26  O   UNL A   1      35.702  32.045  30.323  1.00  0.00    -0.269 OA
BRANCH  24  27
ATOM     27  C   UNL A   1      36.323  30.106  29.120  1.00  0.00     0.039 A 
ATOM     28  C   UNL A   1      36.777  29.339  30.195  1.00  0.00     0.014 A 
ATOM     29  C   UNL A   1      36.933  30.021  27.870  1.00  0.00     0.014 A 
ATOM     30  C   UNL A   1      38.004  28.692  30.091  1.00  0.00     0.010 A 
ATOM     31  C   UNL A   1      38.191  29.464  27.794  1.00  0.00     0.010 A 
ATOM     32  C   UNL A   1      38.750  28.864  28.928  1.00  0.00    -0.014 A 
BRANCH  32  33
ATOM     33  C   UNL A   1      40.125  28.419  28.782  1.00  0.00     0.031 A 
ATOM     34  C   UNL A   1      40.390  26.983  28.608  1.00  0.00     0.074 A 
ATOM     35  C   UNL A   1      41.129  29.318  28.721  1.00  0.00     0.049 A 
ATOM     36  N   UNL A   1      41.503  26.404  28.903  1.00  0.00    -0.248 NA
ATOM     37  C   UNL A   1      39.363  26.074  28.122  1.00  0.00     0.031 C 
ATOM     38  C   UNL A   1      42.491  29.084  28.261  1.00  0.00     0.029 A 
ATOM     39  N   UNL A   1      41.165  30.602  29.273  1.00  0.00    -0.354 N 
ATOM     40  C   UNL A   1      41.440  25.122  28.398  1.00  0.00     0.074 A 
ATOM     41  C   UNL A   1      40.059  24.940  28.015  1.00  0.00     0.031 C 
ATOM     42  C   UNL A   1      43.287  30.039  28.767  1.00  0.00     0.029 A 
ATOM     43  C   UNL A   1      42.489  30.814  29.700  1.00  0.00     0.049 A 
ATOM     44  H   UNL A   1      40.413  31.232  29.348  1.00  0.00     0.167 HD
ATOM     45  C   UNL A   1      42.599  24.430  28.211  1.00  0.00     0.034 A 
ATOM     46  C   UNL A   1      42.841  31.119  30.984  1.00  0.00     0.034 A 
ATOM     47  C   UNL A   1      43.752  25.198  28.708  1.00  0.00     0.049 A 
ATOM     48  C   UNL A   1      43.803  30.115  31.590  1.00  0.00     0.074 A 
ATOM     49  C   UNL A   1      44.656  26.035  28.072  1.00  0.00     0.029 A 
ATOM     50  N   UNL A   1      43.914  25.411  30.073  1.00  0.00    -0.354 N 
ATOM     51  N   UNL A   1      44.156  28.999  31.014  1.00  0.00    -0.248 NA
ATOM     52  C   UNL A   1      44.396  30.263  32.916  1.00  0.00     0.031 C 
ATOM     53  C   UNL A   1      45.302  26.817  29.063  1.00  0.00     0.029 A 
ATOM     54  C   UNL A   1      44.820  26.438  30.305  1.00  0.00     0.049 A 
ATOM     55  H   UNL A   1      43.452  24.903  30.778  1.00  0.00     0.167 HD
ATOM     56  C   UNL A   1      44.842  28.218  31.908  1.00  0.00     0.074 A 
ATOM     57  C   UNL A   1      45.052  29.097  33.046  1.00  0.00     0.031 C 
ATOM     58  C   UNL A   1      45.101  26.895  31.664  1.00  0.00     0.034 A 
BRANCH  45  59
ATOM     59  C   UNL A   1      42.748  23.240  27.267  1.00  0.00     0.023 A 
ATOM     60  C   UNL A   1      42.016  22.073  27.582  1.00  0.00     0.012 A 
ATOM     61  C   UNL A   1      43.606  23.139  26.147  1.00  0.00     0.148 A 
ATOM     62  C   UNL A   1      42.209  20.856  26.918  1.00  0.00     0.002 A 
ATOM     63  C   UNL A   1      43.856  21.908  25.528  1.00  0.00     0.091 A 
ATOM     64  F   UNL A   1      44.120  24.242  25.599  1.00  0.00    -0.205 F 
ATOM     65  C   UNL A   1      43.161  20.761  25.917  1.00  0.00     0.022 A 
BRANCH  63  66
ATOM     66  S   UNL A   1      45.128  21.696  24.268  1.00  0.00     0.127 S 
ATOM     67  O   UNL A   1      44.684  20.479  23.583  1.00  0.00    -0.237 OA
ATOM     68  O   UNL A   1      44.996  22.917  23.479  1.00  0.00    -0.237 OA
ATOM     69  O   UNL A   1      46.389  21.544  24.986  1.00  0.00    -0.744 OA
ENDBRANCH  63  66
ENDBRANCH  45  59
BRANCH  46  70
ATOM     70  C   UNL A   1      41.770  31.834  31.737  1.00  0.00     0.023 A 
ATOM     71  C   UNL A   1      41.362  33.087  31.223  1.00  0.00     0.012 A 
ATOM     72  C   UNL A   1      40.911  31.141  32.605  1.00  0.00     0.148 A 
ATOM     73  C   UNL A   1      40.058  33.544  31.417  1.00  0.00     0.002 A 
ATOM     74  C   UNL A   1      39.612  31.606  32.793  1.00  0.00     0.091 A 
ATOM     75  F   UNL A   1      41.338  30.001  33.163  1.00  0.00    -0.205 F 
ATOM     76  C   UNL A   1      39.167  32.775  32.156  1.00  0.00     0.022 A 
BRANCH  74  77
ATOM     77  S   UNL A   1      38.430  30.656  33.755  1.00  0.00     0.127 S 
ATOM     78  O   UNL A   1      38.766  31.061  35.116  1.00  0.00    -0.237 OA
ATOM     79  O   UNL A   1      37.146  31.157  33.265  1.00  0.00    -0.237 OA
ATOM     80  O   UNL A   1      38.703  29.271  33.401  1.00  0.00    -0.744 OA
ENDBRANCH  74  77
ENDBRANCH  46  70
BRANCH  58  81
ATOM     81  C   UNL A   1      45.645  25.914  32.688  1.00  0.00     0.023 A 
ATOM     82  C   UNL A   1      47.026  25.677  32.846  1.00  0.00     0.012 A 
ATOM     83  C   UNL A   1      44.786  25.286  33.626  1.00  0.00     0.148 A 
ATOM     84  C   UNL A   1      47.525  24.797  33.813  1.00  0.00     0.002 A 
ATOM     85  C   UNL A   1      45.296  24.503  34.660  1.00  0.00     0.091 A 
ATOM     86  F   UNL A   1      43.457  25.425  33.511  1.00  0.00    -0.205 F 
ATOM     87  C   UNL A   1      46.661  24.223  34.733  1.00  0.00     0.022 A 
BRANCH  85  88
ATOM     88  S   UNL A   1      44.246  23.955  36.015  1.00  0.00     0.127 S 
ATOM     89  O   UNL A   1      43.301  23.075  35.332  1.00  0.00    -0.237 OA
ATOM     90  O   UNL A   1      45.196  23.264  36.891  1.00  0.00    -0.237 OA
ATOM     91  O   UNL A   1      43.695  25.178  36.584  1.00  0.00    -0.744 OA
ENDBRANCH  85  88
ENDBRANCH  58  81
ENDBRANCH  32  33
ENDBRANCH  24  27
ENDBRANCH   1  23
TORSDOF 14
ENDMDL
