MODEL 1
REMARK VINA RESULT:     -11.6      0.000      0.000
REMARK SMILES CC(C)[C@@](C)(CC(=O)N[C@H]1CCCC1(C)C)C(=O)NCCCNC(=O)c1ccc(-c2c3nc(c(-c4cccc(S(=O)(=O)[O-])c4F)c4ccc([nH]4)c(-c4cccc(S(=O)(=O)[O-])c4F)c4nc(c(-c5cccc(S(=O)(=O)[O-])c5F)c5ccc2[nH]5)C=C4)C=C3)cc1
REMARK SMILES IDX 21 1 20 2 19 3 17 4 18 5 4 7 5 8 2 9 1 10 3 11 6 12 7 13
REMARK SMILES IDX 8 14 9 15 10 17 11 18 14 19 12 20 13 21 15 22 16 23 22 24
REMARK SMILES IDX 23 25 24 26 25 28 26 29 27 30 88 31 28 32 87 33 29 34 30 35
REMARK SMILES IDX 31 36 81 37 32 38 86 39 80 40 82 41 33 42 85 43 79 44 78 45
REMARK SMILES IDX 34 47 66 48 46 49 65 50 47 51 50 52 64 53 83 54 48 55 49 56
REMARK SMILES IDX 63 58 84 59 51 60 35 61 36 62 44 63 37 64 39 65 45 66 38 67
REMARK SMILES IDX 40 68 41 69 42 70 43 71 67 72 68 73 76 74 69 75 71 76 77 77
REMARK SMILES IDX 70 78 72 79 73 80 74 81 75 82 52 83 53 84 61 85 54 86 56 87
REMARK SMILES IDX 62 88 55 89 57 90 58 91 59 92 60 93
REMARK H PARENT 19 6 9 16 23 27 82 46 50 57
REMARK Flexibility Score: inf
ROOT
ATOM      1  C   UNL A   1      31.768  29.133  26.875  1.00  0.00     0.042 C 
ENDROOT
BRANCH   1   2
ATOM      2  C   UNL A   1      32.349  27.757  27.181  1.00  0.00     0.117 C 
BRANCH   2   3
ATOM      3  N   UNL A   1      31.449  26.722  26.742  1.00  0.00    -0.356 N 
ATOM      4  C   UNL A   1      30.811  26.468  25.589  1.00  0.00     0.226 C 
ATOM      5  O   UNL A   1      29.771  25.824  25.781  1.00  0.00    -0.274 OA
ATOM      6  H   UNL A   1      31.261  26.054  27.441  1.00  0.00     0.163 HD
BRANCH   4   7
ATOM      7  C   UNL A   1      31.409  26.675  24.171  1.00  0.00     0.057 C 
ATOM      8  C   UNL A   1      30.858  25.418  23.433  1.00  0.00     0.022 C 
BRANCH   7   9
ATOM      9  C   UNL A   1      30.815  28.030  23.651  1.00  0.00    -0.002 C 
ATOM     10  C   UNL A   1      31.729  28.847  22.728  1.00  0.00     0.008 C 
ATOM     11  C   UNL A   1      29.399  27.896  23.025  1.00  0.00     0.008 C 
ENDBRANCH   7   9
BRANCH   7  12
ATOM     12  C   UNL A   1      32.959  26.659  23.934  1.00  0.00     0.116 C 
BRANCH  12  13
ATOM     13  C   UNL A   1      33.543  25.697  22.901  1.00  0.00     0.221 C 
ATOM     14  O   UNL A   1      33.720  26.129  21.753  1.00  0.00    -0.275 OA
ATOM     15  N   UNL A   1      33.894  24.394  23.081  1.00  0.00    -0.353 N 
ATOM     16  H   UNL A   1      34.108  24.011  22.199  1.00  0.00     0.163 HD
BRANCH  15  17
ATOM     17  C   UNL A   1      34.075  23.333  24.101  1.00  0.00     0.087 C 
ATOM     18  C   UNL A   1      34.320  23.792  25.530  1.00  0.00     0.025 C 
ATOM     19  C   UNL A   1      33.043  22.151  24.236  1.00  0.00    -0.015 C 
ATOM     20  C   UNL A   1      33.012  23.561  26.264  1.00  0.00     0.003 C 
ATOM     21  C   UNL A   1      32.232  22.487  25.510  1.00  0.00     0.008 C 
ATOM     22  C   UNL A   1      32.168  21.858  23.006  1.00  0.00     0.013 C 
ATOM     23  C   UNL A   1      33.786  20.823  24.545  1.00  0.00     0.013 C 
ENDBRANCH  15  17
ENDBRANCH  12  13
ENDBRANCH   7  12
ENDBRANCH   4   7
ENDBRANCH   2   3
ENDBRANCH   1   2
BRANCH   1  24
ATOM     24  C   UNL A   1      32.722  30.081  26.140  1.00  0.00     0.118 C 
BRANCH  24  25
ATOM     25  N   UNL A   1      32.599  31.480  26.553  1.00  0.00    -0.352 N 
ATOM     26  C   UNL A   1      33.359  32.231  27.413  1.00  0.00     0.251 C 
ATOM     27  H   UNL A   1      31.844  31.963  26.146  1.00  0.00     0.163 HD
ATOM     28  O   UNL A   1      32.988  33.342  27.756  1.00  0.00    -0.269 OA
BRANCH  26  29
ATOM     29  C   UNL A   1      34.611  31.663  27.931  1.00  0.00     0.039 A 
ATOM     30  C   UNL A   1      35.750  32.466  27.971  1.00  0.00     0.014 A 
ATOM     31  C   UNL A   1      34.637  30.353  28.414  1.00  0.00     0.014 A 
ATOM     32  C   UNL A   1      36.906  31.974  28.573  1.00  0.00     0.010 A 
ATOM     33  C   UNL A   1      35.750  29.907  29.105  1.00  0.00     0.010 A 
ATOM     34  C   UNL A   1      36.899  30.708  29.182  1.00  0.00    -0.014 A 
BRANCH  34  35
ATOM     35  C   UNL A   1      38.087  30.199  29.905  1.00  0.00     0.031 A 
ATOM     36  C   UNL A   1      38.378  30.687  31.298  1.00  0.00     0.074 A 
ATOM     37  C   UNL A   1      38.941  29.371  29.274  1.00  0.00     0.049 A 
ATOM     38  N   UNL A   1      39.393  30.407  32.071  1.00  0.00    -0.248 NA
ATOM     39  C   UNL A   1      37.422  31.641  31.888  1.00  0.00     0.031 C 
ATOM     40  C   UNL A   1      38.805  28.904  27.891  1.00  0.00     0.029 A 
ATOM     41  N   UNL A   1      40.108  28.792  29.702  1.00  0.00    -0.354 N 
ATOM     42  C   UNL A   1      39.220  31.176  33.214  1.00  0.00     0.074 A 
ATOM     43  C   UNL A   1      38.028  31.968  33.020  1.00  0.00     0.031 C 
ATOM     44  C   UNL A   1      39.838  28.103  27.590  1.00  0.00     0.029 A 
ATOM     45  C   UNL A   1      40.730  28.026  28.743  1.00  0.00     0.049 A 
ATOM     46  H   UNL A   1      40.467  28.913  30.610  1.00  0.00     0.167 HD
ATOM     47  C   UNL A   1      39.971  31.197  34.339  1.00  0.00     0.034 A 
ATOM     48  C   UNL A   1      41.892  27.347  28.788  1.00  0.00     0.034 A 
ATOM     49  C   UNL A   1      41.129  30.371  34.539  1.00  0.00     0.049 A 
ATOM     50  C   UNL A   1      42.681  27.354  30.069  1.00  0.00     0.074 A 
ATOM     51  C   UNL A   1      41.906  30.243  35.675  1.00  0.00     0.029 A 
ATOM     52  N   UNL A   1      41.680  29.539  33.578  1.00  0.00    -0.354 N 
ATOM     53  N   UNL A   1      42.414  27.961  31.200  1.00  0.00    -0.248 NA
ATOM     54  C   UNL A   1      43.913  26.553  30.094  1.00  0.00     0.031 C 
ATOM     55  C   UNL A   1      42.949  29.356  35.390  1.00  0.00     0.029 A 
ATOM     56  C   UNL A   1      42.796  28.902  34.090  1.00  0.00     0.049 A 
ATOM     57  H   UNL A   1      41.329  29.419  32.665  1.00  0.00     0.167 HD
ATOM     58  C   UNL A   1      43.420  27.584  32.081  1.00  0.00     0.074 A 
ATOM     59  C   UNL A   1      44.289  26.679  31.359  1.00  0.00     0.031 C 
ATOM     60  C   UNL A   1      43.615  27.962  33.369  1.00  0.00     0.034 A 
BRANCH  47  61
ATOM     61  C   UNL A   1      39.535  32.105  35.459  1.00  0.00     0.023 A 
ATOM     62  C   UNL A   1      38.720  31.599  36.493  1.00  0.00     0.012 A 
ATOM     63  C   UNL A   1      39.984  33.438  35.523  1.00  0.00     0.148 A 
ATOM     64  C   UNL A   1      38.333  32.414  37.555  1.00  0.00     0.002 A 
ATOM     65  C   UNL A   1      39.635  34.230  36.610  1.00  0.00     0.091 A 
ATOM     66  F   UNL A   1      40.740  33.908  34.520  1.00  0.00    -0.205 F 
ATOM     67  C   UNL A   1      38.799  33.724  37.620  1.00  0.00     0.022 A 
BRANCH  65  68
ATOM     68  S   UNL A   1      40.252  35.901  36.833  1.00  0.00     0.127 S 
ATOM     69  O   UNL A   1      41.698  35.690  36.787  1.00  0.00    -0.237 OA
ATOM     70  O   UNL A   1      39.698  36.589  35.667  1.00  0.00    -0.237 OA
ATOM     71  O   UNL A   1      39.731  36.358  38.114  1.00  0.00    -0.744 OA
ENDBRANCH  65  68
ENDBRANCH  47  61
BRANCH  48  72
ATOM     72  C   UNL A   1      42.348  26.559  27.608  1.00  0.00     0.023 A 
ATOM     73  C   UNL A   1      43.123  27.189  26.613  1.00  0.00     0.012 A 
ATOM     74  C   UNL A   1      42.032  25.195  27.469  1.00  0.00     0.148 A 
ATOM     75  C   UNL A   1      43.536  26.485  25.482  1.00  0.00     0.002 A 
ATOM     76  C   UNL A   1      42.495  24.484  26.368  1.00  0.00     0.091 A 
ATOM     77  F   UNL A   1      41.288  24.615  28.422  1.00  0.00    -0.205 F 
ATOM     78  C   UNL A   1      43.230  25.132  25.363  1.00  0.00     0.022 A 
BRANCH  76  79
ATOM     79  S   UNL A   1      42.262  22.711  26.198  1.00  0.00     0.127 S 
ATOM     80  O   UNL A   1      40.808  22.594  26.270  1.00  0.00    -0.237 OA
ATOM     81  O   UNL A   1      42.836  22.457  24.876  1.00  0.00    -0.237 OA
ATOM     82  O   UNL A   1      43.002  22.110  27.298  1.00  0.00    -0.744 OA
ENDBRANCH  76  79
ENDBRANCH  48  72
BRANCH  60  83
ATOM     83  C   UNL A   1      44.786  27.362  34.101  1.00  0.00     0.023 A 
ATOM     84  C   UNL A   1      46.037  28.009  34.083  1.00  0.00     0.012 A 
ATOM     85  C   UNL A   1      44.621  26.194  34.873  1.00  0.00     0.148 A 
ATOM     86  C   UNL A   1      47.115  27.483  34.792  1.00  0.00     0.002 A 
ATOM     87  C   UNL A   1      45.683  25.707  35.621  1.00  0.00     0.091 A 
ATOM     88  F   UNL A   1      43.425  25.586  34.864  1.00  0.00    -0.205 F 
ATOM     89  C   UNL A   1      46.936  26.341  35.570  1.00  0.00     0.022 A 
BRANCH  87  90
ATOM     90  S   UNL A   1      45.518  24.305  36.730  1.00  0.00     0.127 S 
ATOM     91  O   UNL A   1      44.468  24.765  37.637  1.00  0.00    -0.237 OA
ATOM     92  O   UNL A   1      45.111  23.236  35.819  1.00  0.00    -0.237 OA
ATOM     93  O   UNL A   1      46.827  24.115  37.339  1.00  0.00    -0.744 OA
ENDBRANCH  87  90
ENDBRANCH  60  83
ENDBRANCH  34  35
ENDBRANCH  26  29
ENDBRANCH  24  25
ENDBRANCH   1  24
TORSDOF 17
ENDMDL
MODEL 2
REMARK VINA RESULT:     -11.6      2.483      8.086
REMARK SMILES CC(C)[C@@](C)(CC(=O)N[C@H]1CCCC1(C)C)C(=O)NCCCNC(=O)c1ccc(-c2c3nc(c(-c4cccc(S(=O)(=O)[O-])c4F)c4ccc([nH]4)c(-c4cccc(S(=O)(=O)[O-])c4F)c4nc(c(-c5cccc(S(=O)(=O)[O-])c5F)c5ccc2[nH]5)C=C4)C=C3)cc1
REMARK SMILES IDX 21 1 20 2 19 3 17 4 18 5 4 7 5 8 2 9 1 10 3 11 6 12 7 13
REMARK SMILES IDX 8 14 9 15 10 17 11 18 14 19 12 20 13 21 15 22 16 23 22 24
REMARK SMILES IDX 23 25 24 26 25 28 26 29 27 30 88 31 28 32 87 33 29 34 30 35
REMARK SMILES IDX 31 36 81 37 32 38 86 39 80 40 82 41 33 42 85 43 79 44 78 45
REMARK SMILES IDX 34 47 66 48 46 49 65 50 47 51 50 52 64 53 83 54 48 55 49 56
REMARK SMILES IDX 63 58 84 59 51 60 35 61 36 62 44 63 37 64 39 65 45 66 38 67
REMARK SMILES IDX 40 68 41 69 42 70 43 71 67 72 68 73 76 74 69 75 71 76 77 77
REMARK SMILES IDX 70 78 72 79 73 80 74 81 75 82 52 83 53 84 61 85 54 86 56 87
REMARK SMILES IDX 62 88 55 89 57 90 58 91 59 92 60 93
REMARK H PARENT 19 6 9 16 23 27 82 46 50 57
REMARK Flexibility Score: inf
ROOT
ATOM      1  C   UNL A   1      31.839  31.635  26.558  1.00  0.00     0.042 C 
ENDROOT
BRANCH   1   2
ATOM      2  C   UNL A   1      32.229  30.258  26.033  1.00  0.00     0.117 C 
BRANCH   2   3
ATOM      3  N   UNL A   1      32.159  29.279  27.088  1.00  0.00    -0.356 N 
ATOM      4  C   UNL A   1      31.781  27.992  27.142  1.00  0.00     0.226 C 
ATOM      5  O   UNL A   1      31.378  27.687  28.272  1.00  0.00    -0.274 OA
ATOM      6  H   UNL A   1      32.453  29.631  27.959  1.00  0.00     0.163 HD
BRANCH   4   7
ATOM      7  C   UNL A   1      32.070  26.928  26.049  1.00  0.00     0.057 C 
ATOM      8  C   UNL A   1      30.968  27.274  25.003  1.00  0.00     0.022 C 
BRANCH   7   9
ATOM      9  C   UNL A   1      33.531  27.211  25.553  1.00  0.00    -0.002 C 
ATOM     10  C   UNL A   1      34.526  26.056  25.720  1.00  0.00     0.008 C 
ATOM     11  C   UNL A   1      33.604  27.781  24.109  1.00  0.00     0.008 C 
ENDBRANCH   7   9
BRANCH   7  12
ATOM     12  C   UNL A   1      31.906  25.397  26.344  1.00  0.00     0.116 C 
BRANCH  12  13
ATOM     13  C   UNL A   1      30.625  24.689  25.909  1.00  0.00     0.221 C 
ATOM     14  O   UNL A   1      29.621  24.834  26.620  1.00  0.00    -0.275 OA
ATOM     15  N   UNL A   1      30.442  23.893  24.820  1.00  0.00    -0.353 N 
ATOM     16  H   UNL A   1      29.551  23.480  24.889  1.00  0.00     0.163 HD
BRANCH  15  17
ATOM     17  C   UNL A   1      31.078  23.412  23.568  1.00  0.00     0.087 C 
ATOM     18  C   UNL A   1      31.652  24.471  22.641  1.00  0.00     0.025 C 
ATOM     19  C   UNL A   1      32.168  22.276  23.596  1.00  0.00    -0.015 C 
ATOM     20  C   UNL A   1      33.156  24.404  22.826  1.00  0.00     0.003 C 
ATOM     21  C   UNL A   1      33.505  23.015  23.354  1.00  0.00     0.008 C 
ATOM     22  C   UNL A   1      32.181  21.364  24.835  1.00  0.00     0.013 C 
ATOM     23  C   UNL A   1      31.984  21.326  22.381  1.00  0.00     0.013 C 
ENDBRANCH  15  17
ENDBRANCH  12  13
ENDBRANCH   7  12
ENDBRANCH   4   7
ENDBRANCH   2   3
ENDBRANCH   1   2
BRANCH   1  24
ATOM     24  C   UNL A   1      32.935  32.349  27.356  1.00  0.00     0.118 C 
BRANCH  24  25
ATOM     25  N   UNL A   1      32.653  33.763  27.613  1.00  0.00    -0.352 N 
ATOM     26  C   UNL A   1      33.154  34.619  28.560  1.00  0.00     0.251 C 
ATOM     27  H   UNL A   1      31.992  34.166  27.005  1.00  0.00     0.163 HD
ATOM     28  O   UNL A   1      32.661  35.725  28.716  1.00  0.00    -0.269 OA
BRANCH  26  29
ATOM     29  C   UNL A   1      34.275  34.170  29.397  1.00  0.00     0.039 A 
ATOM     30  C   UNL A   1      34.013  33.342  30.488  1.00  0.00     0.014 A 
ATOM     31  C   UNL A   1      35.582  34.536  29.070  1.00  0.00     0.014 A 
ATOM     32  C   UNL A   1      35.080  32.815  31.211  1.00  0.00     0.010 A 
ATOM     33  C   UNL A   1      36.640  33.926  29.722  1.00  0.00     0.010 A 
ATOM     34  C   UNL A   1      36.401  33.069  30.805  1.00  0.00    -0.014 A 
BRANCH  34  35
ATOM     35  C   UNL A   1      37.550  32.449  31.502  1.00  0.00     0.031 A 
ATOM     36  C   UNL A   1      38.291  31.312  30.854  1.00  0.00     0.074 A 
ATOM     37  C   UNL A   1      37.864  32.852  32.749  1.00  0.00     0.049 A 
ATOM     38  N   UNL A   1      39.281  30.602  31.325  1.00  0.00    -0.248 NA
ATOM     39  C   UNL A   1      37.840  30.894  29.515  1.00  0.00     0.031 C 
ATOM     40  C   UNL A   1      37.155  33.885  33.510  1.00  0.00     0.029 A 
ATOM     41  N   UNL A   1      38.844  32.426  33.607  1.00  0.00    -0.354 N 
ATOM     42  C   UNL A   1      39.542  29.635  30.363  1.00  0.00     0.074 A 
ATOM     43  C   UNL A   1      38.581  29.818  29.301  1.00  0.00     0.031 C 
ATOM     44  C   UNL A   1      37.731  34.021  34.714  1.00  0.00     0.029 A 
ATOM     45  C   UNL A   1      38.826  33.062  34.827  1.00  0.00     0.049 A 
ATOM     46  H   UNL A   1      39.500  31.731  33.373  1.00  0.00     0.167 HD
ATOM     47  C   UNL A   1      40.517  28.697  30.352  1.00  0.00     0.034 A 
ATOM     48  C   UNL A   1      39.599  32.884  35.915  1.00  0.00     0.034 A 
ATOM     49  C   UNL A   1      41.497  28.554  31.393  1.00  0.00     0.049 A 
ATOM     50  C   UNL A   1      40.703  31.865  35.855  1.00  0.00     0.074 A 
ATOM     51  C   UNL A   1      42.584  27.701  31.438  1.00  0.00     0.029 A 
ATOM     52  N   UNL A   1      41.501  29.276  32.576  1.00  0.00    -0.354 N 
ATOM     53  N   UNL A   1      41.039  31.068  34.868  1.00  0.00    -0.248 NA
ATOM     54  C   UNL A   1      41.561  31.743  37.042  1.00  0.00     0.031 C 
ATOM     55  C   UNL A   1      43.230  27.886  32.664  1.00  0.00     0.029 A 
ATOM     56  C   UNL A   1      42.567  28.881  33.365  1.00  0.00     0.049 A 
ATOM     57  H   UNL A   1      40.844  29.968  32.819  1.00  0.00     0.167 HD
ATOM     58  C   UNL A   1      42.167  30.382  35.300  1.00  0.00     0.074 A 
ATOM     59  C   UNL A   1      42.471  30.873  36.628  1.00  0.00     0.031 C 
ATOM     60  C   UNL A   1      42.883  29.423  34.661  1.00  0.00     0.034 A 
BRANCH  47  61
ATOM     61  C   UNL A   1      40.604  27.786  29.156  1.00  0.00     0.023 A 
ATOM     62  C   UNL A   1      39.729  26.685  29.051  1.00  0.00     0.012 A 
ATOM     63  C   UNL A   1      41.504  28.055  28.107  1.00  0.00     0.148 A 
ATOM     64  C   UNL A   1      39.771  25.848  27.937  1.00  0.00     0.002 A 
ATOM     65  C   UNL A   1      41.506  27.246  26.977  1.00  0.00     0.091 A 
ATOM     66  F   UNL A   1      42.343  29.094  28.235  1.00  0.00    -0.205 F 
ATOM     67  C   UNL A   1      40.649  26.136  26.896  1.00  0.00     0.022 A 
BRANCH  65  68
ATOM     68  S   UNL A   1      42.536  27.579  25.545  1.00  0.00     0.127 S 
ATOM     69  O   UNL A   1      43.868  27.635  26.147  1.00  0.00    -0.237 OA
ATOM     70  O   UNL A   1      42.292  26.401  24.713  1.00  0.00    -0.237 OA
ATOM     71  O   UNL A   1      42.056  28.834  24.984  1.00  0.00    -0.744 OA
ENDBRANCH  65  68
ENDBRANCH  47  61
BRANCH  48  72
ATOM     72  C   UNL A   1      39.396  33.727  37.128  1.00  0.00     0.023 A 
ATOM     73  C   UNL A   1      39.890  35.047  37.144  1.00  0.00     0.012 A 
ATOM     74  C   UNL A   1      38.712  33.237  38.256  1.00  0.00     0.148 A 
ATOM     75  C   UNL A   1      39.743  35.847  38.277  1.00  0.00     0.002 A 
ATOM     76  C   UNL A   1      38.518  34.059  39.360  1.00  0.00     0.091 A 
ATOM     77  F   UNL A   1      38.255  31.977  38.225  1.00  0.00    -0.205 F 
ATOM     78  C   UNL A   1      39.051  35.357  39.382  1.00  0.00     0.022 A 
BRANCH  76  79
ATOM     79  S   UNL A   1      37.526  33.558  40.772  1.00  0.00     0.127 S 
ATOM     80  O   UNL A   1      38.412  32.604  41.435  1.00  0.00    -0.237 OA
ATOM     81  O   UNL A   1      37.347  34.827  41.480  1.00  0.00    -0.237 OA
ATOM     82  O   UNL A   1      36.300  33.005  40.214  1.00  0.00    -0.744 OA
ENDBRANCH  76  79
ENDBRANCH  48  72
BRANCH  60  83
ATOM     83  C   UNL A   1      44.094  28.871  35.365  1.00  0.00     0.023 A 
ATOM     84  C   UNL A   1      45.351  29.482  35.190  1.00  0.00     0.012 A 
ATOM     85  C   UNL A   1      43.966  27.793  36.263  1.00  0.00     0.148 A 
ATOM     86  C   UNL A   1      46.470  29.004  35.870  1.00  0.00     0.002 A 
ATOM     87  C   UNL A   1      45.072  27.358  36.979  1.00  0.00     0.091 A 
ATOM     88  F   UNL A   1      42.762  27.217  36.403  1.00  0.00    -0.205 F 
ATOM     89  C   UNL A   1      46.328  27.952  36.773  1.00  0.00     0.022 A 
BRANCH  87  90
ATOM     90  S   UNL A   1      44.965  26.080  38.236  1.00  0.00     0.127 S 
ATOM     91  O   UNL A   1      44.471  24.943  37.463  1.00  0.00    -0.237 OA
ATOM     92  O   UNL A   1      46.355  25.962  38.676  1.00  0.00    -0.237 OA
ATOM     93  O   UNL A   1      44.051  26.589  39.250  1.00  0.00    -0.744 OA
ENDBRANCH  87  90
ENDBRANCH  60  83
ENDBRANCH  34  35
ENDBRANCH  26  29
ENDBRANCH  24  25
ENDBRANCH   1  24
TORSDOF 17
ENDMDL
MODEL 3
REMARK VINA RESULT:     -11.3      5.461      8.822
REMARK SMILES CC(C)[C@@](C)(CC(=O)N[C@H]1CCCC1(C)C)C(=O)NCCCNC(=O)c1ccc(-c2c3nc(c(-c4cccc(S(=O)(=O)[O-])c4F)c4ccc([nH]4)c(-c4cccc(S(=O)(=O)[O-])c4F)c4nc(c(-c5cccc(S(=O)(=O)[O-])c5F)c5ccc2[nH]5)C=C4)C=C3)cc1
REMARK SMILES IDX 21 1 20 2 19 3 17 4 18 5 4 7 5 8 2 9 1 10 3 11 6 12 7 13
REMARK SMILES IDX 8 14 9 15 10 17 11 18 14 19 12 20 13 21 15 22 16 23 22 24
REMARK SMILES IDX 23 25 24 26 25 28 26 29 27 30 88 31 28 32 87 33 29 34 30 35
REMARK SMILES IDX 31 36 81 37 32 38 86 39 80 40 82 41 33 42 85 43 79 44 78 45
REMARK SMILES IDX 34 47 66 48 46 49 65 50 47 51 50 52 64 53 83 54 48 55 49 56
REMARK SMILES IDX 63 58 84 59 51 60 35 61 36 62 44 63 37 64 39 65 45 66 38 67
REMARK SMILES IDX 40 68 41 69 42 70 43 71 67 72 68 73 76 74 69 75 71 76 77 77
REMARK SMILES IDX 70 78 72 79 73 80 74 81 75 82 52 83 53 84 61 85 54 86 56 87
REMARK SMILES IDX 62 88 55 89 57 90 58 91 59 92 60 93
REMARK H PARENT 19 6 9 16 23 27 82 46 50 57
REMARK Flexibility Score: inf
ROOT
ATOM      1  C   UNL A   1      37.537  20.114  25.181  1.00  0.00     0.042 C 
ENDROOT
BRANCH   1   2
ATOM      2  C   UNL A   1      36.472  21.198  25.308  1.00  0.00     0.117 C 
BRANCH   2   3
ATOM      3  N   UNL A   1      35.158  20.609  25.363  1.00  0.00    -0.356 N 
ATOM      4  C   UNL A   1      33.930  21.092  25.604  1.00  0.00     0.226 C 
ATOM      5  O   UNL A   1      33.184  20.218  26.067  1.00  0.00    -0.274 OA
ATOM      6  H   UNL A   1      35.163  19.641  25.184  1.00  0.00     0.163 HD
BRANCH   4   7
ATOM      7  C   UNL A   1      33.394  22.463  25.110  1.00  0.00     0.057 C 
ATOM      8  C   UNL A   1      34.238  23.440  25.983  1.00  0.00     0.022 C 
BRANCH   7   9
ATOM      9  C   UNL A   1      33.729  22.526  23.579  1.00  0.00    -0.002 C 
ATOM     10  C   UNL A   1      32.522  22.622  22.637  1.00  0.00     0.008 C 
ATOM     11  C   UNL A   1      34.786  23.605  23.211  1.00  0.00     0.008 C 
ENDBRANCH   7   9
BRANCH   7  12
ATOM     12  C   UNL A   1      31.899  22.879  25.335  1.00  0.00     0.116 C 
BRANCH  12  13
ATOM     13  C   UNL A   1      31.529  23.673  26.587  1.00  0.00     0.221 C 
ATOM     14  O   UNL A   1      31.312  23.034  27.626  1.00  0.00    -0.275 OA
ATOM     15  N   UNL A   1      31.395  25.022  26.708  1.00  0.00    -0.353 N 
ATOM     16  H   UNL A   1      31.018  25.212  27.597  1.00  0.00     0.163 HD
BRANCH  15  17
ATOM     17  C   UNL A   1      31.601  26.313  26.007  1.00  0.00     0.087 C 
ATOM     18  C   UNL A   1      32.982  26.941  26.120  1.00  0.00     0.025 C 
ATOM     19  C   UNL A   1      31.209  26.486  24.492  1.00  0.00    -0.015 C 
ATOM     20  C   UNL A   1      33.653  26.694  24.782  1.00  0.00     0.003 C 
ATOM     21  C   UNL A   1      32.560  26.479  23.738  1.00  0.00     0.008 C 
ATOM     22  C   UNL A   1      30.182  25.490  23.928  1.00  0.00     0.013 C 
ATOM     23  C   UNL A   1      30.599  27.894  24.253  1.00  0.00     0.013 C 
ENDBRANCH  15  17
ENDBRANCH  12  13
ENDBRANCH   7  12
ENDBRANCH   4   7
ENDBRANCH   2   3
ENDBRANCH   1   2
BRANCH   1  24
ATOM     24  C   UNL A   1      38.967  20.587  25.463  1.00  0.00     0.118 C 
BRANCH  24  25
ATOM     25  N   UNL A   1      39.891  19.503  25.803  1.00  0.00    -0.352 N 
ATOM     26  C   UNL A   1      41.212  19.535  26.172  1.00  0.00     0.251 C 
ATOM     27  H   UNL A   1      39.499  18.601  25.759  1.00  0.00     0.163 HD
ATOM     28  O   UNL A   1      41.855  18.501  26.251  1.00  0.00    -0.269 OA
BRANCH  26  29
ATOM     29  C   UNL A   1      41.840  20.835  26.444  1.00  0.00     0.039 A 
ATOM     30  C   UNL A   1      42.260  21.619  25.370  1.00  0.00     0.014 A 
ATOM     31  C   UNL A   1      41.968  21.287  27.758  1.00  0.00     0.014 A 
ATOM     32  C   UNL A   1      42.743  22.902  25.615  1.00  0.00     0.010 A 
ATOM     33  C   UNL A   1      42.346  22.599  27.991  1.00  0.00     0.010 A 
ATOM     34  C   UNL A   1      42.748  23.415  26.923  1.00  0.00    -0.014 A 
BRANCH  34  35
ATOM     35  C   UNL A   1      43.173  24.806  27.199  1.00  0.00     0.031 A 
ATOM     36  C   UNL A   1      42.214  25.764  27.852  1.00  0.00     0.074 A 
ATOM     37  C   UNL A   1      44.384  25.223  26.782  1.00  0.00     0.049 A 
ATOM     38  N   UNL A   1      42.375  27.031  28.122  1.00  0.00    -0.248 NA
ATOM     39  C   UNL A   1      40.886  25.238  28.218  1.00  0.00     0.031 C 
ATOM     40  C   UNL A   1      45.361  24.404  26.058  1.00  0.00     0.029 A 
ATOM     41  N   UNL A   1      44.993  26.447  26.884  1.00  0.00    -0.354 N 
ATOM     42  C   UNL A   1      41.165  27.461  28.650  1.00  0.00     0.074 A 
ATOM     43  C   UNL A   1      40.262  26.334  28.623  1.00  0.00     0.031 C 
ATOM     44  C   UNL A   1      46.448  25.144  25.793  1.00  0.00     0.029 A 
ATOM     45  C   UNL A   1      46.235  26.497  26.295  1.00  0.00     0.049 A 
ATOM     46  H   UNL A   1      44.581  27.218  27.337  1.00  0.00     0.167 HD
ATOM     47  C   UNL A   1      40.844  28.679  29.143  1.00  0.00     0.034 A 
ATOM     48  C   UNL A   1      47.099  27.523  26.167  1.00  0.00     0.034 A 
ATOM     49  C   UNL A   1      41.764  29.780  29.207  1.00  0.00     0.049 A 
ATOM     50  C   UNL A   1      46.731  28.853  26.765  1.00  0.00     0.074 A 
ATOM     51  C   UNL A   1      41.573  31.027  29.772  1.00  0.00     0.029 A 
ATOM     52  N   UNL A   1      43.045  29.768  28.681  1.00  0.00    -0.354 N 
ATOM     53  N   UNL A   1      45.641  29.196  27.409  1.00  0.00    -0.248 NA
ATOM     54  C   UNL A   1      47.727  29.929  26.655  1.00  0.00     0.031 C 
ATOM     55  C   UNL A   1      42.731  31.782  29.559  1.00  0.00     0.029 A 
ATOM     56  C   UNL A   1      43.656  30.991  28.897  1.00  0.00     0.049 A 
ATOM     57  H   UNL A   1      43.461  29.003  28.220  1.00  0.00     0.167 HD
ATOM     58  C   UNL A   1      45.836  30.511  27.813  1.00  0.00     0.074 A 
ATOM     59  C   UNL A   1      47.157  30.895  27.361  1.00  0.00     0.031 C 
ATOM     60  C   UNL A   1      44.993  31.333  28.487  1.00  0.00     0.034 A 
BRANCH  47  61
ATOM     61  C   UNL A   1      39.456  28.871  29.697  1.00  0.00     0.023 A 
ATOM     62  C   UNL A   1      39.186  28.532  31.039  1.00  0.00     0.012 A 
ATOM     63  C   UNL A   1      38.439  29.446  28.912  1.00  0.00     0.148 A 
ATOM     64  C   UNL A   1      37.918  28.731  31.580  1.00  0.00     0.002 A 
ATOM     65  C   UNL A   1      37.191  29.689  29.473  1.00  0.00     0.091 A 
ATOM     66  F   UNL A   1      38.708  29.742  27.632  1.00  0.00    -0.205 F 
ATOM     67  C   UNL A   1      36.925  29.320  30.802  1.00  0.00     0.022 A 
BRANCH  65  68
ATOM     68  S   UNL A   1      35.871  30.520  28.584  1.00  0.00     0.127 S 
ATOM     69  O   UNL A   1      35.150  29.388  28.001  1.00  0.00    -0.237 OA
ATOM     70  O   UNL A   1      35.160  31.204  29.664  1.00  0.00    -0.237 OA
ATOM     71  O   UNL A   1      36.521  31.402  27.626  1.00  0.00    -0.744 OA
ENDBRANCH  65  68
ENDBRANCH  47  61
BRANCH  48  72
ATOM     72  C   UNL A   1      48.416  27.318  25.498  1.00  0.00     0.023 A 
ATOM     73  C   UNL A   1      49.536  26.954  26.271  1.00  0.00     0.012 A 
ATOM     74  C   UNL A   1      48.563  27.470  24.107  1.00  0.00     0.148 A 
ATOM     75  C   UNL A   1      50.787  26.788  25.677  1.00  0.00     0.002 A 
ATOM     76  C   UNL A   1      49.799  27.247  23.512  1.00  0.00     0.091 A 
ATOM     77  F   UNL A   1      47.487  27.824  23.388  1.00  0.00    -0.205 F 
ATOM     78  C   UNL A   1      50.917  26.926  24.297  1.00  0.00     0.022 A 
BRANCH  76  79
ATOM     79  S   UNL A   1      50.031  27.272  21.731  1.00  0.00     0.127 S 
ATOM     80  O   UNL A   1      49.789  28.679  21.419  1.00  0.00    -0.237 OA
ATOM     81  O   UNL A   1      51.424  26.843  21.601  1.00  0.00    -0.237 OA
ATOM     82  O   UNL A   1      49.060  26.328  21.195  1.00  0.00    -0.744 OA
ENDBRANCH  76  79
ENDBRANCH  48  72
BRANCH  60  83
ATOM     83  C   UNL A   1      45.488  32.715  28.823  1.00  0.00     0.023 A 
ATOM     84  C   UNL A   1      46.232  32.931  29.999  1.00  0.00     0.012 A 
ATOM     85  C   UNL A   1      45.278  33.783  27.928  1.00  0.00     0.148 A 
ATOM     86  C   UNL A   1      46.729  34.199  30.297  1.00  0.00     0.002 A 
ATOM     87  C   UNL A   1      45.824  35.029  28.204  1.00  0.00     0.091 A 
ATOM     88  F   UNL A   1      44.554  33.557  26.822  1.00  0.00    -0.205 F 
ATOM     89  C   UNL A   1      46.537  35.243  29.395  1.00  0.00     0.022 A 
BRANCH  87  90
ATOM     90  S   UNL A   1      45.715  36.404  27.053  1.00  0.00     0.127 S 
ATOM     91  O   UNL A   1      46.463  37.442  27.760  1.00  0.00    -0.237 OA
ATOM     92  O   UNL A   1      46.386  35.869  25.868  1.00  0.00    -0.237 OA
ATOM     93  O   UNL A   1      44.295  36.670  26.876  1.00  0.00    -0.744 OA
ENDBRANCH  87  90
ENDBRANCH  60  83
ENDBRANCH  34  35
ENDBRANCH  26  29
ENDBRANCH  24  25
ENDBRANCH   1  24
TORSDOF 17
ENDMDL
