MODEL 1
REMARK VINA RESULT:     -13.9      0.000      0.000
REMARK SMILES Cc1ccc(-c2nc(C)cc(N3CCCC[C@H]3C(=O)NCCCNC(=O)c3ccc(-c4c5nc(c(-c6cccc(S(=O)(=O)[O-])c6F)c6ccc([nH]6)c(-c6cccc(S(=O)(=O)[O-])c6F)c6nc(c(-c7cccc(S(=O)(=O)[O-])c7F)c7ccc4[nH]7)C=C6)C=C5)cc3)n2)cc1
REMARK SMILES IDX 22 1 21 2 20 3 18 4 19 5 17 7 12 8 13 9 14 10 16 11 15 12
REMARK SMILES IDX 11 13 6 14 7 15 90 16 8 17 9 18 10 19 5 20 1 21 2 22 3 23
REMARK SMILES IDX 92 24 4 25 91 26 23 27 24 28 25 29 26 31 27 32 28 33 89 34
REMARK SMILES IDX 29 35 88 36 30 37 31 38 32 39 82 40 33 41 87 42 81 43 83 44
REMARK SMILES IDX 34 45 86 46 80 47 79 48 35 50 67 51 47 52 66 53 48 54 51 55
REMARK SMILES IDX 65 56 84 57 49 58 50 59 64 61 85 62 52 63 36 64 37 65 45 66
REMARK SMILES IDX 38 67 40 68 46 69 39 70 41 71 42 72 43 73 44 74 68 75 69 76
REMARK SMILES IDX 77 77 70 78 72 79 78 80 71 81 73 82 74 83 75 84 76 85 53 86
REMARK SMILES IDX 54 87 62 88 55 89 57 90 63 91 56 92 58 93 59 94 60 95 61 96
REMARK H PARENT 20 6 24 30 83 49 51 60
REMARK Flexibility Score: inf
ROOT
ATOM      1  C   UNL A   1      33.131  31.644  27.632  1.00  0.00     0.042 C 
ENDROOT
BRANCH   1   2
ATOM      2  C   UNL A   1      32.189  30.968  26.649  1.00  0.00     0.117 C 
BRANCH   2   3
ATOM      3  N   UNL A   1      31.920  29.593  27.028  1.00  0.00    -0.354 N 
ATOM      4  C   UNL A   1      31.743  28.432  26.349  1.00  0.00     0.242 C 
ATOM      5  O   UNL A   1      31.586  27.439  27.081  1.00  0.00    -0.273 OA
ATOM      6  H   UNL A   1      31.849  29.476  28.003  1.00  0.00     0.163 HD
BRANCH   4   7
ATOM      7  C   UNL A   1      31.819  28.224  24.797  1.00  0.00     0.173 C 
ATOM      8  N   UNL A   1      31.382  26.840  24.488  1.00  0.00    -0.344 N 
ATOM      9  C   UNL A   1      29.947  26.583  24.456  1.00  0.00     0.119 C 
ATOM     10  C   UNL A   1      29.266  27.462  23.414  1.00  0.00     0.022 C 
ATOM     11  C   UNL A   1      31.135  29.150  23.781  1.00  0.00     0.035 C 
ATOM     12  C   UNL A   1      29.631  28.927  23.609  1.00  0.00     0.004 C 
BRANCH   8  13
ATOM     13  C   UNL A   1      32.190  26.061  23.680  1.00  0.00     0.133 A 
ATOM     14  C   UNL A   1      34.031  24.726  23.401  1.00  0.00     0.161 A 
ATOM     15  N   UNL A   1      33.882  24.635  22.068  1.00  0.00    -0.233 NA
ATOM     16  N   UNL A   1      33.229  25.414  24.228  1.00  0.00    -0.211 NA
ATOM     17  C   UNL A   1      32.820  25.278  21.544  1.00  0.00     0.043 A 
ATOM     18  C   UNL A   1      32.652  25.203  20.058  1.00  0.00     0.067 C 
ATOM     19  C   UNL A   1      31.937  25.998  22.324  1.00  0.00     0.070 A 
BRANCH  14  20
ATOM     20  C   UNL A   1      35.148  24.000  24.008  1.00  0.00     0.019 A 
ATOM     21  C   UNL A   1      38.456  21.858  25.803  1.00  0.00     0.044 C 
ATOM     22  C   UNL A   1      37.313  22.596  25.173  1.00  0.00    -0.051 A 
ATOM     23  C   UNL A   1      36.731  23.682  25.836  1.00  0.00     0.004 A 
ATOM     24  C   UNL A   1      36.800  22.205  23.932  1.00  0.00     0.004 A 
ATOM     25  C   UNL A   1      35.668  24.382  25.254  1.00  0.00     0.012 A 
ATOM     26  C   UNL A   1      35.725  22.896  23.362  1.00  0.00     0.012 A 
ENDBRANCH  14  20
ENDBRANCH   8  13
ENDBRANCH   4   7
ENDBRANCH   2   3
ENDBRANCH   1   2
BRANCH   1  27
ATOM     27  C   UNL A   1      34.379  30.837  27.972  1.00  0.00     0.118 C 
BRANCH  27  28
ATOM     28  N   UNL A   1      35.522  31.716  28.223  1.00  0.00    -0.352 N 
ATOM     29  C   UNL A   1      36.824  31.409  28.581  1.00  0.00     0.251 C 
ATOM     30  H   UNL A   1      35.336  32.677  28.121  1.00  0.00     0.163 HD
ATOM     31  O   UNL A   1      37.592  32.292  28.958  1.00  0.00    -0.269 OA
BRANCH  29  32
ATOM     32  C   UNL A   1      37.305  30.034  28.342  1.00  0.00     0.039 A 
ATOM     33  C   UNL A   1      37.304  29.201  29.466  1.00  0.00     0.014 A 
ATOM     34  C   UNL A   1      38.147  29.793  27.264  1.00  0.00     0.014 A 
ATOM     35  C   UNL A   1      38.375  28.347  29.669  1.00  0.00     0.010 A 
ATOM     36  C   UNL A   1      39.260  29.018  27.502  1.00  0.00     0.010 A 
ATOM     37  C   UNL A   1      39.408  28.375  28.741  1.00  0.00    -0.014 A 
BRANCH  37  38
ATOM     38  C   UNL A   1      40.692  27.734  28.940  1.00  0.00     0.031 A 
ATOM     39  C   UNL A   1      40.777  26.284  28.713  1.00  0.00     0.074 A 
ATOM     40  C   UNL A   1      41.788  28.500  29.129  1.00  0.00     0.049 A 
ATOM     41  N   UNL A   1      41.754  25.538  29.092  1.00  0.00    -0.248 NA
ATOM     42  C   UNL A   1      39.686  25.549  28.086  1.00  0.00     0.031 C 
ATOM     43  C   UNL A   1      43.173  28.112  28.899  1.00  0.00     0.029 A 
ATOM     44  N   UNL A   1      41.874  29.749  29.757  1.00  0.00    -0.354 N 
ATOM     45  C   UNL A   1      41.568  24.303  28.502  1.00  0.00     0.074 A 
ATOM     46  C   UNL A   1      40.213  24.327  28.015  1.00  0.00     0.031 C 
ATOM     47  C   UNL A   1      43.972  28.947  29.578  1.00  0.00     0.029 A 
ATOM     48  C   UNL A   1      43.119  29.775  30.415  1.00  0.00     0.049 A 
ATOM     49  H   UNL A   1      41.201  30.466  29.742  1.00  0.00     0.167 HD
ATOM     50  C   UNL A   1      42.647  23.483  28.356  1.00  0.00     0.034 A 
ATOM     51  C   UNL A   1      43.264  29.929  31.764  1.00  0.00     0.034 A 
ATOM     52  C   UNL A   1      43.802  24.032  29.088  1.00  0.00     0.049 A 
ATOM     53  C   UNL A   1      43.920  28.729  32.428  1.00  0.00     0.074 A 
ATOM     54  C   UNL A   1      44.898  24.782  28.690  1.00  0.00     0.029 A 
ATOM     55  N   UNL A   1      43.758  24.116  30.477  1.00  0.00    -0.354 N 
ATOM     56  N   UNL A   1      44.213  27.619  31.806  1.00  0.00    -0.248 NA
ATOM     57  C   UNL A   1      44.261  28.667  33.847  1.00  0.00     0.031 C 
ATOM     58  C   UNL A   1      45.429  25.424  29.842  1.00  0.00     0.029 A 
ATOM     59  C   UNL A   1      44.690  25.032  30.946  1.00  0.00     0.049 A 
ATOM     60  H   UNL A   1      43.147  23.598  31.049  1.00  0.00     0.167 HD
ATOM     61  C   UNL A   1      44.612  26.670  32.709  1.00  0.00     0.074 A 
ATOM     62  C   UNL A   1      44.709  27.403  33.961  1.00  0.00     0.031 C 
ATOM     63  C   UNL A   1      44.758  25.352  32.371  1.00  0.00     0.034 A 
BRANCH  50  64
ATOM     64  C   UNL A   1      42.777  22.366  27.322  1.00  0.00     0.023 A 
ATOM     65  C   UNL A   1      41.974  21.219  27.521  1.00  0.00     0.012 A 
ATOM     66  C   UNL A   1      43.683  22.286  26.234  1.00  0.00     0.148 A 
ATOM     67  C   UNL A   1      42.117  20.050  26.759  1.00  0.00     0.002 A 
ATOM     68  C   UNL A   1      43.849  21.115  25.489  1.00  0.00     0.091 A 
ATOM     69  F   UNL A   1      44.381  23.353  25.860  1.00  0.00    -0.205 F 
ATOM     70  C   UNL A   1      43.072  19.989  25.757  1.00  0.00     0.022 A 
BRANCH  68  71
ATOM     71  S   UNL A   1      45.088  20.959  24.183  1.00  0.00     0.127 S 
ATOM     72  O   UNL A   1      44.862  19.595  23.707  1.00  0.00    -0.237 OA
ATOM     73  O   UNL A   1      44.685  22.007  23.246  1.00  0.00    -0.237 OA
ATOM     74  O   UNL A   1      46.386  21.166  24.815  1.00  0.00    -0.744 OA
ENDBRANCH  68  71
ENDBRANCH  50  64
BRANCH  51  75
ATOM     75  C   UNL A   1      42.232  30.809  32.381  1.00  0.00     0.023 A 
ATOM     76  C   UNL A   1      42.149  32.133  31.887  1.00  0.00     0.012 A 
ATOM     77  C   UNL A   1      41.135  30.273  33.078  1.00  0.00     0.148 A 
ATOM     78  C   UNL A   1      40.960  32.859  31.970  1.00  0.00     0.002 A 
ATOM     79  C   UNL A   1      39.944  30.994  33.135  1.00  0.00     0.091 A 
ATOM     80  F   UNL A   1      41.241  29.034  33.574  1.00  0.00    -0.205 F 
ATOM     81  C   UNL A   1      39.846  32.272  32.558  1.00  0.00     0.022 A 
BRANCH  79  82
ATOM     82  S   UNL A   1      38.420  30.280  33.766  1.00  0.00     0.127 S 
ATOM     83  O   UNL A   1      37.440  31.292  33.384  1.00  0.00    -0.237 OA
ATOM     84  O   UNL A   1      38.341  29.032  33.010  1.00  0.00    -0.237 OA
ATOM     85  O   UNL A   1      38.643  30.107  35.193  1.00  0.00    -0.744 OA
ENDBRANCH  79  82
ENDBRANCH  51  75
BRANCH  63  86
ATOM     86  C   UNL A   1      44.953  24.230  33.369  1.00  0.00     0.023 A 
ATOM     87  C   UNL A   1      43.988  23.223  33.563  1.00  0.00     0.012 A 
ATOM     88  C   UNL A   1      46.198  24.061  34.027  1.00  0.00     0.148 A 
ATOM     89  C   UNL A   1      44.216  22.136  34.415  1.00  0.00     0.002 A 
ATOM     90  C   UNL A   1      46.461  22.921  34.781  1.00  0.00     0.091 A 
ATOM     91  F   UNL A   1      47.134  25.018  33.934  1.00  0.00    -0.205 F 
ATOM     92  C   UNL A   1      45.462  21.972  35.005  1.00  0.00     0.022 A 
BRANCH  90  93
ATOM     93  S   UNL A   1      48.132  22.557  35.339  1.00  0.00     0.127 S 
ATOM     94  O   UNL A   1      47.984  21.212  35.889  1.00  0.00    -0.237 OA
ATOM     95  O   UNL A   1      48.904  22.626  34.097  1.00  0.00    -0.237 OA
ATOM     96  O   UNL A   1      48.445  23.614  36.292  1.00  0.00    -0.744 OA
ENDBRANCH  90  93
ENDBRANCH  63  86
ENDBRANCH  37  38
ENDBRANCH  29  32
ENDBRANCH  27  28
ENDBRANCH   1  27
TORSDOF 15
ENDMDL
MODEL 2
REMARK VINA RESULT:     -13.8      4.172      9.941
REMARK SMILES Cc1ccc(-c2nc(C)cc(N3CCCC[C@H]3C(=O)NCCCNC(=O)c3ccc(-c4c5nc(c(-c6cccc(S(=O)(=O)[O-])c6F)c6ccc([nH]6)c(-c6cccc(S(=O)(=O)[O-])c6F)c6nc(c(-c7cccc(S(=O)(=O)[O-])c7F)c7ccc4[nH]7)C=C6)C=C5)cc3)n2)cc1
REMARK SMILES IDX 22 1 21 2 20 3 18 4 19 5 17 7 12 8 13 9 14 10 16 11 15 12
REMARK SMILES IDX 11 13 6 14 7 15 90 16 8 17 9 18 10 19 5 20 1 21 2 22 3 23
REMARK SMILES IDX 92 24 4 25 91 26 23 27 24 28 25 29 26 31 27 32 28 33 89 34
REMARK SMILES IDX 29 35 88 36 30 37 31 38 32 39 82 40 33 41 87 42 81 43 83 44
REMARK SMILES IDX 34 45 86 46 80 47 79 48 35 50 67 51 47 52 66 53 48 54 51 55
REMARK SMILES IDX 65 56 84 57 49 58 50 59 64 61 85 62 52 63 36 64 37 65 45 66
REMARK SMILES IDX 38 67 40 68 46 69 39 70 41 71 42 72 43 73 44 74 68 75 69 76
REMARK SMILES IDX 77 77 70 78 72 79 78 80 71 81 73 82 74 83 75 84 76 85 53 86
REMARK SMILES IDX 54 87 62 88 55 89 57 90 63 91 56 92 58 93 59 94 60 95 61 96
REMARK H PARENT 20 6 24 30 83 49 51 60
REMARK Flexibility Score: inf
ROOT
ATOM      1  C   UNL A   1      38.058  20.785  25.547  1.00  0.00     0.042 C 
ENDROOT
BRANCH   1   2
ATOM      2  C   UNL A   1      37.012  20.585  24.461  1.00  0.00     0.117 C 
BRANCH   2   3
ATOM      3  N   UNL A   1      35.789  20.016  24.997  1.00  0.00    -0.354 N 
ATOM      4  C   UNL A   1      34.508  20.446  25.114  1.00  0.00     0.242 C 
ATOM      5  O   UNL A   1      33.735  19.600  25.597  1.00  0.00    -0.273 OA
ATOM      6  H   UNL A   1      35.920  19.110  25.358  1.00  0.00     0.163 HD
BRANCH   4   7
ATOM      7  C   UNL A   1      33.921  21.814  24.623  1.00  0.00     0.173 C 
ATOM      8  N   UNL A   1      33.905  22.756  25.770  1.00  0.00    -0.344 N 
ATOM      9  C   UNL A   1      35.161  23.413  26.112  1.00  0.00     0.119 C 
ATOM     10  C   UNL A   1      35.683  24.225  24.933  1.00  0.00     0.022 C 
ATOM     11  C   UNL A   1      34.465  22.587  23.413  1.00  0.00     0.035 C 
ATOM     12  C   UNL A   1      35.750  23.376  23.670  1.00  0.00     0.004 C 
BRANCH   8  13
ATOM     13  C   UNL A   1      32.732  23.433  26.049  1.00  0.00     0.133 A 
ATOM     14  C   UNL A   1      31.592  25.397  26.352  1.00  0.00     0.161 A 
ATOM     15  N   UNL A   1      30.457  24.790  26.743  1.00  0.00    -0.233 NA
ATOM     16  N   UNL A   1      32.729  24.773  26.006  1.00  0.00    -0.211 NA
ATOM     17  C   UNL A   1      30.481  23.442  26.760  1.00  0.00     0.043 A 
ATOM     18  C   UNL A   1      29.232  22.752  27.212  1.00  0.00     0.067 C 
ATOM     19  C   UNL A   1      31.604  22.720  26.406  1.00  0.00     0.070 A 
BRANCH  14  20
ATOM     20  C   UNL A   1      31.585  26.859  26.277  1.00  0.00     0.019 A 
ATOM     21  C   UNL A   1      31.572  31.183  26.053  1.00  0.00     0.044 C 
ATOM     22  C   UNL A   1      31.582  29.687  26.140  1.00  0.00    -0.051 A 
ATOM     23  C   UNL A   1      31.372  28.918  24.989  1.00  0.00     0.004 A 
ATOM     24  C   UNL A   1      31.779  29.037  27.362  1.00  0.00     0.004 A 
ATOM     25  C   UNL A   1      31.385  27.521  25.056  1.00  0.00     0.012 A 
ATOM     26  C   UNL A   1      31.773  27.639  27.429  1.00  0.00     0.012 A 
ENDBRANCH  14  20
ENDBRANCH   8  13
ENDBRANCH   4   7
ENDBRANCH   2   3
ENDBRANCH   1   2
BRANCH   1  27
ATOM     27  C   UNL A   1      38.542  22.222  25.704  1.00  0.00     0.118 C 
BRANCH  27  28
ATOM     28  N   UNL A   1      39.903  22.264  26.240  1.00  0.00    -0.352 N 
ATOM     29  C   UNL A   1      40.717  23.346  26.530  1.00  0.00     0.251 C 
ATOM     30  H   UNL A   1      40.302  21.383  26.423  1.00  0.00     0.163 HD
ATOM     31  O   UNL A   1      41.911  23.180  26.772  1.00  0.00    -0.269 OA
BRANCH  29  32
ATOM     32  C   UNL A   1      40.082  24.667  26.699  1.00  0.00     0.039 A 
ATOM     33  C   UNL A   1      40.782  25.739  26.135  1.00  0.00     0.014 A 
ATOM     34  C   UNL A   1      39.192  24.857  27.748  1.00  0.00     0.014 A 
ATOM     35  C   UNL A   1      40.864  26.930  26.837  1.00  0.00     0.010 A 
ATOM     36  C   UNL A   1      39.344  26.003  28.497  1.00  0.00     0.010 A 
ATOM     37  C   UNL A   1      40.250  26.990  28.081  1.00  0.00    -0.014 A 
BRANCH  37  38
ATOM     38  C   UNL A   1      40.454  28.063  29.033  1.00  0.00     0.031 A 
ATOM     39  C   UNL A   1      39.558  29.227  28.956  1.00  0.00     0.074 A 
ATOM     40  C   UNL A   1      41.308  27.878  30.062  1.00  0.00     0.049 A 
ATOM     41  N   UNL A   1      39.766  30.353  29.540  1.00  0.00    -0.248 NA
ATOM     42  C   UNL A   1      38.364  29.211  28.120  1.00  0.00     0.031 C 
ATOM     43  C   UNL A   1      41.319  28.600  31.327  1.00  0.00     0.029 A 
ATOM     44  N   UNL A   1      42.477  27.106  30.089  1.00  0.00    -0.354 N 
ATOM     45  C   UNL A   1      38.607  31.093  29.410  1.00  0.00     0.074 A 
ATOM     46  C   UNL A   1      37.837  30.400  28.411  1.00  0.00     0.031 C 
ATOM     47  C   UNL A   1      42.523  28.450  31.898  1.00  0.00     0.029 A 
ATOM     48  C   UNL A   1      43.380  27.788  30.927  1.00  0.00     0.049 A 
ATOM     49  H   UNL A   1      42.636  26.258  29.618  1.00  0.00     0.167 HD
ATOM     50  C   UNL A   1      38.380  32.106  30.294  1.00  0.00     0.034 A 
ATOM     51  C   UNL A   1      44.597  28.253  30.519  1.00  0.00     0.034 A 
ATOM     52  C   UNL A   1      39.583  32.345  31.111  1.00  0.00     0.049 A 
ATOM     53  C   UNL A   1      44.715  29.765  30.619  1.00  0.00     0.074 A 
ATOM     54  C   UNL A   1      39.952  31.936  32.383  1.00  0.00     0.029 A 
ATOM     55  N   UNL A   1      40.744  32.818  30.503  1.00  0.00    -0.354 N 
ATOM     56  N   UNL A   1      43.731  30.555  30.951  1.00  0.00    -0.248 NA
ATOM     57  C   UNL A   1      45.935  30.510  30.317  1.00  0.00     0.031 C 
ATOM     58  C   UNL A   1      41.367  32.045  32.483  1.00  0.00     0.029 A 
ATOM     59  C   UNL A   1      41.855  32.562  31.294  1.00  0.00     0.049 A 
ATOM     60  H   UNL A   1      40.771  33.272  29.630  1.00  0.00     0.167 HD
ATOM     61  C   UNL A   1      44.097  31.861  30.766  1.00  0.00     0.074 A 
ATOM     62  C   UNL A   1      45.515  31.781  30.453  1.00  0.00     0.031 C 
ATOM     63  C   UNL A   1      43.196  32.890  30.813  1.00  0.00     0.034 A 
BRANCH  50  64
ATOM     64  C   UNL A   1      37.010  32.680  30.651  1.00  0.00     0.023 A 
ATOM     65  C   UNL A   1      36.486  32.333  31.918  1.00  0.00     0.012 A 
ATOM     66  C   UNL A   1      36.142  33.439  29.827  1.00  0.00     0.148 A 
ATOM     67  C   UNL A   1      35.174  32.638  32.306  1.00  0.00     0.002 A 
ATOM     68  C   UNL A   1      34.823  33.723  30.198  1.00  0.00     0.091 A 
ATOM     69  F   UNL A   1      36.576  33.948  28.678  1.00  0.00    -0.205 F 
ATOM     70  C   UNL A   1      34.332  33.313  31.436  1.00  0.00     0.022 A 
BRANCH  68  71
ATOM     71  S   UNL A   1      33.668  34.579  29.105  1.00  0.00     0.127 S 
ATOM     72  O   UNL A   1      33.321  33.532  28.144  1.00  0.00    -0.237 OA
ATOM     73  O   UNL A   1      32.589  34.947  30.020  1.00  0.00    -0.237 OA
ATOM     74  O   UNL A   1      34.396  35.704  28.528  1.00  0.00    -0.744 OA
ENDBRANCH  68  71
ENDBRANCH  50  64
BRANCH  51  75
ATOM     75  C   UNL A   1      45.250  27.395  29.490  1.00  0.00     0.023 A 
ATOM     76  C   UNL A   1      45.626  26.092  29.896  1.00  0.00     0.012 A 
ATOM     77  C   UNL A   1      45.118  27.669  28.117  1.00  0.00     0.148 A 
ATOM     78  C   UNL A   1      45.740  25.055  28.969  1.00  0.00     0.002 A 
ATOM     79  C   UNL A   1      45.210  26.624  27.201  1.00  0.00     0.091 A 
ATOM     80  F   UNL A   1      44.802  28.915  27.745  1.00  0.00    -0.205 F 
ATOM     81  C   UNL A   1      45.492  25.314  27.626  1.00  0.00     0.022 A 
BRANCH  79  82
ATOM     82  S   UNL A   1      44.792  26.831  25.465  1.00  0.00     0.127 S 
ATOM     83  O   UNL A   1      46.109  27.027  24.866  1.00  0.00    -0.237 OA
ATOM     84  O   UNL A   1      44.161  25.550  25.156  1.00  0.00    -0.237 OA
ATOM     85  O   UNL A   1      43.890  27.972  25.424  1.00  0.00    -0.744 OA
ENDBRANCH  79  82
ENDBRANCH  51  75
BRANCH  63  86
ATOM     86  C   UNL A   1      43.494  34.309  30.376  1.00  0.00     0.023 A 
ATOM     87  C   UNL A   1      43.872  35.311  31.291  1.00  0.00     0.012 A 
ATOM     88  C   UNL A   1      43.565  34.637  28.999  1.00  0.00     0.148 A 
ATOM     89  C   UNL A   1      44.241  36.594  30.869  1.00  0.00     0.002 A 
ATOM     90  C   UNL A   1      44.041  35.877  28.581  1.00  0.00     0.091 A 
ATOM     91  F   UNL A   1      43.156  33.748  28.081  1.00  0.00    -0.205 F 
ATOM     92  C   UNL A   1      44.348  36.870  29.513  1.00  0.00     0.022 A 
BRANCH  90  93
ATOM     93  S   UNL A   1      44.435  36.172  26.851  1.00  0.00     0.127 S 
ATOM     94  O   UNL A   1      45.091  37.475  26.905  1.00  0.00    -0.237 OA
ATOM     95  O   UNL A   1      45.326  35.054  26.532  1.00  0.00    -0.237 OA
ATOM     96  O   UNL A   1      43.151  36.122  26.163  1.00  0.00    -0.744 OA
ENDBRANCH  90  93
ENDBRANCH  63  86
ENDBRANCH  37  38
ENDBRANCH  29  32
ENDBRANCH  27  28
ENDBRANCH   1  27
TORSDOF 15
ENDMDL
MODEL 3
REMARK VINA RESULT:     -13.6      2.352      3.119
REMARK SMILES Cc1ccc(-c2nc(C)cc(N3CCCC[C@H]3C(=O)NCCCNC(=O)c3ccc(-c4c5nc(c(-c6cccc(S(=O)(=O)[O-])c6F)c6ccc([nH]6)c(-c6cccc(S(=O)(=O)[O-])c6F)c6nc(c(-c7cccc(S(=O)(=O)[O-])c7F)c7ccc4[nH]7)C=C6)C=C5)cc3)n2)cc1
REMARK SMILES IDX 22 1 21 2 20 3 18 4 19 5 17 7 12 8 13 9 14 10 16 11 15 12
REMARK SMILES IDX 11 13 6 14 7 15 90 16 8 17 9 18 10 19 5 20 1 21 2 22 3 23
REMARK SMILES IDX 92 24 4 25 91 26 23 27 24 28 25 29 26 31 27 32 28 33 89 34
REMARK SMILES IDX 29 35 88 36 30 37 31 38 32 39 82 40 33 41 87 42 81 43 83 44
REMARK SMILES IDX 34 45 86 46 80 47 79 48 35 50 67 51 47 52 66 53 48 54 51 55
REMARK SMILES IDX 65 56 84 57 49 58 50 59 64 61 85 62 52 63 36 64 37 65 45 66
REMARK SMILES IDX 38 67 40 68 46 69 39 70 41 71 42 72 43 73 44 74 68 75 69 76
REMARK SMILES IDX 77 77 70 78 72 79 78 80 71 81 73 82 74 83 75 84 76 85 53 86
REMARK SMILES IDX 54 87 62 88 55 89 57 90 63 91 56 92 58 93 59 94 60 95 61 96
REMARK H PARENT 20 6 24 30 83 49 51 60
REMARK Flexibility Score: inf
ROOT
ATOM      1  C   UNL A   1      32.195  30.825  26.421  1.00  0.00     0.042 C 
ENDROOT
BRANCH   1   2
ATOM      2  C   UNL A   1      31.834  29.713  25.449  1.00  0.00     0.117 C 
BRANCH   2   3
ATOM      3  N   UNL A   1      31.479  28.491  26.145  1.00  0.00    -0.354 N 
ATOM      4  C   UNL A   1      31.833  27.187  26.025  1.00  0.00     0.242 C 
ATOM      5  O   UNL A   1      31.324  26.445  26.884  1.00  0.00    -0.273 OA
ATOM      6  H   UNL A   1      30.831  28.642  26.871  1.00  0.00     0.163 HD
BRANCH   4   7
ATOM      7  C   UNL A   1      32.860  26.575  25.011  1.00  0.00     0.173 C 
ATOM      8  N   UNL A   1      32.551  25.134  24.842  1.00  0.00    -0.344 N 
ATOM      9  C   UNL A   1      31.454  24.785  23.947  1.00  0.00     0.119 C 
ATOM     10  C   UNL A   1      31.721  25.306  22.540  1.00  0.00     0.022 C 
ATOM     11  C   UNL A   1      33.115  27.148  23.609  1.00  0.00     0.035 C 
ATOM     12  C   UNL A   1      32.060  26.791  22.560  1.00  0.00     0.004 C 
BRANCH   8  13
ATOM     13  C   UNL A   1      33.581  24.220  24.978  1.00  0.00     0.133 A 
ATOM     14  C   UNL A   1      34.338  22.058  24.956  1.00  0.00     0.161 A 
ATOM     15  N   UNL A   1      35.570  22.383  25.387  1.00  0.00    -0.233 NA
ATOM     16  N   UNL A   1      33.334  22.923  24.746  1.00  0.00    -0.211 NA
ATOM     17  C   UNL A   1      35.797  23.695  25.596  1.00  0.00     0.043 A 
ATOM     18  C   UNL A   1      37.158  24.072  26.095  1.00  0.00     0.067 C 
ATOM     19  C   UNL A   1      34.825  24.654  25.391  1.00  0.00     0.070 A 
BRANCH  14  20
ATOM     20  C   UNL A   1      34.071  20.647  24.674  1.00  0.00     0.019 A 
ATOM     21  C   UNL A   1      33.279  16.471  23.845  1.00  0.00     0.044 C 
ATOM     22  C   UNL A   1      33.561  17.914  24.138  1.00  0.00    -0.051 A 
ATOM     23  C   UNL A   1      32.574  18.880  23.910  1.00  0.00     0.004 A 
ATOM     24  C   UNL A   1      34.808  18.320  24.621  1.00  0.00     0.004 A 
ATOM     25  C   UNL A   1      32.824  20.229  24.185  1.00  0.00     0.012 A 
ATOM     26  C   UNL A   1      35.061  19.672  24.878  1.00  0.00     0.012 A 
ENDBRANCH  14  20
ENDBRANCH   8  13
ENDBRANCH   4   7
ENDBRANCH   2   3
ENDBRANCH   1   2
BRANCH   1  27
ATOM     27  C   UNL A   1      33.137  30.405  27.544  1.00  0.00     0.118 C 
BRANCH  27  28
ATOM     28  N   UNL A   1      34.075  31.478  27.874  1.00  0.00    -0.352 N 
ATOM     29  C   UNL A   1      35.330  31.421  28.455  1.00  0.00     0.251 C 
ATOM     30  H   UNL A   1      33.763  32.384  27.648  1.00  0.00     0.163 HD
ATOM     31  O   UNL A   1      35.880  32.447  28.852  1.00  0.00    -0.269 OA
BRANCH  29  32
ATOM     32  C   UNL A   1      36.048  30.132  28.432  1.00  0.00     0.039 A 
ATOM     33  C   UNL A   1      36.373  29.611  29.689  1.00  0.00     0.014 A 
ATOM     34  C   UNL A   1      36.767  29.781  27.297  1.00  0.00     0.014 A 
ATOM     35  C   UNL A   1      37.616  29.027  29.873  1.00  0.00     0.010 A 
ATOM     36  C   UNL A   1      38.038  29.288  27.489  1.00  0.00     0.010 A 
ATOM     37  C   UNL A   1      38.484  29.002  28.789  1.00  0.00    -0.014 A 
BRANCH  37  38
ATOM     38  C   UNL A   1      39.887  28.658  28.885  1.00  0.00     0.031 A 
ATOM     39  C   UNL A   1      40.260  27.246  28.713  1.00  0.00     0.074 A 
ATOM     40  C   UNL A   1      40.807  29.645  28.928  1.00  0.00     0.049 A 
ATOM     41  N   UNL A   1      41.403  26.745  29.023  1.00  0.00    -0.248 NA
ATOM     42  C   UNL A   1      39.299  26.261  28.232  1.00  0.00     0.031 C 
ATOM     43  C   UNL A   1      42.216  29.541  28.577  1.00  0.00     0.029 A 
ATOM     44  N   UNL A   1      40.680  30.923  29.490  1.00  0.00    -0.354 N 
ATOM     45  C   UNL A   1      41.434  25.464  28.509  1.00  0.00     0.074 A 
ATOM     46  C   UNL A   1      40.067  25.174  28.162  1.00  0.00     0.031 C 
ATOM     47  C   UNL A   1      42.877  30.566  29.134  1.00  0.00     0.029 A 
ATOM     48  C   UNL A   1      41.945  31.249  30.017  1.00  0.00     0.049 A 
ATOM     49  H   UNL A   1      39.871  31.481  29.512  1.00  0.00     0.167 HD
ATOM     50  C   UNL A   1      42.645  24.879  28.290  1.00  0.00     0.034 A 
ATOM     51  C   UNL A   1      42.175  31.517  31.335  1.00  0.00     0.034 A 
ATOM     52  C   UNL A   1      43.718  25.702  28.877  1.00  0.00     0.049 A 
ATOM     53  C   UNL A   1      43.128  30.524  31.981  1.00  0.00     0.074 A 
ATOM     54  C   UNL A   1      44.588  26.637  28.338  1.00  0.00     0.029 A 
ATOM     55  N   UNL A   1      43.781  25.864  30.259  1.00  0.00    -0.354 N 
ATOM     56  N   UNL A   1      43.595  29.463  31.382  1.00  0.00    -0.248 NA
ATOM     57  C   UNL A   1      43.601  30.625  33.360  1.00  0.00     0.031 C 
ATOM     58  C   UNL A   1      45.070  27.448  29.402  1.00  0.00     0.029 A 
ATOM     59  C   UNL A   1      44.535  26.982  30.591  1.00  0.00     0.049 A 
ATOM     60  H   UNL A   1      43.349  25.267  30.911  1.00  0.00     0.167 HD
ATOM     61  C   UNL A   1      44.267  28.677  32.279  1.00  0.00     0.074 A 
ATOM     62  C   UNL A   1      44.317  29.492  33.483  1.00  0.00     0.031 C 
ATOM     63  C   UNL A   1      44.661  27.400  31.986  1.00  0.00     0.034 A 
BRANCH  50  64
ATOM     64  C   UNL A   1      42.918  23.750  27.298  1.00  0.00     0.023 A 
ATOM     65  C   UNL A   1      43.685  24.076  26.157  1.00  0.00     0.012 A 
ATOM     66  C   UNL A   1      42.408  22.427  27.324  1.00  0.00     0.148 A 
ATOM     67  C   UNL A   1      43.863  23.193  25.083  1.00  0.00     0.002 A 
ATOM     68  C   UNL A   1      42.559  21.551  26.244  1.00  0.00     0.091 A 
ATOM     69  F   UNL A   1      41.799  21.960  28.409  1.00  0.00    -0.205 F 
ATOM     70  C   UNL A   1      43.279  21.936  25.115  1.00  0.00     0.022 A 
BRANCH  68  71
ATOM     71  S   UNL A   1      41.808  19.908  26.212  1.00  0.00     0.127 S 
ATOM     72  O   UNL A   1      42.291  19.325  27.463  1.00  0.00    -0.237 OA
ATOM     73  O   UNL A   1      40.379  20.220  26.196  1.00  0.00    -0.237 OA
ATOM     74  O   UNL A   1      42.305  19.246  25.011  1.00  0.00    -0.744 OA
ENDBRANCH  68  71
ENDBRANCH  50  64
BRANCH  51  75
ATOM     75  C   UNL A   1      41.037  32.199  32.015  1.00  0.00     0.023 A 
ATOM     76  C   UNL A   1      40.689  33.484  31.533  1.00  0.00     0.012 A 
ATOM     77  C   UNL A   1      40.098  31.478  32.772  1.00  0.00     0.148 A 
ATOM     78  C   UNL A   1      39.395  33.983  31.688  1.00  0.00     0.002 A 
ATOM     79  C   UNL A   1      38.801  31.973  32.901  1.00  0.00     0.091 A 
ATOM     80  F   UNL A   1      40.454  30.282  33.256  1.00  0.00    -0.205 F 
ATOM     81  C   UNL A   1      38.441  33.208  32.337  1.00  0.00     0.022 A 
BRANCH  79  82
ATOM     82  S   UNL A   1      37.471  30.999  33.616  1.00  0.00     0.127 S 
ATOM     83  O   UNL A   1      37.766  31.098  35.043  1.00  0.00    -0.237 OA
ATOM     84  O   UNL A   1      36.291  31.742  33.181  1.00  0.00    -0.237 OA
ATOM     85  O   UNL A   1      37.603  29.677  33.023  1.00  0.00    -0.744 OA
ENDBRANCH  79  82
ENDBRANCH  51  75
BRANCH  63  86
ATOM     86  C   UNL A   1      45.180  26.409  33.007  1.00  0.00     0.023 A 
ATOM     87  C   UNL A   1      46.538  26.042  33.072  1.00  0.00     0.012 A 
ATOM     88  C   UNL A   1      44.338  25.940  34.046  1.00  0.00     0.148 A 
ATOM     89  C   UNL A   1      47.028  25.201  34.078  1.00  0.00     0.002 A 
ATOM     90  C   UNL A   1      44.853  25.199  35.107  1.00  0.00     0.091 A 
ATOM     91  F   UNL A   1      43.022  26.201  34.006  1.00  0.00    -0.205 F 
ATOM     92  C   UNL A   1      46.190  24.799  35.110  1.00  0.00     0.022 A 
BRANCH  90  93
ATOM     93  S   UNL A   1      43.860  24.887  36.574  1.00  0.00     0.127 S 
ATOM     94  O   UNL A   1      42.756  24.098  36.034  1.00  0.00    -0.237 OA
ATOM     95  O   UNL A   1      44.782  24.138  37.429  1.00  0.00    -0.237 OA
ATOM     96  O   UNL A   1      43.520  26.210  37.082  1.00  0.00    -0.744 OA
ENDBRANCH  90  93
ENDBRANCH  63  86
ENDBRANCH  37  38
ENDBRANCH  29  32
ENDBRANCH  27  28
ENDBRANCH   1  27
TORSDOF 15
ENDMDL
