MODEL 1
REMARK VINA RESULT:     -12.1      0.000      0.000
REMARK SMILES [NH3+][C@H](CS[C@@H]1CC(=O)N(c2ccc3ccccc3c2)C1=O)C(=O)NCCCNC(=O)c1ccc(-c2c3nc(c(-c4cccc(S(=O)(=O)[O-])c4F)c4ccc([nH]4)c(-c4cccc(S(=O)(=O)[O-])c4F)c4nc(c(-c5cccc(S(=O)(=O)[O-])c5F)c5ccc2[nH]5)C=C4)C=C3)cc1
REMARK SMILES IDX 25 1 24 2 22 3 23 4 2 6 1 7 3 11 4 12 5 13 6 14 20 15 7 16
REMARK SMILES IDX 9 17 21 18 8 19 10 20 11 21 19 22 12 23 18 24 13 25 17 26
REMARK SMILES IDX 14 27 16 28 15 29 26 30 27 31 28 32 29 33 30 35 31 36 32 37
REMARK SMILES IDX 93 38 33 39 92 40 34 41 35 42 36 43 86 44 37 45 91 46 85 47
REMARK SMILES IDX 87 48 38 49 90 50 84 51 83 52 39 54 71 55 51 56 70 57 52 58
REMARK SMILES IDX 55 59 69 60 88 61 53 62 54 63 68 65 89 66 56 67 40 68 41 69
REMARK SMILES IDX 49 70 42 71 44 72 50 73 43 74 45 75 46 76 47 77 48 78 72 79
REMARK SMILES IDX 73 80 81 81 74 82 76 83 82 84 75 85 77 86 78 87 79 88 80 89
REMARK SMILES IDX 57 90 58 91 66 92 59 93 61 94 67 95 60 96 62 97 63 98 64 99
REMARK SMILES IDX 65 100
REMARK H PARENT 24 5 1 8 1 9 1 10 28 34 87 53 55 64
REMARK Flexibility Score: inf
ROOT
ATOM      1  C   UNL A   1      33.730  28.456  24.931  1.00  0.00     0.118 C 
ENDROOT
BRANCH   1   2
ATOM      2  N   UNL A   1      33.659  27.461  23.874  1.00  0.00    -0.351 N 
ATOM      3  C   UNL A   1      33.247  27.726  22.594  1.00  0.00     0.279 C 
ATOM      4  O   UNL A   1      34.108  27.675  21.707  1.00  0.00    -0.268 OA
ATOM      5  H   UNL A   1      33.923  26.537  24.092  1.00  0.00     0.163 HD
BRANCH   3   6
ATOM      6  C   UNL A   1      31.799  28.154  22.255  1.00  0.00     0.280 C 
BRANCH   6   7
ATOM      7  N   UNL A   1      31.666  29.627  22.333  1.00  0.00    -0.347 N 
ATOM      8  H   UNL A   1      32.591  30.054  22.289  1.00  0.00     0.345 HD
ATOM      9  H   UNL A   1      31.216  29.881  23.212  1.00  0.00     0.345 HD
ATOM     10  H   UNL A   1      31.101  29.959  21.552  1.00  0.00     0.345 HD
ENDBRANCH   6   7
BRANCH   6  11
ATOM     11  C   UNL A   1      30.593  27.403  22.871  1.00  0.00     0.145 C 
BRANCH  11  12
ATOM     12  S   UNL A   1      30.522  27.065  24.662  1.00  0.00    -0.141 SA
BRANCH  12  13
ATOM     13  C   UNL A   1      30.377  25.240  24.694  1.00  0.00     0.146 C 
ATOM     14  C   UNL A   1      30.179  24.729  26.108  1.00  0.00     0.125 C 
ATOM     15  C   UNL A   1      31.638  24.549  24.235  1.00  0.00     0.247 C 
ATOM     16  C   UNL A   1      31.456  24.007  26.435  1.00  0.00     0.235 C 
ATOM     17  N   UNL A   1      32.234  23.919  25.303  1.00  0.00    -0.250 N 
ATOM     18  O   UNL A   1      31.991  24.546  23.060  1.00  0.00    -0.273 OA
ATOM     19  O   UNL A   1      31.701  23.607  27.559  1.00  0.00    -0.274 OA
BRANCH  17  20
ATOM     20  C   UNL A   1      33.492  23.246  25.246  1.00  0.00     0.052 A 
ATOM     21  C   UNL A   1      33.594  21.908  24.848  1.00  0.00     0.027 A 
ATOM     22  C   UNL A   1      34.680  23.900  25.605  1.00  0.00     0.035 A 
ATOM     23  C   UNL A   1      34.837  21.262  24.784  1.00  0.00     0.011 A 
ATOM     24  C   UNL A   1      35.926  23.249  25.623  1.00  0.00    -0.016 A 
ATOM     25  C   UNL A   1      36.013  21.917  25.175  1.00  0.00    -0.018 A 
ATOM     26  C   UNL A   1      37.084  23.896  26.089  1.00  0.00     0.009 A 
ATOM     27  C   UNL A   1      37.268  21.284  25.142  1.00  0.00     0.009 A 
ATOM     28  C   UNL A   1      38.318  23.246  26.082  1.00  0.00     0.001 A 
ATOM     29  C   UNL A   1      38.412  21.946  25.591  1.00  0.00     0.001 A 
ENDBRANCH  17  20
ENDBRANCH  12  13
ENDBRANCH  11  12
ENDBRANCH   6  11
ENDBRANCH   3   6
ENDBRANCH   1   2
BRANCH   1  30
ATOM     30  C   UNL A   1      34.005  27.943  26.340  1.00  0.00     0.042 C 
BRANCH  30  31
ATOM     31  C   UNL A   1      33.288  28.643  27.493  1.00  0.00     0.118 C 
BRANCH  31  32
ATOM     32  N   UNL A   1      33.420  30.089  27.492  1.00  0.00    -0.352 N 
ATOM     33  C   UNL A   1      34.520  30.848  27.824  1.00  0.00     0.251 C 
ATOM     34  H   UNL A   1      32.619  30.592  27.219  1.00  0.00     0.163 HD
ATOM     35  O   UNL A   1      34.447  32.073  27.805  1.00  0.00    -0.269 OA
BRANCH  33  36
ATOM     36  C   UNL A   1      35.773  30.190  28.261  1.00  0.00     0.039 A 
ATOM     37  C   UNL A   1      36.852  30.157  27.372  1.00  0.00     0.014 A 
ATOM     38  C   UNL A   1      35.895  29.612  29.528  1.00  0.00     0.014 A 
ATOM     39  C   UNL A   1      38.072  29.607  27.776  1.00  0.00     0.010 A 
ATOM     40  C   UNL A   1      37.126  29.091  29.941  1.00  0.00     0.010 A 
ATOM     41  C   UNL A   1      38.231  29.096  29.076  1.00  0.00    -0.014 A 
BRANCH  41  42
ATOM     42  C   UNL A   1      39.564  28.629  29.550  1.00  0.00     0.031 A 
ATOM     43  C   UNL A   1      40.316  29.369  30.622  1.00  0.00     0.074 A 
ATOM     44  C   UNL A   1      40.138  27.561  28.957  1.00  0.00     0.049 A 
ATOM     45  N   UNL A   1      41.484  29.094  31.145  1.00  0.00    -0.248 NA
ATOM     46  C   UNL A   1      39.684  30.580  31.166  1.00  0.00     0.031 C 
ATOM     47  C   UNL A   1      39.554  26.796  27.855  1.00  0.00     0.029 A 
ATOM     48  N   UNL A   1      41.348  26.952  29.180  1.00  0.00    -0.354 N 
ATOM     49  C   UNL A   1      41.741  30.106  32.063  1.00  0.00     0.074 A 
ATOM     50  C   UNL A   1      40.615  31.015  32.008  1.00  0.00     0.031 C 
ATOM     51  C   UNL A   1      40.408  25.825  27.495  1.00  0.00     0.029 A 
ATOM     52  C   UNL A   1      41.605  25.904  28.326  1.00  0.00     0.049 A 
ATOM     53  H   UNL A   1      41.973  27.236  29.886  1.00  0.00     0.167 HD
ATOM     54  C   UNL A   1      42.801  30.252  32.894  1.00  0.00     0.034 A 
ATOM     55  C   UNL A   1      42.683  25.100  28.219  1.00  0.00     0.034 A 
ATOM     56  C   UNL A   1      43.904  29.331  32.981  1.00  0.00     0.049 A 
ATOM     57  C   UNL A   1      43.830  25.262  29.177  1.00  0.00     0.074 A 
ATOM     58  C   UNL A   1      44.972  29.349  33.863  1.00  0.00     0.029 A 
ATOM     59  N   UNL A   1      44.090  28.233  32.155  1.00  0.00    -0.354 N 
ATOM     60  N   UNL A   1      43.965  26.115  30.162  1.00  0.00    -0.248 NA
ATOM     61  C   UNL A   1      44.958  24.328  29.035  1.00  0.00     0.031 C 
ATOM     62  C   UNL A   1      45.811  28.271  33.560  1.00  0.00     0.029 A 
ATOM     63  C   UNL A   1      45.259  27.575  32.499  1.00  0.00     0.049 A 
ATOM     64  H   UNL A   1      43.480  27.961  31.432  1.00  0.00     0.167 HD
ATOM     65  C   UNL A   1      45.171  25.799  30.779  1.00  0.00     0.074 A 
ATOM     66  C   UNL A   1      45.721  24.664  30.067  1.00  0.00     0.031 C 
ATOM     67  C   UNL A   1      45.773  26.407  31.830  1.00  0.00     0.034 A 
BRANCH  54  68
ATOM     68  C   UNL A   1      42.796  31.425  33.839  1.00  0.00     0.023 A 
ATOM     69  C   UNL A   1      43.291  32.667  33.394  1.00  0.00     0.012 A 
ATOM     70  C   UNL A   1      42.231  31.326  35.125  1.00  0.00     0.148 A 
ATOM     71  C   UNL A   1      43.249  33.788  34.222  1.00  0.00     0.002 A 
ATOM     72  C   UNL A   1      42.160  32.456  35.934  1.00  0.00     0.091 A 
ATOM     73  F   UNL A   1      41.783  30.132  35.540  1.00  0.00    -0.205 F 
ATOM     74  C   UNL A   1      42.675  33.684  35.487  1.00  0.00     0.022 A 
BRANCH  72  75
ATOM     75  S   UNL A   1      41.372  32.439  37.548  1.00  0.00     0.127 S 
ATOM     76  O   UNL A   1      42.192  31.467  38.268  1.00  0.00    -0.237 OA
ATOM     77  O   UNL A   1      41.536  33.824  37.991  1.00  0.00    -0.237 OA
ATOM     78  O   UNL A   1      39.990  32.043  37.311  1.00  0.00    -0.744 OA
ENDBRANCH  72  75
ENDBRANCH  54  68
BRANCH  55  79
ATOM     79  C   UNL A   1      42.687  24.007  27.205  1.00  0.00     0.023 A 
ATOM     80  C   UNL A   1      43.281  24.237  25.949  1.00  0.00     0.012 A 
ATOM     81  C   UNL A   1      42.143  22.739  27.487  1.00  0.00     0.148 A 
ATOM     82  C   UNL A   1      43.312  23.231  24.983  1.00  0.00     0.002 A 
ATOM     83  C   UNL A   1      42.224  21.726  26.539  1.00  0.00     0.091 A 
ATOM     84  F   UNL A   1      41.565  22.547  28.681  1.00  0.00    -0.205 F 
ATOM     85  C   UNL A   1      42.793  21.974  25.280  1.00  0.00     0.022 A 
BRANCH  83  86
ATOM     86  S   UNL A   1      41.704  20.043  26.892  1.00  0.00     0.127 S 
ATOM     87  O   UNL A   1      40.330  20.242  27.343  1.00  0.00    -0.237 OA
ATOM     88  O   UNL A   1      41.837  19.400  25.584  1.00  0.00    -0.237 OA
ATOM     89  O   UNL A   1      42.640  19.550  27.894  1.00  0.00    -0.744 OA
ENDBRANCH  83  86
ENDBRANCH  55  79
BRANCH  67  90
ATOM     90  C   UNL A   1      47.091  25.851  32.307  1.00  0.00     0.023 A 
ATOM     91  C   UNL A   1      47.118  24.993  33.424  1.00  0.00     0.012 A 
ATOM     92  C   UNL A   1      48.282  26.106  31.600  1.00  0.00     0.148 A 
ATOM     93  C   UNL A   1      48.317  24.413  33.843  1.00  0.00     0.002 A 
ATOM     94  C   UNL A   1      49.465  25.491  31.997  1.00  0.00     0.091 A 
ATOM     95  F   UNL A   1      48.239  26.941  30.551  1.00  0.00    -0.205 F 
ATOM     96  C   UNL A   1      49.485  24.651  33.123  1.00  0.00     0.022 A 
BRANCH  94  97
ATOM     97  S   UNL A   1      51.000  25.670  31.081  1.00  0.00     0.127 S 
ATOM     98  O   UNL A   1      50.620  25.173  29.760  1.00  0.00    -0.237 OA
ATOM     99  O   UNL A   1      51.234  27.114  31.144  1.00  0.00    -0.237 OA
ATOM    100  O   UNL A   1      51.987  24.868  31.792  1.00  0.00    -0.744 OA
ENDBRANCH  94  97
ENDBRANCH  67  90
ENDBRANCH  41  42
ENDBRANCH  33  36
ENDBRANCH  31  32
ENDBRANCH  30  31
ENDBRANCH   1  30
TORSDOF 18
ENDMDL
MODEL 2
REMARK VINA RESULT:     -12.0      3.819      8.845
REMARK SMILES [NH3+][C@H](CS[C@@H]1CC(=O)N(c2ccc3ccccc3c2)C1=O)C(=O)NCCCNC(=O)c1ccc(-c2c3nc(c(-c4cccc(S(=O)(=O)[O-])c4F)c4ccc([nH]4)c(-c4cccc(S(=O)(=O)[O-])c4F)c4nc(c(-c5cccc(S(=O)(=O)[O-])c5F)c5ccc2[nH]5)C=C4)C=C3)cc1
REMARK SMILES IDX 25 1 24 2 22 3 23 4 2 6 1 7 3 11 4 12 5 13 6 14 20 15 7 16
REMARK SMILES IDX 9 17 21 18 8 19 10 20 11 21 19 22 12 23 18 24 13 25 17 26
REMARK SMILES IDX 14 27 16 28 15 29 26 30 27 31 28 32 29 33 30 35 31 36 32 37
REMARK SMILES IDX 93 38 33 39 92 40 34 41 35 42 36 43 86 44 37 45 91 46 85 47
REMARK SMILES IDX 87 48 38 49 90 50 84 51 83 52 39 54 71 55 51 56 70 57 52 58
REMARK SMILES IDX 55 59 69 60 88 61 53 62 54 63 68 65 89 66 56 67 40 68 41 69
REMARK SMILES IDX 49 70 42 71 44 72 50 73 43 74 45 75 46 76 47 77 48 78 72 79
REMARK SMILES IDX 73 80 81 81 74 82 76 83 82 84 75 85 77 86 78 87 79 88 80 89
REMARK SMILES IDX 57 90 58 91 66 92 59 93 61 94 67 95 60 96 62 97 63 98 64 99
REMARK SMILES IDX 65 100
REMARK H PARENT 24 5 1 8 1 9 1 10 28 34 87 53 55 64
REMARK Flexibility Score: inf
ROOT
ATOM      1  C   UNL A   1      31.796  30.689  26.110  1.00  0.00     0.118 C 
ENDROOT
BRANCH   1   2
ATOM      2  N   UNL A   1      32.585  29.643  26.738  1.00  0.00    -0.351 N 
ATOM      3  C   UNL A   1      33.731  29.117  26.202  1.00  0.00     0.279 C 
ATOM      4  O   UNL A   1      34.792  29.380  26.781  1.00  0.00    -0.268 OA
ATOM      5  H   UNL A   1      32.275  29.289  27.604  1.00  0.00     0.163 HD
BRANCH   3   6
ATOM      6  C   UNL A   1      33.740  28.300  24.888  1.00  0.00     0.280 C 
BRANCH   6   7
ATOM      7  N   UNL A   1      33.850  29.204  23.720  1.00  0.00    -0.347 N 
ATOM      8  H   UNL A   1      34.740  29.042  23.248  1.00  0.00     0.345 HD
ATOM      9  H   UNL A   1      33.805  30.173  24.035  1.00  0.00     0.345 HD
ATOM     10  H   UNL A   1      33.084  29.020  23.074  1.00  0.00     0.345 HD
ENDBRANCH   6   7
BRANCH   6  11
ATOM     11  C   UNL A   1      32.724  27.151  24.670  1.00  0.00     0.145 C 
BRANCH  11  12
ATOM     12  S   UNL A   1      31.001  27.509  24.187  1.00  0.00    -0.141 SA
BRANCH  12  13
ATOM     13  C   UNL A   1      30.211  25.868  24.373  1.00  0.00     0.146 C 
ATOM     14  C   UNL A   1      29.922  25.558  25.830  1.00  0.00     0.125 C 
ATOM     15  C   UNL A   1      31.110  24.738  23.936  1.00  0.00     0.247 C 
ATOM     16  C   UNL A   1      30.870  24.446  26.178  1.00  0.00     0.235 C 
ATOM     17  N   UNL A   1      31.498  24.006  25.035  1.00  0.00    -0.250 N 
ATOM     18  O   UNL A   1      31.371  24.529  22.755  1.00  0.00    -0.273 OA
ATOM     19  O   UNL A   1      31.018  24.059  27.323  1.00  0.00    -0.274 OA
BRANCH  17  20
ATOM     20  C   UNL A   1      32.424  22.920  24.997  1.00  0.00     0.052 A 
ATOM     21  C   UNL A   1      33.794  23.112  25.210  1.00  0.00     0.027 A 
ATOM     22  C   UNL A   1      31.994  21.611  24.731  1.00  0.00     0.035 A 
ATOM     23  C   UNL A   1      34.691  22.035  25.184  1.00  0.00     0.011 A 
ATOM     24  C   UNL A   1      32.886  20.529  24.622  1.00  0.00    -0.016 A 
ATOM     25  C   UNL A   1      34.254  20.737  24.884  1.00  0.00    -0.018 A 
ATOM     26  C   UNL A   1      32.443  19.249  24.248  1.00  0.00     0.009 A 
ATOM     27  C   UNL A   1      35.137  19.643  24.830  1.00  0.00     0.009 A 
ATOM     28  C   UNL A   1      33.334  18.180  24.165  1.00  0.00     0.001 A 
ATOM     29  C   UNL A   1      34.678  18.374  24.474  1.00  0.00     0.001 A 
ENDBRANCH  17  20
ENDBRANCH  12  13
ENDBRANCH  11  12
ENDBRANCH   6  11
ENDBRANCH   3   6
ENDBRANCH   1   2
BRANCH   1  30
ATOM     30  C   UNL A   1      31.518  31.935  26.945  1.00  0.00     0.042 C 
BRANCH  30  31
ATOM     31  C   UNL A   1      32.723  32.764  27.387  1.00  0.00     0.118 C 
BRANCH  31  32
ATOM     32  N   UNL A   1      32.411  34.138  27.735  1.00  0.00    -0.352 N 
ATOM     33  C   UNL A   1      33.062  34.966  28.622  1.00  0.00     0.251 C 
ATOM     34  H   UNL A   1      31.632  34.530  27.276  1.00  0.00     0.163 HD
ATOM     35  O   UNL A   1      32.637  36.100  28.827  1.00  0.00    -0.269 OA
BRANCH  33  36
ATOM     36  C   UNL A   1      34.239  34.472  29.374  1.00  0.00     0.039 A 
ATOM     37  C   UNL A   1      34.029  33.881  30.624  1.00  0.00     0.014 A 
ATOM     38  C   UNL A   1      35.535  34.584  28.863  1.00  0.00     0.014 A 
ATOM     39  C   UNL A   1      35.109  33.343  31.330  1.00  0.00     0.010 A 
ATOM     40  C   UNL A   1      36.609  34.015  29.556  1.00  0.00     0.010 A 
ATOM     41  C   UNL A   1      36.406  33.376  30.789  1.00  0.00    -0.014 A 
BRANCH  41  42
ATOM     42  C   UNL A   1      37.534  32.688  31.478  1.00  0.00     0.031 A 
ATOM     43  C   UNL A   1      38.234  31.514  30.852  1.00  0.00     0.074 A 
ATOM     44  C   UNL A   1      37.888  33.084  32.719  1.00  0.00     0.049 A 
ATOM     45  N   UNL A   1      39.231  30.807  31.320  1.00  0.00    -0.248 NA
ATOM     46  C   UNL A   1      37.744  31.067  29.539  1.00  0.00     0.031 C 
ATOM     47  C   UNL A   1      37.245  34.159  33.475  1.00  0.00     0.029 A 
ATOM     48  N   UNL A   1      38.856  32.612  33.571  1.00  0.00    -0.354 N 
ATOM     49  C   UNL A   1      39.476  29.817  30.374  1.00  0.00     0.074 A 
ATOM     50  C   UNL A   1      38.506  30.003  29.316  1.00  0.00     0.031 C 
ATOM     51  C   UNL A   1      37.830  34.261  34.678  1.00  0.00     0.029 A 
ATOM     52  C   UNL A   1      38.879  33.251  34.789  1.00  0.00     0.049 A 
ATOM     53  H   UNL A   1      39.476  31.886  33.332  1.00  0.00     0.167 HD
ATOM     54  C   UNL A   1      40.435  28.860  30.374  1.00  0.00     0.034 A 
ATOM     55  C   UNL A   1      39.653  33.048  35.875  1.00  0.00     0.034 A 
ATOM     56  C   UNL A   1      41.427  28.696  31.405  1.00  0.00     0.049 A 
ATOM     57  C   UNL A   1      40.733  32.002  35.834  1.00  0.00     0.074 A 
ATOM     58  C   UNL A   1      42.495  27.815  31.438  1.00  0.00     0.029 A 
ATOM     59  N   UNL A   1      41.470  29.417  32.588  1.00  0.00    -0.354 N 
ATOM     60  N   UNL A   1      41.065  31.201  34.852  1.00  0.00    -0.248 NA
ATOM     61  C   UNL A   1      41.570  31.857  37.035  1.00  0.00     0.031 C 
ATOM     62  C   UNL A   1      43.176  27.995  32.647  1.00  0.00     0.029 A 
ATOM     63  C   UNL A   1      42.539  28.994  33.361  1.00  0.00     0.049 A 
ATOM     64  H   UNL A   1      40.836  30.126  32.840  1.00  0.00     0.167 HD
ATOM     65  C   UNL A   1      42.169  30.484  35.301  1.00  0.00     0.074 A 
ATOM     66  C   UNL A   1      42.460  30.957  36.638  1.00  0.00     0.031 C 
ATOM     67  C   UNL A   1      42.866  29.510  34.666  1.00  0.00     0.034 A 
BRANCH  54  68
ATOM     68  C   UNL A   1      40.512  27.944  29.181  1.00  0.00     0.023 A 
ATOM     69  C   UNL A   1      39.589  26.884  29.069  1.00  0.00     0.012 A 
ATOM     70  C   UNL A   1      41.429  28.175  28.138  1.00  0.00     0.148 A 
ATOM     71  C   UNL A   1      39.594  26.052  27.951  1.00  0.00     0.002 A 
ATOM     72  C   UNL A   1      41.405  27.363  27.009  1.00  0.00     0.091 A 
ATOM     73  F   UNL A   1      42.312  29.176  28.270  1.00  0.00    -0.205 F 
ATOM     74  C   UNL A   1      40.495  26.297  26.917  1.00  0.00     0.022 A 
BRANCH  72  75
ATOM     75  S   UNL A   1      42.475  27.647  25.594  1.00  0.00     0.127 S 
ATOM     76  O   UNL A   1      42.200  26.469  24.773  1.00  0.00    -0.237 OA
ATOM     77  O   UNL A   1      41.952  28.903  25.053  1.00  0.00    -0.237 OA
ATOM     78  O   UNL A   1      43.827  27.739  26.130  1.00  0.00    -0.744 OA
ENDBRANCH  72  75
ENDBRANCH  54  68
BRANCH  55  79
ATOM     79  C   UNL A   1      39.481  33.917  37.074  1.00  0.00     0.023 A 
ATOM     80  C   UNL A   1      39.888  35.264  37.012  1.00  0.00     0.012 A 
ATOM     81  C   UNL A   1      38.888  33.432  38.255  1.00  0.00     0.148 A 
ATOM     82  C   UNL A   1      39.730  36.106  38.113  1.00  0.00     0.002 A 
ATOM     83  C   UNL A   1      38.686  34.290  39.331  1.00  0.00     0.091 A 
ATOM     84  F   UNL A   1      38.525  32.143  38.301  1.00  0.00    -0.205 F 
ATOM     85  C   UNL A   1      39.120  35.623  39.267  1.00  0.00     0.022 A 
BRANCH  83  86
ATOM     86  S   UNL A   1      37.786  33.784  40.801  1.00  0.00     0.127 S 
ATOM     87  O   UNL A   1      37.590  35.058  41.486  1.00  0.00    -0.237 OA
ATOM     88  O   UNL A   1      36.573  33.198  40.230  1.00  0.00    -0.237 OA
ATOM     89  O   UNL A   1      38.650  32.824  41.474  1.00  0.00    -0.744 OA
ENDBRANCH  83  86
ENDBRANCH  55  79
BRANCH  67  90
ATOM     90  C   UNL A   1      44.037  28.894  35.387  1.00  0.00     0.023 A 
ATOM     91  C   UNL A   1      45.320  29.455  35.233  1.00  0.00     0.012 A 
ATOM     92  C   UNL A   1      43.853  27.823  36.284  1.00  0.00     0.148 A 
ATOM     93  C   UNL A   1      46.407  28.944  35.943  1.00  0.00     0.002 A 
ATOM     94  C   UNL A   1      44.933  27.347  37.020  1.00  0.00     0.091 A 
ATOM     95  F   UNL A   1      42.628  27.290  36.403  1.00  0.00    -0.205 F 
ATOM     96  C   UNL A   1      46.212  27.901  36.845  1.00  0.00     0.022 A 
BRANCH  94  97
ATOM     97  S   UNL A   1      44.759  26.064  38.267  1.00  0.00     0.127 S 
ATOM     98  O   UNL A   1      46.121  25.540  38.349  1.00  0.00    -0.237 OA
ATOM     99  O   UNL A   1      44.327  26.826  39.440  1.00  0.00    -0.237 OA
ATOM    100  O   UNL A   1      43.761  25.137  37.750  1.00  0.00    -0.744 OA
ENDBRANCH  94  97
ENDBRANCH  67  90
ENDBRANCH  41  42
ENDBRANCH  33  36
ENDBRANCH  31  32
ENDBRANCH  30  31
ENDBRANCH   1  30
TORSDOF 18
ENDMDL
MODEL 3
REMARK VINA RESULT:     -11.9      4.901      8.341
REMARK SMILES [NH3+][C@H](CS[C@@H]1CC(=O)N(c2ccc3ccccc3c2)C1=O)C(=O)NCCCNC(=O)c1ccc(-c2c3nc(c(-c4cccc(S(=O)(=O)[O-])c4F)c4ccc([nH]4)c(-c4cccc(S(=O)(=O)[O-])c4F)c4nc(c(-c5cccc(S(=O)(=O)[O-])c5F)c5ccc2[nH]5)C=C4)C=C3)cc1
REMARK SMILES IDX 25 1 24 2 22 3 23 4 2 6 1 7 3 11 4 12 5 13 6 14 20 15 7 16
REMARK SMILES IDX 9 17 21 18 8 19 10 20 11 21 19 22 12 23 18 24 13 25 17 26
REMARK SMILES IDX 14 27 16 28 15 29 26 30 27 31 28 32 29 33 30 35 31 36 32 37
REMARK SMILES IDX 93 38 33 39 92 40 34 41 35 42 36 43 86 44 37 45 91 46 85 47
REMARK SMILES IDX 87 48 38 49 90 50 84 51 83 52 39 54 71 55 51 56 70 57 52 58
REMARK SMILES IDX 55 59 69 60 88 61 53 62 54 63 68 65 89 66 56 67 40 68 41 69
REMARK SMILES IDX 49 70 42 71 44 72 50 73 43 74 45 75 46 76 47 77 48 78 72 79
REMARK SMILES IDX 73 80 81 81 74 82 76 83 82 84 75 85 77 86 78 87 79 88 80 89
REMARK SMILES IDX 57 90 58 91 66 92 59 93 61 94 67 95 60 96 62 97 63 98 64 99
REMARK SMILES IDX 65 100
REMARK H PARENT 24 5 1 8 1 9 1 10 28 34 87 53 55 64
REMARK Flexibility Score: inf
ROOT
ATOM      1  C   UNL A   1      36.596  19.779  24.727  1.00  0.00     0.118 C 
ENDROOT
BRANCH   1   2
ATOM      2  N   UNL A   1      35.885  18.528  24.936  1.00  0.00    -0.351 N 
ATOM      3  C   UNL A   1      34.604  18.291  24.510  1.00  0.00     0.279 C 
ATOM      4  O   UNL A   1      34.462  17.476  23.590  1.00  0.00    -0.268 OA
ATOM      5  H   UNL A   1      36.353  17.806  25.417  1.00  0.00     0.163 HD
BRANCH   3   6
ATOM      6  C   UNL A   1      33.381  19.053  25.075  1.00  0.00     0.280 C 
BRANCH   6   7
ATOM      7  N   UNL A   1      32.871  18.377  26.290  1.00  0.00    -0.347 N 
ATOM      8  H   UNL A   1      33.372  17.500  26.428  1.00  0.00     0.345 HD
ATOM      9  H   UNL A   1      31.875  18.185  26.179  1.00  0.00     0.345 HD
ATOM     10  H   UNL A   1      33.012  18.981  27.100  1.00  0.00     0.345 HD
ENDBRANCH   6   7
BRANCH   6  11
ATOM     11  C   UNL A   1      32.253  19.537  24.132  1.00  0.00     0.145 C 
BRANCH  11  12
ATOM     12  S   UNL A   1      32.212  21.260  23.535  1.00  0.00    -0.141 SA
BRANCH  12  13
ATOM     13  C   UNL A   1      32.788  22.181  25.009  1.00  0.00     0.146 C 
ATOM     14  C   UNL A   1      31.773  22.108  26.134  1.00  0.00     0.125 C 
ATOM     15  C   UNL A   1      32.931  23.661  24.750  1.00  0.00     0.247 C 
ATOM     16  C   UNL A   1      31.229  23.503  26.249  1.00  0.00     0.235 C 
ATOM     17  N   UNL A   1      31.961  24.347  25.444  1.00  0.00    -0.250 N 
ATOM     18  O   UNL A   1      33.833  24.119  24.055  1.00  0.00    -0.273 OA
ATOM     19  O   UNL A   1      30.271  23.767  26.953  1.00  0.00    -0.274 OA
BRANCH  17  20
ATOM     20  C   UNL A   1      31.747  25.756  25.356  1.00  0.00     0.052 A 
ATOM     21  C   UNL A   1      31.084  26.333  24.267  1.00  0.00     0.027 A 
ATOM     22  C   UNL A   1      32.208  26.622  26.358  1.00  0.00     0.035 A 
ATOM     23  C   UNL A   1      30.868  27.717  24.199  1.00  0.00     0.011 A 
ATOM     24  C   UNL A   1      32.071  28.019  26.272  1.00  0.00    -0.016 A 
ATOM     25  C   UNL A   1      31.362  28.576  25.191  1.00  0.00    -0.018 A 
ATOM     26  C   UNL A   1      32.637  28.871  27.237  1.00  0.00     0.009 A 
ATOM     27  C   UNL A   1      31.178  29.969  25.134  1.00  0.00     0.009 A 
ATOM     28  C   UNL A   1      32.475  30.254  27.151  1.00  0.00     0.001 A 
ATOM     29  C   UNL A   1      31.730  30.801  26.110  1.00  0.00     0.001 A 
ENDBRANCH  17  20
ENDBRANCH  12  13
ENDBRANCH  11  12
ENDBRANCH   6  11
ENDBRANCH   3   6
ENDBRANCH   1   2
BRANCH   1  30
ATOM     30  C   UNL A   1      38.115  19.694  24.616  1.00  0.00     0.042 C 
BRANCH  30  31
ATOM     31  C   UNL A   1      38.929  20.074  25.852  1.00  0.00     0.118 C 
BRANCH  31  32
ATOM     32  N   UNL A   1      40.117  19.266  26.059  1.00  0.00    -0.352 N 
ATOM     33  C   UNL A   1      41.369  19.672  26.464  1.00  0.00     0.251 C 
ATOM     34  H   UNL A   1      40.015  18.301  25.886  1.00  0.00     0.163 HD
ATOM     35  O   UNL A   1      42.280  18.854  26.551  1.00  0.00    -0.269 OA
BRANCH  33  36
ATOM     36  C   UNL A   1      41.634  21.103  26.737  1.00  0.00     0.039 A 
ATOM     37  C   UNL A   1      42.146  21.457  27.990  1.00  0.00     0.014 A 
ATOM     38  C   UNL A   1      41.386  22.090  25.780  1.00  0.00     0.014 A 
ATOM     39  C   UNL A   1      42.473  22.790  28.258  1.00  0.00     0.010 A 
ATOM     40  C   UNL A   1      41.745  23.418  26.039  1.00  0.00     0.010 A 
ATOM     41  C   UNL A   1      42.305  23.780  27.274  1.00  0.00    -0.014 A 
BRANCH  41  42
ATOM     42  C   UNL A   1      42.774  25.173  27.512  1.00  0.00     0.031 A 
ATOM     43  C   UNL A   1      41.893  26.193  28.180  1.00  0.00     0.074 A 
ATOM     44  C   UNL A   1      43.989  25.547  27.058  1.00  0.00     0.049 A 
ATOM     45  N   UNL A   1      42.151  27.445  28.460  1.00  0.00    -0.248 NA
ATOM     46  C   UNL A   1      40.544  25.756  28.570  1.00  0.00     0.031 C 
ATOM     47  C   UNL A   1      44.917  24.682  26.328  1.00  0.00     0.029 A 
ATOM     48  N   UNL A   1      44.640  26.754  27.120  1.00  0.00    -0.354 N 
ATOM     49  C   UNL A   1      40.994  27.955  29.038  1.00  0.00     0.074 A 
ATOM     50  C   UNL A   1      40.024  26.881  29.047  1.00  0.00     0.031 C 
ATOM     51  C   UNL A   1      46.012  25.387  26.005  1.00  0.00     0.029 A 
ATOM     52  C   UNL A   1      45.863  26.756  26.489  1.00  0.00     0.049 A 
ATOM     53  H   UNL A   1      44.268  27.544  27.575  1.00  0.00     0.167 HD
ATOM     54  C   UNL A   1      40.768  29.194  29.539  1.00  0.00     0.034 A 
ATOM     55  C   UNL A   1      46.762  27.746  26.315  1.00  0.00     0.034 A 
ATOM     56  C   UNL A   1      41.742  30.254  29.569  1.00  0.00     0.049 A 
ATOM     57  C   UNL A   1      46.501  29.101  26.912  1.00  0.00     0.074 A 
ATOM     58  C   UNL A   1      41.631  31.508  30.145  1.00  0.00     0.029 A 
ATOM     59  N   UNL A   1      43.001  30.192  28.993  1.00  0.00    -0.354 N 
ATOM     60  N   UNL A   1      45.474  29.506  27.618  1.00  0.00    -0.248 NA
ATOM     61  C   UNL A   1      47.538  30.127  26.722  1.00  0.00     0.031 C 
ATOM     62  C   UNL A   1      42.817  32.210  29.904  1.00  0.00     0.029 A 
ATOM     63  C   UNL A   1      43.671  31.388  29.190  1.00  0.00     0.049 A 
ATOM     64  H   UNL A   1      43.366  29.413  28.515  1.00  0.00     0.167 HD
ATOM     65  C   UNL A   1      45.756  30.817  27.987  1.00  0.00     0.074 A 
ATOM     66  C   UNL A   1      47.059  31.134  27.440  1.00  0.00     0.031 C 
ATOM     67  C   UNL A   1      44.994  31.682  28.699  1.00  0.00     0.034 A 
BRANCH  54  68
ATOM     68  C   UNL A   1      39.426  29.462  30.168  1.00  0.00     0.023 A 
ATOM     69  C   UNL A   1      39.178  29.001  31.477  1.00  0.00     0.012 A 
ATOM     70  C   UNL A   1      38.450  30.233  29.509  1.00  0.00     0.148 A 
ATOM     71  C   UNL A   1      37.969  29.281  32.112  1.00  0.00     0.002 A 
ATOM     72  C   UNL A   1      37.260  30.539  30.162  1.00  0.00     0.091 A 
ATOM     73  F   UNL A   1      38.695  30.647  28.258  1.00  0.00    -0.205 F 
ATOM     74  C   UNL A   1      37.015  30.057  31.459  1.00  0.00     0.022 A 
BRANCH  72  75
ATOM     75  S   UNL A   1      36.003  31.595  29.431  1.00  0.00     0.127 S 
ATOM     76  O   UNL A   1      36.772  32.796  29.116  1.00  0.00    -0.237 OA
ATOM     77  O   UNL A   1      35.580  30.817  28.266  1.00  0.00    -0.237 OA
ATOM     78  O   UNL A   1      34.976  31.755  30.452  1.00  0.00    -0.744 OA
ENDBRANCH  72  75
ENDBRANCH  54  68
BRANCH  55  79
ATOM     79  C   UNL A   1      48.040  27.462  25.602  1.00  0.00     0.023 A 
ATOM     80  C   UNL A   1      49.140  26.970  26.331  1.00  0.00     0.012 A 
ATOM     81  C   UNL A   1      48.161  27.640  24.211  1.00  0.00     0.148 A 
ATOM     82  C   UNL A   1      50.346  26.684  25.691  1.00  0.00     0.002 A 
ATOM     83  C   UNL A   1      49.349  27.303  23.571  1.00  0.00     0.091 A 
ATOM     84  F   UNL A   1      47.109  28.127  23.538  1.00  0.00    -0.205 F 
ATOM     85  C   UNL A   1      50.448  26.840  24.311  1.00  0.00     0.022 A 
BRANCH  83  86
ATOM     86  S   UNL A   1      49.517  27.345  21.783  1.00  0.00     0.127 S 
ATOM     87  O   UNL A   1      49.462  28.778  21.510  1.00  0.00    -0.237 OA
ATOM     88  O   UNL A   1      50.830  26.729  21.585  1.00  0.00    -0.237 OA
ATOM     89  O   UNL A   1      48.406  26.554  21.270  1.00  0.00    -0.744 OA
ENDBRANCH  83  86
ENDBRANCH  55  79
BRANCH  67  90
ATOM     90  C   UNL A   1      45.548  33.058  28.965  1.00  0.00     0.023 A 
ATOM     91  C   UNL A   1      46.318  33.286  30.122  1.00  0.00     0.012 A 
ATOM     92  C   UNL A   1      45.383  34.098  28.028  1.00  0.00     0.148 A 
ATOM     93  C   UNL A   1      46.898  34.534  30.353  1.00  0.00     0.002 A 
ATOM     94  C   UNL A   1      45.998  35.325  28.245  1.00  0.00     0.091 A 
ATOM     95  F   UNL A   1      44.630  33.867  26.941  1.00  0.00    -0.205 F 
ATOM     96  C   UNL A   1      46.749  35.548  29.411  1.00  0.00     0.022 A 
BRANCH  94  97
ATOM     97  S   UNL A   1      45.933  36.662  27.044  1.00  0.00     0.127 S 
ATOM     98  O   UNL A   1      44.501  36.947  26.992  1.00  0.00    -0.237 OA
ATOM     99  O   UNL A   1      46.739  37.700  27.690  1.00  0.00    -0.237 OA
ATOM    100  O   UNL A   1      46.511  36.127  25.819  1.00  0.00    -0.744 OA
ENDBRANCH  94  97
ENDBRANCH  67  90
ENDBRANCH  41  42
ENDBRANCH  33  36
ENDBRANCH  31  32
ENDBRANCH  30  31
ENDBRANCH   1  30
TORSDOF 18
ENDMDL
