MODEL 1
REMARK VINA RESULT:     -12.8      0.000      0.000
REMARK SMILES Cc1ccccc1OCC(=O)Nc1ccc2c(c1)C(=O)N(CC(=O)NCCCNC(=O)c1ccc(-c3c4nc(c(-c5cccc(S(=O)(=O)[O-])c5F)c5ccc([nH]5)c(-c5cccc(S(=O)(=O)[O-])c5F)c5nc(c(-c6cccc(S(=O)(=O)[O-])c6F)c6ccc3[nH]6)C=C5)C=C4)cc1)C2=O
REMARK SMILES IDX 26 1 25 2 23 3 24 4 22 6 21 7 13 8 14 9 18 10 15 11 17 12
REMARK SMILES IDX 16 13 19 14 95 15 20 16 96 17 12 18 10 19 11 20 9 22 8 23
REMARK SMILES IDX 7 24 1 25 2 26 3 27 4 28 6 29 5 30 27 31 28 32 29 33 30 34
REMARK SMILES IDX 31 36 32 37 33 38 94 39 34 40 93 41 35 42 36 43 37 44 87 45
REMARK SMILES IDX 38 46 92 47 86 48 88 49 39 50 91 51 85 52 84 53 40 55 72 56
REMARK SMILES IDX 52 57 71 58 53 59 56 60 70 61 89 62 54 63 55 64 69 66 90 67
REMARK SMILES IDX 57 68 41 69 42 70 50 71 43 72 45 73 51 74 44 75 46 76 47 77
REMARK SMILES IDX 48 78 49 79 73 80 74 81 82 82 75 83 77 84 83 85 76 86 78 87
REMARK SMILES IDX 79 88 80 89 81 90 58 91 59 92 67 93 60 94 62 95 68 96 61 97
REMARK SMILES IDX 63 98 64 99 65 100 66 101
REMARK H PARENT 25 5 12 21 29 35 88 54 56 65
REMARK Flexibility Score: inf
ROOT
ATOM      1  C   UNL A   1      33.002  29.902  25.335  1.00  0.00     0.117 C 
ENDROOT
BRANCH   1   2
ATOM      2  N   UNL A   1      31.852  29.529  24.533  1.00  0.00    -0.354 N 
ATOM      3  C   UNL A   1      31.003  28.471  24.684  1.00  0.00     0.240 C 
ATOM      4  O   UNL A   1      29.993  28.433  23.978  1.00  0.00    -0.273 OA
ATOM      5  H   UNL A   1      31.656  30.125  23.773  1.00  0.00     0.163 HD
BRANCH   3   6
ATOM      6  C   UNL A   1      31.296  27.367  25.703  1.00  0.00     0.229 C 
BRANCH   6   7
ATOM      7  N   UNL A   1      31.704  26.148  25.035  1.00  0.00    -0.265 N 
ATOM      8  C   UNL A   1      32.414  21.914  23.457  1.00  0.00     0.042 A 
ATOM      9  C   UNL A   1      33.314  22.601  22.619  1.00  0.00     0.027 A 
ATOM     10  C   UNL A   1      31.603  22.617  24.349  1.00  0.00     0.040 A 
ATOM     11  C   UNL A   1      33.467  23.993  22.707  1.00  0.00     0.017 A 
ATOM     12  C   UNL A   1      31.812  23.971  24.453  1.00  0.00     0.055 A 
ATOM     13  C   UNL A   1      32.720  24.649  23.664  1.00  0.00     0.053 A 
ATOM     14  C   UNL A   1      31.220  24.923  25.374  1.00  0.00     0.262 C 
ATOM     15  C   UNL A   1      32.668  26.059  24.063  1.00  0.00     0.262 C 
ATOM     16  O   UNL A   1      30.471  24.602  26.285  1.00  0.00    -0.269 OA
ATOM     17  O   UNL A   1      33.359  26.935  23.587  1.00  0.00    -0.269 OA
BRANCH   8  18
ATOM     18  N   UNL A   1      32.282  20.525  23.498  1.00  0.00    -0.323 N 
ATOM     19  C   UNL A   1      32.534  19.674  24.533  1.00  0.00     0.262 C 
ATOM     20  O   UNL A   1      31.978  18.570  24.492  1.00  0.00    -0.271 OA
ATOM     21  H   UNL A   1      31.964  20.103  22.668  1.00  0.00     0.170 HD
BRANCH  19  22
ATOM     22  C   UNL A   1      33.307  20.107  25.789  1.00  0.00     0.329 C 
BRANCH  22  23
ATOM     23  O   UNL A   1      34.700  20.324  25.823  1.00  0.00    -0.483 OA
BRANCH  23  24
ATOM     24  C   UNL A   1      35.236  21.556  25.598  1.00  0.00     0.122 A 
ATOM     25  C   UNL A   1      33.971  23.001  27.337  1.00  0.00     0.048 C 
ATOM     26  C   UNL A   1      34.970  22.770  26.243  1.00  0.00    -0.009 A 
ATOM     27  C   UNL A   1      35.685  23.918  25.833  1.00  0.00     0.007 A 
ATOM     28  C   UNL A   1      36.585  23.883  24.768  1.00  0.00     0.001 A 
ATOM     29  C   UNL A   1      36.119  21.546  24.501  1.00  0.00     0.047 A 
ATOM     30  C   UNL A   1      36.791  22.694  24.088  1.00  0.00     0.004 A 
ENDBRANCH  23  24
ENDBRANCH  22  23
ENDBRANCH  19  22
ENDBRANCH   8  18
ENDBRANCH   6   7
ENDBRANCH   3   6
ENDBRANCH   1   2
BRANCH   1  31
ATOM     31  C   UNL A   1      32.641  30.845  26.464  1.00  0.00     0.042 C 
BRANCH  31  32
ATOM     32  C   UNL A   1      33.498  30.705  27.700  1.00  0.00     0.118 C 
BRANCH  32  33
ATOM     33  N   UNL A   1      34.587  31.657  27.724  1.00  0.00    -0.352 N 
ATOM     34  C   UNL A   1      35.815  31.539  28.348  1.00  0.00     0.251 C 
ATOM     35  H   UNL A   1      34.433  32.496  27.232  1.00  0.00     0.163 HD
ATOM     36  O   UNL A   1      36.412  32.560  28.672  1.00  0.00    -0.269 OA
BRANCH  34  37
ATOM     37  C   UNL A   1      36.474  30.205  28.402  1.00  0.00     0.039 A 
ATOM     38  C   UNL A   1      36.672  29.713  29.698  1.00  0.00     0.014 A 
ATOM     39  C   UNL A   1      37.275  29.756  27.360  1.00  0.00     0.014 A 
ATOM     40  C   UNL A   1      37.881  29.115  30.013  1.00  0.00     0.010 A 
ATOM     41  C   UNL A   1      38.513  29.273  27.676  1.00  0.00     0.010 A 
ATOM     42  C   UNL A   1      38.839  29.059  29.017  1.00  0.00    -0.014 A 
BRANCH  42  43
ATOM     43  C   UNL A   1      40.208  28.653  29.202  1.00  0.00     0.031 A 
ATOM     44  C   UNL A   1      40.483  27.221  28.989  1.00  0.00     0.074 A 
ATOM     45  C   UNL A   1      41.125  29.648  29.177  1.00  0.00     0.049 A 
ATOM     46  N   UNL A   1      41.607  26.649  29.212  1.00  0.00    -0.248 NA
ATOM     47  C   UNL A   1      39.453  26.297  28.506  1.00  0.00     0.031 C 
ATOM     48  C   UNL A   1      42.515  29.556  28.755  1.00  0.00     0.029 A 
ATOM     49  N   UNL A   1      41.012  30.993  29.558  1.00  0.00    -0.354 N 
ATOM     50  C   UNL A   1      41.554  25.408  28.603  1.00  0.00     0.074 A 
ATOM     51  C   UNL A   1      40.161  25.180  28.331  1.00  0.00     0.031 C 
ATOM     52  C   UNL A   1      43.169  30.654  29.177  1.00  0.00     0.029 A 
ATOM     53  C   UNL A   1      42.267  31.360  30.070  1.00  0.00     0.049 A 
ATOM     54  H   UNL A   1      40.214  31.564  29.482  1.00  0.00     0.167 HD
ATOM     55  C   UNL A   1      42.731  24.827  28.233  1.00  0.00     0.034 A 
ATOM     56  C   UNL A   1      42.513  31.560  31.406  1.00  0.00     0.034 A 
ATOM     57  C   UNL A   1      43.851  25.648  28.735  1.00  0.00     0.049 A 
ATOM     58  C   UNL A   1      43.467  30.512  31.984  1.00  0.00     0.074 A 
ATOM     59  C   UNL A   1      44.634  26.623  28.137  1.00  0.00     0.029 A 
ATOM     60  N   UNL A   1      44.018  25.806  30.110  1.00  0.00    -0.354 N 
ATOM     61  N   UNL A   1      43.822  29.427  31.347  1.00  0.00    -0.248 NA
ATOM     62  C   UNL A   1      44.096  30.594  33.301  1.00  0.00     0.031 C 
ATOM     63  C   UNL A   1      45.159  27.454  29.170  1.00  0.00     0.029 A 
ATOM     64  C   UNL A   1      44.736  26.962  30.395  1.00  0.00     0.049 A 
ATOM     65  H   UNL A   1      43.673  25.182  30.789  1.00  0.00     0.167 HD
ATOM     66  C   UNL A   1      44.596  28.634  32.144  1.00  0.00     0.074 A 
ATOM     67  C   UNL A   1      44.797  29.444  33.336  1.00  0.00     0.031 C 
ATOM     68  C   UNL A   1      44.964  27.364  31.784  1.00  0.00     0.034 A 
BRANCH  55  69
ATOM     69  C   UNL A   1      42.911  23.721  27.196  1.00  0.00     0.023 A 
ATOM     70  C   UNL A   1      43.547  24.093  25.988  1.00  0.00     0.012 A 
ATOM     71  C   UNL A   1      42.462  22.376  27.256  1.00  0.00     0.148 A 
ATOM     72  C   UNL A   1      43.677  23.223  24.899  1.00  0.00     0.002 A 
ATOM     73  C   UNL A   1      42.583  21.505  26.165  1.00  0.00     0.091 A 
ATOM     74  F   UNL A   1      41.927  21.892  28.374  1.00  0.00    -0.205 F 
ATOM     75  C   UNL A   1      43.183  21.930  24.980  1.00  0.00     0.022 A 
BRANCH  73  76
ATOM     76  S   UNL A   1      41.966  19.806  26.191  1.00  0.00     0.127 S 
ATOM     77  O   UNL A   1      42.711  19.193  25.091  1.00  0.00    -0.237 OA
ATOM     78  O   UNL A   1      42.364  19.351  27.523  1.00  0.00    -0.237 OA
ATOM     79  O   UNL A   1      40.527  19.882  25.973  1.00  0.00    -0.744 OA
ENDBRANCH  73  76
ENDBRANCH  55  69
BRANCH  56  80
ATOM     80  C   UNL A   1      41.362  32.183  32.130  1.00  0.00     0.023 A 
ATOM     81  C   UNL A   1      40.872  33.401  31.597  1.00  0.00     0.012 A 
ATOM     82  C   UNL A   1      40.517  31.409  32.941  1.00  0.00     0.148 A 
ATOM     83  C   UNL A   1      39.518  33.723  31.683  1.00  0.00     0.002 A 
ATOM     84  C   UNL A   1      39.164  31.732  33.016  1.00  0.00     0.091 A 
ATOM     85  F   UNL A   1      41.026  30.336  33.560  1.00  0.00    -0.205 F 
ATOM     86  C   UNL A   1      38.654  32.855  32.343  1.00  0.00     0.022 A 
BRANCH  84  87
ATOM     87  S   UNL A   1      37.979  30.646  33.822  1.00  0.00     0.127 S 
ATOM     88  O   UNL A   1      36.717  31.112  33.258  1.00  0.00    -0.237 OA
ATOM     89  O   UNL A   1      38.404  29.327  33.359  1.00  0.00    -0.237 OA
ATOM     90  O   UNL A   1      38.168  30.871  35.248  1.00  0.00    -0.744 OA
ENDBRANCH  84  87
ENDBRANCH  56  80
BRANCH  68  91
ATOM     91  C   UNL A   1      45.583  26.362  32.736  1.00  0.00     0.023 A 
ATOM     92  C   UNL A   1      46.976  26.265  32.918  1.00  0.00     0.012 A 
ATOM     93  C   UNL A   1      44.768  25.594  33.604  1.00  0.00     0.148 A 
ATOM     94  C   UNL A   1      47.537  25.387  33.850  1.00  0.00     0.002 A 
ATOM     95  C   UNL A   1      45.328  24.831  34.622  1.00  0.00     0.091 A 
ATOM     96  F   UNL A   1      43.436  25.586  33.441  1.00  0.00    -0.205 F 
ATOM     97  C   UNL A   1      46.712  24.688  34.719  1.00  0.00     0.022 A 
BRANCH  95  98
ATOM     98  S   UNL A   1      44.310  24.156  35.940  1.00  0.00     0.127 S 
ATOM     99  O   UNL A   1      43.224  25.130  36.013  1.00  0.00    -0.237 OA
ATOM    100  O   UNL A   1      43.925  22.850  35.400  1.00  0.00    -0.237 OA
ATOM    101  O   UNL A   1      45.187  24.082  37.102  1.00  0.00    -0.744 OA
ENDBRANCH  95  98
ENDBRANCH  68  91
ENDBRANCH  42  43
ENDBRANCH  34  37
ENDBRANCH  32  33
ENDBRANCH  31  32
ENDBRANCH   1  31
TORSDOF 18
ENDMDL
MODEL 2
REMARK VINA RESULT:     -12.6      1.063      2.146
REMARK SMILES Cc1ccccc1OCC(=O)Nc1ccc2c(c1)C(=O)N(CC(=O)NCCCNC(=O)c1ccc(-c3c4nc(c(-c5cccc(S(=O)(=O)[O-])c5F)c5ccc([nH]5)c(-c5cccc(S(=O)(=O)[O-])c5F)c5nc(c(-c6cccc(S(=O)(=O)[O-])c6F)c6ccc3[nH]6)C=C5)C=C4)cc1)C2=O
REMARK SMILES IDX 26 1 25 2 23 3 24 4 22 6 21 7 13 8 14 9 18 10 15 11 17 12
REMARK SMILES IDX 16 13 19 14 95 15 20 16 96 17 12 18 10 19 11 20 9 22 8 23
REMARK SMILES IDX 7 24 1 25 2 26 3 27 4 28 6 29 5 30 27 31 28 32 29 33 30 34
REMARK SMILES IDX 31 36 32 37 33 38 94 39 34 40 93 41 35 42 36 43 37 44 87 45
REMARK SMILES IDX 38 46 92 47 86 48 88 49 39 50 91 51 85 52 84 53 40 55 72 56
REMARK SMILES IDX 52 57 71 58 53 59 56 60 70 61 89 62 54 63 55 64 69 66 90 67
REMARK SMILES IDX 57 68 41 69 42 70 50 71 43 72 45 73 51 74 44 75 46 76 47 77
REMARK SMILES IDX 48 78 49 79 73 80 74 81 82 82 75 83 77 84 83 85 76 86 78 87
REMARK SMILES IDX 79 88 80 89 81 90 58 91 59 92 67 93 60 94 62 95 68 96 61 97
REMARK SMILES IDX 63 98 64 99 65 100 66 101
REMARK H PARENT 25 5 12 21 29 35 88 54 56 65
REMARK Flexibility Score: inf
ROOT
ATOM      1  C   UNL A   1      33.136  29.692  25.313  1.00  0.00     0.117 C 
ENDROOT
BRANCH   1   2
ATOM      2  N   UNL A   1      32.119  29.004  24.540  1.00  0.00    -0.354 N 
ATOM      3  C   UNL A   1      31.175  28.112  24.959  1.00  0.00     0.240 C 
ATOM      4  O   UNL A   1      30.305  27.768  24.157  1.00  0.00    -0.273 OA
ATOM      5  H   UNL A   1      32.109  29.211  23.577  1.00  0.00     0.163 HD
BRANCH   3   6
ATOM      6  C   UNL A   1      31.194  27.559  26.387  1.00  0.00     0.229 C 
BRANCH   6   7
ATOM      7  N   UNL A   1      31.786  26.237  26.416  1.00  0.00    -0.265 N 
ATOM      8  C   UNL A   1      34.408  22.490  26.406  1.00  0.00     0.042 A 
ATOM      9  C   UNL A   1      33.158  21.866  26.587  1.00  0.00     0.027 A 
ATOM     10  C   UNL A   1      34.506  23.881  26.373  1.00  0.00     0.040 A 
ATOM     11  C   UNL A   1      31.977  22.622  26.670  1.00  0.00     0.017 A 
ATOM     12  C   UNL A   1      33.330  24.593  26.400  1.00  0.00     0.055 A 
ATOM     13  C   UNL A   1      32.095  23.990  26.539  1.00  0.00     0.053 A 
ATOM     14  C   UNL A   1      33.118  26.021  26.251  1.00  0.00     0.262 C 
ATOM     15  C   UNL A   1      31.091  25.059  26.521  1.00  0.00     0.262 C 
ATOM     16  O   UNL A   1      34.012  26.810  25.983  1.00  0.00    -0.269 OA
ATOM     17  O   UNL A   1      29.895  24.879  26.596  1.00  0.00    -0.269 OA
BRANCH   8  18
ATOM     18  N   UNL A   1      35.608  21.802  26.213  1.00  0.00    -0.323 N 
ATOM     19  C   UNL A   1      36.524  21.947  25.213  1.00  0.00     0.262 C 
ATOM     20  O   UNL A   1      37.670  21.547  25.448  1.00  0.00    -0.271 OA
ATOM     21  H   UNL A   1      35.822  21.121  26.891  1.00  0.00     0.170 HD
BRANCH  19  22
ATOM     22  C   UNL A   1      36.224  22.735  23.928  1.00  0.00     0.329 C 
BRANCH  22  23
ATOM     23  O   UNL A   1      35.198  22.404  23.020  1.00  0.00    -0.483 OA
BRANCH  23  24
ATOM     24  C   UNL A   1      34.028  23.101  22.981  1.00  0.00     0.122 A 
ATOM     25  C   UNL A   1      32.280  21.188  22.975  1.00  0.00     0.048 C 
ATOM     26  C   UNL A   1      32.711  22.625  22.977  1.00  0.00    -0.009 A 
ATOM     27  C   UNL A   1      31.657  23.566  22.954  1.00  0.00     0.007 A 
ATOM     28  C   UNL A   1      31.896  24.936  22.864  1.00  0.00     0.001 A 
ATOM     29  C   UNL A   1      34.252  24.485  22.852  1.00  0.00     0.047 A 
ATOM     30  C   UNL A   1      33.200  25.398  22.797  1.00  0.00     0.004 A 
ENDBRANCH  23  24
ENDBRANCH  22  23
ENDBRANCH  19  22
ENDBRANCH   8  18
ENDBRANCH   6   7
ENDBRANCH   3   6
ENDBRANCH   1   2
BRANCH   1  31
ATOM     31  C   UNL A   1      32.546  30.648  26.328  1.00  0.00     0.042 C 
BRANCH  31  32
ATOM     32  C   UNL A   1      33.254  30.668  27.661  1.00  0.00     0.118 C 
BRANCH  32  33
ATOM     33  N   UNL A   1      34.322  31.643  27.702  1.00  0.00    -0.352 N 
ATOM     34  C   UNL A   1      35.545  31.548  28.340  1.00  0.00     0.251 C 
ATOM     35  H   UNL A   1      34.156  32.482  27.213  1.00  0.00     0.163 HD
ATOM     36  O   UNL A   1      36.116  32.581  28.675  1.00  0.00    -0.269 OA
BRANCH  34  37
ATOM     37  C   UNL A   1      36.232  30.229  28.396  1.00  0.00     0.039 A 
ATOM     38  C   UNL A   1      36.431  29.738  29.692  1.00  0.00     0.014 A 
ATOM     39  C   UNL A   1      37.051  29.800  27.359  1.00  0.00     0.014 A 
ATOM     40  C   UNL A   1      37.649  29.165  30.015  1.00  0.00     0.010 A 
ATOM     41  C   UNL A   1      38.297  29.344  27.683  1.00  0.00     0.010 A 
ATOM     42  C   UNL A   1      38.616  29.132  29.026  1.00  0.00    -0.014 A 
BRANCH  42  43
ATOM     43  C   UNL A   1      39.992  28.755  29.221  1.00  0.00     0.031 A 
ATOM     44  C   UNL A   1      40.295  27.326  29.027  1.00  0.00     0.074 A 
ATOM     45  C   UNL A   1      40.890  29.767  29.186  1.00  0.00     0.049 A 
ATOM     46  N   UNL A   1      41.429  26.778  29.262  1.00  0.00    -0.248 NA
ATOM     47  C   UNL A   1      39.285  26.376  28.553  1.00  0.00     0.031 C 
ATOM     48  C   UNL A   1      42.283  29.696  28.771  1.00  0.00     0.029 A 
ATOM     49  N   UNL A   1      40.750  31.114  29.550  1.00  0.00    -0.354 N 
ATOM     50  C   UNL A   1      41.402  25.529  28.668  1.00  0.00     0.074 A 
ATOM     51  C   UNL A   1      40.015  25.271  28.394  1.00  0.00     0.031 C 
ATOM     52  C   UNL A   1      42.914  30.812  29.181  1.00  0.00     0.029 A 
ATOM     53  C   UNL A   1      41.995  31.512  30.062  1.00  0.00     0.049 A 
ATOM     54  H   UNL A   1      39.941  31.669  29.464  1.00  0.00     0.167 HD
ATOM     55  C   UNL A   1      42.591  24.967  28.310  1.00  0.00     0.034 A 
ATOM     56  C   UNL A   1      42.232  31.733  31.396  1.00  0.00     0.034 A 
ATOM     57  C   UNL A   1      43.694  25.815  28.805  1.00  0.00     0.049 A 
ATOM     58  C   UNL A   1      43.204  30.711  31.990  1.00  0.00     0.074 A 
ATOM     59  C   UNL A   1      44.460  26.798  28.198  1.00  0.00     0.029 A 
ATOM     60  N   UNL A   1      43.853  25.994  30.178  1.00  0.00    -0.354 N 
ATOM     61  N   UNL A   1      43.583  29.625  31.369  1.00  0.00    -0.248 NA
ATOM     62  C   UNL A   1      43.827  30.822  33.308  1.00  0.00     0.031 C 
ATOM     63  C   UNL A   1      44.965  27.651  29.222  1.00  0.00     0.029 A 
ATOM     64  C   UNL A   1      44.547  27.167  30.451  1.00  0.00     0.049 A 
ATOM     65  H   UNL A   1      43.517  25.372  30.864  1.00  0.00     0.167 HD
ATOM     66  C   UNL A   1      44.369  28.858  32.178  1.00  0.00     0.074 A 
ATOM     67  C   UNL A   1      44.549  29.687  33.361  1.00  0.00     0.031 C 
ATOM     68  C   UNL A   1      44.763  27.591  31.836  1.00  0.00     0.034 A 
BRANCH  55  69
ATOM     69  C   UNL A   1      42.797  23.851  27.288  1.00  0.00     0.023 A 
ATOM     70  C   UNL A   1      43.448  24.215  26.086  1.00  0.00     0.012 A 
ATOM     71  C   UNL A   1      42.359  22.503  27.355  1.00  0.00     0.148 A 
ATOM     72  C   UNL A   1      43.602  23.335  25.008  1.00  0.00     0.002 A 
ATOM     73  C   UNL A   1      42.503  21.621  26.275  1.00  0.00     0.091 A 
ATOM     74  F   UNL A   1      41.810  22.026  28.470  1.00  0.00    -0.205 F 
ATOM     75  C   UNL A   1      43.118  22.039  25.095  1.00  0.00     0.022 A 
BRANCH  73  76
ATOM     76  S   UNL A   1      41.900  19.918  26.310  1.00  0.00     0.127 S 
ATOM     77  O   UNL A   1      40.451  20.104  26.231  1.00  0.00    -0.237 OA
ATOM     78  O   UNL A   1      42.505  19.349  25.106  1.00  0.00    -0.237 OA
ATOM     79  O   UNL A   1      42.364  19.336  27.563  1.00  0.00    -0.744 OA
ENDBRANCH  73  76
ENDBRANCH  55  69
BRANCH  56  80
ATOM     80  C   UNL A   1      41.068  32.343  32.108  1.00  0.00     0.023 A 
ATOM     81  C   UNL A   1      40.606  33.585  31.604  1.00  0.00     0.012 A 
ATOM     82  C   UNL A   1      40.191  31.550  32.866  1.00  0.00     0.148 A 
ATOM     83  C   UNL A   1      39.253  33.918  31.662  1.00  0.00     0.002 A 
ATOM     84  C   UNL A   1      38.839  31.886  32.913  1.00  0.00     0.091 A 
ATOM     85  F   UNL A   1      40.671  30.451  33.461  1.00  0.00    -0.205 F 
ATOM     86  C   UNL A   1      38.361  33.038  32.266  1.00  0.00     0.022 A 
BRANCH  84  87
ATOM     87  S   UNL A   1      37.620  30.786  33.646  1.00  0.00     0.127 S 
ATOM     88  O   UNL A   1      37.562  31.278  35.017  1.00  0.00    -0.237 OA
ATOM     89  O   UNL A   1      36.430  31.068  32.846  1.00  0.00    -0.237 OA
ATOM     90  O   UNL A   1      38.161  29.447  33.465  1.00  0.00    -0.744 OA
ENDBRANCH  84  87
ENDBRANCH  56  80
BRANCH  68  91
ATOM     91  C   UNL A   1      45.397  26.613  32.802  1.00  0.00     0.023 A 
ATOM     92  C   UNL A   1      46.792  26.536  32.980  1.00  0.00     0.012 A 
ATOM     93  C   UNL A   1      44.594  25.851  33.688  1.00  0.00     0.148 A 
ATOM     94  C   UNL A   1      47.367  25.681  33.925  1.00  0.00     0.002 A 
ATOM     95  C   UNL A   1      45.167  25.112  34.716  1.00  0.00     0.091 A 
ATOM     96  F   UNL A   1      43.262  25.824  33.530  1.00  0.00    -0.205 F 
ATOM     97  C   UNL A   1      46.554  24.987  34.810  1.00  0.00     0.022 A 
BRANCH  95  98
ATOM     98  S   UNL A   1      44.163  24.449  36.051  1.00  0.00     0.127 S 
ATOM     99  O   UNL A   1      42.897  24.182  35.373  1.00  0.00    -0.237 OA
ATOM    100  O   UNL A   1      44.912  23.252  36.439  1.00  0.00    -0.237 OA
ATOM    101  O   UNL A   1      44.141  25.491  37.068  1.00  0.00    -0.744 OA
ENDBRANCH  95  98
ENDBRANCH  68  91
ENDBRANCH  42  43
ENDBRANCH  34  37
ENDBRANCH  32  33
ENDBRANCH  31  32
ENDBRANCH   1  31
TORSDOF 18
ENDMDL
MODEL 3
REMARK VINA RESULT:     -12.4      2.869      4.072
REMARK SMILES Cc1ccccc1OCC(=O)Nc1ccc2c(c1)C(=O)N(CC(=O)NCCCNC(=O)c1ccc(-c3c4nc(c(-c5cccc(S(=O)(=O)[O-])c5F)c5ccc([nH]5)c(-c5cccc(S(=O)(=O)[O-])c5F)c5nc(c(-c6cccc(S(=O)(=O)[O-])c6F)c6ccc3[nH]6)C=C5)C=C4)cc1)C2=O
REMARK SMILES IDX 26 1 25 2 23 3 24 4 22 6 21 7 13 8 14 9 18 10 15 11 17 12
REMARK SMILES IDX 16 13 19 14 95 15 20 16 96 17 12 18 10 19 11 20 9 22 8 23
REMARK SMILES IDX 7 24 1 25 2 26 3 27 4 28 6 29 5 30 27 31 28 32 29 33 30 34
REMARK SMILES IDX 31 36 32 37 33 38 94 39 34 40 93 41 35 42 36 43 37 44 87 45
REMARK SMILES IDX 38 46 92 47 86 48 88 49 39 50 91 51 85 52 84 53 40 55 72 56
REMARK SMILES IDX 52 57 71 58 53 59 56 60 70 61 89 62 54 63 55 64 69 66 90 67
REMARK SMILES IDX 57 68 41 69 42 70 50 71 43 72 45 73 51 74 44 75 46 76 47 77
REMARK SMILES IDX 48 78 49 79 73 80 74 81 82 82 75 83 77 84 83 85 76 86 78 87
REMARK SMILES IDX 79 88 80 89 81 90 58 91 59 92 67 93 60 94 62 95 68 96 61 97
REMARK SMILES IDX 63 98 64 99 65 100 66 101
REMARK H PARENT 25 5 12 21 29 35 88 54 56 65
REMARK Flexibility Score: inf
ROOT
ATOM      1  C   UNL A   1      33.609  30.368  26.978  1.00  0.00     0.117 C 
ENDROOT
BRANCH   1   2
ATOM      2  N   UNL A   1      32.719  29.436  27.645  1.00  0.00    -0.354 N 
ATOM      3  C   UNL A   1      31.879  28.507  27.101  1.00  0.00     0.240 C 
ATOM      4  O   UNL A   1      31.328  27.709  27.861  1.00  0.00    -0.273 OA
ATOM      5  H   UNL A   1      32.722  29.480  28.629  1.00  0.00     0.163 HD
BRANCH   3   6
ATOM      6  C   UNL A   1      31.635  28.457  25.591  1.00  0.00     0.229 C 
BRANCH   6   7
ATOM      7  N   UNL A   1      32.239  27.273  25.014  1.00  0.00    -0.265 N 
ATOM      8  C   UNL A   1      34.808  23.710  23.736  1.00  0.00     0.042 A 
ATOM      9  C   UNL A   1      33.700  23.478  22.897  1.00  0.00     0.027 A 
ATOM     10  C   UNL A   1      34.788  24.757  24.658  1.00  0.00     0.040 A 
ATOM     11  C   UNL A   1      32.585  24.331  22.918  1.00  0.00     0.017 A 
ATOM     12  C   UNL A   1      33.709  25.607  24.619  1.00  0.00     0.055 A 
ATOM     13  C   UNL A   1      32.635  25.412  23.773  1.00  0.00     0.053 A 
ATOM     14  C   UNL A   1      33.481  26.836  25.357  1.00  0.00     0.262 C 
ATOM     15  C   UNL A   1      31.694  26.512  24.012  1.00  0.00     0.262 C 
ATOM     16  O   UNL A   1      34.314  27.344  26.093  1.00  0.00    -0.269 OA
ATOM     17  O   UNL A   1      30.649  26.663  23.416  1.00  0.00    -0.269 OA
BRANCH   8  18
ATOM     18  N   UNL A   1      35.991  22.970  23.698  1.00  0.00    -0.323 N 
ATOM     19  C   UNL A   1      36.444  22.040  24.586  1.00  0.00     0.262 C 
ATOM     20  O   UNL A   1      37.284  21.234  24.166  1.00  0.00    -0.271 OA
ATOM     21  H   UNL A   1      36.576  23.142  22.925  1.00  0.00     0.170 HD
BRANCH  19  22
ATOM     22  C   UNL A   1      35.824  21.858  25.980  1.00  0.00     0.329 C 
BRANCH  22  23
ATOM     23  O   UNL A   1      34.670  21.091  26.237  1.00  0.00    -0.483 OA
BRANCH  23  24
ATOM     24  C   UNL A   1      33.421  21.631  26.161  1.00  0.00     0.122 A 
ATOM     25  C   UNL A   1      32.381  20.269  24.218  1.00  0.00     0.048 C 
ATOM     26  C   UNL A   1      32.363  21.301  25.306  1.00  0.00    -0.009 A 
ATOM     27  C   UNL A   1      31.145  22.005  25.443  1.00  0.00     0.007 A 
ATOM     28  C   UNL A   1      31.000  23.054  26.349  1.00  0.00     0.001 A 
ATOM     29  C   UNL A   1      33.271  22.718  27.044  1.00  0.00     0.047 A 
ATOM     30  C   UNL A   1      32.074  23.423  27.143  1.00  0.00     0.004 A 
ENDBRANCH  23  24
ENDBRANCH  22  23
ENDBRANCH  19  22
ENDBRANCH   8  18
ENDBRANCH   6   7
ENDBRANCH   3   6
ENDBRANCH   1   2
BRANCH   1  31
ATOM     31  C   UNL A   1      35.001  30.369  27.576  1.00  0.00     0.042 C 
BRANCH  31  32
ATOM     32  C   UNL A   1      35.128  31.127  28.876  1.00  0.00     0.118 C 
BRANCH  32  33
ATOM     33  N   UNL A   1      34.468  32.413  28.829  1.00  0.00    -0.352 N 
ATOM     34  C   UNL A   1      34.574  33.464  29.722  1.00  0.00     0.251 C 
ATOM     35  H   UNL A   1      33.866  32.559  28.063  1.00  0.00     0.163 HD
ATOM     36  O   UNL A   1      33.642  34.256  29.813  1.00  0.00    -0.269 OA
BRANCH  34  37
ATOM     37  C   UNL A   1      35.886  33.733  30.371  1.00  0.00     0.039 A 
ATOM     38  C   UNL A   1      36.944  33.925  29.474  1.00  0.00     0.014 A 
ATOM     39  C   UNL A   1      36.145  33.313  31.669  1.00  0.00     0.014 A 
ATOM     40  C   UNL A   1      38.165  33.328  29.736  1.00  0.00     0.010 A 
ATOM     41  C   UNL A   1      37.303  32.622  31.891  1.00  0.00     0.010 A 
ATOM     42  C   UNL A   1      38.258  32.549  30.875  1.00  0.00    -0.014 A 
BRANCH  42  43
ATOM     43  C   UNL A   1      39.371  31.702  31.215  1.00  0.00     0.031 A 
ATOM     44  C   UNL A   1      39.414  30.399  30.528  1.00  0.00     0.074 A 
ATOM     45  C   UNL A   1      40.419  32.317  31.812  1.00  0.00     0.049 A 
ATOM     46  N   UNL A   1      40.256  29.466  30.776  1.00  0.00    -0.248 NA
ATOM     47  C   UNL A   1      38.452  30.041  29.482  1.00  0.00     0.031 C 
ATOM     48  C   UNL A   1      41.821  31.935  31.745  1.00  0.00     0.029 A 
ATOM     49  N   UNL A   1      40.449  33.438  32.653  1.00  0.00    -0.354 N 
ATOM     50  C   UNL A   1      40.173  28.561  29.733  1.00  0.00     0.074 A 
ATOM     51  C   UNL A   1      38.942  28.874  29.060  1.00  0.00     0.031 C 
ATOM     52  C   UNL A   1      42.494  32.585  32.713  1.00  0.00     0.029 A 
ATOM     53  C   UNL A   1      41.497  33.218  33.561  1.00  0.00     0.049 A 
ATOM     54  H   UNL A   1      39.855  34.223  32.616  1.00  0.00     0.167 HD
ATOM     55  C   UNL A   1      41.265  27.791  29.466  1.00  0.00     0.034 A 
ATOM     56  C   UNL A   1      41.304  32.900  34.882  1.00  0.00     0.034 A 
ATOM     57  C   UNL A   1      42.283  28.021  30.511  1.00  0.00     0.049 A 
ATOM     58  C   UNL A   1      41.775  31.482  35.214  1.00  0.00     0.074 A 
ATOM     59  C   UNL A   1      43.400  28.842  30.560  1.00  0.00     0.029 A 
ATOM     60  N   UNL A   1      41.996  27.679  31.831  1.00  0.00    -0.354 N 
ATOM     61  N   UNL A   1      42.106  30.599  34.309  1.00  0.00    -0.248 NA
ATOM     62  C   UNL A   1      41.916  30.946  36.567  1.00  0.00     0.031 C 
ATOM     63  C   UNL A   1      43.691  29.099  31.932  1.00  0.00     0.029 A 
ATOM     64  C   UNL A   1      42.785  28.404  32.717  1.00  0.00     0.049 A 
ATOM     65  H   UNL A   1      41.323  27.013  32.100  1.00  0.00     0.167 HD
ATOM     66  C   UNL A   1      42.386  29.397  34.891  1.00  0.00     0.074 A 
ATOM     67  C   UNL A   1      42.320  29.686  36.316  1.00  0.00     0.031 C 
ATOM     68  C   UNL A   1      42.597  28.256  34.161  1.00  0.00     0.034 A 
BRANCH  55  69
ATOM     69  C   UNL A   1      41.569  27.069  28.156  1.00  0.00     0.023 A 
ATOM     70  C   UNL A   1      41.270  27.776  26.967  1.00  0.00     0.012 A 
ATOM     71  C   UNL A   1      42.051  25.747  27.969  1.00  0.00     0.148 A 
ATOM     72  C   UNL A   1      41.381  27.203  25.694  1.00  0.00     0.002 A 
ATOM     73  C   UNL A   1      42.154  25.168  26.697  1.00  0.00     0.091 A 
ATOM     74  F   UNL A   1      42.443  25.018  29.011  1.00  0.00    -0.205 F 
ATOM     75  C   UNL A   1      41.811  25.893  25.557  1.00  0.00     0.022 A 
BRANCH  73  76
ATOM     76  S   UNL A   1      42.706  23.467  26.434  1.00  0.00     0.127 S 
ATOM     77  O   UNL A   1      41.639  22.696  27.073  1.00  0.00    -0.237 OA
ATOM     78  O   UNL A   1      42.734  23.371  24.974  1.00  0.00    -0.237 OA
ATOM     79  O   UNL A   1      44.006  23.345  27.082  1.00  0.00    -0.744 OA
ENDBRANCH  73  76
ENDBRANCH  55  69
BRANCH  56  80
ATOM     80  C   UNL A   1      40.122  33.589  35.486  1.00  0.00     0.023 A 
ATOM     81  C   UNL A   1      38.895  32.880  35.445  1.00  0.00     0.012 A 
ATOM     82  C   UNL A   1      40.291  34.599  36.447  1.00  0.00     0.148 A 
ATOM     83  C   UNL A   1      37.959  33.018  36.469  1.00  0.00     0.002 A 
ATOM     84  C   UNL A   1      39.354  34.725  37.472  1.00  0.00     0.091 A 
ATOM     85  F   UNL A   1      41.389  35.362  36.392  1.00  0.00    -0.205 F 
ATOM     86  C   UNL A   1      38.218  33.899  37.514  1.00  0.00     0.022 A 
BRANCH  84  87
ATOM     87  S   UNL A   1      39.632  35.817  38.873  1.00  0.00     0.127 S 
ATOM     88  O   UNL A   1      38.727  35.257  39.871  1.00  0.00    -0.237 OA
ATOM     89  O   UNL A   1      41.051  35.607  39.151  1.00  0.00    -0.237 OA
ATOM     90  O   UNL A   1      39.306  37.149  38.385  1.00  0.00    -0.744 OA
ENDBRANCH  84  87
ENDBRANCH  56  80
BRANCH  68  91
ATOM     91  C   UNL A   1      42.641  26.866  34.759  1.00  0.00     0.023 A 
ATOM     92  C   UNL A   1      41.496  26.249  35.300  1.00  0.00     0.012 A 
ATOM     93  C   UNL A   1      43.806  26.068  34.645  1.00  0.00     0.148 A 
ATOM     94  C   UNL A   1      41.527  24.939  35.786  1.00  0.00     0.002 A 
ATOM     95  C   UNL A   1      43.791  24.724  35.000  1.00  0.00     0.091 A 
ATOM     96  F   UNL A   1      44.950  26.612  34.203  1.00  0.00    -0.205 F 
ATOM     97  C   UNL A   1      42.668  24.167  35.613  1.00  0.00     0.022 A 
BRANCH  95  98
ATOM     98  S   UNL A   1      45.130  23.625  34.524  1.00  0.00     0.127 S 
ATOM     99  O   UNL A   1      46.155  23.952  35.512  1.00  0.00    -0.237 OA
ATOM    100  O   UNL A   1      44.522  22.303  34.688  1.00  0.00    -0.237 OA
ATOM    101  O   UNL A   1      45.436  23.970  33.141  1.00  0.00    -0.744 OA
ENDBRANCH  95  98
ENDBRANCH  68  91
ENDBRANCH  42  43
ENDBRANCH  34  37
ENDBRANCH  32  33
ENDBRANCH  31  32
ENDBRANCH   1  31
TORSDOF 18
ENDMDL
