MODEL 1
REMARK VINA RESULT:     -11.7      0.000      0.000
REMARK SMILES COc1cccc(NC(=O)COc2csc(C(=O)NCCCNC(=O)c3ccc(-c4c5nc(c(-c6cccc(S(=O)(=O)[O-])c6F)c6ccc([nH]6)c(-c6cccc(S(=O)(=O)[O-])c6F)c6nc(c(-c7cccc(S(=O)(=O)[O-])c7F)c7ccc4[nH]7)C=C6)C=C5)cc3)c2)c1
REMARK SMILES IDX 20 1 19 2 17 3 18 4 16 6 13 7 14 8 89 9 15 10 12 11 11 12
REMARK SMILES IDX 9 13 8 14 10 16 7 17 3 18 4 19 90 20 5 21 6 22 2 23 1 24
REMARK SMILES IDX 21 25 22 26 23 27 24 28 25 30 26 31 27 32 88 33 28 34 87 35
REMARK SMILES IDX 29 36 30 37 31 38 81 39 32 40 86 41 80 42 82 43 33 44 85 45
REMARK SMILES IDX 79 46 78 47 34 49 66 50 46 51 65 52 47 53 50 54 64 55 83 56
REMARK SMILES IDX 48 57 49 58 63 60 84 61 51 62 35 63 36 64 44 65 37 66 39 67
REMARK SMILES IDX 45 68 38 69 40 70 41 71 42 72 43 73 67 74 68 75 76 76 69 77
REMARK SMILES IDX 71 78 77 79 70 80 72 81 73 82 74 83 75 84 52 85 53 86 61 87
REMARK SMILES IDX 54 88 56 89 62 90 55 91 57 92 58 93 59 94 60 95
REMARK H PARENT 19 5 8 15 23 29 82 48 50 59
REMARK Flexibility Score: inf
ROOT
ATOM      1  C   UNL A   1      31.849  28.366  24.047  1.00  0.00     0.118 C 
ENDROOT
BRANCH   1   2
ATOM      2  N   UNL A   1      30.970  27.609  24.917  1.00  0.00    -0.351 N 
ATOM      3  C   UNL A   1      31.115  26.371  25.504  1.00  0.00     0.261 C 
ATOM      4  O   UNL A   1      30.238  26.067  26.315  1.00  0.00    -0.268 OA
ATOM      5  H   UNL A   1      30.119  28.059  25.125  1.00  0.00     0.163 HD
BRANCH   3   6
ATOM      6  C   UNL A   1      32.253  25.517  25.190  1.00  0.00     0.096 A 
ATOM      7  C   UNL A   1      34.231  24.264  25.243  1.00  0.00     0.131 A 
ATOM      8  C   UNL A   1      33.723  23.880  24.027  1.00  0.00     0.112 A 
ATOM      9  C   UNL A   1      33.412  25.231  25.883  1.00  0.00     0.072 A 
ATOM     10  S   UNL A   1      32.252  24.685  23.678  1.00  0.00    -0.135 S 
BRANCH   7  11
ATOM     11  O   UNL A   1      35.310  23.747  25.871  1.00  0.00    -0.483 OA
BRANCH  11  12
ATOM     12  C   UNL A   1      35.216  22.392  26.259  1.00  0.00     0.329 C 
BRANCH  12  13
ATOM     13  C   UNL A   1      36.250  21.404  25.727  1.00  0.00     0.262 C 
ATOM     14  N   UNL A   1      35.936  20.259  25.058  1.00  0.00    -0.323 N 
ATOM     15  H   UNL A   1      36.734  19.778  24.740  1.00  0.00     0.170 HD
ATOM     16  O   UNL A   1      37.456  21.634  25.885  1.00  0.00    -0.271 OA
BRANCH  14  17
ATOM     17  C   UNL A   1      34.741  19.605  24.713  1.00  0.00     0.044 A 
ATOM     18  C   UNL A   1      33.706  17.447  24.234  1.00  0.00     0.120 A 
ATOM     19  C   UNL A   1      32.505  18.088  23.948  1.00  0.00     0.046 A 
ATOM     20  C   UNL A   1      34.819  18.206  24.605  1.00  0.00     0.072 A 
ATOM     21  C   UNL A   1      32.403  19.469  24.096  1.00  0.00     0.006 A 
ATOM     22  C   UNL A   1      33.513  20.222  24.494  1.00  0.00     0.026 A 
BRANCH  18  23
ATOM     23  O   UNL A   1      33.707  16.088  24.071  1.00  0.00    -0.497 OA
ATOM     24  C   UNL A   1      33.302  15.345  25.216  1.00  0.00     0.278 C 
ENDBRANCH  18  23
ENDBRANCH  14  17
ENDBRANCH  12  13
ENDBRANCH  11  12
ENDBRANCH   7  11
ENDBRANCH   3   6
ENDBRANCH   1   2
BRANCH   1  25
ATOM     25  C   UNL A   1      32.840  29.223  24.834  1.00  0.00     0.042 C 
BRANCH  25  26
ATOM     26  C   UNL A   1      32.347  29.613  26.224  1.00  0.00     0.118 C 
BRANCH  26  27
ATOM     27  N   UNL A   1      32.283  31.057  26.398  1.00  0.00    -0.352 N 
ATOM     28  C   UNL A   1      33.022  31.889  27.198  1.00  0.00     0.251 C 
ATOM     29  H   UNL A   1      31.599  31.509  25.853  1.00  0.00     0.163 HD
ATOM     30  O   UNL A   1      32.657  33.055  27.336  1.00  0.00    -0.269 OA
BRANCH  28  31
ATOM     31  C   UNL A   1      34.238  31.409  27.894  1.00  0.00     0.039 A 
ATOM     32  C   UNL A   1      35.230  32.339  28.219  1.00  0.00     0.014 A 
ATOM     33  C   UNL A   1      34.441  30.054  28.168  1.00  0.00     0.014 A 
ATOM     34  C   UNL A   1      36.405  31.917  28.845  1.00  0.00     0.010 A 
ATOM     35  C   UNL A   1      35.578  29.645  28.862  1.00  0.00     0.010 A 
ATOM     36  C   UNL A   1      36.581  30.567  29.189  1.00  0.00    -0.014 A 
BRANCH  36  37
ATOM     37  C   UNL A   1      37.812  30.114  29.886  1.00  0.00     0.031 A 
ATOM     38  C   UNL A   1      38.127  30.592  31.277  1.00  0.00     0.074 A 
ATOM     39  C   UNL A   1      38.687  29.324  29.233  1.00  0.00     0.049 A 
ATOM     40  N   UNL A   1      39.151  30.299  32.036  1.00  0.00    -0.248 NA
ATOM     41  C   UNL A   1      37.186  31.548  31.884  1.00  0.00     0.031 C 
ATOM     42  C   UNL A   1      38.546  28.880  27.845  1.00  0.00     0.029 A 
ATOM     43  N   UNL A   1      39.877  28.777  29.639  1.00  0.00    -0.354 N 
ATOM     44  C   UNL A   1      38.997  31.056  33.191  1.00  0.00     0.074 A 
ATOM     45  C   UNL A   1      37.804  31.854  33.015  1.00  0.00     0.031 C 
ATOM     46  C   UNL A   1      39.607  28.127  27.516  1.00  0.00     0.029 A 
ATOM     47  C   UNL A   1      40.510  28.048  28.660  1.00  0.00     0.049 A 
ATOM     48  H   UNL A   1      40.243  28.895  30.545  1.00  0.00     0.167 HD
ATOM     49  C   UNL A   1      39.758  31.061  34.313  1.00  0.00     0.034 A 
ATOM     50  C   UNL A   1      41.684  27.387  28.681  1.00  0.00     0.034 A 
ATOM     51  C   UNL A   1      40.919  30.233  34.499  1.00  0.00     0.049 A 
ATOM     52  C   UNL A   1      42.472  27.339  29.960  1.00  0.00     0.074 A 
ATOM     53  C   UNL A   1      41.700  30.085  35.631  1.00  0.00     0.029 A 
ATOM     54  N   UNL A   1      41.472  29.418  33.523  1.00  0.00    -0.354 N 
ATOM     55  N   UNL A   1      42.212  27.917  31.108  1.00  0.00    -0.248 NA
ATOM     56  C   UNL A   1      43.689  26.516  29.963  1.00  0.00     0.031 C 
ATOM     57  C   UNL A   1      42.737  29.192  35.332  1.00  0.00     0.029 A 
ATOM     58  C   UNL A   1      42.589  28.768  34.020  1.00  0.00     0.049 A 
ATOM     59  H   UNL A   1      41.122  29.316  32.608  1.00  0.00     0.167 HD
ATOM     60  C   UNL A   1      43.214  27.505  31.979  1.00  0.00     0.074 A 
ATOM     61  C   UNL A   1      44.074  26.611  31.229  1.00  0.00     0.031 C 
ATOM     62  C   UNL A   1      43.411  27.847  33.277  1.00  0.00     0.034 A 
BRANCH  49  63
ATOM     63  C   UNL A   1      39.316  31.953  35.446  1.00  0.00     0.023 A 
ATOM     64  C   UNL A   1      38.412  31.454  36.409  1.00  0.00     0.012 A 
ATOM     65  C   UNL A   1      39.808  33.266  35.581  1.00  0.00     0.148 A 
ATOM     66  C   UNL A   1      37.965  32.263  37.453  1.00  0.00     0.002 A 
ATOM     67  C   UNL A   1      39.392  34.050  36.653  1.00  0.00     0.091 A 
ATOM     68  F   UNL A   1      40.649  33.736  34.648  1.00  0.00    -0.205 F 
ATOM     69  C   UNL A   1      38.462  33.556  37.580  1.00  0.00     0.022 A 
BRANCH  67  70
ATOM     70  S   UNL A   1      40.040  35.701  36.944  1.00  0.00     0.127 S 
ATOM     71  O   UNL A   1      39.375  36.064  38.194  1.00  0.00    -0.237 OA
ATOM     72  O   UNL A   1      41.478  35.454  37.068  1.00  0.00    -0.237 OA
ATOM     73  O   UNL A   1      39.664  36.485  35.776  1.00  0.00    -0.744 OA
ENDBRANCH  67  70
ENDBRANCH  49  63
BRANCH  50  74
ATOM     74  C   UNL A   1      42.122  26.648  27.465  1.00  0.00     0.023 A 
ATOM     75  C   UNL A   1      42.884  27.313  26.487  1.00  0.00     0.012 A 
ATOM     76  C   UNL A   1      41.861  25.271  27.317  1.00  0.00     0.148 A 
ATOM     77  C   UNL A   1      43.366  26.624  25.372  1.00  0.00     0.002 A 
ATOM     78  C   UNL A   1      42.391  24.579  26.234  1.00  0.00     0.091 A 
ATOM     79  F   UNL A   1      41.128  24.660  28.259  1.00  0.00    -0.205 F 
ATOM     80  C   UNL A   1      43.131  25.257  25.253  1.00  0.00     0.022 A 
BRANCH  78  81
ATOM     81  S   UNL A   1      42.265  22.794  26.074  1.00  0.00     0.127 S 
ATOM     82  O   UNL A   1      42.900  22.565  24.778  1.00  0.00    -0.237 OA
ATOM     83  O   UNL A   1      43.037  22.334  27.228  1.00  0.00    -0.237 OA
ATOM     84  O   UNL A   1      40.842  22.490  26.143  1.00  0.00    -0.744 OA
ENDBRANCH  78  81
ENDBRANCH  50  74
BRANCH  62  85
ATOM     85  C   UNL A   1      44.594  27.242  33.986  1.00  0.00     0.023 A 
ATOM     86  C   UNL A   1      45.829  27.920  33.990  1.00  0.00     0.012 A 
ATOM     87  C   UNL A   1      44.461  26.043  34.715  1.00  0.00     0.148 A 
ATOM     88  C   UNL A   1      46.921  27.402  34.684  1.00  0.00     0.002 A 
ATOM     89  C   UNL A   1      45.540  25.557  35.443  1.00  0.00     0.091 A 
ATOM     90  F   UNL A   1      43.284  25.402  34.682  1.00  0.00    -0.205 F 
ATOM     91  C   UNL A   1      46.773  26.228  35.420  1.00  0.00     0.022 A 
BRANCH  89  92
ATOM     92  S   UNL A   1      45.414  24.104  36.493  1.00  0.00     0.127 S 
ATOM     93  O   UNL A   1      46.818  23.825  36.786  1.00  0.00    -0.237 OA
ATOM     94  O   UNL A   1      44.642  24.607  37.630  1.00  0.00    -0.237 OA
ATOM     95  O   UNL A   1      44.726  23.095  35.698  1.00  0.00    -0.744 OA
ENDBRANCH  89  92
ENDBRANCH  62  85
ENDBRANCH  36  37
ENDBRANCH  28  31
ENDBRANCH  26  27
ENDBRANCH  25  26
ENDBRANCH   1  25
TORSDOF 18
ENDMDL
MODEL 2
REMARK VINA RESULT:     -11.4      5.253     10.780
REMARK SMILES COc1cccc(NC(=O)COc2csc(C(=O)NCCCNC(=O)c3ccc(-c4c5nc(c(-c6cccc(S(=O)(=O)[O-])c6F)c6ccc([nH]6)c(-c6cccc(S(=O)(=O)[O-])c6F)c6nc(c(-c7cccc(S(=O)(=O)[O-])c7F)c7ccc4[nH]7)C=C6)C=C5)cc3)c2)c1
REMARK SMILES IDX 20 1 19 2 17 3 18 4 16 6 13 7 14 8 89 9 15 10 12 11 11 12
REMARK SMILES IDX 9 13 8 14 10 16 7 17 3 18 4 19 90 20 5 21 6 22 2 23 1 24
REMARK SMILES IDX 21 25 22 26 23 27 24 28 25 30 26 31 27 32 88 33 28 34 87 35
REMARK SMILES IDX 29 36 30 37 31 38 81 39 32 40 86 41 80 42 82 43 33 44 85 45
REMARK SMILES IDX 79 46 78 47 34 49 66 50 46 51 65 52 47 53 50 54 64 55 83 56
REMARK SMILES IDX 48 57 49 58 63 60 84 61 51 62 35 63 36 64 44 65 37 66 39 67
REMARK SMILES IDX 45 68 38 69 40 70 41 71 42 72 43 73 67 74 68 75 76 76 69 77
REMARK SMILES IDX 71 78 77 79 70 80 72 81 73 82 74 83 75 84 52 85 53 86 61 87
REMARK SMILES IDX 54 88 56 89 62 90 55 91 57 92 58 93 59 94 60 95
REMARK H PARENT 19 5 8 15 23 29 82 48 50 59
REMARK Flexibility Score: inf
ROOT
ATOM      1  C   UNL A   1      37.082  20.481  24.945  1.00  0.00     0.118 C 
ENDROOT
BRANCH   1   2
ATOM      2  N   UNL A   1      35.860  19.704  25.002  1.00  0.00    -0.351 N 
ATOM      3  C   UNL A   1      34.538  20.079  24.910  1.00  0.00     0.261 C 
ATOM      4  O   UNL A   1      33.729  19.150  24.851  1.00  0.00    -0.268 OA
ATOM      5  H   UNL A   1      35.999  18.737  25.128  1.00  0.00     0.163 HD
BRANCH   3   6
ATOM      6  C   UNL A   1      34.155  21.484  24.858  1.00  0.00     0.096 A 
ATOM      7  C   UNL A   1      33.752  23.703  24.226  1.00  0.00     0.131 A 
ATOM      8  C   UNL A   1      33.108  23.667  25.438  1.00  0.00     0.112 A 
ATOM      9  C   UNL A   1      34.385  22.470  23.919  1.00  0.00     0.072 A 
ATOM     10  S   UNL A   1      33.266  22.134  26.187  1.00  0.00    -0.135 S 
BRANCH   7  11
ATOM     11  O   UNL A   1      33.733  24.713  23.327  1.00  0.00    -0.483 OA
BRANCH  11  12
ATOM     12  C   UNL A   1      32.678  24.692  22.389  1.00  0.00     0.329 C 
BRANCH  12  13
ATOM     13  C   UNL A   1      32.646  25.759  21.298  1.00  0.00     0.262 C 
ATOM     14  N   UNL A   1      32.358  27.071  21.525  1.00  0.00    -0.323 N 
ATOM     15  H   UNL A   1      32.442  27.622  20.713  1.00  0.00     0.170 HD
ATOM     16  O   UNL A   1      32.908  25.449  20.129  1.00  0.00    -0.271 OA
BRANCH  14  17
ATOM     17  C   UNL A   1      31.968  27.824  22.645  1.00  0.00     0.044 A 
ATOM     18  C   UNL A   1      30.284  29.342  23.552  1.00  0.00     0.120 A 
ATOM     19  C   UNL A   1      31.030  29.470  24.719  1.00  0.00     0.046 A 
ATOM     20  C   UNL A   1      30.759  28.530  22.518  1.00  0.00     0.072 A 
ATOM     21  C   UNL A   1      32.206  28.741  24.875  1.00  0.00     0.006 A 
ATOM     22  C   UNL A   1      32.664  27.908  23.848  1.00  0.00     0.026 A 
BRANCH  18  23
ATOM     23  O   UNL A   1      29.138  30.087  23.495  1.00  0.00    -0.497 OA
ATOM     24  C   UNL A   1      28.418  29.989  22.271  1.00  0.00     0.278 C 
ENDBRANCH  18  23
ENDBRANCH  14  17
ENDBRANCH  12  13
ENDBRANCH  11  12
ENDBRANCH   7  11
ENDBRANCH   3   6
ENDBRANCH   1   2
BRANCH   1  25
ATOM     25  C   UNL A   1      38.329  19.603  25.051  1.00  0.00     0.042 C 
BRANCH  25  26
ATOM     26  C   UNL A   1      39.303  20.048  26.138  1.00  0.00     0.118 C 
BRANCH  26  27
ATOM     27  N   UNL A   1      40.568  19.329  26.068  1.00  0.00    -0.352 N 
ATOM     28  C   UNL A   1      41.856  19.794  26.092  1.00  0.00     0.251 C 
ATOM     29  H   UNL A   1      40.483  18.352  25.991  1.00  0.00     0.163 HD
ATOM     30  O   UNL A   1      42.770  19.020  25.814  1.00  0.00    -0.269 OA
BRANCH  28  31
ATOM     31  C   UNL A   1      42.162  21.201  26.442  1.00  0.00     0.039 A 
ATOM     32  C   UNL A   1      42.266  21.543  27.793  1.00  0.00     0.014 A 
ATOM     33  C   UNL A   1      42.280  22.192  25.463  1.00  0.00     0.014 A 
ATOM     34  C   UNL A   1      42.520  22.867  28.160  1.00  0.00     0.010 A 
ATOM     35  C   UNL A   1      42.610  23.496  25.827  1.00  0.00     0.010 A 
ATOM     36  C   UNL A   1      42.712  23.852  27.178  1.00  0.00    -0.014 A 
BRANCH  36  37
ATOM     37  C   UNL A   1      43.017  25.255  27.558  1.00  0.00     0.031 A 
ATOM     38  C   UNL A   1      44.420  25.788  27.467  1.00  0.00     0.074 A 
ATOM     39  C   UNL A   1      42.034  26.032  28.056  1.00  0.00     0.049 A 
ATOM     40  N   UNL A   1      44.867  26.984  27.754  1.00  0.00    -0.248 NA
ATOM     41  C   UNL A   1      45.465  24.849  27.028  1.00  0.00     0.031 C 
ATOM     42  C   UNL A   1      40.657  25.598  28.291  1.00  0.00     0.029 A 
ATOM     43  N   UNL A   1      42.050  27.337  28.476  1.00  0.00    -0.354 N 
ATOM     44  C   UNL A   1      46.243  26.932  27.563  1.00  0.00     0.074 A 
ATOM     45  C   UNL A   1      46.563  25.574  27.179  1.00  0.00     0.031 C 
ATOM     46  C   UNL A   1      39.958  26.619  28.812  1.00  0.00     0.029 A 
ATOM     47  C   UNL A   1      40.839  27.773  28.962  1.00  0.00     0.049 A 
ATOM     48  H   UNL A   1      42.850  27.909  28.434  1.00  0.00     0.167 HD
ATOM     49  C   UNL A   1      47.154  27.930  27.663  1.00  0.00     0.034 A 
ATOM     50  C   UNL A   1      40.477  28.967  29.470  1.00  0.00     0.034 A 
ATOM     51  C   UNL A   1      46.824  29.287  28.004  1.00  0.00     0.049 A 
ATOM     52  C   UNL A   1      41.484  30.084  29.497  1.00  0.00     0.074 A 
ATOM     53  C   UNL A   1      47.652  30.395  28.033  1.00  0.00     0.029 A 
ATOM     54  N   UNL A   1      45.563  29.721  28.385  1.00  0.00    -0.354 N 
ATOM     55  N   UNL A   1      42.744  30.064  29.135  1.00  0.00    -0.248 NA
ATOM     56  C   UNL A   1      41.011  31.397  29.957  1.00  0.00     0.031 C 
ATOM     57  C   UNL A   1      46.893  31.497  28.449  1.00  0.00     0.029 A 
ATOM     58  C   UNL A   1      45.588  31.078  28.658  1.00  0.00     0.049 A 
ATOM     59  H   UNL A   1      44.765  29.148  28.451  1.00  0.00     0.167 HD
ATOM     60  C   UNL A   1      43.208  31.364  29.295  1.00  0.00     0.074 A 
ATOM     61  C   UNL A   1      42.085  32.151  29.767  1.00  0.00     0.031 C 
ATOM     62  C   UNL A   1      44.454  31.858  29.085  1.00  0.00     0.034 A 
BRANCH  49  63
ATOM     63  C   UNL A   1      48.589  27.593  27.340  1.00  0.00     0.023 A 
ATOM     64  C   UNL A   1      49.437  27.117  28.363  1.00  0.00     0.012 A 
ATOM     65  C   UNL A   1      49.094  27.719  26.031  1.00  0.00     0.148 A 
ATOM     66  C   UNL A   1      50.774  26.822  28.101  1.00  0.00     0.002 A 
ATOM     67  C   UNL A   1      50.418  27.378  25.769  1.00  0.00     0.091 A 
ATOM     68  F   UNL A   1      48.285  28.193  25.073  1.00  0.00    -0.205 F 
ATOM     69  C   UNL A   1      51.261  26.944  26.803  1.00  0.00     0.022 A 
BRANCH  67  70
ATOM     70  S   UNL A   1      51.112  27.425  24.112  1.00  0.00     0.127 S 
ATOM     71  O   UNL A   1      51.258  28.863  23.894  1.00  0.00    -0.237 OA
ATOM     72  O   UNL A   1      52.374  26.703  24.281  1.00  0.00    -0.237 OA
ATOM     73  O   UNL A   1      50.143  26.751  23.258  1.00  0.00    -0.744 OA
ENDBRANCH  67  70
ENDBRANCH  49  63
BRANCH  50  74
ATOM     74  C   UNL A   1      39.069  29.174  29.906  1.00  0.00     0.023 A 
ATOM     75  C   UNL A   1      38.687  28.813  31.211  1.00  0.00     0.012 A 
ATOM     76  C   UNL A   1      38.132  29.804  29.063  1.00  0.00     0.148 A 
ATOM     77  C   UNL A   1      37.391  29.061  31.667  1.00  0.00     0.002 A 
ATOM     78  C   UNL A   1      36.861  30.099  29.542  1.00  0.00     0.091 A 
ATOM     79  F   UNL A   1      38.516  30.134  27.823  1.00  0.00    -0.205 F 
ATOM     80  C   UNL A   1      36.483  29.715  30.838  1.00  0.00     0.022 A 
BRANCH  78  81
ATOM     81  S   UNL A   1      35.675  31.067  28.600  1.00  0.00     0.127 S 
ATOM     82  O   UNL A   1      34.781  31.549  29.650  1.00  0.00    -0.237 OA
ATOM     83  O   UNL A   1      36.532  32.091  28.001  1.00  0.00    -0.237 OA
ATOM     84  O   UNL A   1      35.084  30.143  27.641  1.00  0.00    -0.744 OA
ENDBRANCH  78  81
ENDBRANCH  50  74
BRANCH  62  85
ATOM     85  C   UNL A   1      44.676  33.325  29.344  1.00  0.00     0.023 A 
ATOM     86  C   UNL A   1      45.177  33.747  30.591  1.00  0.00     0.012 A 
ATOM     87  C   UNL A   1      44.464  34.276  28.325  1.00  0.00     0.148 A 
ATOM     88  C   UNL A   1      45.438  35.095  30.831  1.00  0.00     0.002 A 
ATOM     89  C   UNL A   1      44.771  35.612  28.556  1.00  0.00     0.091 A 
ATOM     90  F   UNL A   1      43.967  33.857  27.152  1.00  0.00    -0.205 F 
ATOM     91  C   UNL A   1      45.246  36.025  29.811  1.00  0.00     0.022 A 
BRANCH  89  92
ATOM     92  S   UNL A   1      44.645  36.862  27.272  1.00  0.00     0.127 S 
ATOM     93  O   UNL A   1      43.350  36.546  26.673  1.00  0.00    -0.237 OA
ATOM     94  O   UNL A   1      44.674  38.106  28.043  1.00  0.00    -0.237 OA
ATOM     95  O   UNL A   1      45.801  36.663  26.407  1.00  0.00    -0.744 OA
ENDBRANCH  89  92
ENDBRANCH  62  85
ENDBRANCH  36  37
ENDBRANCH  28  31
ENDBRANCH  26  27
ENDBRANCH  25  26
ENDBRANCH   1  25
TORSDOF 18
ENDMDL
MODEL 3
REMARK VINA RESULT:     -11.3      5.543      9.273
REMARK SMILES COc1cccc(NC(=O)COc2csc(C(=O)NCCCNC(=O)c3ccc(-c4c5nc(c(-c6cccc(S(=O)(=O)[O-])c6F)c6ccc([nH]6)c(-c6cccc(S(=O)(=O)[O-])c6F)c6nc(c(-c7cccc(S(=O)(=O)[O-])c7F)c7ccc4[nH]7)C=C6)C=C5)cc3)c2)c1
REMARK SMILES IDX 20 1 19 2 17 3 18 4 16 6 13 7 14 8 89 9 15 10 12 11 11 12
REMARK SMILES IDX 9 13 8 14 10 16 7 17 3 18 4 19 90 20 5 21 6 22 2 23 1 24
REMARK SMILES IDX 21 25 22 26 23 27 24 28 25 30 26 31 27 32 88 33 28 34 87 35
REMARK SMILES IDX 29 36 30 37 31 38 81 39 32 40 86 41 80 42 82 43 33 44 85 45
REMARK SMILES IDX 79 46 78 47 34 49 66 50 46 51 65 52 47 53 50 54 64 55 83 56
REMARK SMILES IDX 48 57 49 58 63 60 84 61 51 62 35 63 36 64 44 65 37 66 39 67
REMARK SMILES IDX 45 68 38 69 40 70 41 71 42 72 43 73 67 74 68 75 76 76 69 77
REMARK SMILES IDX 71 78 77 79 70 80 72 81 73 82 74 83 75 84 52 85 53 86 61 87
REMARK SMILES IDX 54 88 56 89 62 90 55 91 57 92 58 93 59 94 60 95
REMARK H PARENT 19 5 8 15 23 29 82 48 50 59
REMARK Flexibility Score: inf
ROOT
ATOM      1  C   UNL A   1      38.435  22.376  26.274  1.00  0.00     0.118 C 
ENDROOT
BRANCH   1   2
ATOM      2  N   UNL A   1      38.066  22.522  24.879  1.00  0.00    -0.351 N 
ATOM      3  C   UNL A   1      36.836  22.541  24.260  1.00  0.00     0.261 C 
ATOM      4  O   UNL A   1      36.854  22.829  23.062  1.00  0.00    -0.268 OA
ATOM      5  H   UNL A   1      38.830  22.626  24.267  1.00  0.00     0.163 HD
BRANCH   3   6
ATOM      6  C   UNL A   1      35.613  22.263  25.003  1.00  0.00     0.096 A 
ATOM      7  C   UNL A   1      33.615  22.406  26.217  1.00  0.00     0.131 A 
ATOM      8  C   UNL A   1      33.662  21.057  25.969  1.00  0.00     0.112 A 
ATOM      9  C   UNL A   1      34.751  23.084  25.703  1.00  0.00     0.072 A 
ATOM     10  S   UNL A   1      35.078  20.625  25.105  1.00  0.00    -0.135 S 
BRANCH   7  11
ATOM     11  O   UNL A   1      32.593  23.093  26.773  1.00  0.00    -0.483 OA
BRANCH  11  12
ATOM     12  C   UNL A   1      31.316  22.872  26.212  1.00  0.00     0.329 C 
BRANCH  12  13
ATOM     13  C   UNL A   1      30.100  23.502  26.886  1.00  0.00     0.262 C 
ATOM     14  N   UNL A   1      29.632  24.750  26.601  1.00  0.00    -0.323 N 
ATOM     15  H   UNL A   1      28.806  24.964  27.091  1.00  0.00     0.170 HD
ATOM     16  O   UNL A   1      29.469  22.861  27.736  1.00  0.00    -0.271 OA
BRANCH  14  17
ATOM     17  C   UNL A   1      30.053  25.803  25.772  1.00  0.00     0.044 A 
ATOM     18  C   UNL A   1      31.584  27.694  25.555  1.00  0.00     0.120 A 
ATOM     19  C   UNL A   1      31.004  28.022  24.334  1.00  0.00     0.046 A 
ATOM     20  C   UNL A   1      31.102  26.595  26.272  1.00  0.00     0.072 A 
ATOM     21  C   UNL A   1      29.995  27.219  23.806  1.00  0.00     0.006 A 
ATOM     22  C   UNL A   1      29.534  26.104  24.515  1.00  0.00     0.026 A 
BRANCH  18  23
ATOM     23  O   UNL A   1      32.574  28.533  25.987  1.00  0.00    -0.497 OA
ATOM     24  C   UNL A   1      32.926  29.567  25.075  1.00  0.00     0.278 C 
ENDBRANCH  18  23
ENDBRANCH  14  17
ENDBRANCH  12  13
ENDBRANCH  11  12
ENDBRANCH   7  11
ENDBRANCH   3   6
ENDBRANCH   1   2
BRANCH   1  25
ATOM     25  C   UNL A   1      39.632  21.444  26.459  1.00  0.00     0.042 C 
BRANCH  25  26
ATOM     26  C   UNL A   1      39.484  20.105  25.744  1.00  0.00     0.118 C 
BRANCH  26  27
ATOM     27  N   UNL A   1      40.604  19.214  26.011  1.00  0.00    -0.352 N 
ATOM     28  C   UNL A   1      41.922  19.494  26.262  1.00  0.00     0.251 C 
ATOM     29  H   UNL A   1      40.379  18.256  26.010  1.00  0.00     0.163 HD
ATOM     30  O   UNL A   1      42.734  18.571  26.257  1.00  0.00    -0.269 OA
BRANCH  28  31
ATOM     31  C   UNL A   1      42.378  20.876  26.533  1.00  0.00     0.039 A 
ATOM     32  C   UNL A   1      42.690  21.700  25.447  1.00  0.00     0.014 A 
ATOM     33  C   UNL A   1      42.563  21.347  27.836  1.00  0.00     0.014 A 
ATOM     34  C   UNL A   1      43.155  22.999  25.666  1.00  0.00     0.010 A 
ATOM     35  C   UNL A   1      42.953  22.668  28.052  1.00  0.00     0.010 A 
ATOM     36  C   UNL A   1      43.273  23.500  26.972  1.00  0.00    -0.014 A 
BRANCH  36  37
ATOM     37  C   UNL A   1      43.734  24.891  27.214  1.00  0.00     0.031 A 
ATOM     38  C   UNL A   1      42.779  25.940  27.716  1.00  0.00     0.074 A 
ATOM     39  C   UNL A   1      45.002  25.228  26.910  1.00  0.00     0.049 A 
ATOM     40  N   UNL A   1      43.008  27.200  27.985  1.00  0.00    -0.248 NA
ATOM     41  C   UNL A   1      41.379  25.530  27.913  1.00  0.00     0.031 C 
ATOM     42  C   UNL A   1      45.993  24.328  26.318  1.00  0.00     0.029 A 
ATOM     43  N   UNL A   1      45.667  26.421  27.034  1.00  0.00    -0.354 N 
ATOM     44  C   UNL A   1      41.779  27.739  28.348  1.00  0.00     0.074 A 
ATOM     45  C   UNL A   1      40.802  26.680  28.224  1.00  0.00     0.031 C 
ATOM     46  C   UNL A   1      47.140  25.000  26.131  1.00  0.00     0.029 A 
ATOM     47  C   UNL A   1      46.963  26.379  26.574  1.00  0.00     0.049 A 
ATOM     48  H   UNL A   1      45.257  27.231  27.415  1.00  0.00     0.167 HD
ATOM     49  C   UNL A   1      41.495  28.992  28.782  1.00  0.00     0.034 A 
ATOM     50  C   UNL A   1      47.904  27.341  26.517  1.00  0.00     0.034 A 
ATOM     51  C   UNL A   1      42.479  30.027  28.944  1.00  0.00     0.049 A 
ATOM     52  C   UNL A   1      47.592  28.702  27.077  1.00  0.00     0.074 A 
ATOM     53  C   UNL A   1      42.317  31.295  29.472  1.00  0.00     0.029 A 
ATOM     54  N   UNL A   1      43.810  29.917  28.573  1.00  0.00    -0.354 N 
ATOM     55  N   UNL A   1      46.469  29.141  27.591  1.00  0.00    -0.248 NA
ATOM     56  C   UNL A   1      48.685  29.683  27.092  1.00  0.00     0.031 C 
ATOM     57  C   UNL A   1      43.549  31.958  29.402  1.00  0.00     0.029 A 
ATOM     58  C   UNL A   1      44.482  31.095  28.851  1.00  0.00     0.049 A 
ATOM     59  H   UNL A   1      44.219  29.117  28.169  1.00  0.00     0.167 HD
ATOM     60  C   UNL A   1      46.725  30.439  28.018  1.00  0.00     0.074 A 
ATOM     61  C   UNL A   1      48.119  30.706  27.720  1.00  0.00     0.031 C 
ATOM     62  C   UNL A   1      45.880  31.332  28.590  1.00  0.00     0.034 A 
BRANCH  49  63
ATOM     63  C   UNL A   1      40.066  29.284  29.165  1.00  0.00     0.023 A 
ATOM     64  C   UNL A   1      39.124  29.582  28.157  1.00  0.00     0.012 A 
ATOM     65  C   UNL A   1      39.643  29.241  30.508  1.00  0.00     0.148 A 
ATOM     66  C   UNL A   1      37.802  29.883  28.482  1.00  0.00     0.002 A 
ATOM     67  C   UNL A   1      38.311  29.495  30.819  1.00  0.00     0.091 A 
ATOM     68  F   UNL A   1      40.552  28.978  31.459  1.00  0.00    -0.205 F 
ATOM     69  C   UNL A   1      37.394  29.830  29.811  1.00  0.00     0.022 A 
BRANCH  67  70
ATOM     70  S   UNL A   1      37.676  29.372  32.496  1.00  0.00     0.127 S 
ATOM     71  O   UNL A   1      38.557  30.291  33.214  1.00  0.00    -0.237 OA
ATOM     72  O   UNL A   1      36.298  29.843  32.343  1.00  0.00    -0.237 OA
ATOM     73  O   UNL A   1      37.794  27.967  32.861  1.00  0.00    -0.744 OA
ENDBRANCH  67  70
ENDBRANCH  49  63
BRANCH  50  74
ATOM     74  C   UNL A   1      49.253  27.006  25.985  1.00  0.00     0.023 A 
ATOM     75  C   UNL A   1      50.136  26.239  26.769  1.00  0.00     0.012 A 
ATOM     76  C   UNL A   1      49.631  27.368  24.676  1.00  0.00     0.148 A 
ATOM     77  C   UNL A   1      51.379  25.852  26.265  1.00  0.00     0.002 A 
ATOM     78  C   UNL A   1      50.846  26.932  24.162  1.00  0.00     0.091 A 
ATOM     79  F   UNL A   1      48.776  28.103  23.951  1.00  0.00    -0.205 F 
ATOM     80  C   UNL A   1      51.728  26.187  24.960  1.00  0.00     0.022 A 
BRANCH  78  81
ATOM     81  S   UNL A   1      51.315  27.189  22.446  1.00  0.00     0.127 S 
ATOM     82  O   UNL A   1      50.150  26.669  21.736  1.00  0.00    -0.237 OA
ATOM     83  O   UNL A   1      51.473  28.642  22.394  1.00  0.00    -0.237 OA
ATOM     84  O   UNL A   1      52.553  26.444  22.260  1.00  0.00    -0.744 OA
ENDBRANCH  78  81
ENDBRANCH  50  74
BRANCH  62  85
ATOM     85  C   UNL A   1      46.436  32.684  28.954  1.00  0.00     0.023 A 
ATOM     86  C   UNL A   1      47.032  32.879  30.215  1.00  0.00     0.012 A 
ATOM     87  C   UNL A   1      46.438  33.737  28.017  1.00  0.00     0.148 A 
ATOM     88  C   UNL A   1      47.597  34.108  30.550  1.00  0.00     0.002 A 
ATOM     89  C   UNL A   1      47.045  34.945  28.341  1.00  0.00     0.091 A 
ATOM     90  F   UNL A   1      45.847  33.539  26.830  1.00  0.00    -0.205 F 
ATOM     91  C   UNL A   1      47.614  35.136  29.610  1.00  0.00     0.022 A 
BRANCH  89  92
ATOM     92  S   UNL A   1      47.197  36.291  27.160  1.00  0.00     0.127 S 
ATOM     93  O   UNL A   1      45.797  36.602  26.880  1.00  0.00    -0.237 OA
ATOM     94  O   UNL A   1      47.905  37.309  27.937  1.00  0.00    -0.237 OA
ATOM     95  O   UNL A   1      47.956  35.753  26.038  1.00  0.00    -0.744 OA
ENDBRANCH  89  92
ENDBRANCH  62  85
ENDBRANCH  36  37
ENDBRANCH  28  31
ENDBRANCH  26  27
ENDBRANCH  25  26
ENDBRANCH   1  25
TORSDOF 18
ENDMDL
