MODEL 1
REMARK VINA RESULT:     -12.8      0.000      0.000
REMARK SMILES COc1ccccc1-n1nnc(C(=O)NCCCNC(=O)c2ccc(-c3c4nc(c(-c5cccc(S(=O)(=O)[O-])c5F)c5ccc([nH]5)c(-c5cccc(S(=O)(=O)[O-])c5F)c5nc(c(-c6cccc(S(=O)(=O)[O-])c6F)c6ccc3[nH]6)C=C5)C=C4)cc2)c1-c1ccc(Cl)cc1
REMARK SMILES IDX 17 1 16 2 15 3 13 4 14 5 12 7 9 8 10 9 85 10 11 11 8 12 3 13
REMARK SMILES IDX 4 14 5 15 7 16 6 17 2 18 1 19 86 20 87 21 92 22 88 23 91 24
REMARK SMILES IDX 89 25 90 26 18 27 19 28 20 29 21 31 22 32 23 33 84 34 24 35
REMARK SMILES IDX 83 36 25 37 26 38 27 39 77 40 28 41 82 42 76 43 78 44 29 45
REMARK SMILES IDX 81 46 75 47 74 48 30 50 62 51 42 52 61 53 43 54 46 55 60 56
REMARK SMILES IDX 79 57 44 58 45 59 59 61 80 62 47 63 31 64 32 65 40 66 33 67
REMARK SMILES IDX 35 68 41 69 34 70 36 71 37 72 38 73 39 74 63 75 64 76 72 77
REMARK SMILES IDX 65 78 67 79 73 80 66 81 68 82 69 83 70 84 71 85 48 86 49 87
REMARK SMILES IDX 57 88 50 89 52 90 58 91 51 92 53 93 54 94 55 95 56 96
REMARK H PARENT 15 6 19 30 78 49 46 60
REMARK Flexibility Score: inf
ROOT
ATOM      1  C   UNL A   1      33.774  28.033  26.339  1.00  0.00     0.042 C 
ENDROOT
BRANCH   1   2
ATOM      2  C   UNL A   1      33.348  28.793  25.091  1.00  0.00     0.118 C 
BRANCH   2   3
ATOM      3  N   UNL A   1      34.064  28.494  23.889  1.00  0.00    -0.351 N 
ATOM      4  C   UNL A   1      33.804  27.582  22.900  1.00  0.00     0.274 C 
ATOM      5  O   UNL A   1      34.222  27.879  21.778  1.00  0.00    -0.267 OA
ATOM      6  H   UNL A   1      34.876  29.032  23.749  1.00  0.00     0.163 HD
BRANCH   4   7
ATOM      7  C   UNL A   1      33.146  26.286  23.111  1.00  0.00     0.178 A 
ATOM      8  N   UNL A   1      32.308  24.294  23.457  1.00  0.00    -0.208 N 
ATOM      9  N   UNL A   1      31.362  25.015  22.837  1.00  0.00    -0.061 NA
ATOM     10  C   UNL A   1      33.496  25.018  23.589  1.00  0.00     0.108 A 
ATOM     11  N   UNL A   1      31.817  26.241  22.710  1.00  0.00    -0.124 NA
BRANCH   8  12
ATOM     12  C   UNL A   1      32.064  22.942  23.774  1.00  0.00     0.109 A 
ATOM     13  C   UNL A   1      31.943  22.490  25.093  1.00  0.00     0.144 A 
ATOM     14  C   UNL A   1      32.066  21.120  25.338  1.00  0.00     0.049 A 
ATOM     15  C   UNL A   1      32.246  20.216  24.288  1.00  0.00     0.004 A 
ATOM     16  C   UNL A   1      32.169  22.030  22.708  1.00  0.00     0.032 A 
ATOM     17  C   UNL A   1      32.276  20.667  22.971  1.00  0.00     0.003 A 
BRANCH  13  18
ATOM     18  O   UNL A   1      31.799  23.250  26.221  1.00  0.00    -0.494 OA
ATOM     19  C   UNL A   1      30.522  23.847  26.439  1.00  0.00     0.278 C 
ENDBRANCH  13  18
ENDBRANCH   8  12
BRANCH  10  20
ATOM     20  C   UNL A   1      34.725  24.356  24.048  1.00  0.00     0.003 A 
ATOM     21  C   UNL A   1      35.498  23.546  23.198  1.00  0.00     0.012 A 
ATOM     22  C   UNL A   1      35.152  24.546  25.373  1.00  0.00     0.012 A 
ATOM     23  C   UNL A   1      36.623  22.873  23.691  1.00  0.00     0.021 A 
ATOM     24  C   UNL A   1      36.286  23.893  25.858  1.00  0.00     0.021 A 
ATOM     25  C   UNL A   1      37.011  23.053  25.019  1.00  0.00     0.041 A 
ATOM     26  Cl  UNL A   1      38.348  22.176  25.649  1.00  0.00    -0.084 Cl
ENDBRANCH  10  20
ENDBRANCH   4   7
ENDBRANCH   2   3
ENDBRANCH   1   2
BRANCH   1  27
ATOM     27  C   UNL A   1      34.867  28.814  27.052  1.00  0.00     0.118 C 
BRANCH  27  28
ATOM     28  N   UNL A   1      34.868  30.284  26.882  1.00  0.00    -0.352 N 
ATOM     29  C   UNL A   1      35.392  31.271  27.740  1.00  0.00     0.251 C 
ATOM     30  H   UNL A   1      34.445  30.619  26.059  1.00  0.00     0.163 HD
ATOM     31  O   UNL A   1      35.190  32.448  27.597  1.00  0.00    -0.269 OA
BRANCH  29  32
ATOM     32  C   UNL A   1      36.323  30.785  28.779  1.00  0.00     0.039 A 
ATOM     33  C   UNL A   1      36.192  29.581  29.484  1.00  0.00     0.014 A 
ATOM     34  C   UNL A   1      37.511  31.470  28.752  1.00  0.00     0.014 A 
ATOM     35  C   UNL A   1      37.352  29.013  30.022  1.00  0.00     0.010 A 
ATOM     36  C   UNL A   1      38.601  30.675  28.828  1.00  0.00     0.010 A 
ATOM     37  C   UNL A   1      38.580  29.560  29.637  1.00  0.00    -0.014 A 
BRANCH  37  38
ATOM     38  C   UNL A   1      39.907  29.024  29.893  1.00  0.00     0.031 A 
ATOM     39  C   UNL A   1      40.314  29.030  31.318  1.00  0.00     0.074 A 
ATOM     40  C   UNL A   1      40.539  28.260  28.964  1.00  0.00     0.049 A 
ATOM     41  N   UNL A   1      41.125  29.857  31.888  1.00  0.00    -0.248 NA
ATOM     42  C   UNL A   1      39.620  28.140  32.262  1.00  0.00     0.031 C 
ATOM     43  C   UNL A   1      40.069  27.808  27.634  1.00  0.00     0.029 A 
ATOM     44  N   UNL A   1      41.690  27.560  29.093  1.00  0.00    -0.354 N 
ATOM     45  C   UNL A   1      41.270  29.392  33.191  1.00  0.00     0.074 A 
ATOM     46  C   UNL A   1      40.133  28.542  33.429  1.00  0.00     0.031 C 
ATOM     47  C   UNL A   1      40.765  26.719  27.244  1.00  0.00     0.029 A 
ATOM     48  C   UNL A   1      41.871  26.546  28.157  1.00  0.00     0.049 A 
ATOM     49  H   UNL A   1      42.351  27.755  29.796  1.00  0.00     0.167 HD
ATOM     50  C   UNL A   1      42.463  29.497  33.843  1.00  0.00     0.034 A 
ATOM     51  C   UNL A   1      42.857  25.618  28.158  1.00  0.00     0.034 A 
ATOM     52  C   UNL A   1      43.392  30.308  33.085  1.00  0.00     0.049 A 
ATOM     53  C   UNL A   1      43.942  26.173  29.006  1.00  0.00     0.074 A 
ATOM     54  C   UNL A   1      43.363  31.583  32.552  1.00  0.00     0.029 A 
ATOM     55  N   UNL A   1      44.372  29.636  32.387  1.00  0.00    -0.354 N 
ATOM     56  N   UNL A   1      44.599  27.261  28.703  1.00  0.00    -0.248 NA
ATOM     57  C   UNL A   1      43.939  25.812  30.415  1.00  0.00     0.031 C 
ATOM     58  C   UNL A   1      43.927  31.439  31.248  1.00  0.00     0.029 A 
ATOM     59  C   UNL A   1      44.363  30.120  31.103  1.00  0.00     0.049 A 
ATOM     60  H   UNL A   1      44.967  28.937  32.742  1.00  0.00     0.167 HD
ATOM     61  C   UNL A   1      44.684  27.957  29.904  1.00  0.00     0.074 A 
ATOM     62  C   UNL A   1      44.352  26.972  30.936  1.00  0.00     0.031 C 
ATOM     63  C   UNL A   1      44.699  29.325  29.939  1.00  0.00     0.034 A 
BRANCH  50  64
ATOM     64  C   UNL A   1      42.966  28.588  34.944  1.00  0.00     0.023 A 
ATOM     65  C   UNL A   1      43.547  29.216  36.070  1.00  0.00     0.012 A 
ATOM     66  C   UNL A   1      43.141  27.190  34.835  1.00  0.00     0.148 A 
ATOM     67  C   UNL A   1      44.316  28.507  36.997  1.00  0.00     0.002 A 
ATOM     68  C   UNL A   1      43.841  26.475  35.803  1.00  0.00     0.091 A 
ATOM     69  F   UNL A   1      42.755  26.547  33.732  1.00  0.00    -0.205 F 
ATOM     70  C   UNL A   1      44.460  27.133  36.867  1.00  0.00     0.022 A 
BRANCH  68  71
ATOM     71  S   UNL A   1      44.017  24.689  35.711  1.00  0.00     0.127 S 
ATOM     72  O   UNL A   1      44.877  24.542  34.541  1.00  0.00    -0.237 OA
ATOM     73  O   UNL A   1      44.652  24.385  36.993  1.00  0.00    -0.237 OA
ATOM     74  O   UNL A   1      42.660  24.171  35.580  1.00  0.00    -0.744 OA
ENDBRANCH  68  71
ENDBRANCH  50  64
BRANCH  51  75
ATOM     75  C   UNL A   1      42.828  24.205  27.712  1.00  0.00     0.023 A 
ATOM     76  C   UNL A   1      41.687  23.419  27.963  1.00  0.00     0.012 A 
ATOM     77  C   UNL A   1      43.787  23.713  26.797  1.00  0.00     0.148 A 
ATOM     78  C   UNL A   1      41.484  22.205  27.291  1.00  0.00     0.002 A 
ATOM     79  C   UNL A   1      43.580  22.506  26.133  1.00  0.00     0.091 A 
ATOM     80  F   UNL A   1      44.852  24.472  26.506  1.00  0.00    -0.205 F 
ATOM     81  C   UNL A   1      42.422  21.755  26.369  1.00  0.00     0.022 A 
BRANCH  79  82
ATOM     82  S   UNL A   1      44.738  21.881  24.905  1.00  0.00     0.127 S 
ATOM     83  O   UNL A   1      44.629  22.887  23.848  1.00  0.00    -0.237 OA
ATOM     84  O   UNL A   1      45.997  21.900  25.643  1.00  0.00    -0.237 OA
ATOM     85  O   UNL A   1      44.240  20.562  24.534  1.00  0.00    -0.744 OA
ENDBRANCH  79  82
ENDBRANCH  51  75
BRANCH  63  86
ATOM     86  C   UNL A   1      44.831  30.085  28.637  1.00  0.00     0.023 A 
ATOM     87  C   UNL A   1      43.727  30.375  27.807  1.00  0.00     0.012 A 
ATOM     88  C   UNL A   1      46.062  30.698  28.354  1.00  0.00     0.148 A 
ATOM     89  C   UNL A   1      43.850  31.243  26.716  1.00  0.00     0.002 A 
ATOM     90  C   UNL A   1      46.173  31.592  27.295  1.00  0.00     0.091 A 
ATOM     91  F   UNL A   1      47.103  30.421  29.153  1.00  0.00    -0.205 F 
ATOM     92  C   UNL A   1      45.071  31.862  26.468  1.00  0.00     0.022 A 
BRANCH  90  93
ATOM     93  S   UNL A   1      47.683  32.515  27.005  1.00  0.00     0.127 S 
ATOM     94  O   UNL A   1      47.929  33.115  28.314  1.00  0.00    -0.237 OA
ATOM     95  O   UNL A   1      48.628  31.462  26.627  1.00  0.00    -0.237 OA
ATOM     96  O   UNL A   1      47.379  33.453  25.931  1.00  0.00    -0.744 OA
ENDBRANCH  90  93
ENDBRANCH  63  86
ENDBRANCH  37  38
ENDBRANCH  29  32
ENDBRANCH  27  28
ENDBRANCH   1  27
TORSDOF 16
ENDMDL
MODEL 2
REMARK VINA RESULT:     -12.6      3.359      8.788
REMARK SMILES COc1ccccc1-n1nnc(C(=O)NCCCNC(=O)c2ccc(-c3c4nc(c(-c5cccc(S(=O)(=O)[O-])c5F)c5ccc([nH]5)c(-c5cccc(S(=O)(=O)[O-])c5F)c5nc(c(-c6cccc(S(=O)(=O)[O-])c6F)c6ccc3[nH]6)C=C5)C=C4)cc2)c1-c1ccc(Cl)cc1
REMARK SMILES IDX 17 1 16 2 15 3 13 4 14 5 12 7 9 8 10 9 85 10 11 11 8 12 3 13
REMARK SMILES IDX 4 14 5 15 7 16 6 17 2 18 1 19 86 20 87 21 92 22 88 23 91 24
REMARK SMILES IDX 89 25 90 26 18 27 19 28 20 29 21 31 22 32 23 33 84 34 24 35
REMARK SMILES IDX 83 36 25 37 26 38 27 39 77 40 28 41 82 42 76 43 78 44 29 45
REMARK SMILES IDX 81 46 75 47 74 48 30 50 62 51 42 52 61 53 43 54 46 55 60 56
REMARK SMILES IDX 79 57 44 58 45 59 59 61 80 62 47 63 31 64 32 65 40 66 33 67
REMARK SMILES IDX 35 68 41 69 34 70 36 71 37 72 38 73 39 74 63 75 64 76 72 77
REMARK SMILES IDX 65 78 67 79 73 80 66 81 68 82 69 83 70 84 71 85 48 86 49 87
REMARK SMILES IDX 57 88 50 89 52 90 58 91 51 92 53 93 54 94 55 95 56 96
REMARK H PARENT 15 6 19 30 78 49 46 60
REMARK Flexibility Score: inf
ROOT
ATOM      1  C   UNL A   1      36.456  21.885  25.749  1.00  0.00     0.042 C 
ENDROOT
BRANCH   1   2
ATOM      2  C   UNL A   1      35.578  23.120  25.891  1.00  0.00     0.118 C 
BRANCH   2   3
ATOM      3  N   UNL A   1      34.609  23.095  26.943  1.00  0.00    -0.351 N 
ATOM      4  C   UNL A   1      33.240  23.134  26.895  1.00  0.00     0.274 C 
ATOM      5  O   UNL A   1      32.658  22.574  27.827  1.00  0.00    -0.267 OA
ATOM      6  H   UNL A   1      34.988  23.039  27.850  1.00  0.00     0.163 HD
BRANCH   4   7
ATOM      7  C   UNL A   1      32.461  23.845  25.873  1.00  0.00     0.178 A 
ATOM      8  N   UNL A   1      31.324  25.036  24.430  1.00  0.00    -0.208 N 
ATOM      9  N   UNL A   1      31.024  23.750  24.198  1.00  0.00    -0.061 NA
ATOM     10  C   UNL A   1      32.169  25.172  25.536  1.00  0.00     0.108 A 
ATOM     11  N   UNL A   1      31.773  23.018  24.993  1.00  0.00    -0.124 NA
BRANCH   8  12
ATOM     12  C   UNL A   1      30.703  26.049  23.672  1.00  0.00     0.109 A 
ATOM     13  C   UNL A   1      31.418  26.883  22.805  1.00  0.00     0.144 A 
ATOM     14  C   UNL A   1      30.813  28.068  22.378  1.00  0.00     0.049 A 
ATOM     15  C   UNL A   1      29.507  28.386  22.758  1.00  0.00     0.004 A 
ATOM     16  C   UNL A   1      29.362  26.326  23.996  1.00  0.00     0.032 A 
ATOM     17  C   UNL A   1      28.773  27.506  23.549  1.00  0.00     0.003 A 
BRANCH  13  18
ATOM     18  O   UNL A   1      32.706  26.725  22.374  1.00  0.00    -0.494 OA
ATOM     19  C   UNL A   1      33.535  27.886  22.379  1.00  0.00     0.278 C 
ENDBRANCH  13  18
ENDBRANCH   8  12
BRANCH  10  20
ATOM     20  C   UNL A   1      32.457  26.499  26.096  1.00  0.00     0.003 A 
ATOM     21  C   UNL A   1      31.492  27.232  26.809  1.00  0.00     0.012 A 
ATOM     22  C   UNL A   1      33.737  27.051  25.929  1.00  0.00     0.012 A 
ATOM     23  C   UNL A   1      31.780  28.524  27.265  1.00  0.00     0.021 A 
ATOM     24  C   UNL A   1      34.031  28.331  26.403  1.00  0.00     0.021 A 
ATOM     25  C   UNL A   1      33.049  29.065  27.060  1.00  0.00     0.041 A 
ATOM     26  Cl  UNL A   1      33.387  30.676  27.555  1.00  0.00    -0.084 Cl
ENDBRANCH  10  20
ENDBRANCH   4   7
ENDBRANCH   2   3
ENDBRANCH   1   2
BRANCH   1  27
ATOM     27  C   UNL A   1      37.900  22.318  25.546  1.00  0.00     0.118 C 
BRANCH  27  28
ATOM     28  N   UNL A   1      38.903  21.796  26.502  1.00  0.00    -0.352 N 
ATOM     29  C   UNL A   1      40.002  22.463  27.077  1.00  0.00     0.251 C 
ATOM     30  H   UNL A   1      38.787  20.857  26.771  1.00  0.00     0.163 HD
ATOM     31  O   UNL A   1      40.859  21.903  27.708  1.00  0.00    -0.269 OA
BRANCH  29  32
ATOM     32  C   UNL A   1      39.985  23.937  26.967  1.00  0.00     0.039 A 
ATOM     33  C   UNL A   1      38.853  24.746  27.120  1.00  0.00     0.014 A 
ATOM     34  C   UNL A   1      41.251  24.460  27.029  1.00  0.00     0.014 A 
ATOM     35  C   UNL A   1      39.052  26.077  27.503  1.00  0.00     0.010 A 
ATOM     36  C   UNL A   1      41.359  25.528  27.850  1.00  0.00     0.010 A 
ATOM     37  C   UNL A   1      40.335  26.446  27.918  1.00  0.00    -0.014 A 
BRANCH  37  38
ATOM     38  C   UNL A   1      40.736  27.694  28.547  1.00  0.00     0.031 A 
ATOM     39  C   UNL A   1      41.914  28.350  27.931  1.00  0.00     0.074 A 
ATOM     40  C   UNL A   1      39.886  28.362  29.370  1.00  0.00     0.049 A 
ATOM     41  N   UNL A   1      43.122  28.356  28.386  1.00  0.00    -0.248 NA
ATOM     42  C   UNL A   1      41.791  28.910  26.576  1.00  0.00     0.031 C 
ATOM     43  C   UNL A   1      38.491  28.039  29.751  1.00  0.00     0.029 A 
ATOM     44  N   UNL A   1      40.032  29.595  29.908  1.00  0.00    -0.354 N 
ATOM     45  C   UNL A   1      43.836  29.183  27.524  1.00  0.00     0.074 A 
ATOM     46  C   UNL A   1      43.058  29.248  26.315  1.00  0.00     0.031 C 
ATOM     47  C   UNL A   1      37.861  29.152  30.183  1.00  0.00     0.029 A 
ATOM     48  C   UNL A   1      38.851  30.193  30.340  1.00  0.00     0.049 A 
ATOM     49  H   UNL A   1      40.907  30.037  29.988  1.00  0.00     0.167 HD
ATOM     50  C   UNL A   1      44.836  29.984  27.991  1.00  0.00     0.034 A 
ATOM     51  C   UNL A   1      38.707  31.466  30.776  1.00  0.00     0.034 A 
ATOM     52  C   UNL A   1      45.139  29.674  29.372  1.00  0.00     0.049 A 
ATOM     53  C   UNL A   1      40.064  31.921  31.172  1.00  0.00     0.074 A 
ATOM     54  C   UNL A   1      45.488  28.526  30.059  1.00  0.00     0.029 A 
ATOM     55  N   UNL A   1      44.645  30.539  30.323  1.00  0.00    -0.354 N 
ATOM     56  N   UNL A   1      40.743  31.379  32.147  1.00  0.00    -0.248 NA
ATOM     57  C   UNL A   1      40.854  32.615  30.167  1.00  0.00     0.031 C 
ATOM     58  C   UNL A   1      44.704  28.570  31.252  1.00  0.00     0.029 A 
ATOM     59  C   UNL A   1      44.011  29.783  31.275  1.00  0.00     0.049 A 
ATOM     60  H   UNL A   1      44.730  31.520  30.320  1.00  0.00     0.167 HD
ATOM     61  C   UNL A   1      42.033  31.256  31.643  1.00  0.00     0.074 A 
ATOM     62  C   UNL A   1      42.062  32.124  30.464  1.00  0.00     0.031 C 
ATOM     63  C   UNL A   1      42.857  30.233  32.028  1.00  0.00     0.034 A 
BRANCH  50  64
ATOM     64  C   UNL A   1      45.292  31.294  27.386  1.00  0.00     0.023 A 
ATOM     65  C   UNL A   1      46.681  31.443  27.167  1.00  0.00     0.012 A 
ATOM     66  C   UNL A   1      44.501  32.458  27.265  1.00  0.00     0.148 A 
ATOM     67  C   UNL A   1      47.259  32.689  26.910  1.00  0.00     0.002 A 
ATOM     68  C   UNL A   1      45.071  33.684  26.932  1.00  0.00     0.091 A 
ATOM     69  F   UNL A   1      43.210  32.434  27.602  1.00  0.00    -0.205 F 
ATOM     70  C   UNL A   1      46.453  33.812  26.787  1.00  0.00     0.022 A 
BRANCH  68  71
ATOM     71  S   UNL A   1      44.069  35.160  26.712  1.00  0.00     0.127 S 
ATOM     72  O   UNL A   1      45.094  36.178  26.506  1.00  0.00    -0.237 OA
ATOM     73  O   UNL A   1      43.285  34.816  25.526  1.00  0.00    -0.237 OA
ATOM     74  O   UNL A   1      43.280  35.280  27.933  1.00  0.00    -0.744 OA
ENDBRANCH  68  71
ENDBRANCH  50  64
BRANCH  51  75
ATOM     75  C   UNL A   1      37.560  32.393  30.632  1.00  0.00     0.023 A 
ATOM     76  C   UNL A   1      36.894  32.489  29.394  1.00  0.00     0.012 A 
ATOM     77  C   UNL A   1      36.939  32.962  31.767  1.00  0.00     0.148 A 
ATOM     78  C   UNL A   1      35.631  33.090  29.298  1.00  0.00     0.002 A 
ATOM     79  C   UNL A   1      35.685  33.559  31.665  1.00  0.00     0.091 A 
ATOM     80  F   UNL A   1      37.533  32.833  32.961  1.00  0.00    -0.205 F 
ATOM     81  C   UNL A   1      35.022  33.614  30.434  1.00  0.00     0.022 A 
BRANCH  79  82
ATOM     82  S   UNL A   1      34.826  34.227  33.099  1.00  0.00     0.127 S 
ATOM     83  O   UNL A   1      34.813  33.080  34.006  1.00  0.00    -0.237 OA
ATOM     84  O   UNL A   1      35.713  35.316  33.499  1.00  0.00    -0.237 OA
ATOM     85  O   UNL A   1      33.510  34.627  32.616  1.00  0.00    -0.744 OA
ENDBRANCH  79  82
ENDBRANCH  51  75
BRANCH  63  86
ATOM     86  C   UNL A   1      42.426  29.341  33.171  1.00  0.00     0.023 A 
ATOM     87  C   UNL A   1      41.503  28.285  33.010  1.00  0.00     0.012 A 
ATOM     88  C   UNL A   1      43.126  29.441  34.384  1.00  0.00     0.148 A 
ATOM     89  C   UNL A   1      41.275  27.361  34.036  1.00  0.00     0.002 A 
ATOM     90  C   UNL A   1      42.929  28.498  35.387  1.00  0.00     0.091 A 
ATOM     91  F   UNL A   1      44.004  30.444  34.525  1.00  0.00    -0.205 F 
ATOM     92  C   UNL A   1      41.999  27.460  35.220  1.00  0.00     0.022 A 
BRANCH  90  93
ATOM     93  S   UNL A   1      43.921  28.500  36.881  1.00  0.00     0.127 S 
ATOM     94  O   UNL A   1      43.558  29.781  37.484  1.00  0.00    -0.237 OA
ATOM     95  O   UNL A   1      43.421  27.324  37.594  1.00  0.00    -0.237 OA
ATOM     96  O   UNL A   1      45.307  28.384  36.441  1.00  0.00    -0.744 OA
ENDBRANCH  90  93
ENDBRANCH  63  86
ENDBRANCH  37  38
ENDBRANCH  29  32
ENDBRANCH  27  28
ENDBRANCH   1  27
TORSDOF 16
ENDMDL
MODEL 3
REMARK VINA RESULT:     -12.4      4.345      7.025
REMARK SMILES COc1ccccc1-n1nnc(C(=O)NCCCNC(=O)c2ccc(-c3c4nc(c(-c5cccc(S(=O)(=O)[O-])c5F)c5ccc([nH]5)c(-c5cccc(S(=O)(=O)[O-])c5F)c5nc(c(-c6cccc(S(=O)(=O)[O-])c6F)c6ccc3[nH]6)C=C5)C=C4)cc2)c1-c1ccc(Cl)cc1
REMARK SMILES IDX 17 1 16 2 15 3 13 4 14 5 12 7 9 8 10 9 85 10 11 11 8 12 3 13
REMARK SMILES IDX 4 14 5 15 7 16 6 17 2 18 1 19 86 20 87 21 92 22 88 23 91 24
REMARK SMILES IDX 89 25 90 26 18 27 19 28 20 29 21 31 22 32 23 33 84 34 24 35
REMARK SMILES IDX 83 36 25 37 26 38 27 39 77 40 28 41 82 42 76 43 78 44 29 45
REMARK SMILES IDX 81 46 75 47 74 48 30 50 62 51 42 52 61 53 43 54 46 55 60 56
REMARK SMILES IDX 79 57 44 58 45 59 59 61 80 62 47 63 31 64 32 65 40 66 33 67
REMARK SMILES IDX 35 68 41 69 34 70 36 71 37 72 38 73 39 74 63 75 64 76 72 77
REMARK SMILES IDX 65 78 67 79 73 80 66 81 68 82 69 83 70 84 71 85 48 86 49 87
REMARK SMILES IDX 57 88 50 89 52 90 58 91 51 92 53 93 54 94 55 95 56 96
REMARK H PARENT 15 6 19 30 78 49 46 60
REMARK Flexibility Score: inf
ROOT
ATOM      1  C   UNL A   1      33.345  33.729  28.431  1.00  0.00     0.042 C 
ENDROOT
BRANCH   1   2
ATOM      2  C   UNL A   1      33.981  35.086  28.693  1.00  0.00     0.118 C 
BRANCH   2   3
ATOM      3  N   UNL A   1      33.431  35.849  29.771  1.00  0.00    -0.351 N 
ATOM      4  C   UNL A   1      33.787  35.911  31.093  1.00  0.00     0.274 C 
ATOM      5  O   UNL A   1      33.547  36.979  31.660  1.00  0.00    -0.267 OA
ATOM      6  H   UNL A   1      32.672  36.425  29.522  1.00  0.00     0.163 HD
BRANCH   4   7
ATOM      7  C   UNL A   1      34.348  34.791  31.859  1.00  0.00     0.178 A 
ATOM      8  N   UNL A   1      35.318  33.138  32.918  1.00  0.00    -0.208 N 
ATOM      9  N   UNL A   1      34.004  33.051  33.174  1.00  0.00    -0.061 NA
ATOM     10  C   UNL A   1      35.595  34.174  32.021  1.00  0.00     0.108 A 
ATOM     11  N   UNL A   1      33.423  34.093  32.624  1.00  0.00    -0.124 NA
BRANCH   8  12
ATOM     12  C   UNL A   1      36.200  32.171  33.440  1.00  0.00     0.109 A 
ATOM     13  C   UNL A   1      36.921  32.372  34.622  1.00  0.00     0.144 A 
ATOM     14  C   UNL A   1      38.021  31.549  34.876  1.00  0.00     0.049 A 
ATOM     15  C   UNL A   1      38.359  30.511  34.002  1.00  0.00     0.004 A 
ATOM     16  C   UNL A   1      36.489  31.081  32.597  1.00  0.00     0.032 A 
ATOM     17  C   UNL A   1      37.581  30.263  32.875  1.00  0.00     0.003 A 
BRANCH  13  18
ATOM     18  O   UNL A   1      36.734  33.359  35.551  1.00  0.00    -0.494 OA
ATOM     19  C   UNL A   1      37.871  33.743  36.322  1.00  0.00     0.278 C 
ENDBRANCH  13  18
ENDBRANCH   8  12
BRANCH  10  20
ATOM     20  C   UNL A   1      36.936  34.318  31.440  1.00  0.00     0.003 A 
ATOM     21  C   UNL A   1      37.147  34.354  30.051  1.00  0.00     0.012 A 
ATOM     22  C   UNL A   1      38.044  34.439  32.295  1.00  0.00     0.012 A 
ATOM     23  C   UNL A   1      38.446  34.419  29.533  1.00  0.00     0.021 A 
ATOM     24  C   UNL A   1      39.338  34.526  31.778  1.00  0.00     0.021 A 
ATOM     25  C   UNL A   1      39.534  34.507  30.401  1.00  0.00     0.041 A 
ATOM     26  Cl  UNL A   1      41.135  34.517  29.775  1.00  0.00    -0.084 Cl
ENDBRANCH  10  20
ENDBRANCH   4   7
ENDBRANCH   2   3
ENDBRANCH   1   2
BRANCH   1  27
ATOM     27  C   UNL A   1      34.422  32.749  27.990  1.00  0.00     0.118 C 
BRANCH  27  28
ATOM     28  N   UNL A   1      34.117  31.306  28.120  1.00  0.00    -0.352 N 
ATOM     29  C   UNL A   1      34.994  30.208  28.025  1.00  0.00     0.251 C 
ATOM     30  H   UNL A   1      33.174  31.084  28.296  1.00  0.00     0.163 HD
ATOM     31  O   UNL A   1      34.620  29.066  27.973  1.00  0.00    -0.269 OA
BRANCH  29  32
ATOM     32  C   UNL A   1      36.433  30.529  28.115  1.00  0.00     0.039 A 
ATOM     33  C   UNL A   1      37.047  31.201  29.180  1.00  0.00     0.014 A 
ATOM     34  C   UNL A   1      37.167  29.811  27.206  1.00  0.00     0.014 A 
ATOM     35  C   UNL A   1      38.413  30.982  29.386  1.00  0.00     0.010 A 
ATOM     36  C   UNL A   1      38.287  29.259  27.725  1.00  0.00     0.010 A 
ATOM     37  C   UNL A   1      39.020  29.951  28.663  1.00  0.00    -0.014 A 
BRANCH  37  38
ATOM     38  C   UNL A   1      40.354  29.406  28.851  1.00  0.00     0.031 A 
ATOM     39  C   UNL A   1      40.728  29.151  30.262  1.00  0.00     0.074 A 
ATOM     40  C   UNL A   1      41.030  28.846  27.813  1.00  0.00     0.049 A 
ATOM     41  N   UNL A   1      41.502  29.873  31.001  1.00  0.00    -0.248 NA
ATOM     42  C   UNL A   1      40.037  28.083  31.002  1.00  0.00     0.031 C 
ATOM     43  C   UNL A   1      40.603  28.644  26.409  1.00  0.00     0.029 A 
ATOM     44  N   UNL A   1      42.196  28.161  27.840  1.00  0.00    -0.354 N 
ATOM     45  C   UNL A   1      41.629  29.174  32.196  1.00  0.00     0.074 A 
ATOM     46  C   UNL A   1      40.511  28.268  32.238  1.00  0.00     0.031 C 
ATOM     47  C   UNL A   1      41.338  27.664  25.840  1.00  0.00     0.029 A 
ATOM     48  C   UNL A   1      42.427  27.346  26.735  1.00  0.00     0.049 A 
ATOM     49  H   UNL A   1      42.835  28.234  28.585  1.00  0.00     0.167 HD
ATOM     50  C   UNL A   1      42.803  29.181  32.890  1.00  0.00     0.034 A 
ATOM     51  C   UNL A   1      43.438  26.458  26.589  1.00  0.00     0.034 A 
ATOM     52  C   UNL A   1      43.727  30.141  32.325  1.00  0.00     0.049 A 
ATOM     53  C   UNL A   1      44.488  26.867  27.556  1.00  0.00     0.074 A 
ATOM     54  C   UNL A   1      43.675  31.493  32.042  1.00  0.00     0.029 A 
ATOM     55  N   UNL A   1      44.741  29.637  31.541  1.00  0.00    -0.354 N 
ATOM     56  N   UNL A   1      45.120  28.008  27.484  1.00  0.00    -0.248 NA
ATOM     57  C   UNL A   1      44.461  26.246  28.871  1.00  0.00     0.031 C 
ATOM     58  C   UNL A   1      44.274  31.612  30.751  1.00  0.00     0.029 A 
ATOM     59  C   UNL A   1      44.749  30.354  30.372  1.00  0.00     0.049 A 
ATOM     60  H   UNL A   1      45.347  28.897  31.775  1.00  0.00     0.167 HD
ATOM     61  C   UNL A   1      45.158  28.465  28.796  1.00  0.00     0.074 A 
ATOM     62  C   UNL A   1      44.829  27.295  29.614  1.00  0.00     0.031 C 
ATOM     63  C   UNL A   1      45.134  29.802  29.088  1.00  0.00     0.034 A 
BRANCH  50  64
ATOM     64  C   UNL A   1      43.305  28.091  33.814  1.00  0.00     0.023 A 
ATOM     65  C   UNL A   1      43.652  28.483  35.128  1.00  0.00     0.012 A 
ATOM     66  C   UNL A   1      43.698  26.795  33.412  1.00  0.00     0.148 A 
ATOM     67  C   UNL A   1      44.405  27.660  35.970  1.00  0.00     0.002 A 
ATOM     68  C   UNL A   1      44.380  25.948  34.281  1.00  0.00     0.091 A 
ATOM     69  F   UNL A   1      43.543  26.406  32.146  1.00  0.00    -0.205 F 
ATOM     70  C   UNL A   1      44.766  26.388  35.549  1.00  0.00     0.022 A 
BRANCH  68  71
ATOM     71  S   UNL A   1      44.830  24.274  33.807  1.00  0.00     0.127 S 
ATOM     72  O   UNL A   1      45.537  23.815  34.997  1.00  0.00    -0.237 OA
ATOM     73  O   UNL A   1      43.519  23.663  33.587  1.00  0.00    -0.237 OA
ATOM     74  O   UNL A   1      45.631  24.415  32.597  1.00  0.00    -0.744 OA
ENDBRANCH  68  71
ENDBRANCH  50  64
BRANCH  51  75
ATOM     75  C   UNL A   1      43.459  25.155  25.884  1.00  0.00     0.023 A 
ATOM     76  C   UNL A   1      44.501  24.869  24.980  1.00  0.00     0.012 A 
ATOM     77  C   UNL A   1      42.633  24.088  26.306  1.00  0.00     0.148 A 
ATOM     78  C   UNL A   1      44.741  23.558  24.546  1.00  0.00     0.002 A 
ATOM     79  C   UNL A   1      42.877  22.787  25.871  1.00  0.00     0.091 A 
ATOM     80  F   UNL A   1      41.672  24.332  27.207  1.00  0.00    -0.205 F 
ATOM     81  C   UNL A   1      43.939  22.517  25.000  1.00  0.00     0.022 A 
BRANCH  79  82
ATOM     82  S   UNL A   1      41.898  21.390  26.443  1.00  0.00     0.127 S 
ATOM     83  O   UNL A   1      40.543  21.797  26.071  1.00  0.00    -0.237 OA
ATOM     84  O   UNL A   1      42.449  20.293  25.652  1.00  0.00    -0.237 OA
ATOM     85  O   UNL A   1      42.129  21.313  27.881  1.00  0.00    -0.744 OA
ENDBRANCH  79  82
ENDBRANCH  51  75
BRANCH  63  86
ATOM     86  C   UNL A   1      45.275  30.797  27.958  1.00  0.00     0.023 A 
ATOM     87  C   UNL A   1      44.167  31.323  27.260  1.00  0.00     0.012 A 
ATOM     88  C   UNL A   1      46.539  31.370  27.738  1.00  0.00     0.148 A 
ATOM     89  C   UNL A   1      44.316  32.382  26.357  1.00  0.00     0.002 A 
ATOM     90  C   UNL A   1      46.679  32.449  26.872  1.00  0.00     0.091 A 
ATOM     91  F   UNL A   1      47.584  30.867  28.411  1.00  0.00    -0.205 F 
ATOM     92  C   UNL A   1      45.571  32.954  26.174  1.00  0.00     0.022 A 
BRANCH  90  93
ATOM     93  S   UNL A   1      48.244  33.306  26.692  1.00  0.00     0.127 S 
ATOM     94  O   UNL A   1      47.945  34.262  25.628  1.00  0.00    -0.237 OA
ATOM     95  O   UNL A   1      48.431  33.903  28.016  1.00  0.00    -0.237 OA
ATOM     96  O   UNL A   1      49.226  32.281  26.359  1.00  0.00    -0.744 OA
ENDBRANCH  90  93
ENDBRANCH  63  86
ENDBRANCH  37  38
ENDBRANCH  29  32
ENDBRANCH  27  28
ENDBRANCH   1  27
TORSDOF 16
ENDMDL
