MODEL 1
REMARK VINA RESULT:     -11.9      0.000      0.000
REMARK SMILES CCn1cccc1C(=O)N(C)c1snc(C)c1C(=O)NCCCNC(=O)c1ccc(-c2c3nc(c(-c4cccc(S(=O)(=O)[O-])c4F)c4ccc([nH]4)c(-c4cccc(S(=O)(=O)[O-])c4F)c4nc(c(-c5cccc(S(=O)(=O)[O-])c5F)c5ccc2[nH]5)C=C4)C=C3)cc1
REMARK SMILES IDX 21 1 20 2 18 3 19 4 17 6 12 7 13 8 14 9 15 10 16 11 10 12
REMARK SMILES IDX 11 13 8 14 9 15 7 16 3 17 4 18 5 19 6 20 2 21 1 22 22 23
REMARK SMILES IDX 23 24 24 25 25 26 26 28 27 29 28 30 89 31 29 32 88 33 30 34
REMARK SMILES IDX 31 35 32 36 82 37 33 38 87 39 81 40 83 41 34 42 86 43 80 44
REMARK SMILES IDX 79 45 35 47 67 48 47 49 66 50 48 51 51 52 65 53 84 54 49 55
REMARK SMILES IDX 50 56 64 58 85 59 52 60 36 61 37 62 45 63 38 64 40 65 46 66
REMARK SMILES IDX 39 67 41 68 42 69 43 70 44 71 68 72 69 73 77 74 70 75 72 76
REMARK SMILES IDX 78 77 71 78 73 79 74 80 75 81 76 82 53 83 54 84 62 85 55 86
REMARK SMILES IDX 57 87 63 88 56 89 58 90 59 91 60 92 61 93
REMARK H PARENT 20 5 24 27 83 46 51 57
REMARK Flexibility Score: inf
ROOT
ATOM      1  C   UNL A   1      36.592  21.917  25.644  1.00  0.00     0.118 C 
ENDROOT
BRANCH   1   2
ATOM      2  N   UNL A   1      35.601  22.101  26.660  1.00  0.00    -0.352 N 
ATOM      3  C   UNL A   1      34.247  21.872  26.574  1.00  0.00     0.256 C 
ATOM      4  O   UNL A   1      33.735  21.389  27.588  1.00  0.00    -0.269 OA
ATOM      5  H   UNL A   1      35.928  22.433  27.528  1.00  0.00     0.163 HD
BRANCH   3   6
ATOM      6  C   UNL A   1      33.384  22.289  25.452  1.00  0.00     0.097 A 
ATOM      7  C   UNL A   1      32.960  23.522  24.953  1.00  0.00     0.131 A 
ATOM      8  S   UNL A   1      32.035  23.293  23.528  1.00  0.00    -0.017 S 
ATOM      9  N   UNL A   1      32.004  21.656  23.588  1.00  0.00    -0.195 NA
ATOM     10  C   UNL A   1      32.716  21.250  24.642  1.00  0.00     0.066 A 
ATOM     11  C   UNL A   1      32.695  19.775  24.907  1.00  0.00     0.069 C 
BRANCH   7  12
ATOM     12  N   UNL A   1      33.007  24.861  25.378  1.00  0.00    -0.300 N 
ATOM     13  C   UNL A   1      34.310  25.498  25.368  1.00  0.00     0.154 C 
BRANCH  12  14
ATOM     14  C   UNL A   1      31.788  25.450  25.774  1.00  0.00     0.275 C 
ATOM     15  O   UNL A   1      31.106  24.857  26.619  1.00  0.00    -0.267 OA
BRANCH  14  16
ATOM     16  C   UNL A   1      31.188  26.643  25.108  1.00  0.00     0.107 A 
ATOM     17  N   UNL A   1      31.392  28.024  25.075  1.00  0.00    -0.344 N 
ATOM     18  C   UNL A   1      30.530  28.605  24.159  1.00  0.00     0.086 A 
ATOM     19  C   UNL A   1      29.712  27.647  23.635  1.00  0.00     0.020 A 
ATOM     20  C   UNL A   1      30.114  26.439  24.221  1.00  0.00     0.033 A 
BRANCH  17  21
ATOM     21  C   UNL A   1      32.170  28.923  25.913  1.00  0.00     0.119 C 
ATOM     22  C   UNL A   1      31.771  30.394  25.796  1.00  0.00     0.027 C 
ENDBRANCH  17  21
ENDBRANCH  14  16
ENDBRANCH  12  14
ENDBRANCH   7  12
ENDBRANCH   3   6
ENDBRANCH   1   2
BRANCH   1  23
ATOM     23  C   UNL A   1      37.223  23.174  25.070  1.00  0.00     0.042 C 
BRANCH  23  24
ATOM     24  C   UNL A   1      37.827  24.043  26.157  1.00  0.00     0.118 C 
BRANCH  24  25
ATOM     25  N   UNL A   1      39.160  23.578  26.550  1.00  0.00    -0.352 N 
ATOM     26  C   UNL A   1      40.196  24.292  27.120  1.00  0.00     0.251 C 
ATOM     27  H   UNL A   1      39.343  22.625  26.384  1.00  0.00     0.163 HD
ATOM     28  O   UNL A   1      41.322  23.848  27.195  1.00  0.00    -0.269 OA
BRANCH  26  29
ATOM     29  C   UNL A   1      39.909  25.650  27.593  1.00  0.00     0.039 A 
ATOM     30  C   UNL A   1      39.391  25.803  28.883  1.00  0.00     0.014 A 
ATOM     31  C   UNL A   1      40.246  26.742  26.795  1.00  0.00     0.014 A 
ATOM     32  C   UNL A   1      39.331  27.075  29.425  1.00  0.00     0.010 A 
ATOM     33  C   UNL A   1      40.266  27.996  27.360  1.00  0.00     0.010 A 
ATOM     34  C   UNL A   1      39.822  28.152  28.676  1.00  0.00    -0.014 A 
BRANCH  34  35
ATOM     35  C   UNL A   1      40.004  29.459  29.324  1.00  0.00     0.031 A 
ATOM     36  C   UNL A   1      38.774  30.363  29.109  1.00  0.00     0.074 A 
ATOM     37  C   UNL A   1      41.185  29.606  29.995  1.00  0.00     0.049 A 
ATOM     38  N   UNL A   1      38.706  31.640  28.879  1.00  0.00    -0.248 NA
ATOM     39  C   UNL A   1      37.429  29.735  28.979  1.00  0.00     0.031 C 
ATOM     40  C   UNL A   1      42.230  28.558  30.092  1.00  0.00     0.029 A 
ATOM     41  N   UNL A   1      41.753  30.615  30.740  1.00  0.00    -0.354 N 
ATOM     42  C   UNL A   1      37.328  31.988  28.851  1.00  0.00     0.074 A 
ATOM     43  C   UNL A   1      36.611  30.759  28.717  1.00  0.00     0.031 C 
ATOM     44  C   UNL A   1      43.299  28.998  30.784  1.00  0.00     0.029 A 
ATOM     45  C   UNL A   1      43.063  30.360  31.215  1.00  0.00     0.049 A 
ATOM     46  H   UNL A   1      41.281  31.458  30.929  1.00  0.00     0.167 HD
ATOM     47  C   UNL A   1      36.874  33.242  29.171  1.00  0.00     0.034 A 
ATOM     48  C   UNL A   1      43.924  31.199  31.867  1.00  0.00     0.034 A 
ATOM     49  C   UNL A   1      37.994  34.018  29.605  1.00  0.00     0.049 A 
ATOM     50  C   UNL A   1      43.163  32.426  32.133  1.00  0.00     0.074 A 
ATOM     51  C   UNL A   1      39.073  34.566  28.965  1.00  0.00     0.029 A 
ATOM     52  N   UNL A   1      38.242  33.945  30.957  1.00  0.00    -0.354 N 
ATOM     53  N   UNL A   1      42.219  32.531  33.022  1.00  0.00    -0.248 NA
ATOM     54  C   UNL A   1      43.343  33.576  31.237  1.00  0.00     0.031 C 
ATOM     55  C   UNL A   1      40.118  34.385  29.895  1.00  0.00     0.029 A 
ATOM     56  C   UNL A   1      39.597  33.965  31.127  1.00  0.00     0.049 A 
ATOM     57  H   UNL A   1      37.566  33.889  31.671  1.00  0.00     0.167 HD
ATOM     58  C   UNL A   1      41.477  33.573  32.523  1.00  0.00     0.074 A 
ATOM     59  C   UNL A   1      42.365  34.354  31.690  1.00  0.00     0.031 C 
ATOM     60  C   UNL A   1      40.138  33.417  32.348  1.00  0.00     0.034 A 
BRANCH  47  61
ATOM     61  C   UNL A   1      35.518  33.851  29.494  1.00  0.00     0.023 A 
ATOM     62  C   UNL A   1      34.867  34.480  28.389  1.00  0.00     0.012 A 
ATOM     63  C   UNL A   1      34.991  34.111  30.768  1.00  0.00     0.148 A 
ATOM     64  C   UNL A   1      33.873  35.445  28.545  1.00  0.00     0.002 A 
ATOM     65  C   UNL A   1      33.949  35.037  30.915  1.00  0.00     0.091 A 
ATOM     66  F   UNL A   1      35.530  33.531  31.842  1.00  0.00    -0.205 F 
ATOM     67  C   UNL A   1      33.427  35.739  29.816  1.00  0.00     0.022 A 
BRANCH  65  68
ATOM     68  S   UNL A   1      33.195  35.410  32.504  1.00  0.00     0.127 S 
ATOM     69  O   UNL A   1      32.801  34.085  32.974  1.00  0.00    -0.237 OA
ATOM     70  O   UNL A   1      34.316  36.004  33.239  1.00  0.00    -0.237 OA
ATOM     71  O   UNL A   1      32.117  36.346  32.217  1.00  0.00    -0.744 OA
ENDBRANCH  65  68
ENDBRANCH  47  61
BRANCH  48  72
ATOM     72  C   UNL A   1      45.400  31.194  32.180  1.00  0.00     0.023 A 
ATOM     73  C   UNL A   1      46.339  32.059  31.601  1.00  0.00     0.012 A 
ATOM     74  C   UNL A   1      45.902  30.327  33.193  1.00  0.00     0.148 A 
ATOM     75  C   UNL A   1      47.659  32.140  32.087  1.00  0.00     0.002 A 
ATOM     76  C   UNL A   1      47.159  30.493  33.757  1.00  0.00     0.091 A 
ATOM     77  F   UNL A   1      45.168  29.287  33.602  1.00  0.00    -0.205 F 
ATOM     78  C   UNL A   1      48.055  31.397  33.199  1.00  0.00     0.022 A 
BRANCH  76  79
ATOM     79  S   UNL A   1      47.608  29.686  35.307  1.00  0.00     0.127 S 
ATOM     80  O   UNL A   1      47.649  28.276  34.922  1.00  0.00    -0.237 OA
ATOM     81  O   UNL A   1      48.913  30.288  35.580  1.00  0.00    -0.237 OA
ATOM     82  O   UNL A   1      46.572  30.037  36.268  1.00  0.00    -0.744 OA
ENDBRANCH  76  79
ENDBRANCH  48  72
BRANCH  60  83
ATOM     83  C   UNL A   1      39.471  32.414  33.292  1.00  0.00     0.023 A 
ATOM     84  C   UNL A   1      38.991  31.220  32.716  1.00  0.00     0.012 A 
ATOM     85  C   UNL A   1      39.200  32.616  34.667  1.00  0.00     0.148 A 
ATOM     86  C   UNL A   1      38.260  30.284  33.454  1.00  0.00     0.002 A 
ATOM     87  C   UNL A   1      38.455  31.688  35.406  1.00  0.00     0.091 A 
ATOM     88  F   UNL A   1      39.665  33.717  35.253  1.00  0.00    -0.205 F 
ATOM     89  C   UNL A   1      37.989  30.517  34.796  1.00  0.00     0.022 A 
BRANCH  87  90
ATOM     90  S   UNL A   1      37.973  31.920  37.134  1.00  0.00     0.127 S 
ATOM     91  O   UNL A   1      39.242  32.279  37.770  1.00  0.00    -0.237 OA
ATOM     92  O   UNL A   1      37.016  33.018  37.046  1.00  0.00    -0.237 OA
ATOM     93  O   UNL A   1      37.424  30.648  37.592  1.00  0.00    -0.744 OA
ENDBRANCH  87  90
ENDBRANCH  60  83
ENDBRANCH  34  35
ENDBRANCH  26  29
ENDBRANCH  24  25
ENDBRANCH  23  24
ENDBRANCH   1  23
TORSDOF 17
ENDMDL
MODEL 2
REMARK VINA RESULT:     -11.9      4.275     10.059
REMARK SMILES CCn1cccc1C(=O)N(C)c1snc(C)c1C(=O)NCCCNC(=O)c1ccc(-c2c3nc(c(-c4cccc(S(=O)(=O)[O-])c4F)c4ccc([nH]4)c(-c4cccc(S(=O)(=O)[O-])c4F)c4nc(c(-c5cccc(S(=O)(=O)[O-])c5F)c5ccc2[nH]5)C=C4)C=C3)cc1
REMARK SMILES IDX 21 1 20 2 18 3 19 4 17 6 12 7 13 8 14 9 15 10 16 11 10 12
REMARK SMILES IDX 11 13 8 14 9 15 7 16 3 17 4 18 5 19 6 20 2 21 1 22 22 23
REMARK SMILES IDX 23 24 24 25 25 26 26 28 27 29 28 30 89 31 29 32 88 33 30 34
REMARK SMILES IDX 31 35 32 36 82 37 33 38 87 39 81 40 83 41 34 42 86 43 80 44
REMARK SMILES IDX 79 45 35 47 67 48 47 49 66 50 48 51 51 52 65 53 84 54 49 55
REMARK SMILES IDX 50 56 64 58 85 59 52 60 36 61 37 62 45 63 38 64 40 65 46 66
REMARK SMILES IDX 39 67 41 68 42 69 43 70 44 71 68 72 69 73 77 74 70 75 72 76
REMARK SMILES IDX 78 77 71 78 73 79 74 80 75 81 76 82 53 83 54 84 62 85 55 86
REMARK SMILES IDX 57 87 63 88 56 89 58 90 59 91 60 92 61 93
REMARK H PARENT 20 5 24 27 83 46 51 57
REMARK Flexibility Score: inf
ROOT
ATOM      1  C   UNL A   1      32.891  27.758  26.552  1.00  0.00     0.118 C 
ENDROOT
BRANCH   1   2
ATOM      2  N   UNL A   1      31.925  28.029  25.532  1.00  0.00    -0.352 N 
ATOM      3  C   UNL A   1      31.460  27.177  24.557  1.00  0.00     0.256 C 
ATOM      4  O   UNL A   1      30.256  27.282  24.305  1.00  0.00    -0.269 OA
ATOM      5  H   UNL A   1      31.547  28.939  25.525  1.00  0.00     0.163 HD
BRANCH   3   6
ATOM      6  C   UNL A   1      32.302  26.293  23.728  1.00  0.00     0.097 A 
ATOM      7  C   UNL A   1      32.580  24.925  23.731  1.00  0.00     0.131 A 
ATOM      8  S   UNL A   1      33.581  24.525  22.398  1.00  0.00    -0.017 S 
ATOM      9  N   UNL A   1      33.824  26.061  21.882  1.00  0.00    -0.195 NA
ATOM     10  C   UNL A   1      33.132  26.893  22.663  1.00  0.00     0.066 A 
ATOM     11  C   UNL A   1      33.337  28.354  22.394  1.00  0.00     0.069 C 
BRANCH   7  12
ATOM     12  N   UNL A   1      32.340  23.842  24.593  1.00  0.00    -0.300 N 
ATOM     13  C   UNL A   1      31.062  23.172  24.453  1.00  0.00     0.154 C 
BRANCH  12  14
ATOM     14  C   UNL A   1      33.363  23.515  25.509  1.00  0.00     0.275 C 
ATOM     15  O   UNL A   1      33.612  24.325  26.411  1.00  0.00    -0.267 OA
BRANCH  14  16
ATOM     16  C   UNL A   1      34.277  22.346  25.351  1.00  0.00     0.107 A 
ATOM     17  N   UNL A   1      34.173  20.971  25.133  1.00  0.00    -0.344 N 
ATOM     18  C   UNL A   1      35.436  20.422  24.984  1.00  0.00     0.086 A 
ATOM     19  C   UNL A   1      36.377  21.393  25.168  1.00  0.00     0.020 A 
ATOM     20  C   UNL A   1      35.664  22.578  25.397  1.00  0.00     0.033 A 
BRANCH  17  21
ATOM     21  C   UNL A   1      33.055  20.045  25.214  1.00  0.00     0.119 C 
ATOM     22  C   UNL A   1      32.494  19.615  23.858  1.00  0.00     0.027 C 
ENDBRANCH  17  21
ENDBRANCH  14  16
ENDBRANCH  12  14
ENDBRANCH   7  12
ENDBRANCH   3   6
ENDBRANCH   1   2
BRANCH   1  23
ATOM     23  C   UNL A   1      33.438  28.955  27.311  1.00  0.00     0.042 C 
BRANCH  23  24
ATOM     24  C   UNL A   1      34.907  29.185  27.008  1.00  0.00     0.118 C 
BRANCH  24  25
ATOM     25  N   UNL A   1      35.372  30.480  27.515  1.00  0.00    -0.352 N 
ATOM     26  C   UNL A   1      36.546  30.783  28.176  1.00  0.00     0.251 C 
ATOM     27  H   UNL A   1      34.763  31.238  27.364  1.00  0.00     0.163 HD
ATOM     28  O   UNL A   1      36.716  31.843  28.738  1.00  0.00    -0.269 OA
BRANCH  26  29
ATOM     29  C   UNL A   1      37.584  29.749  28.230  1.00  0.00     0.039 A 
ATOM     30  C   UNL A   1      38.539  29.718  27.210  1.00  0.00     0.014 A 
ATOM     31  C   UNL A   1      37.650  28.897  29.332  1.00  0.00     0.014 A 
ATOM     32  C   UNL A   1      39.648  28.905  27.364  1.00  0.00     0.010 A 
ATOM     33  C   UNL A   1      38.789  28.151  29.528  1.00  0.00     0.010 A 
ATOM     34  C   UNL A   1      39.788  28.171  28.550  1.00  0.00    -0.014 A 
BRANCH  34  35
ATOM     35  C   UNL A   1      41.066  27.509  28.843  1.00  0.00     0.031 A 
ATOM     36  C   UNL A   1      41.065  26.051  28.343  1.00  0.00     0.074 A 
ATOM     37  C   UNL A   1      41.993  28.300  29.461  1.00  0.00     0.049 A 
ATOM     38  N   UNL A   1      41.565  24.981  28.886  1.00  0.00    -0.248 NA
ATOM     39  C   UNL A   1      40.260  25.699  27.140  1.00  0.00     0.031 C 
ATOM     40  C   UNL A   1      41.772  29.721  29.825  1.00  0.00     0.029 A 
ATOM     41  N   UNL A   1      43.287  28.115  29.891  1.00  0.00    -0.354 N 
ATOM     42  C   UNL A   1      41.368  23.913  27.969  1.00  0.00     0.074 A 
ATOM     43  C   UNL A   1      40.397  24.374  27.028  1.00  0.00     0.031 C 
ATOM     44  C   UNL A   1      42.846  30.235  30.456  1.00  0.00     0.029 A 
ATOM     45  C   UNL A   1      43.872  29.219  30.560  1.00  0.00     0.049 A 
ATOM     46  H   UNL A   1      43.774  27.272  29.744  1.00  0.00     0.167 HD
ATOM     47  C   UNL A   1      42.189  22.816  27.922  1.00  0.00     0.034 A 
ATOM     48  C   UNL A   1      45.078  29.301  31.200  1.00  0.00     0.034 A 
ATOM     49  C   UNL A   1      43.256  23.025  28.851  1.00  0.00     0.049 A 
ATOM     50  C   UNL A   1      45.759  28.027  30.934  1.00  0.00     0.074 A 
ATOM     51  C   UNL A   1      43.336  23.032  30.217  1.00  0.00     0.029 A 
ATOM     52  N   UNL A   1      44.354  23.661  28.316  1.00  0.00    -0.354 N 
ATOM     53  N   UNL A   1      46.271  27.690  29.787  1.00  0.00    -0.248 NA
ATOM     54  C   UNL A   1      45.728  26.982  31.965  1.00  0.00     0.031 C 
ATOM     55  C   UNL A   1      44.251  24.074  30.475  1.00  0.00     0.029 A 
ATOM     56  C   UNL A   1      44.859  24.485  29.280  1.00  0.00     0.049 A 
ATOM     57  H   UNL A   1      44.710  23.541  27.406  1.00  0.00     0.167 HD
ATOM     58  C   UNL A   1      46.250  26.320  29.862  1.00  0.00     0.074 A 
ATOM     59  C   UNL A   1      46.254  25.980  31.268  1.00  0.00     0.031 C 
ATOM     60  C   UNL A   1      45.671  25.603  28.862  1.00  0.00     0.034 A 
BRANCH  47  61
ATOM     61  C   UNL A   1      42.419  21.680  26.938  1.00  0.00     0.023 A 
ATOM     62  C   UNL A   1      41.634  20.511  27.180  1.00  0.00     0.012 A 
ATOM     63  C   UNL A   1      43.484  21.547  26.034  1.00  0.00     0.148 A 
ATOM     64  C   UNL A   1      41.984  19.250  26.701  1.00  0.00     0.002 A 
ATOM     65  C   UNL A   1      43.797  20.287  25.505  1.00  0.00     0.091 A 
ATOM     66  F   UNL A   1      44.239  22.607  25.736  1.00  0.00    -0.205 F 
ATOM     67  C   UNL A   1      43.084  19.136  25.876  1.00  0.00     0.022 A 
BRANCH  65  68
ATOM     68  S   UNL A   1      45.125  20.031  24.321  1.00  0.00     0.127 S 
ATOM     69  O   UNL A   1      44.600  20.685  23.127  1.00  0.00    -0.237 OA
ATOM     70  O   UNL A   1      46.240  20.739  24.958  1.00  0.00    -0.237 OA
ATOM     71  O   UNL A   1      45.311  18.589  24.245  1.00  0.00    -0.744 OA
ENDBRANCH  65  68
ENDBRANCH  47  61
BRANCH  48  72
ATOM     72  C   UNL A   1      45.715  30.261  32.174  1.00  0.00     0.023 A 
ATOM     73  C   UNL A   1      46.819  31.074  31.882  1.00  0.00     0.012 A 
ATOM     74  C   UNL A   1      45.132  30.451  33.460  1.00  0.00     0.148 A 
ATOM     75  C   UNL A   1      47.233  32.093  32.763  1.00  0.00     0.002 A 
ATOM     76  C   UNL A   1      45.454  31.531  34.270  1.00  0.00     0.091 A 
ATOM     77  F   UNL A   1      44.270  29.548  33.939  1.00  0.00    -0.205 F 
ATOM     78  C   UNL A   1      46.519  32.357  33.931  1.00  0.00     0.022 A 
BRANCH  76  79
ATOM     79  S   UNL A   1      44.418  31.997  35.671  1.00  0.00     0.127 S 
ATOM     80  O   UNL A   1      44.665  33.434  35.775  1.00  0.00    -0.237 OA
ATOM     81  O   UNL A   1      43.088  31.634  35.182  1.00  0.00    -0.237 OA
ATOM     82  O   UNL A   1      44.879  31.205  36.803  1.00  0.00    -0.744 OA
ENDBRANCH  76  79
ENDBRANCH  48  72
BRANCH  60  83
ATOM     83  C   UNL A   1      45.692  26.273  27.486  1.00  0.00     0.023 A 
ATOM     84  C   UNL A   1      44.449  26.676  26.955  1.00  0.00     0.012 A 
ATOM     85  C   UNL A   1      46.826  26.433  26.654  1.00  0.00     0.148 A 
ATOM     86  C   UNL A   1      44.329  27.189  25.660  1.00  0.00     0.002 A 
ATOM     87  C   UNL A   1      46.708  26.932  25.350  1.00  0.00     0.091 A 
ATOM     88  F   UNL A   1      48.020  26.093  27.133  1.00  0.00    -0.205 F 
ATOM     89  C   UNL A   1      45.454  27.314  24.857  1.00  0.00     0.022 A 
BRANCH  87  90
ATOM     90  S   UNL A   1      48.086  27.067  24.186  1.00  0.00     0.127 S 
ATOM     91  O   UNL A   1      48.932  28.083  24.816  1.00  0.00    -0.237 OA
ATOM     92  O   UNL A   1      48.649  25.720  24.213  1.00  0.00    -0.237 OA
ATOM     93  O   UNL A   1      47.518  27.482  22.908  1.00  0.00    -0.744 OA
ENDBRANCH  87  90
ENDBRANCH  60  83
ENDBRANCH  34  35
ENDBRANCH  26  29
ENDBRANCH  24  25
ENDBRANCH  23  24
ENDBRANCH   1  23
TORSDOF 17
ENDMDL
MODEL 3
REMARK VINA RESULT:     -11.8      4.450     10.017
REMARK SMILES CCn1cccc1C(=O)N(C)c1snc(C)c1C(=O)NCCCNC(=O)c1ccc(-c2c3nc(c(-c4cccc(S(=O)(=O)[O-])c4F)c4ccc([nH]4)c(-c4cccc(S(=O)(=O)[O-])c4F)c4nc(c(-c5cccc(S(=O)(=O)[O-])c5F)c5ccc2[nH]5)C=C4)C=C3)cc1
REMARK SMILES IDX 21 1 20 2 18 3 19 4 17 6 12 7 13 8 14 9 15 10 16 11 10 12
REMARK SMILES IDX 11 13 8 14 9 15 7 16 3 17 4 18 5 19 6 20 2 21 1 22 22 23
REMARK SMILES IDX 23 24 24 25 25 26 26 28 27 29 28 30 89 31 29 32 88 33 30 34
REMARK SMILES IDX 31 35 32 36 82 37 33 38 87 39 81 40 83 41 34 42 86 43 80 44
REMARK SMILES IDX 79 45 35 47 67 48 47 49 66 50 48 51 51 52 65 53 84 54 49 55
REMARK SMILES IDX 50 56 64 58 85 59 52 60 36 61 37 62 45 63 38 64 40 65 46 66
REMARK SMILES IDX 39 67 41 68 42 69 43 70 44 71 68 72 69 73 77 74 70 75 72 76
REMARK SMILES IDX 78 77 71 78 73 79 74 80 75 81 76 82 53 83 54 84 62 85 55 86
REMARK SMILES IDX 57 87 63 88 56 89 58 90 59 91 60 92 61 93
REMARK H PARENT 20 5 24 27 83 46 51 57
REMARK Flexibility Score: inf
ROOT
ATOM      1  C   UNL A   1      33.255  27.545  26.328  1.00  0.00     0.118 C 
ENDROOT
BRANCH   1   2
ATOM      2  N   UNL A   1      31.882  27.142  26.279  1.00  0.00    -0.352 N 
ATOM      3  C   UNL A   1      31.370  25.925  25.892  1.00  0.00     0.256 C 
ATOM      4  O   UNL A   1      30.407  25.530  26.555  1.00  0.00    -0.269 OA
ATOM      5  H   UNL A   1      31.223  27.819  26.556  1.00  0.00     0.163 HD
BRANCH   3   6
ATOM      6  C   UNL A   1      31.787  25.171  24.693  1.00  0.00     0.097 A 
ATOM      7  C   UNL A   1      32.246  23.872  24.469  1.00  0.00     0.131 A 
ATOM      8  S   UNL A   1      32.451  23.603  22.788  1.00  0.00    -0.017 S 
ATOM      9  N   UNL A   1      32.131  25.138  22.315  1.00  0.00    -0.195 NA
ATOM     10  C   UNL A   1      31.824  25.866  23.390  1.00  0.00     0.066 A 
ATOM     11  C   UNL A   1      31.612  27.330  23.143  1.00  0.00     0.069 C 
BRANCH   7  12
ATOM     12  N   UNL A   1      32.676  22.795  25.262  1.00  0.00    -0.300 N 
ATOM     13  C   UNL A   1      31.939  21.554  25.125  1.00  0.00     0.154 C 
BRANCH  12  14
ATOM     14  C   UNL A   1      33.778  23.026  26.113  1.00  0.00     0.275 C 
ATOM     15  O   UNL A   1      33.552  23.496  27.236  1.00  0.00    -0.267 OA
BRANCH  14  16
ATOM     16  C   UNL A   1      35.200  22.912  25.679  1.00  0.00     0.107 A 
ATOM     17  N   UNL A   1      36.057  21.926  25.184  1.00  0.00    -0.344 N 
ATOM     18  C   UNL A   1      37.288  22.485  24.875  1.00  0.00     0.086 A 
ATOM     19  C   UNL A   1      37.285  23.805  25.220  1.00  0.00     0.020 A 
ATOM     20  C   UNL A   1      36.002  24.068  25.718  1.00  0.00     0.033 A 
BRANCH  17  21
ATOM     21  C   UNL A   1      35.953  20.478  25.115  1.00  0.00     0.119 C 
ATOM     22  C   UNL A   1      37.284  19.762  24.883  1.00  0.00     0.027 C 
ENDBRANCH  17  21
ENDBRANCH  14  16
ENDBRANCH  12  14
ENDBRANCH   7  12
ENDBRANCH   3   6
ENDBRANCH   1   2
BRANCH   1  23
ATOM     23  C   UNL A   1      33.578  28.767  27.171  1.00  0.00     0.042 C 
BRANCH  23  24
ATOM     24  C   UNL A   1      35.019  29.208  26.987  1.00  0.00     0.118 C 
BRANCH  24  25
ATOM     25  N   UNL A   1      35.342  30.375  27.813  1.00  0.00    -0.352 N 
ATOM     26  C   UNL A   1      36.413  30.567  28.663  1.00  0.00     0.251 C 
ATOM     27  H   UNL A   1      34.707  31.125  27.755  1.00  0.00     0.163 HD
ATOM     28  O   UNL A   1      36.452  31.483  29.456  1.00  0.00    -0.269 OA
BRANCH  26  29
ATOM     29  C   UNL A   1      37.502  29.585  28.620  1.00  0.00     0.039 A 
ATOM     30  C   UNL A   1      38.442  29.686  27.591  1.00  0.00     0.014 A 
ATOM     31  C   UNL A   1      37.625  28.651  29.648  1.00  0.00     0.014 A 
ATOM     32  C   UNL A   1      39.591  28.920  27.666  1.00  0.00     0.010 A 
ATOM     33  C   UNL A   1      38.803  27.950  29.769  1.00  0.00     0.010 A 
ATOM     34  C   UNL A   1      39.784  28.100  28.786  1.00  0.00    -0.014 A 
BRANCH  34  35
ATOM     35  C   UNL A   1      41.098  27.480  29.010  1.00  0.00     0.031 A 
ATOM     36  C   UNL A   1      41.119  26.023  28.509  1.00  0.00     0.074 A 
ATOM     37  C   UNL A   1      42.030  28.303  29.579  1.00  0.00     0.049 A 
ATOM     38  N   UNL A   1      41.683  24.971  29.024  1.00  0.00    -0.248 NA
ATOM     39  C   UNL A   1      40.263  25.643  27.350  1.00  0.00     0.031 C 
ATOM     40  C   UNL A   1      41.781  29.715  29.956  1.00  0.00     0.029 A 
ATOM     41  N   UNL A   1      43.350  28.161  29.939  1.00  0.00    -0.354 N 
ATOM     42  C   UNL A   1      41.473  23.896  28.117  1.00  0.00     0.074 A 
ATOM     43  C   UNL A   1      40.438  24.324  27.229  1.00  0.00     0.031 C 
ATOM     44  C   UNL A   1      42.869  30.266  30.529  1.00  0.00     0.029 A 
ATOM     45  C   UNL A   1      43.933  29.284  30.577  1.00  0.00     0.049 A 
ATOM     46  H   UNL A   1      43.857  27.335  29.766  1.00  0.00     0.167 HD
ATOM     47  C   UNL A   1      42.326  22.827  28.026  1.00  0.00     0.034 A 
ATOM     48  C   UNL A   1      45.168  29.407  31.152  1.00  0.00     0.034 A 
ATOM     49  C   UNL A   1      43.433  23.072  28.896  1.00  0.00     0.049 A 
ATOM     50  C   UNL A   1      45.876  28.157  30.849  1.00  0.00     0.074 A 
ATOM     51  C   UNL A   1      43.586  23.083  30.256  1.00  0.00     0.029 A 
ATOM     52  N   UNL A   1      44.480  23.744  28.305  1.00  0.00    -0.354 N 
ATOM     53  N   UNL A   1      46.337  27.835  29.676  1.00  0.00    -0.248 NA
ATOM     54  C   UNL A   1      45.935  27.111  31.879  1.00  0.00     0.031 C 
ATOM     55  C   UNL A   1      44.478  24.155  30.466  1.00  0.00     0.029 A 
ATOM     56  C   UNL A   1      45.007  24.585  29.241  1.00  0.00     0.049 A 
ATOM     57  H   UNL A   1      44.790  23.636  27.376  1.00  0.00     0.167 HD
ATOM     58  C   UNL A   1      46.366  26.465  29.750  1.00  0.00     0.074 A 
ATOM     59  C   UNL A   1      46.456  26.127  31.154  1.00  0.00     0.031 C 
ATOM     60  C   UNL A   1      45.758  25.729  28.782  1.00  0.00     0.034 A 
BRANCH  47  61
ATOM     61  C   UNL A   1      42.541  21.699  27.028  1.00  0.00     0.023 A 
ATOM     62  C   UNL A   1      41.857  20.484  27.343  1.00  0.00     0.012 A 
ATOM     63  C   UNL A   1      43.529  21.625  26.035  1.00  0.00     0.148 A 
ATOM     64  C   UNL A   1      42.244  19.244  26.840  1.00  0.00     0.002 A 
ATOM     65  C   UNL A   1      43.875  20.382  25.486  1.00  0.00     0.091 A 
ATOM     66  F   UNL A   1      44.186  22.728  25.668  1.00  0.00    -0.205 F 
ATOM     67  C   UNL A   1      43.272  19.192  25.923  1.00  0.00     0.022 A 
BRANCH  65  68
ATOM     68  S   UNL A   1      45.107  20.200  24.190  1.00  0.00     0.127 S 
ATOM     69  O   UNL A   1      44.608  21.110  23.163  1.00  0.00    -0.237 OA
ATOM     70  O   UNL A   1      46.326  20.659  24.864  1.00  0.00    -0.237 OA
ATOM     71  O   UNL A   1      45.118  18.783  23.855  1.00  0.00    -0.744 OA
ENDBRANCH  65  68
ENDBRANCH  47  61
BRANCH  48  72
ATOM     72  C   UNL A   1      45.824  30.388  32.092  1.00  0.00     0.023 A 
ATOM     73  C   UNL A   1      45.427  30.605  33.419  1.00  0.00     0.012 A 
ATOM     74  C   UNL A   1      46.984  31.099  31.670  1.00  0.00     0.148 A 
ATOM     75  C   UNL A   1      46.208  31.380  34.300  1.00  0.00     0.002 A 
ATOM     76  C   UNL A   1      47.820  31.754  32.564  1.00  0.00     0.091 A 
ATOM     77  F   UNL A   1      47.277  31.182  30.369  1.00  0.00    -0.205 F 
ATOM     78  C   UNL A   1      47.430  31.910  33.889  1.00  0.00     0.022 A 
BRANCH  76  79
ATOM     79  S   UNL A   1      49.483  32.268  32.093  1.00  0.00     0.127 S 
ATOM     80  O   UNL A   1      50.037  32.732  33.363  1.00  0.00    -0.237 OA
ATOM     81  O   UNL A   1      50.045  31.011  31.597  1.00  0.00    -0.237 OA
ATOM     82  O   UNL A   1      49.322  33.296  31.074  1.00  0.00    -0.744 OA
ENDBRANCH  76  79
ENDBRANCH  48  72
BRANCH  60  83
ATOM     83  C   UNL A   1      45.684  26.399  27.407  1.00  0.00     0.023 A 
ATOM     84  C   UNL A   1      44.402  26.762  26.945  1.00  0.00     0.012 A 
ATOM     85  C   UNL A   1      46.765  26.594  26.515  1.00  0.00     0.148 A 
ATOM     86  C   UNL A   1      44.196  27.270  25.659  1.00  0.00     0.002 A 
ATOM     87  C   UNL A   1      46.561  27.088  25.220  1.00  0.00     0.091 A 
ATOM     88  F   UNL A   1      47.994  26.292  26.928  1.00  0.00    -0.205 F 
ATOM     89  C   UNL A   1      45.272  27.430  24.796  1.00  0.00     0.022 A 
BRANCH  87  90
ATOM     90  S   UNL A   1      47.869  27.265  23.984  1.00  0.00     0.127 S 
ATOM     91  O   UNL A   1      48.172  25.873  23.643  1.00  0.00    -0.237 OA
ATOM     92  O   UNL A   1      47.197  28.007  22.922  1.00  0.00    -0.237 OA
ATOM     93  O   UNL A   1      48.971  27.965  24.635  1.00  0.00    -0.744 OA
ENDBRANCH  87  90
ENDBRANCH  60  83
ENDBRANCH  34  35
ENDBRANCH  26  29
ENDBRANCH  24  25
ENDBRANCH  23  24
ENDBRANCH   1  23
TORSDOF 17
ENDMDL
