MODEL 1
REMARK VINA RESULT:     -12.7      0.000      0.000
REMARK SMILES O=C(NCCCNC(=O)c1ccc(-c2ccc(F)c(C(F)(F)F)c2)cc1[N+](=O)[O-])c1ccc(-c2c3nc(c(-c4cccc(S(=O)(=O)[O-])c4F)c4ccc([nH]4)c(-c4cccc(S(=O)(=O)[O-])c4F)c4nc(c(-c5cccc(S(=O)(=O)[O-])c5F)c5ccc2[nH]5)C=C4)C=C3)cc1
REMARK SMILES IDX 4 1 3 2 1 3 2 4 30 6 31 7 92 8 32 9 91 10 33 11 34 12 35 13
REMARK SMILES IDX 85 14 36 15 90 16 84 17 86 18 37 19 89 20 83 21 82 22 38 24
REMARK SMILES IDX 70 25 50 26 69 27 51 28 54 29 68 30 87 31 52 32 53 33 67 35
REMARK SMILES IDX 88 36 55 37 39 38 40 39 48 40 41 41 43 42 49 43 42 44 44 45
REMARK SMILES IDX 45 46 46 47 47 48 71 49 72 50 80 51 73 52 75 53 81 54 74 55
REMARK SMILES IDX 76 56 77 57 78 58 79 59 56 60 57 61 65 62 58 63 60 64 66 65
REMARK SMILES IDX 59 66 61 67 62 68 63 69 64 70 5 71 6 72 7 73 8 74 9 76 10 77
REMARK SMILES IDX 11 78 26 79 12 80 25 81 13 82 27 83 28 84 29 85 14 86 15 87
REMARK SMILES IDX 24 88 16 89 19 90 17 91 18 92 20 93 21 94 22 95 23 96
REMARK H PARENT 3 5 86 23 54 34 7 75
REMARK Flexibility Score: inf
ROOT
ATOM      1  C   UNL A   1      38.702  20.377  25.737  1.00  0.00     0.118 C 
ENDROOT
BRANCH   1   2
ATOM      2  N   UNL A   1      39.787  19.418  25.881  1.00  0.00    -0.352 N 
ATOM      3  O   UNL A   1      41.904  18.682  26.034  1.00  0.00    -0.269 OA
ATOM      4  C   UNL A   1      41.125  19.620  26.130  1.00  0.00     0.251 C 
ATOM      5  H   UNL A   1      39.521  18.475  25.786  1.00  0.00     0.163 HD
BRANCH   4   6
ATOM      6  C   UNL A   1      41.616  20.971  26.477  1.00  0.00     0.039 A 
ATOM      7  C   UNL A   1      41.858  21.327  27.805  1.00  0.00     0.014 A 
ATOM      8  C   UNL A   1      41.849  21.892  25.453  1.00  0.00     0.014 A 
ATOM      9  C   UNL A   1      42.164  22.643  28.126  1.00  0.00     0.010 A 
ATOM     10  C   UNL A   1      42.258  23.189  25.769  1.00  0.00     0.010 A 
ATOM     11  C   UNL A   1      42.382  23.586  27.110  1.00  0.00    -0.014 A 
BRANCH  11  12
ATOM     12  C   UNL A   1      42.815  24.961  27.461  1.00  0.00     0.031 A 
ATOM     13  C   UNL A   1      41.865  25.934  28.098  1.00  0.00     0.074 A 
ATOM     14  C   UNL A   1      44.071  25.339  27.155  1.00  0.00     0.049 A 
ATOM     15  N   UNL A   1      42.060  27.189  28.407  1.00  0.00    -0.248 NA
ATOM     16  C   UNL A   1      40.515  25.440  28.418  1.00  0.00     0.031 C 
ATOM     17  C   UNL A   1      45.065  24.491  26.494  1.00  0.00     0.029 A 
ATOM     18  N   UNL A   1      44.717  26.535  27.332  1.00  0.00    -0.354 N 
ATOM     19  C   UNL A   1      40.849  27.652  28.909  1.00  0.00     0.074 A 
ATOM     20  C   UNL A   1      39.923  26.541  28.863  1.00  0.00     0.031 C 
ATOM     21  C   UNL A   1      46.192  25.192  26.314  1.00  0.00     0.029 A 
ATOM     22  C   UNL A   1      45.982  26.553  26.791  1.00  0.00     0.049 A 
ATOM     23  H   UNL A   1      44.317  27.304  27.798  1.00  0.00     0.167 HD
ATOM     24  C   UNL A   1      40.544  28.887  29.374  1.00  0.00     0.034 A 
ATOM     25  C   UNL A   1      46.864  27.561  26.654  1.00  0.00     0.034 A 
ATOM     26  C   UNL A   1      41.484  29.973  29.448  1.00  0.00     0.049 A 
ATOM     27  C   UNL A   1      46.512  28.913  27.197  1.00  0.00     0.074 A 
ATOM     28  C   UNL A   1      41.300  31.235  29.985  1.00  0.00     0.029 A 
ATOM     29  N   UNL A   1      42.782  29.932  28.960  1.00  0.00    -0.354 N 
ATOM     30  N   UNL A   1      45.410  29.293  27.798  1.00  0.00    -0.248 NA
ATOM     31  C   UNL A   1      47.528  29.966  27.077  1.00  0.00     0.031 C 
ATOM     32  C   UNL A   1      42.478  31.965  29.798  1.00  0.00     0.029 A 
ATOM     33  C   UNL A   1      43.405  31.150  29.167  1.00  0.00     0.049 A 
ATOM     34  H   UNL A   1      43.199  29.151  28.529  1.00  0.00     0.167 HD
ATOM     35  C   UNL A   1      45.607  30.623  28.148  1.00  0.00     0.074 A 
ATOM     36  C   UNL A   1      46.941  30.976  27.707  1.00  0.00     0.031 C 
ATOM     37  C   UNL A   1      44.752  31.474  28.766  1.00  0.00     0.034 A 
BRANCH  24  38
ATOM     38  C   UNL A   1      39.139  29.123  29.865  1.00  0.00     0.023 A 
ATOM     39  C   UNL A   1      38.787  28.760  31.181  1.00  0.00     0.012 A 
ATOM     40  C   UNL A   1      38.180  29.747  29.043  1.00  0.00     0.148 A 
ATOM     41  C   UNL A   1      37.495  28.979  31.658  1.00  0.00     0.002 A 
ATOM     42  C   UNL A   1      36.905  29.999  29.540  1.00  0.00     0.091 A 
ATOM     43  F   UNL A   1      38.521  30.066  27.785  1.00  0.00    -0.205 F 
ATOM     44  C   UNL A   1      36.557  29.606  30.842  1.00  0.00     0.022 A 
BRANCH  42  45
ATOM     45  S   UNL A   1      35.660  30.870  28.581  1.00  0.00     0.127 S 
ATOM     46  O   UNL A   1      34.888  31.534  29.630  1.00  0.00    -0.237 OA
ATOM     47  O   UNL A   1      36.470  31.770  27.759  1.00  0.00    -0.237 OA
ATOM     48  O   UNL A   1      34.954  29.841  27.828  1.00  0.00    -0.744 OA
ENDBRANCH  42  45
ENDBRANCH  24  38
BRANCH  25  49
ATOM     49  C   UNL A   1      48.167  27.289  25.989  1.00  0.00     0.023 A 
ATOM     50  C   UNL A   1      49.208  26.688  26.720  1.00  0.00     0.012 A 
ATOM     51  C   UNL A   1      48.335  27.519  24.609  1.00  0.00     0.148 A 
ATOM     52  C   UNL A   1      50.399  26.327  26.088  1.00  0.00     0.002 A 
ATOM     53  C   UNL A   1      49.499  27.104  23.975  1.00  0.00     0.091 A 
ATOM     54  F   UNL A   1      47.331  28.100  23.936  1.00  0.00    -0.205 F 
ATOM     55  C   UNL A   1      50.538  26.519  24.715  1.00  0.00     0.022 A 
BRANCH  53  56
ATOM     56  S   UNL A   1      49.701  27.169  22.191  1.00  0.00     0.127 S 
ATOM     57  O   UNL A   1      49.472  28.585  21.916  1.00  0.00    -0.237 OA
ATOM     58  O   UNL A   1      51.086  26.725  22.029  1.00  0.00    -0.237 OA
ATOM     59  O   UNL A   1      48.710  26.251  21.648  1.00  0.00    -0.744 OA
ENDBRANCH  53  56
ENDBRANCH  25  49
BRANCH  37  60
ATOM     60  C   UNL A   1      45.235  32.873  29.037  1.00  0.00     0.023 A 
ATOM     61  C   UNL A   1      45.974  33.142  30.205  1.00  0.00     0.012 A 
ATOM     62  C   UNL A   1      45.045  33.892  28.083  1.00  0.00     0.148 A 
ATOM     63  C   UNL A   1      46.506  34.412  30.426  1.00  0.00     0.002 A 
ATOM     64  C   UNL A   1      45.616  35.141  28.289  1.00  0.00     0.091 A 
ATOM     65  F   UNL A   1      44.322  33.615  26.988  1.00  0.00    -0.205 F 
ATOM     66  C   UNL A   1      46.339  35.406  29.465  1.00  0.00     0.022 A 
BRANCH  64  67
ATOM     67  S   UNL A   1      45.535  36.454  27.064  1.00  0.00     0.127 S 
ATOM     68  O   UNL A   1      46.152  35.815  25.903  1.00  0.00    -0.237 OA
ATOM     69  O   UNL A   1      44.094  36.678  26.947  1.00  0.00    -0.237 OA
ATOM     70  O   UNL A   1      46.279  37.574  27.626  1.00  0.00    -0.744 OA
ENDBRANCH  64  67
ENDBRANCH  37  60
ENDBRANCH  11  12
ENDBRANCH   4   6
ENDBRANCH   1   2
BRANCH   1  71
ATOM     71  C   UNL A   1      37.494  19.804  25.012  1.00  0.00     0.042 C 
BRANCH  71  72
ATOM     72  C   UNL A   1      36.266  20.700  25.039  1.00  0.00     0.118 C 
BRANCH  72  73
ATOM     73  N   UNL A   1      35.027  19.951  25.193  1.00  0.00    -0.352 N 
ATOM     74  C   UNL A   1      33.726  20.363  25.114  1.00  0.00     0.258 C 
ATOM     75  H   UNL A   1      35.144  18.992  25.385  1.00  0.00     0.163 HD
ATOM     76  O   UNL A   1      32.807  19.604  25.402  1.00  0.00    -0.269 OA
BRANCH  74  77
ATOM     77  C   UNL A   1      33.411  21.746  24.729  1.00  0.00     0.117 A 
ATOM     78  C   UNL A   1      33.395  22.043  23.363  1.00  0.00     0.022 A 
ATOM     79  C   UNL A   1      33.172  22.770  25.643  1.00  0.00     0.282 A 
ATOM     80  C   UNL A   1      33.113  23.344  22.929  1.00  0.00     0.010 A 
ATOM     81  C   UNL A   1      32.854  24.065  25.215  1.00  0.00     0.095 A 
ATOM     82  C   UNL A   1      32.835  24.376  23.845  1.00  0.00    -0.012 A 
BRANCH  79  83
ATOM     83  N   UNL A   1      33.292  22.545  27.070  1.00  0.00     0.063 N 
ATOM     84  O   UNL A   1      32.272  22.724  27.748  1.00  0.00    -0.258 OA
ATOM     85  O   UNL A   1      34.404  22.232  27.510  1.00  0.00    -0.258 OA
ENDBRANCH  79  83
BRANCH  82  86
ATOM     86  C   UNL A   1      32.589  25.755  23.389  1.00  0.00    -0.017 A 
ATOM     87  C   UNL A   1      33.609  26.540  22.826  1.00  0.00     0.012 A 
ATOM     88  C   UNL A   1      31.312  26.334  23.525  1.00  0.00     0.025 A 
ATOM     89  C   UNL A   1      33.363  27.855  22.425  1.00  0.00     0.040 A 
ATOM     90  C   UNL A   1      31.052  27.652  23.114  1.00  0.00     0.092 A 
ATOM     91  C   UNL A   1      32.091  28.398  22.574  1.00  0.00     0.135 A 
ATOM     92  F   UNL A   1      31.880  29.664  22.194  1.00  0.00    -0.206 F 
BRANCH  90  93
ATOM     93  C   UNL A   1      29.696  28.268  23.267  1.00  0.00     0.419 C 
ATOM     94  F   UNL A   1      28.798  27.429  23.854  1.00  0.00    -0.166 F 
ATOM     95  F   UNL A   1      29.702  29.406  24.013  1.00  0.00    -0.166 F 
ATOM     96  F   UNL A   1      29.136  28.622  22.073  1.00  0.00    -0.166 F 
ENDBRANCH  90  93
ENDBRANCH  82  86
ENDBRANCH  74  77
ENDBRANCH  72  73
ENDBRANCH  71  72
ENDBRANCH   1  71
TORSDOF 16
ENDMDL
MODEL 2
REMARK VINA RESULT:     -12.6      4.497     10.939
REMARK SMILES O=C(NCCCNC(=O)c1ccc(-c2ccc(F)c(C(F)(F)F)c2)cc1[N+](=O)[O-])c1ccc(-c2c3nc(c(-c4cccc(S(=O)(=O)[O-])c4F)c4ccc([nH]4)c(-c4cccc(S(=O)(=O)[O-])c4F)c4nc(c(-c5cccc(S(=O)(=O)[O-])c5F)c5ccc2[nH]5)C=C4)C=C3)cc1
REMARK SMILES IDX 4 1 3 2 1 3 2 4 30 6 31 7 92 8 32 9 91 10 33 11 34 12 35 13
REMARK SMILES IDX 85 14 36 15 90 16 84 17 86 18 37 19 89 20 83 21 82 22 38 24
REMARK SMILES IDX 70 25 50 26 69 27 51 28 54 29 68 30 87 31 52 32 53 33 67 35
REMARK SMILES IDX 88 36 55 37 39 38 40 39 48 40 41 41 43 42 49 43 42 44 44 45
REMARK SMILES IDX 45 46 46 47 47 48 71 49 72 50 80 51 73 52 75 53 81 54 74 55
REMARK SMILES IDX 76 56 77 57 78 58 79 59 56 60 57 61 65 62 58 63 60 64 66 65
REMARK SMILES IDX 59 66 61 67 62 68 63 69 64 70 5 71 6 72 7 73 8 74 9 76 10 77
REMARK SMILES IDX 11 78 26 79 12 80 25 81 13 82 27 83 28 84 29 85 14 86 15 87
REMARK SMILES IDX 24 88 16 89 19 90 17 91 18 92 20 93 21 94 22 95 23 96
REMARK H PARENT 3 5 86 23 54 34 7 75
REMARK Flexibility Score: inf
ROOT
ATOM      1  C   UNL A   1      40.602  21.261  26.997  1.00  0.00     0.118 C 
ENDROOT
BRANCH   1   2
ATOM      2  N   UNL A   1      39.368  21.535  26.275  1.00  0.00    -0.352 N 
ATOM      3  O   UNL A   1      37.535  22.673  25.648  1.00  0.00    -0.269 OA
ATOM      4  C   UNL A   1      38.648  22.701  26.155  1.00  0.00     0.251 C 
ATOM      5  H   UNL A   1      38.989  20.763  25.796  1.00  0.00     0.163 HD
BRANCH   4   6
ATOM      6  C   UNL A   1      39.207  23.970  26.668  1.00  0.00     0.039 A 
ATOM      7  C   UNL A   1      39.038  24.340  28.004  1.00  0.00     0.014 A 
ATOM      8  C   UNL A   1      39.922  24.797  25.799  1.00  0.00     0.014 A 
ATOM      9  C   UNL A   1      39.428  25.603  28.429  1.00  0.00     0.010 A 
ATOM     10  C   UNL A   1      40.406  26.026  26.255  1.00  0.00     0.010 A 
ATOM     11  C   UNL A   1      40.131  26.455  27.563  1.00  0.00    -0.014 A 
BRANCH  11  12
ATOM     12  C   UNL A   1      40.637  27.757  28.061  1.00  0.00     0.031 A 
ATOM     13  C   UNL A   1      42.109  28.048  28.112  1.00  0.00     0.074 A 
ATOM     14  C   UNL A   1      39.749  28.664  28.511  1.00  0.00     0.049 A 
ATOM     15  N   UNL A   1      42.721  29.106  28.579  1.00  0.00    -0.248 NA
ATOM     16  C   UNL A   1      43.015  27.015  27.586  1.00  0.00     0.031 C 
ATOM     17  C   UNL A   1      38.297  28.470  28.550  1.00  0.00     0.029 A 
ATOM     18  N   UNL A   1      39.932  29.914  29.045  1.00  0.00    -0.354 N 
ATOM     19  C   UNL A   1      44.080  28.848  28.451  1.00  0.00     0.074 A 
ATOM     20  C   UNL A   1      44.205  27.532  27.862  1.00  0.00     0.031 C 
ATOM     21  C   UNL A   1      37.722  29.555  29.085  1.00  0.00     0.029 A 
ATOM     22  C   UNL A   1      38.764  30.495  29.480  1.00  0.00     0.049 A 
ATOM     23  H   UNL A   1      40.811  30.351  29.111  1.00  0.00     0.167 HD
ATOM     24  C   UNL A   1      45.127  29.641  28.785  1.00  0.00     0.034 A 
ATOM     25  C   UNL A   1      38.552  31.637  30.160  1.00  0.00     0.034 A 
ATOM     26  C   UNL A   1      44.989  30.963  29.336  1.00  0.00     0.049 A 
ATOM     27  C   UNL A   1      39.723  32.509  30.497  1.00  0.00     0.074 A 
ATOM     28  C   UNL A   1      45.982  31.882  29.625  1.00  0.00     0.029 A 
ATOM     29  N   UNL A   1      43.784  31.551  29.694  1.00  0.00    -0.354 N 
ATOM     30  N   UNL A   1      40.993  32.312  30.240  1.00  0.00    -0.248 NA
ATOM     31  C   UNL A   1      39.436  33.774  31.187  1.00  0.00     0.031 C 
ATOM     32  C   UNL A   1      45.379  33.016  30.181  1.00  0.00     0.029 A 
ATOM     33  C   UNL A   1      44.009  32.813  30.216  1.00  0.00     0.049 A 
ATOM     34  H   UNL A   1      42.899  31.132  29.591  1.00  0.00     0.167 HD
ATOM     35  C   UNL A   1      41.658  33.435  30.716  1.00  0.00     0.074 A 
ATOM     36  C   UNL A   1      40.645  34.317  31.261  1.00  0.00     0.031 C 
ATOM     37  C   UNL A   1      42.986  33.702  30.711  1.00  0.00     0.034 A 
BRANCH  24  38
ATOM     38  C   UNL A   1      46.515  29.111  28.538  1.00  0.00     0.023 A 
ATOM     39  C   UNL A   1      47.123  29.298  27.280  1.00  0.00     0.012 A 
ATOM     40  C   UNL A   1      47.238  28.471  29.564  1.00  0.00     0.148 A 
ATOM     41  C   UNL A   1      48.411  28.823  27.035  1.00  0.00     0.002 A 
ATOM     42  C   UNL A   1      48.538  28.036  29.324  1.00  0.00     0.091 A 
ATOM     43  F   UNL A   1      46.640  28.278  30.749  1.00  0.00    -0.205 F 
ATOM     44  C   UNL A   1      49.122  28.201  28.058  1.00  0.00     0.022 A 
BRANCH  42  45
ATOM     45  S   UNL A   1      49.550  27.292  30.609  1.00  0.00     0.127 S 
ATOM     46  O   UNL A   1      48.838  26.040  30.859  1.00  0.00    -0.237 OA
ATOM     47  O   UNL A   1      50.842  27.134  29.938  1.00  0.00    -0.237 OA
ATOM     48  O   UNL A   1      49.557  28.250  31.707  1.00  0.00    -0.744 OA
ENDBRANCH  42  45
ENDBRANCH  24  38
BRANCH  25  49
ATOM     49  C   UNL A   1      37.157  32.004  30.529  1.00  0.00     0.023 A 
ATOM     50  C   UNL A   1      36.721  31.829  31.855  1.00  0.00     0.012 A 
ATOM     51  C   UNL A   1      36.305  32.631  29.598  1.00  0.00     0.148 A 
ATOM     52  C   UNL A   1      35.455  32.265  32.246  1.00  0.00     0.002 A 
ATOM     53  C   UNL A   1      35.070  33.116  30.009  1.00  0.00     0.091 A 
ATOM     54  F   UNL A   1      36.742  32.780  28.340  1.00  0.00    -0.205 F 
ATOM     55  C   UNL A   1      34.637  32.922  31.329  1.00  0.00     0.022 A 
BRANCH  53  56
ATOM     56  S   UNL A   1      34.021  34.109  28.940  1.00  0.00     0.127 S 
ATOM     57  O   UNL A   1      32.997  34.572  29.874  1.00  0.00    -0.237 OA
ATOM     58  O   UNL A   1      34.951  35.142  28.482  1.00  0.00    -0.237 OA
ATOM     59  O   UNL A   1      33.560  33.209  27.893  1.00  0.00    -0.744 OA
ENDBRANCH  53  56
ENDBRANCH  25  49
BRANCH  37  60
ATOM     60  C   UNL A   1      43.436  35.017  31.287  1.00  0.00     0.023 A 
ATOM     61  C   UNL A   1      43.830  35.090  32.637  1.00  0.00     0.012 A 
ATOM     62  C   UNL A   1      43.567  36.151  30.461  1.00  0.00     0.148 A 
ATOM     63  C   UNL A   1      44.335  36.279  33.161  1.00  0.00     0.002 A 
ATOM     64  C   UNL A   1      44.113  37.318  30.979  1.00  0.00     0.091 A 
ATOM     65  F   UNL A   1      43.168  36.061  29.184  1.00  0.00    -0.205 F 
ATOM     66  C   UNL A   1      44.489  37.387  32.332  1.00  0.00     0.022 A 
BRANCH  64  67
ATOM     67  S   UNL A   1      44.437  38.765  29.964  1.00  0.00     0.127 S 
ATOM     68  O   UNL A   1      45.009  39.691  30.941  1.00  0.00    -0.237 OA
ATOM     69  O   UNL A   1      45.389  38.247  28.982  1.00  0.00    -0.237 OA
ATOM     70  O   UNL A   1      43.150  39.164  29.409  1.00  0.00    -0.744 OA
ENDBRANCH  64  67
ENDBRANCH  37  60
ENDBRANCH  11  12
ENDBRANCH   4   6
ENDBRANCH   1   2
BRANCH   1  71
ATOM     71  C   UNL A   1      41.426  20.149  26.366  1.00  0.00     0.042 C 
BRANCH  71  72
ATOM     72  C   UNL A   1      42.871  20.527  26.083  1.00  0.00     0.118 C 
BRANCH  72  73
ATOM     73  N   UNL A   1      42.990  21.736  25.281  1.00  0.00    -0.352 N 
ATOM     74  C   UNL A   1      43.294  23.017  25.649  1.00  0.00     0.258 C 
ATOM     75  H   UNL A   1      42.823  21.612  24.318  1.00  0.00     0.163 HD
ATOM     76  O   UNL A   1      43.220  23.938  24.843  1.00  0.00    -0.269 OA
BRANCH  74  77
ATOM     77  C   UNL A   1      43.666  23.319  27.039  1.00  0.00     0.117 A 
ATOM     78  C   UNL A   1      42.631  23.627  27.926  1.00  0.00     0.022 A 
ATOM     79  C   UNL A   1      44.979  23.355  27.499  1.00  0.00     0.282 A 
ATOM     80  C   UNL A   1      42.918  23.935  29.262  1.00  0.00     0.010 A 
ATOM     81  C   UNL A   1      45.271  23.627  28.842  1.00  0.00     0.095 A 
ATOM     82  C   UNL A   1      44.240  23.938  29.744  1.00  0.00    -0.012 A 
BRANCH  79  83
ATOM     83  N   UNL A   1      46.097  23.160  26.596  1.00  0.00     0.063 N 
ATOM     84  O   UNL A   1      46.943  24.063  26.555  1.00  0.00    -0.258 OA
ATOM     85  O   UNL A   1      46.105  22.134  25.906  1.00  0.00    -0.258 OA
ENDBRANCH  79  83
BRANCH  82  86
ATOM     86  C   UNL A   1      44.544  24.313  31.136  1.00  0.00    -0.017 A 
ATOM     87  C   UNL A   1      45.284  25.467  31.445  1.00  0.00     0.012 A 
ATOM     88  C   UNL A   1      44.111  23.503  32.203  1.00  0.00     0.025 A 
ATOM     89  C   UNL A   1      45.585  25.790  32.770  1.00  0.00     0.040 A 
ATOM     90  C   UNL A   1      44.399  23.825  33.540  1.00  0.00     0.092 A 
ATOM     91  C   UNL A   1      45.144  24.968  33.801  1.00  0.00     0.135 A 
ATOM     92  F   UNL A   1      45.454  25.291  35.063  1.00  0.00    -0.206 F 
BRANCH  90  93
ATOM     93  C   UNL A   1      43.944  22.959  34.672  1.00  0.00     0.419 C 
ATOM     94  F   UNL A   1      42.625  23.125  34.967  1.00  0.00    -0.166 F 
ATOM     95  F   UNL A   1      44.120  21.630  34.437  1.00  0.00    -0.166 F 
ATOM     96  F   UNL A   1      44.611  23.211  35.836  1.00  0.00    -0.166 F 
ENDBRANCH  90  93
ENDBRANCH  82  86
ENDBRANCH  74  77
ENDBRANCH  72  73
ENDBRANCH  71  72
ENDBRANCH   1  71
TORSDOF 16
ENDMDL
MODEL 3
REMARK VINA RESULT:     -12.6      2.818      8.156
REMARK SMILES O=C(NCCCNC(=O)c1ccc(-c2ccc(F)c(C(F)(F)F)c2)cc1[N+](=O)[O-])c1ccc(-c2c3nc(c(-c4cccc(S(=O)(=O)[O-])c4F)c4ccc([nH]4)c(-c4cccc(S(=O)(=O)[O-])c4F)c4nc(c(-c5cccc(S(=O)(=O)[O-])c5F)c5ccc2[nH]5)C=C4)C=C3)cc1
REMARK SMILES IDX 4 1 3 2 1 3 2 4 30 6 31 7 92 8 32 9 91 10 33 11 34 12 35 13
REMARK SMILES IDX 85 14 36 15 90 16 84 17 86 18 37 19 89 20 83 21 82 22 38 24
REMARK SMILES IDX 70 25 50 26 69 27 51 28 54 29 68 30 87 31 52 32 53 33 67 35
REMARK SMILES IDX 88 36 55 37 39 38 40 39 48 40 41 41 43 42 49 43 42 44 44 45
REMARK SMILES IDX 45 46 46 47 47 48 71 49 72 50 80 51 73 52 75 53 81 54 74 55
REMARK SMILES IDX 76 56 77 57 78 58 79 59 56 60 57 61 65 62 58 63 60 64 66 65
REMARK SMILES IDX 59 66 61 67 62 68 63 69 64 70 5 71 6 72 7 73 8 74 9 76 10 77
REMARK SMILES IDX 11 78 26 79 12 80 25 81 13 82 27 83 28 84 29 85 14 86 15 87
REMARK SMILES IDX 24 88 16 89 19 90 17 91 18 92 20 93 21 94 22 95 23 96
REMARK H PARENT 3 5 86 23 54 34 7 75
REMARK Flexibility Score: inf
ROOT
ATOM      1  C   UNL A   1      37.141  23.564  24.767  1.00  0.00     0.118 C 
ENDROOT
BRANCH   1   2
ATOM      2  N   UNL A   1      37.971  22.555  25.407  1.00  0.00    -0.352 N 
ATOM      3  O   UNL A   1      39.733  21.710  26.516  1.00  0.00    -0.269 OA
ATOM      4  C   UNL A   1      39.066  22.694  26.229  1.00  0.00     0.251 C 
ATOM      5  H   UNL A   1      37.707  21.624  25.224  1.00  0.00     0.163 HD
BRANCH   4   6
ATOM      6  C   UNL A   1      39.448  24.033  26.729  1.00  0.00     0.039 A 
ATOM      7  C   UNL A   1      40.093  24.952  25.900  1.00  0.00     0.014 A 
ATOM      8  C   UNL A   1      39.143  24.375  28.049  1.00  0.00     0.014 A 
ATOM      9  C   UNL A   1      40.585  26.138  26.429  1.00  0.00     0.010 A 
ATOM     10  C   UNL A   1      39.548  25.613  28.553  1.00  0.00     0.010 A 
ATOM     11  C   UNL A   1      40.305  26.489  27.758  1.00  0.00    -0.014 A 
BRANCH  11  12
ATOM     12  C   UNL A   1      40.744  27.806  28.280  1.00  0.00     0.031 A 
ATOM     13  C   UNL A   1      42.200  28.121  28.467  1.00  0.00     0.074 A 
ATOM     14  C   UNL A   1      39.804  28.706  28.629  1.00  0.00     0.049 A 
ATOM     15  N   UNL A   1      42.749  29.194  28.973  1.00  0.00    -0.248 NA
ATOM     16  C   UNL A   1      43.166  27.093  28.047  1.00  0.00     0.031 C 
ATOM     17  C   UNL A   1      38.358  28.490  28.532  1.00  0.00     0.029 A 
ATOM     18  N   UNL A   1      39.918  29.966  29.157  1.00  0.00    -0.354 N 
ATOM     19  C   UNL A   1      44.118  28.955  28.980  1.00  0.00     0.074 A 
ATOM     20  C   UNL A   1      44.317  27.633  28.427  1.00  0.00     0.031 C 
ATOM     21  C   UNL A   1      37.719  29.573  28.992  1.00  0.00     0.029 A 
ATOM     22  C   UNL A   1      38.705  30.535  29.470  1.00  0.00     0.049 A 
ATOM     23  H   UNL A   1      40.781  30.418  29.300  1.00  0.00     0.167 HD
ATOM     24  C   UNL A   1      45.116  29.770  29.400  1.00  0.00     0.034 A 
ATOM     25  C   UNL A   1      38.413  31.685  30.107  1.00  0.00     0.034 A 
ATOM     26  C   UNL A   1      44.908  31.098  29.913  1.00  0.00     0.049 A 
ATOM     27  C   UNL A   1      39.535  32.579  30.541  1.00  0.00     0.074 A 
ATOM     28  C   UNL A   1      45.856  32.036  30.280  1.00  0.00     0.029 A 
ATOM     29  N   UNL A   1      43.667  31.672  30.144  1.00  0.00    -0.354 N 
ATOM     30  N   UNL A   1      40.826  32.397  30.409  1.00  0.00    -0.248 NA
ATOM     31  C   UNL A   1      39.166  33.849  31.179  1.00  0.00     0.031 C 
ATOM     32  C   UNL A   1      45.188  33.168  30.758  1.00  0.00     0.029 A 
ATOM     33  C   UNL A   1      43.823  32.944  30.665  1.00  0.00     0.049 A 
ATOM     34  H   UNL A   1      42.801  31.238  29.965  1.00  0.00     0.167 HD
ATOM     35  C   UNL A   1      41.426  33.537  30.928  1.00  0.00     0.074 A 
ATOM     36  C   UNL A   1      40.354  34.412  31.359  1.00  0.00     0.031 C 
ATOM     37  C   UNL A   1      42.745  33.825  31.046  1.00  0.00     0.034 A 
BRANCH  24  38
ATOM     38  C   UNL A   1      46.530  29.257  29.295  1.00  0.00     0.023 A 
ATOM     39  C   UNL A   1      47.110  28.577  30.385  1.00  0.00     0.012 A 
ATOM     40  C   UNL A   1      47.267  29.404  28.103  1.00  0.00     0.148 A 
ATOM     41  C   UNL A   1      48.413  28.086  30.305  1.00  0.00     0.002 A 
ATOM     42  C   UNL A   1      48.551  28.876  28.017  1.00  0.00     0.091 A 
ATOM     43  F   UNL A   1      46.711  30.074  27.082  1.00  0.00    -0.205 F 
ATOM     44  C   UNL A   1      49.129  28.227  29.119  1.00  0.00     0.022 A 
BRANCH  42  45
ATOM     45  S   UNL A   1      49.514  28.948  26.502  1.00  0.00     0.127 S 
ATOM     46  O   UNL A   1      49.812  30.376  26.408  1.00  0.00    -0.237 OA
ATOM     47  O   UNL A   1      50.668  28.106  26.823  1.00  0.00    -0.237 OA
ATOM     48  O   UNL A   1      48.650  28.410  25.461  1.00  0.00    -0.744 OA
ENDBRANCH  42  45
ENDBRANCH  24  38
BRANCH  25  49
ATOM     49  C   UNL A   1      36.985  32.035  30.335  1.00  0.00     0.023 A 
ATOM     50  C   UNL A   1      36.408  31.813  31.599  1.00  0.00     0.012 A 
ATOM     51  C   UNL A   1      36.234  32.692  29.340  1.00  0.00     0.148 A 
ATOM     52  C   UNL A   1      35.105  32.232  31.866  1.00  0.00     0.002 A 
ATOM     53  C   UNL A   1      34.960  33.160  29.630  1.00  0.00     0.091 A 
ATOM     54  F   UNL A   1      36.804  32.886  28.142  1.00  0.00    -0.205 F 
ATOM     55  C   UNL A   1      34.387  32.919  30.889  1.00  0.00     0.022 A 
BRANCH  53  56
ATOM     56  S   UNL A   1      34.026  34.188  28.489  1.00  0.00     0.127 S 
ATOM     57  O   UNL A   1      33.766  33.257  27.394  1.00  0.00    -0.237 OA
ATOM     58  O   UNL A   1      32.854  34.539  29.292  1.00  0.00    -0.237 OA
ATOM     59  O   UNL A   1      34.895  35.312  28.171  1.00  0.00    -0.744 OA
ENDBRANCH  53  56
ENDBRANCH  25  49
BRANCH  37  60
ATOM     60  C   UNL A   1      43.120  35.155  31.640  1.00  0.00     0.023 A 
ATOM     61  C   UNL A   1      43.220  35.292  33.038  1.00  0.00     0.012 A 
ATOM     62  C   UNL A   1      43.473  36.236  30.808  1.00  0.00     0.148 A 
ATOM     63  C   UNL A   1      43.654  36.492  33.600  1.00  0.00     0.002 A 
ATOM     64  C   UNL A   1      43.947  37.412  31.374  1.00  0.00     0.091 A 
ATOM     65  F   UNL A   1      43.351  36.087  29.481  1.00  0.00    -0.205 F 
ATOM     66  C   UNL A   1      44.029  37.546  32.770  1.00  0.00     0.022 A 
BRANCH  64  67
ATOM     67  S   UNL A   1      44.543  38.788  30.384  1.00  0.00     0.127 S 
ATOM     68  O   UNL A   1      43.349  39.143  29.618  1.00  0.00    -0.237 OA
ATOM     69  O   UNL A   1      44.925  39.762  31.406  1.00  0.00    -0.237 OA
ATOM     70  O   UNL A   1      45.653  38.267  29.597  1.00  0.00    -0.744 OA
ENDBRANCH  64  67
ENDBRANCH  37  60
ENDBRANCH  11  12
ENDBRANCH   4   6
ENDBRANCH   1   2
BRANCH   1  71
ATOM     71  C   UNL A   1      36.317  23.012  23.613  1.00  0.00     0.042 C 
BRANCH  71  72
ATOM     72  C   UNL A   1      34.857  22.759  23.954  1.00  0.00     0.118 C 
BRANCH  72  73
ATOM     73  N   UNL A   1      34.659  22.410  25.354  1.00  0.00    -0.352 N 
ATOM     74  C   UNL A   1      34.081  23.119  26.370  1.00  0.00     0.258 C 
ATOM     75  H   UNL A   1      34.995  21.521  25.610  1.00  0.00     0.163 HD
ATOM     76  O   UNL A   1      34.121  22.708  27.525  1.00  0.00    -0.269 OA
BRANCH  74  77
ATOM     77  C   UNL A   1      33.446  24.416  26.100  1.00  0.00     0.117 A 
ATOM     78  C   UNL A   1      34.289  25.516  25.915  1.00  0.00     0.022 A 
ATOM     79  C   UNL A   1      32.068  24.612  26.061  1.00  0.00     0.282 A 
ATOM     80  C   UNL A   1      33.748  26.783  25.664  1.00  0.00     0.010 A 
ATOM     81  C   UNL A   1      31.520  25.869  25.776  1.00  0.00     0.095 A 
ATOM     82  C   UNL A   1      32.357  26.982  25.588  1.00  0.00    -0.012 A 
BRANCH  79  83
ATOM     83  N   UNL A   1      31.149  23.532  26.362  1.00  0.00     0.063 N 
ATOM     84  O   UNL A   1      30.857  23.367  27.555  1.00  0.00    -0.258 OA
ATOM     85  O   UNL A   1      30.756  22.832  25.421  1.00  0.00    -0.258 OA
ENDBRANCH  79  83
BRANCH  82  86
ATOM     86  C   UNL A   1      31.789  28.324  25.375  1.00  0.00    -0.017 A 
ATOM     87  C   UNL A   1      32.136  29.411  26.196  1.00  0.00     0.012 A 
ATOM     88  C   UNL A   1      30.858  28.550  24.343  1.00  0.00     0.025 A 
ATOM     89  C   UNL A   1      31.565  30.670  25.996  1.00  0.00     0.040 A 
ATOM     90  C   UNL A   1      30.286  29.815  24.127  1.00  0.00     0.092 A 
ATOM     91  C   UNL A   1      30.647  30.859  24.968  1.00  0.00     0.135 A 
ATOM     92  F   UNL A   1      30.104  32.071  24.802  1.00  0.00    -0.206 F 
BRANCH  90  93
ATOM     93  C   UNL A   1      29.291  30.050  23.033  1.00  0.00     0.419 C 
ATOM     94  F   UNL A   1      29.387  31.296  22.491  1.00  0.00    -0.166 F 
ATOM     95  F   UNL A   1      29.409  29.172  22.001  1.00  0.00    -0.166 F 
ATOM     96  F   UNL A   1      27.999  29.938  23.458  1.00  0.00    -0.166 F 
ENDBRANCH  90  93
ENDBRANCH  82  86
ENDBRANCH  74  77
ENDBRANCH  72  73
ENDBRANCH  71  72
ENDBRANCH   1  71
TORSDOF 16
ENDMDL
