MODEL 1
REMARK VINA RESULT:     -10.1      0.000      0.000
REMARK SMILES C=CCN(CC(=O)NCCCNC(=O)c1ccc(-c2c3nc(c(-c4cccc(S(=O)(=O)[O-])c4F)c4ccc([nH]4)c(-c4cccc(S(=O)(=O)[O-])c4F)c4nc(c(-c5cccc(S(=O)(=O)[O-])c5F)c5ccc2[nH]5)C=C4)C=C3)cc1)C(=O)N1CC[C@@H](C(=O)OC)C1
REMARK SMILES IDX 9 1 8 2 6 3 7 4 5 6 4 7 3 8 2 9 1 10 78 11 79 12 80 13 81 14
REMARK SMILES IDX 88 15 82 16 83 17 84 18 85 19 86 20 87 21 10 22 11 23 12 24
REMARK SMILES IDX 13 25 14 27 15 28 16 29 77 30 17 31 76 32 18 33 19 34 20 35
REMARK SMILES IDX 70 36 21 37 75 38 69 39 71 40 22 41 74 42 68 43 67 44 23 46
REMARK SMILES IDX 55 47 35 48 54 49 36 50 39 51 53 52 72 53 37 54 38 55 52 57
REMARK SMILES IDX 73 58 40 59 24 60 25 61 33 62 26 63 28 64 34 65 27 66 29 67
REMARK SMILES IDX 30 68 31 69 32 70 56 71 57 72 65 73 58 74 60 75 66 76 59 77
REMARK SMILES IDX 61 78 62 79 63 80 64 81 41 82 42 83 50 84 43 85 45 86 51 87
REMARK SMILES IDX 44 88 46 89 47 90 48 91 49 92
REMARK H PARENT 8 5 12 26 71 45 39 56
REMARK Flexibility Score: inf
ROOT
ATOM      1  C   UNL A   1      31.846  27.987  26.179  1.00  0.00     0.117 C 
ENDROOT
BRANCH   1   2
ATOM      2  N   UNL A   1      31.140  26.835  26.694  1.00  0.00    -0.354 N 
ATOM      3  C   UNL A   1      30.650  25.749  26.036  1.00  0.00     0.239 C 
ATOM      4  O   UNL A   1      30.498  24.721  26.710  1.00  0.00    -0.273 OA
ATOM      5  H   UNL A   1      30.991  26.837  27.667  1.00  0.00     0.163 HD
BRANCH   3   6
ATOM      6  C   UNL A   1      30.387  25.717  24.517  1.00  0.00     0.221 C 
BRANCH   6   7
ATOM      7  N   UNL A   1      31.525  25.633  23.592  1.00  0.00    -0.312 N 
BRANCH   7   8
ATOM      8  C   UNL A   1      31.548  26.585  22.480  1.00  0.00     0.149 C 
BRANCH   8   9
ATOM      9  C   UNL A   1      30.459  27.609  22.585  1.00  0.00    -0.013 C 
ATOM     10  C   UNL A   1      30.720  28.922  22.683  1.00  0.00     0.006 C 
ENDBRANCH   8   9
ENDBRANCH   7   8
BRANCH   7  11
ATOM     11  C   UNL A   1      32.688  24.902  23.819  1.00  0.00     0.320 C 
ATOM     12  O   UNL A   1      33.720  25.431  24.230  1.00  0.00    -0.248 OA
BRANCH  11  13
ATOM     13  N   UNL A   1      32.628  23.537  23.705  1.00  0.00    -0.324 N 
ATOM     14  C   UNL A   1      32.991  22.744  22.559  1.00  0.00     0.122 C 
ATOM     15  C   UNL A   1      32.705  22.679  24.885  1.00  0.00     0.136 C 
ATOM     16  C   UNL A   1      32.235  21.464  22.843  1.00  0.00     0.039 C 
ATOM     17  C   UNL A   1      32.533  21.247  24.340  1.00  0.00     0.120 C 
BRANCH  17  18
ATOM     18  C   UNL A   1      33.777  20.408  24.589  1.00  0.00     0.310 C 
ATOM     19  O   UNL A   1      34.831  20.844  25.024  1.00  0.00    -0.252 OA
BRANCH  18  20
ATOM     20  O   UNL A   1      33.531  19.090  24.344  1.00  0.00    -0.469 OA
ATOM     21  C   UNL A   1      32.751  18.423  25.337  1.00  0.00     0.282 C 
ENDBRANCH  18  20
ENDBRANCH  17  18
ENDBRANCH  11  13
ENDBRANCH   7  11
ENDBRANCH   6   7
ENDBRANCH   3   6
ENDBRANCH   1   2
BRANCH   1  22
ATOM     22  C   UNL A   1      33.103  28.356  26.955  1.00  0.00     0.042 C 
BRANCH  22  23
ATOM     23  C   UNL A   1      33.955  29.444  26.309  1.00  0.00     0.118 C 
BRANCH  23  24
ATOM     24  N   UNL A   1      33.910  30.711  27.032  1.00  0.00    -0.352 N 
ATOM     25  C   UNL A   1      34.708  31.192  28.043  1.00  0.00     0.251 C 
ATOM     26  H   UNL A   1      33.191  31.321  26.749  1.00  0.00     0.163 HD
ATOM     27  O   UNL A   1      34.377  32.216  28.636  1.00  0.00    -0.269 OA
BRANCH  25  28
ATOM     28  C   UNL A   1      35.946  30.482  28.427  1.00  0.00     0.039 A 
ATOM     29  C   UNL A   1      37.104  30.670  27.666  1.00  0.00     0.014 A 
ATOM     30  C   UNL A   1      35.963  29.617  29.523  1.00  0.00     0.014 A 
ATOM     31  C   UNL A   1      38.298  30.057  28.056  1.00  0.00     0.010 A 
ATOM     32  C   UNL A   1      37.167  29.073  29.955  1.00  0.00     0.010 A 
ATOM     33  C   UNL A   1      38.349  29.289  29.229  1.00  0.00    -0.014 A 
BRANCH  33  34
ATOM     34  C   UNL A   1      39.619  28.711  29.742  1.00  0.00     0.031 A 
ATOM     35  C   UNL A   1      40.376  29.414  30.836  1.00  0.00     0.074 A 
ATOM     36  C   UNL A   1      40.154  27.633  29.135  1.00  0.00     0.049 A 
ATOM     37  N   UNL A   1      41.570  29.166  31.305  1.00  0.00    -0.248 NA
ATOM     38  C   UNL A   1      39.712  30.568  31.465  1.00  0.00     0.031 C 
ATOM     39  C   UNL A   1      39.548  26.897  28.024  1.00  0.00     0.029 A 
ATOM     40  N   UNL A   1      41.353  26.993  29.337  1.00  0.00    -0.354 N 
ATOM     41  C   UNL A   1      41.822  30.157  32.246  1.00  0.00     0.074 A 
ATOM     42  C   UNL A   1      40.664  31.025  32.266  1.00  0.00     0.031 C 
ATOM     43  C   UNL A   1      40.380  25.918  27.636  1.00  0.00     0.029 A 
ATOM     44  C   UNL A   1      41.598  25.983  28.435  1.00  0.00     0.049 A 
ATOM     45  H   UNL A   1      41.979  27.235  30.059  1.00  0.00     0.167 HD
ATOM     46  C   UNL A   1      42.910  30.320  33.035  1.00  0.00     0.034 A 
ATOM     47  C   UNL A   1      42.691  25.215  28.252  1.00  0.00     0.034 A 
ATOM     48  C   UNL A   1      44.041  29.434  33.036  1.00  0.00     0.049 A 
ATOM     49  C   UNL A   1      43.882  25.411  29.152  1.00  0.00     0.074 A 
ATOM     50  C   UNL A   1      45.153  29.462  33.860  1.00  0.00     0.029 A 
ATOM     51  N   UNL A   1      44.213  28.368  32.167  1.00  0.00    -0.354 N 
ATOM     52  N   UNL A   1      44.044  26.264  30.132  1.00  0.00    -0.248 NA
ATOM     53  C   UNL A   1      45.032  24.518  28.939  1.00  0.00     0.031 C 
ATOM     54  C   UNL A   1      46.016  28.436  33.464  1.00  0.00     0.029 A 
ATOM     55  C   UNL A   1      45.420  27.740  32.424  1.00  0.00     0.049 A 
ATOM     56  H   UNL A   1      43.573  28.098  31.471  1.00  0.00     0.167 HD
ATOM     57  C   UNL A   1      45.290  25.982  30.682  1.00  0.00     0.074 A 
ATOM     58  C   UNL A   1      45.837  24.873  29.931  1.00  0.00     0.031 C 
ATOM     59  C   UNL A   1      45.925  26.595  31.710  1.00  0.00     0.034 A 
BRANCH  46  60
ATOM     60  C   UNL A   1      42.918  31.483  33.992  1.00  0.00     0.023 A 
ATOM     61  C   UNL A   1      43.493  32.709  33.599  1.00  0.00     0.012 A 
ATOM     62  C   UNL A   1      42.297  31.384  35.254  1.00  0.00     0.148 A 
ATOM     63  C   UNL A   1      43.484  33.806  34.459  1.00  0.00     0.002 A 
ATOM     64  C   UNL A   1      42.250  32.497  36.086  1.00  0.00     0.091 A 
ATOM     65  F   UNL A   1      41.771  30.207  35.617  1.00  0.00    -0.205 F 
ATOM     66  C   UNL A   1      42.853  33.703  35.696  1.00  0.00     0.022 A 
BRANCH  64  67
ATOM     67  S   UNL A   1      41.390  32.493  37.663  1.00  0.00     0.127 S 
ATOM     68  O   UNL A   1      42.239  31.608  38.459  1.00  0.00    -0.237 OA
ATOM     69  O   UNL A   1      41.449  33.903  38.048  1.00  0.00    -0.237 OA
ATOM     70  O   UNL A   1      40.050  31.991  37.391  1.00  0.00    -0.744 OA
ENDBRANCH  64  67
ENDBRANCH  46  60
BRANCH  47  71
ATOM     71  C   UNL A   1      42.697  24.161  27.196  1.00  0.00     0.023 A 
ATOM     72  C   UNL A   1      43.337  24.418  25.968  1.00  0.00     0.012 A 
ATOM     73  C   UNL A   1      42.091  22.908  27.405  1.00  0.00     0.148 A 
ATOM     74  C   UNL A   1      43.340  23.461  24.953  1.00  0.00     0.002 A 
ATOM     75  C   UNL A   1      42.148  21.937  26.412  1.00  0.00     0.091 A 
ATOM     76  F   UNL A   1      41.482  22.685  28.578  1.00  0.00    -0.205 F 
ATOM     77  C   UNL A   1      42.754  22.218  25.178  1.00  0.00     0.022 A 
BRANCH  75  78
ATOM     78  S   UNL A   1      41.537  20.266  26.655  1.00  0.00     0.127 S 
ATOM     79  O   UNL A   1      41.933  19.619  25.407  1.00  0.00    -0.237 OA
ATOM     80  O   UNL A   1      42.288  19.841  27.836  1.00  0.00    -0.237 OA
ATOM     81  O   UNL A   1      40.103  20.401  26.871  1.00  0.00    -0.744 OA
ENDBRANCH  75  78
ENDBRANCH  47  71
BRANCH  59  82
ATOM     82  C   UNL A   1      47.262  26.052  32.141  1.00  0.00     0.023 A 
ATOM     83  C   UNL A   1      48.446  26.530  31.548  1.00  0.00     0.012 A 
ATOM     84  C   UNL A   1      47.343  25.141  33.214  1.00  0.00     0.148 A 
ATOM     85  C   UNL A   1      49.690  26.094  32.002  1.00  0.00     0.002 A 
ATOM     86  C   UNL A   1      48.586  24.752  33.696  1.00  0.00     0.091 A 
ATOM     87  F   UNL A   1      46.202  24.687  33.753  1.00  0.00    -0.205 F 
ATOM     88  C   UNL A   1      49.761  25.218  33.084  1.00  0.00     0.022 A 
BRANCH  86  89
ATOM     89  S   UNL A   1      48.777  23.711  35.148  1.00  0.00     0.127 S 
ATOM     90  O   UNL A   1      48.144  22.469  34.709  1.00  0.00    -0.237 OA
ATOM     91  O   UNL A   1      50.231  23.639  35.285  1.00  0.00    -0.237 OA
ATOM     92  O   UNL A   1      48.097  24.403  36.235  1.00  0.00    -0.744 OA
ENDBRANCH  86  89
ENDBRANCH  59  82
ENDBRANCH  33  34
ENDBRANCH  25  28
ENDBRANCH  23  24
ENDBRANCH  22  23
ENDBRANCH   1  22
TORSDOF 20
ENDMDL
MODEL 2
REMARK VINA RESULT:     -10.1      1.314      2.174
REMARK SMILES C=CCN(CC(=O)NCCCNC(=O)c1ccc(-c2c3nc(c(-c4cccc(S(=O)(=O)[O-])c4F)c4ccc([nH]4)c(-c4cccc(S(=O)(=O)[O-])c4F)c4nc(c(-c5cccc(S(=O)(=O)[O-])c5F)c5ccc2[nH]5)C=C4)C=C3)cc1)C(=O)N1CC[C@@H](C(=O)OC)C1
REMARK SMILES IDX 9 1 8 2 6 3 7 4 5 6 4 7 3 8 2 9 1 10 78 11 79 12 80 13 81 14
REMARK SMILES IDX 88 15 82 16 83 17 84 18 85 19 86 20 87 21 10 22 11 23 12 24
REMARK SMILES IDX 13 25 14 27 15 28 16 29 77 30 17 31 76 32 18 33 19 34 20 35
REMARK SMILES IDX 70 36 21 37 75 38 69 39 71 40 22 41 74 42 68 43 67 44 23 46
REMARK SMILES IDX 55 47 35 48 54 49 36 50 39 51 53 52 72 53 37 54 38 55 52 57
REMARK SMILES IDX 73 58 40 59 24 60 25 61 33 62 26 63 28 64 34 65 27 66 29 67
REMARK SMILES IDX 30 68 31 69 32 70 56 71 57 72 65 73 58 74 60 75 66 76 59 77
REMARK SMILES IDX 61 78 62 79 63 80 64 81 41 82 42 83 50 84 43 85 45 86 51 87
REMARK SMILES IDX 44 88 46 89 47 90 48 91 49 92
REMARK H PARENT 8 5 12 26 71 45 39 56
REMARK Flexibility Score: inf
ROOT
ATOM      1  C   UNL A   1      32.501  26.172  26.114  1.00  0.00     0.117 C 
ENDROOT
BRANCH   1   2
ATOM      2  N   UNL A   1      31.735  25.189  26.848  1.00  0.00    -0.354 N 
ATOM      3  C   UNL A   1      31.613  23.849  26.640  1.00  0.00     0.239 C 
ATOM      4  O   UNL A   1      31.287  23.169  27.623  1.00  0.00    -0.273 OA
ATOM      5  H   UNL A   1      31.224  25.542  27.611  1.00  0.00     0.163 HD
BRANCH   3   6
ATOM      6  C   UNL A   1      31.957  23.155  25.307  1.00  0.00     0.221 C 
BRANCH   6   7
ATOM      7  N   UNL A   1      33.169  22.331  25.217  1.00  0.00    -0.312 N 
BRANCH   7   8
ATOM      8  C   UNL A   1      34.397  23.000  24.783  1.00  0.00     0.149 C 
BRANCH   8   9
ATOM      9  C   UNL A   1      35.564  22.675  25.666  1.00  0.00    -0.013 C 
ATOM     10  C   UNL A   1      36.643  23.468  25.744  1.00  0.00     0.006 C 
ENDBRANCH   8   9
ENDBRANCH   7   8
BRANCH   7  11
ATOM     11  C   UNL A   1      33.303  21.046  25.737  1.00  0.00     0.320 C 
ATOM     12  O   UNL A   1      33.611  20.848  26.911  1.00  0.00    -0.248 OA
BRANCH  11  13
ATOM     13  N   UNL A   1      32.948  19.986  24.943  1.00  0.00    -0.324 N 
ATOM     14  C   UNL A   1      33.005  19.919  23.505  1.00  0.00     0.122 C 
ATOM     15  C   UNL A   1      32.980  18.619  25.455  1.00  0.00     0.136 C 
ATOM     16  C   UNL A   1      32.037  18.789  23.231  1.00  0.00     0.039 C 
ATOM     17  C   UNL A   1      32.454  17.752  24.294  1.00  0.00     0.120 C 
BRANCH  17  18
ATOM     18  C   UNL A   1      33.517  16.781  23.802  1.00  0.00     0.310 C 
ATOM     19  O   UNL A   1      34.102  16.878  22.735  1.00  0.00    -0.252 OA
BRANCH  18  20
ATOM     20  O   UNL A   1      33.791  15.840  24.748  1.00  0.00    -0.469 OA
ATOM     21  C   UNL A   1      35.135  15.835  25.229  1.00  0.00     0.282 C 
ENDBRANCH  18  20
ENDBRANCH  17  18
ENDBRANCH  11  13
ENDBRANCH   7  11
ENDBRANCH   6   7
ENDBRANCH   3   6
ENDBRANCH   1   2
BRANCH   1  22
ATOM     22  C   UNL A   1      32.484  27.568  26.723  1.00  0.00     0.042 C 
BRANCH  22  23
ATOM     23  C   UNL A   1      33.841  28.263  26.761  1.00  0.00     0.118 C 
BRANCH  23  24
ATOM     24  N   UNL A   1      33.737  29.717  26.841  1.00  0.00    -0.352 N 
ATOM     25  C   UNL A   1      34.524  30.634  27.497  1.00  0.00     0.251 C 
ATOM     26  H   UNL A   1      32.980  30.103  26.345  1.00  0.00     0.163 HD
ATOM     27  O   UNL A   1      34.146  31.799  27.582  1.00  0.00    -0.269 OA
BRANCH  25  28
ATOM     28  C   UNL A   1      35.806  30.224  28.107  1.00  0.00     0.039 A 
ATOM     29  C   UNL A   1      35.807  29.690  29.400  1.00  0.00     0.014 A 
ATOM     30  C   UNL A   1      37.009  30.382  27.416  1.00  0.00     0.014 A 
ATOM     31  C   UNL A   1      37.003  29.237  29.964  1.00  0.00     0.010 A 
ATOM     32  C   UNL A   1      38.184  29.859  27.945  1.00  0.00     0.010 A 
ATOM     33  C   UNL A   1      38.194  29.278  29.223  1.00  0.00    -0.014 A 
BRANCH  33  34
ATOM     34  C   UNL A   1      39.466  28.707  29.739  1.00  0.00     0.031 A 
ATOM     35  C   UNL A   1      40.219  29.417  30.831  1.00  0.00     0.074 A 
ATOM     36  C   UNL A   1      40.006  27.629  29.136  1.00  0.00     0.049 A 
ATOM     37  N   UNL A   1      41.414  29.176  31.302  1.00  0.00    -0.248 NA
ATOM     38  C   UNL A   1      39.551  30.571  31.457  1.00  0.00     0.031 C 
ATOM     39  C   UNL A   1      39.403  26.887  28.027  1.00  0.00     0.029 A 
ATOM     40  N   UNL A   1      41.208  26.995  29.342  1.00  0.00    -0.354 N 
ATOM     41  C   UNL A   1      41.661  30.171  32.240  1.00  0.00     0.074 A 
ATOM     42  C   UNL A   1      40.500  31.034  32.256  1.00  0.00     0.031 C 
ATOM     43  C   UNL A   1      40.239  25.910  27.643  1.00  0.00     0.029 A 
ATOM     44  C   UNL A   1      41.457  25.983  28.443  1.00  0.00     0.049 A 
ATOM     45  H   UNL A   1      41.831  27.242  30.063  1.00  0.00     0.167 HD
ATOM     46  C   UNL A   1      42.748  30.340  33.029  1.00  0.00     0.034 A 
ATOM     47  C   UNL A   1      42.553  25.219  28.263  1.00  0.00     0.034 A 
ATOM     48  C   UNL A   1      43.883  29.459  33.034  1.00  0.00     0.049 A 
ATOM     49  C   UNL A   1      43.743  25.422  29.163  1.00  0.00     0.074 A 
ATOM     50  C   UNL A   1      44.995  29.494  33.858  1.00  0.00     0.029 A 
ATOM     51  N   UNL A   1      44.060  28.391  32.169  1.00  0.00    -0.354 N 
ATOM     52  N   UNL A   1      43.900  26.279  30.141  1.00  0.00    -0.248 NA
ATOM     53  C   UNL A   1      44.896  24.533  28.954  1.00  0.00     0.031 C 
ATOM     54  C   UNL A   1      45.861  28.470  33.466  1.00  0.00     0.029 A 
ATOM     55  C   UNL A   1      45.269  27.769  32.428  1.00  0.00     0.049 A 
ATOM     56  H   UNL A   1      43.421  28.115  31.473  1.00  0.00     0.167 HD
ATOM     57  C   UNL A   1      45.147  26.004  30.692  1.00  0.00     0.074 A 
ATOM     58  C   UNL A   1      45.699  24.895  29.946  1.00  0.00     0.031 C 
ATOM     59  C   UNL A   1      45.779  26.623  31.718  1.00  0.00     0.034 A 
BRANCH  46  60
ATOM     60  C   UNL A   1      42.751  31.507  33.983  1.00  0.00     0.023 A 
ATOM     61  C   UNL A   1      43.256  32.754  33.561  1.00  0.00     0.012 A 
ATOM     62  C   UNL A   1      42.193  31.387  35.271  1.00  0.00     0.148 A 
ATOM     63  C   UNL A   1      43.240  33.853  34.418  1.00  0.00     0.002 A 
ATOM     64  C   UNL A   1      42.136  32.500  36.102  1.00  0.00     0.091 A 
ATOM     65  F   UNL A   1      41.733  30.190  35.660  1.00  0.00    -0.205 F 
ATOM     66  C   UNL A   1      42.671  33.729  35.682  1.00  0.00     0.022 A 
BRANCH  64  67
ATOM     67  S   UNL A   1      41.349  32.467  37.716  1.00  0.00     0.127 S 
ATOM     68  O   UNL A   1      41.373  33.883  38.084  1.00  0.00    -0.237 OA
ATOM     69  O   UNL A   1      40.021  31.942  37.401  1.00  0.00    -0.237 OA
ATOM     70  O   UNL A   1      42.168  31.596  38.547  1.00  0.00    -0.744 OA
ENDBRANCH  64  67
ENDBRANCH  46  60
BRANCH  47  71
ATOM     71  C   UNL A   1      42.564  24.162  27.211  1.00  0.00     0.023 A 
ATOM     72  C   UNL A   1      43.178  24.427  25.972  1.00  0.00     0.012 A 
ATOM     73  C   UNL A   1      41.988  22.896  27.434  1.00  0.00     0.148 A 
ATOM     74  C   UNL A   1      43.186  23.466  24.960  1.00  0.00     0.002 A 
ATOM     75  C   UNL A   1      42.049  21.924  26.443  1.00  0.00     0.091 A 
ATOM     76  F   UNL A   1      41.402  22.665  28.617  1.00  0.00    -0.205 F 
ATOM     77  C   UNL A   1      42.629  22.213  25.198  1.00  0.00     0.022 A 
BRANCH  75  78
ATOM     78  S   UNL A   1      41.476  20.241  26.701  1.00  0.00     0.127 S 
ATOM     79  O   UNL A   1      41.844  19.604  25.439  1.00  0.00    -0.237 OA
ATOM     80  O   UNL A   1      42.273  19.828  27.856  1.00  0.00    -0.237 OA
ATOM     81  O   UNL A   1      40.048  20.349  26.964  1.00  0.00    -0.744 OA
ENDBRANCH  75  78
ENDBRANCH  47  71
BRANCH  59  82
ATOM     82  C   UNL A   1      47.118  26.087  32.152  1.00  0.00     0.023 A 
ATOM     83  C   UNL A   1      48.302  26.589  31.580  1.00  0.00     0.012 A 
ATOM     84  C   UNL A   1      47.199  25.157  33.209  1.00  0.00     0.148 A 
ATOM     85  C   UNL A   1      49.547  26.158  32.038  1.00  0.00     0.002 A 
ATOM     86  C   UNL A   1      48.441  24.772  33.695  1.00  0.00     0.091 A 
ATOM     87  F   UNL A   1      46.058  24.680  33.728  1.00  0.00    -0.205 F 
ATOM     88  C   UNL A   1      49.617  25.263  33.104  1.00  0.00     0.022 A 
BRANCH  86  89
ATOM     89  S   UNL A   1      48.631  23.707  35.129  1.00  0.00     0.127 S 
ATOM     90  O   UNL A   1      48.011  22.467  34.663  1.00  0.00    -0.237 OA
ATOM     91  O   UNL A   1      50.084  23.644  35.276  1.00  0.00    -0.237 OA
ATOM     92  O   UNL A   1      47.937  24.373  36.224  1.00  0.00    -0.744 OA
ENDBRANCH  86  89
ENDBRANCH  59  82
ENDBRANCH  33  34
ENDBRANCH  25  28
ENDBRANCH  23  24
ENDBRANCH  22  23
ENDBRANCH   1  22
TORSDOF 20
ENDMDL
MODEL 3
REMARK VINA RESULT:     -10.1      2.368      7.976
REMARK SMILES C=CCN(CC(=O)NCCCNC(=O)c1ccc(-c2c3nc(c(-c4cccc(S(=O)(=O)[O-])c4F)c4ccc([nH]4)c(-c4cccc(S(=O)(=O)[O-])c4F)c4nc(c(-c5cccc(S(=O)(=O)[O-])c5F)c5ccc2[nH]5)C=C4)C=C3)cc1)C(=O)N1CC[C@@H](C(=O)OC)C1
REMARK SMILES IDX 9 1 8 2 6 3 7 4 5 6 4 7 3 8 2 9 1 10 78 11 79 12 80 13 81 14
REMARK SMILES IDX 88 15 82 16 83 17 84 18 85 19 86 20 87 21 10 22 11 23 12 24
REMARK SMILES IDX 13 25 14 27 15 28 16 29 77 30 17 31 76 32 18 33 19 34 20 35
REMARK SMILES IDX 70 36 21 37 75 38 69 39 71 40 22 41 74 42 68 43 67 44 23 46
REMARK SMILES IDX 55 47 35 48 54 49 36 50 39 51 53 52 72 53 37 54 38 55 52 57
REMARK SMILES IDX 73 58 40 59 24 60 25 61 33 62 26 63 28 64 34 65 27 66 29 67
REMARK SMILES IDX 30 68 31 69 32 70 56 71 57 72 65 73 58 74 60 75 66 76 59 77
REMARK SMILES IDX 61 78 62 79 63 80 64 81 41 82 42 83 50 84 43 85 45 86 51 87
REMARK SMILES IDX 44 88 46 89 47 90 48 91 49 92
REMARK H PARENT 8 5 12 26 71 45 39 56
REMARK Flexibility Score: inf
ROOT
ATOM      1  C   UNL A   1      33.568  27.697  23.543  1.00  0.00     0.117 C 
ENDROOT
BRANCH   1   2
ATOM      2  N   UNL A   1      33.029  27.173  22.308  1.00  0.00    -0.354 N 
ATOM      3  C   UNL A   1      32.005  26.298  22.107  1.00  0.00     0.239 C 
ATOM      4  O   UNL A   1      31.449  26.349  21.002  1.00  0.00    -0.273 OA
ATOM      5  H   UNL A   1      33.469  27.497  21.489  1.00  0.00     0.163 HD
BRANCH   3   6
ATOM      6  C   UNL A   1      31.460  25.355  23.199  1.00  0.00     0.221 C 
BRANCH   6   7
ATOM      7  N   UNL A   1      30.680  25.916  24.309  1.00  0.00    -0.312 N 
BRANCH   7   8
ATOM      8  C   UNL A   1      29.336  26.405  23.996  1.00  0.00     0.149 C 
BRANCH   8   9
ATOM      9  C   UNL A   1      29.345  27.825  23.515  1.00  0.00    -0.013 C 
ATOM     10  C   UNL A   1      28.227  28.455  23.125  1.00  0.00     0.006 C 
ENDBRANCH   8   9
ENDBRANCH   7   8
BRANCH   7  11
ATOM     11  C   UNL A   1      31.009  25.797  25.658  1.00  0.00     0.320 C 
ATOM     12  O   UNL A   1      30.480  26.498  26.520  1.00  0.00    -0.248 OA
BRANCH  11  13
ATOM     13  N   UNL A   1      31.845  24.779  26.033  1.00  0.00    -0.324 N 
ATOM     14  C   UNL A   1      31.524  23.377  26.120  1.00  0.00     0.122 C 
ATOM     15  C   UNL A   1      33.292  24.896  25.873  1.00  0.00     0.136 C 
ATOM     16  C   UNL A   1      32.616  22.889  27.047  1.00  0.00     0.039 C 
ATOM     17  C   UNL A   1      33.860  23.591  26.467  1.00  0.00     0.120 C 
BRANCH  17  18
ATOM     18  C   UNL A   1      34.576  22.767  25.408  1.00  0.00     0.310 C 
ATOM     19  O   UNL A   1      34.659  23.075  24.230  1.00  0.00    -0.252 OA
BRANCH  18  20
ATOM     20  O   UNL A   1      35.187  21.684  25.966  1.00  0.00    -0.469 OA
ATOM     21  C   UNL A   1      35.759  20.764  25.037  1.00  0.00     0.282 C 
ENDBRANCH  18  20
ENDBRANCH  17  18
ENDBRANCH  11  13
ENDBRANCH   7  11
ENDBRANCH   6   7
ENDBRANCH   3   6
ENDBRANCH   1   2
BRANCH   1  22
ATOM     22  C   UNL A   1      32.761  28.836  24.151  1.00  0.00     0.042 C 
BRANCH  22  23
ATOM     23  C   UNL A   1      33.003  29.066  25.639  1.00  0.00     0.118 C 
BRANCH  23  24
ATOM     24  N   UNL A   1      32.577  30.386  26.092  1.00  0.00    -0.352 N 
ATOM     25  C   UNL A   1      33.129  31.234  27.022  1.00  0.00     0.251 C 
ATOM     26  H   UNL A   1      31.759  30.724  25.660  1.00  0.00     0.163 HD
ATOM     27  O   UNL A   1      32.499  32.225  27.383  1.00  0.00    -0.269 OA
BRANCH  25  28
ATOM     28  C   UNL A   1      34.462  30.954  27.596  1.00  0.00     0.039 A 
ATOM     29  C   UNL A   1      35.384  31.998  27.723  1.00  0.00     0.014 A 
ATOM     30  C   UNL A   1      34.813  29.662  27.992  1.00  0.00     0.014 A 
ATOM     31  C   UNL A   1      36.623  31.763  28.325  1.00  0.00     0.010 A 
ATOM     32  C   UNL A   1      36.012  29.446  28.662  1.00  0.00     0.010 A 
ATOM     33  C   UNL A   1      36.930  30.494  28.839  1.00  0.00    -0.014 A 
BRANCH  33  34
ATOM     34  C   UNL A   1      38.187  30.225  29.584  1.00  0.00     0.031 A 
ATOM     35  C   UNL A   1      39.188  29.243  29.038  1.00  0.00     0.074 A 
ATOM     36  C   UNL A   1      38.365  30.761  30.808  1.00  0.00     0.049 A 
ATOM     37  N   UNL A   1      40.257  28.751  29.606  1.00  0.00    -0.248 NA
ATOM     38  C   UNL A   1      38.935  28.721  27.684  1.00  0.00     0.031 C 
ATOM     39  C   UNL A   1      37.440  31.681  31.473  1.00  0.00     0.029 A 
ATOM     40  N   UNL A   1      39.365  30.575  31.731  1.00  0.00    -0.354 N 
ATOM     41  C   UNL A   1      40.777  27.830  28.705  1.00  0.00     0.074 A 
ATOM     42  C   UNL A   1      39.893  27.814  27.560  1.00  0.00     0.031 C 
ATOM     43  C   UNL A   1      37.907  31.968  32.697  1.00  0.00     0.029 A 
ATOM     44  C   UNL A   1      39.138  31.220  32.926  1.00  0.00     0.049 A 
ATOM     45  H   UNL A   1      40.168  30.031  31.555  1.00  0.00     0.167 HD
ATOM     46  C   UNL A   1      41.899  27.079  28.812  1.00  0.00     0.034 A 
ATOM     47  C   UNL A   1      39.826  31.188  34.085  1.00  0.00     0.034 A 
ATOM     48  C   UNL A   1      42.792  27.126  29.937  1.00  0.00     0.049 A 
ATOM     49  C   UNL A   1      41.076  30.353  34.172  1.00  0.00     0.074 A 
ATOM     50  C   UNL A   1      43.999  26.470  30.102  1.00  0.00     0.029 A 
ATOM     51  N   UNL A   1      42.573  27.859  31.092  1.00  0.00    -0.354 N 
ATOM     52  N   UNL A   1      41.628  29.598  33.256  1.00  0.00    -0.248 NA
ATOM     53  C   UNL A   1      41.814  30.388  35.444  1.00  0.00     0.031 C 
ATOM     54  C   UNL A   1      44.493  26.777  31.373  1.00  0.00     0.029 A 
ATOM     55  C   UNL A   1      43.615  27.660  31.981  1.00  0.00     0.049 A 
ATOM     56  H   UNL A   1      41.792  28.435  31.256  1.00  0.00     0.167 HD
ATOM     57  C   UNL A   1      42.799  29.105  33.822  1.00  0.00     0.074 A 
ATOM     58  C   UNL A   1      42.881  29.655  35.158  1.00  0.00     0.031 C 
ATOM     59  C   UNL A   1      43.717  28.265  33.285  1.00  0.00     0.034 A 
BRANCH  46  60
ATOM     60  C   UNL A   1      42.245  26.163  27.667  1.00  0.00     0.023 A 
ATOM     61  C   UNL A   1      43.078  26.627  26.628  1.00  0.00     0.012 A 
ATOM     62  C   UNL A   1      41.802  24.826  27.653  1.00  0.00     0.148 A 
ATOM     63  C   UNL A   1      43.434  25.786  25.575  1.00  0.00     0.002 A 
ATOM     64  C   UNL A   1      42.201  23.980  26.625  1.00  0.00     0.091 A 
ATOM     65  F   UNL A   1      40.997  24.408  28.640  1.00  0.00    -0.205 F 
ATOM     66  C   UNL A   1      43.006  24.461  25.579  1.00  0.00     0.022 A 
BRANCH  64  67
ATOM     67  S   UNL A   1      41.773  22.236  26.580  1.00  0.00     0.127 S 
ATOM     68  O   UNL A   1      40.317  22.294  26.456  1.00  0.00    -0.237 OA
ATOM     69  O   UNL A   1      42.470  21.779  25.378  1.00  0.00    -0.237 OA
ATOM     70  O   UNL A   1      42.268  21.667  27.825  1.00  0.00    -0.744 OA
ENDBRANCH  64  67
ENDBRANCH  46  60
BRANCH  47  71
ATOM     71  C   UNL A   1      39.372  32.004  35.248  1.00  0.00     0.023 A 
ATOM     72  C   UNL A   1      39.666  33.381  35.283  1.00  0.00     0.012 A 
ATOM     73  C   UNL A   1      38.640  31.433  36.306  1.00  0.00     0.148 A 
ATOM     74  C   UNL A   1      39.274  34.166  36.367  1.00  0.00     0.002 A 
ATOM     75  C   UNL A   1      38.202  32.231  37.356  1.00  0.00     0.091 A 
ATOM     76  F   UNL A   1      38.375  30.119  36.259  1.00  0.00    -0.205 F 
ATOM     77  C   UNL A   1      38.535  33.594  37.399  1.00  0.00     0.022 A 
BRANCH  75  78
ATOM     78  S   UNL A   1      37.136  31.615  38.663  1.00  0.00     0.127 S 
ATOM     79  O   UNL A   1      37.943  31.872  39.853  1.00  0.00    -0.237 OA
ATOM     80  O   UNL A   1      35.959  32.472  38.519  1.00  0.00    -0.237 OA
ATOM     81  O   UNL A   1      36.900  30.213  38.348  1.00  0.00    -0.744 OA
ENDBRANCH  75  78
ENDBRANCH  47  71
BRANCH  59  82
ATOM     82  C   UNL A   1      44.933  27.926  34.107  1.00  0.00     0.023 A 
ATOM     83  C   UNL A   1      46.032  28.805  34.142  1.00  0.00     0.012 A 
ATOM     84  C   UNL A   1      44.935  26.781  34.929  1.00  0.00     0.148 A 
ATOM     85  C   UNL A   1      47.124  28.539  34.967  1.00  0.00     0.002 A 
ATOM     86  C   UNL A   1      46.002  26.550  35.787  1.00  0.00     0.091 A 
ATOM     87  F   UNL A   1      43.884  25.950  34.867  1.00  0.00    -0.205 F 
ATOM     88  C   UNL A   1      47.103  27.422  35.799  1.00  0.00     0.022 A 
BRANCH  86  89
ATOM     89  S   UNL A   1      46.017  25.198  36.969  1.00  0.00     0.127 S 
ATOM     90  O   UNL A   1      47.414  25.193  37.399  1.00  0.00    -0.237 OA
ATOM     91  O   UNL A   1      45.069  25.662  37.981  1.00  0.00    -0.237 OA
ATOM     92  O   UNL A   1      45.591  24.013  36.235  1.00  0.00    -0.744 OA
ENDBRANCH  86  89
ENDBRANCH  59  82
ENDBRANCH  33  34
ENDBRANCH  25  28
ENDBRANCH  23  24
ENDBRANCH  22  23
ENDBRANCH   1  22
TORSDOF 20
ENDMDL
