MODEL 1
REMARK VINA RESULT:     -10.9      0.000      0.000
REMARK SMILES O=C(COc1cccc(NC(=O)c2ccc3c(c2)C(=O)N(c2ccccc2-c2ccccc2)C3=O)c1)NCCCNC(=O)c1ccc(-c2c3nc(c(-c4cccc(S(=O)(=O)[O-])c4F)c4ccc([nH]4)c(-c4cccc(S(=O)(=O)[O-])c4F)c4nc(c(-c5cccc(S(=O)(=O)[O-])c5F)c5ccc2[nH]5)C=C4)C=C3)cc1
REMARK SMILES IDX 1 1 2 2 37 3 3 5 4 6 5 7 6 8 36 9 7 10 9 11 8 12 10 13 11 14
REMARK SMILES IDX 12 16 13 17 14 18 18 19 15 20 17 21 16 22 19 23 34 24 20 25
REMARK SMILES IDX 21 26 35 27 22 28 23 29 27 30 24 31 26 32 25 33 28 34 29 35
REMARK SMILES IDX 33 36 30 37 32 38 31 39 38 40 39 41 40 42 41 43 42 44 43 46
REMARK SMILES IDX 44 47 45 48 106 49 46 50 105 51 47 52 48 53 49 54 99 55
REMARK SMILES IDX 50 56 104 57 98 58 100 59 51 60 103 61 97 62 96 63 52 65
REMARK SMILES IDX 84 66 64 67 83 68 65 69 68 70 82 71 101 72 66 73 67 74 81 76
REMARK SMILES IDX 102 77 69 78 53 79 54 80 62 81 55 82 57 83 63 84 56 85 58 86
REMARK SMILES IDX 59 87 60 88 61 89 85 90 86 91 94 92 87 93 89 94 95 95 88 96
REMARK SMILES IDX 90 97 91 98 92 99 93 100 70 101 71 102 79 103 72 104 74 105
REMARK SMILES IDX 80 106 73 107 75 108 76 109 77 110 78 111
REMARK H PARENT 37 4 10 15 41 45 100 64 68 75
REMARK Flexibility Score: inf
ROOT
ATOM      1  O   UNL A   1      42.539  18.883  26.384  1.00  0.00    -0.271 OA
ATOM      2  C   UNL A   1      42.358  20.092  26.280  1.00  0.00     0.257 C 
ATOM      3  N   UNL A   1      43.186  20.937  25.569  1.00  0.00    -0.353 N 
ATOM      4  H   UNL A   1      42.882  21.853  25.378  1.00  0.00     0.163 HD
ENDROOT
BRANCH   2   5
ATOM      5  C   UNL A   1      41.215  20.808  26.998  1.00  0.00     0.329 C 
BRANCH   5   6
ATOM      6  O   UNL A   1      41.605  21.829  27.908  1.00  0.00    -0.484 OA
BRANCH   6   7
ATOM      7  C   UNL A   1      40.950  23.029  27.811  1.00  0.00     0.122 A 
ATOM      8  C   UNL A   1      39.779  22.990  27.063  1.00  0.00     0.046 A 
ATOM      9  C   UNL A   1      41.450  24.263  28.257  1.00  0.00     0.072 A 
ATOM     10  C   UNL A   1      39.124  24.172  26.756  1.00  0.00     0.006 A 
ATOM     11  C   UNL A   1      40.819  25.472  27.927  1.00  0.00     0.045 A 
ATOM     12  C   UNL A   1      39.652  25.398  27.170  1.00  0.00     0.026 A 
BRANCH  11  13
ATOM     13  N   UNL A   1      41.482  26.673  28.293  1.00  0.00    -0.322 N 
ATOM     14  C   UNL A   1      41.036  27.903  28.744  1.00  0.00     0.255 C 
ATOM     15  H   UNL A   1      42.462  26.620  28.208  1.00  0.00     0.170 HD
ATOM     16  O   UNL A   1      41.771  28.884  28.786  1.00  0.00    -0.269 OA
BRANCH  14  17
ATOM     17  C   UNL A   1      39.693  28.011  29.330  1.00  0.00     0.041 A 
ATOM     18  C   UNL A   1      39.510  27.943  30.730  1.00  0.00     0.015 A 
ATOM     19  C   UNL A   1      38.687  28.446  28.472  1.00  0.00     0.028 A 
ATOM     20  C   UNL A   1      38.367  28.525  31.306  1.00  0.00     0.015 A 
ATOM     21  C   UNL A   1      37.593  29.016  29.078  1.00  0.00     0.054 A 
ATOM     22  C   UNL A   1      37.462  29.125  30.443  1.00  0.00     0.053 A 
ATOM     23  C   UNL A   1      36.614  29.879  28.458  1.00  0.00     0.266 C 
ATOM     24  C   UNL A   1      36.425  30.137  30.677  1.00  0.00     0.266 C 
ATOM     25  O   UNL A   1      36.393  29.776  27.266  1.00  0.00    -0.268 OA
ATOM     26  N   UNL A   1      36.133  30.705  29.451  1.00  0.00    -0.242 N 
ATOM     27  O   UNL A   1      35.942  30.276  31.785  1.00  0.00    -0.268 OA
BRANCH  26  28
ATOM     28  C   UNL A   1      35.495  31.967  29.174  1.00  0.00     0.060 A 
ATOM     29  C   UNL A   1      34.297  31.960  28.416  1.00  0.00     0.027 A 
ATOM     30  C   UNL A   1      36.044  33.242  29.478  1.00  0.00     0.006 A 
ATOM     31  C   UNL A   1      33.665  33.121  27.966  1.00  0.00     0.002 A 
ATOM     32  C   UNL A   1      35.359  34.410  29.043  1.00  0.00     0.011 A 
ATOM     33  C   UNL A   1      34.192  34.353  28.289  1.00  0.00     0.001 A 
BRANCH  30  34
ATOM     34  C   UNL A   1      37.362  33.502  30.076  1.00  0.00    -0.016 A 
ATOM     35  C   UNL A   1      38.496  33.704  29.273  1.00  0.00     0.009 A 
ATOM     36  C   UNL A   1      37.535  33.441  31.469  1.00  0.00     0.009 A 
ATOM     37  C   UNL A   1      39.753  33.900  29.848  1.00  0.00     0.001 A 
ATOM     38  C   UNL A   1      38.794  33.629  32.045  1.00  0.00     0.001 A 
ATOM     39  C   UNL A   1      39.900  33.869  31.234  1.00  0.00     0.000 A 
ENDBRANCH  30  34
ENDBRANCH  26  28
ENDBRANCH  14  17
ENDBRANCH  11  13
ENDBRANCH   6   7
ENDBRANCH   5   6
ENDBRANCH   2   5
BRANCH   3  40
ATOM     40  C   UNL A   1      44.488  20.519  25.097  1.00  0.00     0.117 C 
BRANCH  40  41
ATOM     41  C   UNL A   1      45.586  21.522  25.401  1.00  0.00     0.042 C 
BRANCH  41  42
ATOM     42  C   UNL A   1      45.260  22.951  24.982  1.00  0.00     0.118 C 
BRANCH  42  43
ATOM     43  N   UNL A   1      46.376  23.631  24.337  1.00  0.00    -0.352 N 
ATOM     44  C   UNL A   1      46.892  24.887  24.547  1.00  0.00     0.251 C 
ATOM     45  H   UNL A   1      46.833  23.108  23.641  1.00  0.00     0.163 HD
ATOM     46  O   UNL A   1      47.766  25.305  23.790  1.00  0.00    -0.269 OA
BRANCH  44  47
ATOM     47  C   UNL A   1      46.403  25.743  25.653  1.00  0.00     0.039 A 
ATOM     48  C   UNL A   1      47.311  26.153  26.634  1.00  0.00     0.014 A 
ATOM     49  C   UNL A   1      45.060  26.116  25.754  1.00  0.00     0.014 A 
ATOM     50  C   UNL A   1      46.883  26.973  27.682  1.00  0.00     0.010 A 
ATOM     51  C   UNL A   1      44.653  27.000  26.751  1.00  0.00     0.010 A 
ATOM     52  C   UNL A   1      45.555  27.426  27.737  1.00  0.00    -0.014 A 
BRANCH  52  53
ATOM     53  C   UNL A   1      45.098  28.333  28.823  1.00  0.00     0.031 A 
ATOM     54  C   UNL A   1      44.752  27.785  30.183  1.00  0.00     0.074 A 
ATOM     55  C   UNL A   1      44.928  29.646  28.567  1.00  0.00     0.049 A 
ATOM     56  N   UNL A   1      44.330  28.422  31.245  1.00  0.00    -0.248 NA
ATOM     57  C   UNL A   1      44.871  26.330  30.368  1.00  0.00     0.031 C 
ATOM     58  C   UNL A   1      45.138  30.290  27.268  1.00  0.00     0.029 A 
ATOM     59  N   UNL A   1      44.522  30.672  29.383  1.00  0.00    -0.354 N 
ATOM     60  C   UNL A   1      44.099  27.447  32.208  1.00  0.00     0.074 A 
ATOM     61  C   UNL A   1      44.391  26.170  31.593  1.00  0.00     0.031 C 
ATOM     62  C   UNL A   1      44.870  31.601  27.378  1.00  0.00     0.029 A 
ATOM     63  C   UNL A   1      44.453  31.890  28.747  1.00  0.00     0.049 A 
ATOM     64  H   UNL A   1      44.302  30.548  30.334  1.00  0.00     0.167 HD
ATOM     65  C   UNL A   1      43.713  27.598  33.498  1.00  0.00     0.034 A 
ATOM     66  C   UNL A   1      44.100  33.103  29.214  1.00  0.00     0.034 A 
ATOM     67  C   UNL A   1      43.473  28.870  34.125  1.00  0.00     0.049 A 
ATOM     68  C   UNL A   1      43.749  33.255  30.670  1.00  0.00     0.074 A 
ATOM     69  C   UNL A   1      43.162  29.133  35.448  1.00  0.00     0.029 A 
ATOM     70  N   UNL A   1      43.521  30.093  33.475  1.00  0.00    -0.354 N 
ATOM     71  N   UNL A   1      43.699  32.338  31.607  1.00  0.00    -0.248 NA
ATOM     72  C   UNL A   1      43.456  34.615  31.144  1.00  0.00     0.031 C 
ATOM     73  C   UNL A   1      43.009  30.517  35.594  1.00  0.00     0.029 A 
ATOM     74  C   UNL A   1      43.247  31.115  34.368  1.00  0.00     0.049 A 
ATOM     75  H   UNL A   1      43.720  30.217  32.519  1.00  0.00     0.167 HD
ATOM     76  C   UNL A   1      43.409  33.014  32.786  1.00  0.00     0.074 A 
ATOM     77  C   UNL A   1      43.318  34.421  32.449  1.00  0.00     0.031 C 
ATOM     78  C   UNL A   1      43.219  32.516  34.032  1.00  0.00     0.034 A 
BRANCH  65  79
ATOM     79  C   UNL A   1      43.590  26.353  34.340  1.00  0.00     0.023 A 
ATOM     80  C   UNL A   1      42.312  25.806  34.584  1.00  0.00     0.012 A 
ATOM     81  C   UNL A   1      44.728  25.696  34.843  1.00  0.00     0.148 A 
ATOM     82  C   UNL A   1      42.167  24.647  35.344  1.00  0.00     0.002 A 
ATOM     83  C   UNL A   1      44.579  24.514  35.563  1.00  0.00     0.091 A 
ATOM     84  F   UNL A   1      45.933  26.240  34.622  1.00  0.00    -0.205 F 
ATOM     85  C   UNL A   1      43.300  23.997  35.824  1.00  0.00     0.022 A 
BRANCH  83  86
ATOM     86  S   UNL A   1      45.979  23.559  36.158  1.00  0.00     0.127 S 
ATOM     87  O   UNL A   1      46.732  23.339  34.924  1.00  0.00    -0.237 OA
ATOM     88  O   UNL A   1      46.608  24.486  37.099  1.00  0.00    -0.237 OA
ATOM     89  O   UNL A   1      45.415  22.364  36.771  1.00  0.00    -0.744 OA
ENDBRANCH  83  86
ENDBRANCH  65  79
BRANCH  66  90
ATOM     90  C   UNL A   1      44.153  34.291  28.314  1.00  0.00     0.023 A 
ATOM     91  C   UNL A   1      42.985  34.696  27.637  1.00  0.00     0.012 A 
ATOM     92  C   UNL A   1      45.338  35.031  28.144  1.00  0.00     0.148 A 
ATOM     93  C   UNL A   1      43.005  35.798  26.782  1.00  0.00     0.002 A 
ATOM     94  C   UNL A   1      45.337  36.160  27.333  1.00  0.00     0.091 A 
ATOM     95  F   UNL A   1      46.440  34.623  28.788  1.00  0.00    -0.205 F 
ATOM     96  C   UNL A   1      44.177  36.534  26.637  1.00  0.00     0.022 A 
BRANCH  94  97
ATOM     97  S   UNL A   1      46.764  37.242  27.190  1.00  0.00     0.127 S 
ATOM     98  O   UNL A   1      46.272  38.268  26.275  1.00  0.00    -0.237 OA
ATOM     99  O   UNL A   1      46.946  37.686  28.574  1.00  0.00    -0.237 OA
ATOM    100  O   UNL A   1      47.841  36.403  26.684  1.00  0.00    -0.744 OA
ENDBRANCH  94  97
ENDBRANCH  66  90
BRANCH  78 101
ATOM    101  C   UNL A   1      42.937  33.498  35.141  1.00  0.00     0.023 A 
ATOM    102  C   UNL A   1      43.999  34.010  35.912  1.00  0.00     0.012 A 
ATOM    103  C   UNL A   1      41.626  33.952  35.382  1.00  0.00     0.148 A 
ATOM    104  C   UNL A   1      43.755  34.928  36.933  1.00  0.00     0.002 A 
ATOM    105  C   UNL A   1      41.397  34.904  36.370  1.00  0.00     0.091 A 
ATOM    106  F   UNL A   1      40.623  33.438  34.655  1.00  0.00    -0.205 F 
ATOM    107  C   UNL A   1      42.457  35.383  37.155  1.00  0.00     0.022 A 
BRANCH 105 108
ATOM    108  S   UNL A   1      39.769  35.610  36.650  1.00  0.00     0.127 S 
ATOM    109  O   UNL A   1      40.055  36.634  37.654  1.00  0.00    -0.237 OA
ATOM    110  O   UNL A   1      39.421  36.134  35.328  1.00  0.00    -0.237 OA
ATOM    111  O   UNL A   1      38.931  34.505  37.096  1.00  0.00    -0.744 OA
ENDBRANCH 105 108
ENDBRANCH  78 101
ENDBRANCH  52  53
ENDBRANCH  44  47
ENDBRANCH  42  43
ENDBRANCH  41  42
ENDBRANCH  40  41
ENDBRANCH   3  40
TORSDOF 19
ENDMDL
MODEL 2
REMARK VINA RESULT:     -10.3      4.805     11.422
REMARK SMILES O=C(COc1cccc(NC(=O)c2ccc3c(c2)C(=O)N(c2ccccc2-c2ccccc2)C3=O)c1)NCCCNC(=O)c1ccc(-c2c3nc(c(-c4cccc(S(=O)(=O)[O-])c4F)c4ccc([nH]4)c(-c4cccc(S(=O)(=O)[O-])c4F)c4nc(c(-c5cccc(S(=O)(=O)[O-])c5F)c5ccc2[nH]5)C=C4)C=C3)cc1
REMARK SMILES IDX 1 1 2 2 37 3 3 5 4 6 5 7 6 8 36 9 7 10 9 11 8 12 10 13 11 14
REMARK SMILES IDX 12 16 13 17 14 18 18 19 15 20 17 21 16 22 19 23 34 24 20 25
REMARK SMILES IDX 21 26 35 27 22 28 23 29 27 30 24 31 26 32 25 33 28 34 29 35
REMARK SMILES IDX 33 36 30 37 32 38 31 39 38 40 39 41 40 42 41 43 42 44 43 46
REMARK SMILES IDX 44 47 45 48 106 49 46 50 105 51 47 52 48 53 49 54 99 55
REMARK SMILES IDX 50 56 104 57 98 58 100 59 51 60 103 61 97 62 96 63 52 65
REMARK SMILES IDX 84 66 64 67 83 68 65 69 68 70 82 71 101 72 66 73 67 74 81 76
REMARK SMILES IDX 102 77 69 78 53 79 54 80 62 81 55 82 57 83 63 84 56 85 58 86
REMARK SMILES IDX 59 87 60 88 61 89 85 90 86 91 94 92 87 93 89 94 95 95 88 96
REMARK SMILES IDX 90 97 91 98 92 99 93 100 70 101 71 102 79 103 72 104 74 105
REMARK SMILES IDX 80 106 73 107 75 108 76 109 77 110 78 111
REMARK H PARENT 37 4 10 15 41 45 100 64 68 75
REMARK Flexibility Score: inf
ROOT
ATOM      1  O   UNL A   1      35.011  30.657  27.824  1.00  0.00    -0.271 OA
ATOM      2  C   UNL A   1      33.831  30.847  27.545  1.00  0.00     0.257 C 
ATOM      3  N   UNL A   1      33.205  32.073  27.636  1.00  0.00    -0.353 N 
ATOM      4  H   UNL A   1      32.318  32.188  27.225  1.00  0.00     0.163 HD
ENDROOT
BRANCH   2   5
ATOM      5  C   UNL A   1      32.902  29.708  27.126  1.00  0.00     0.329 C 
BRANCH   5   6
ATOM      6  O   UNL A   1      33.196  29.104  25.872  1.00  0.00    -0.484 OA
BRANCH   6   7
ATOM      7  C   UNL A   1      32.151  28.947  24.999  1.00  0.00     0.122 A 
ATOM      8  C   UNL A   1      31.382  30.087  24.806  1.00  0.00     0.046 A 
ATOM      9  C   UNL A   1      31.736  27.725  24.447  1.00  0.00     0.072 A 
ATOM     10  C   UNL A   1      30.204  30.004  24.080  1.00  0.00     0.006 A 
ATOM     11  C   UNL A   1      30.530  27.614  23.738  1.00  0.00     0.045 A 
ATOM     12  C   UNL A   1      29.779  28.775  23.569  1.00  0.00     0.026 A 
BRANCH  11  13
ATOM     13  N   UNL A   1      30.120  26.310  23.350  1.00  0.00    -0.322 N 
ATOM     14  C   UNL A   1      30.616  25.044  23.610  1.00  0.00     0.255 C 
ATOM     15  H   UNL A   1      29.319  26.307  22.779  1.00  0.00     0.170 HD
ATOM     16  O   UNL A   1      30.238  24.060  22.985  1.00  0.00    -0.269 OA
BRANCH  14  17
ATOM     17  C   UNL A   1      31.506  24.842  24.761  1.00  0.00     0.041 A 
ATOM     18  C   UNL A   1      30.999  24.353  25.987  1.00  0.00     0.015 A 
ATOM     19  C   UNL A   1      32.871  24.896  24.493  1.00  0.00     0.028 A 
ATOM     20  C   UNL A   1      31.866  23.704  26.883  1.00  0.00     0.015 A 
ATOM     21  C   UNL A   1      33.680  24.240  25.391  1.00  0.00     0.054 A 
ATOM     22  C   UNL A   1      33.198  23.600  26.508  1.00  0.00     0.053 A 
ATOM     23  C   UNL A   1      35.040  23.806  25.170  1.00  0.00     0.266 C 
ATOM     24  C   UNL A   1      34.260  22.688  26.950  1.00  0.00     0.266 C 
ATOM     25  O   UNL A   1      35.740  24.405  24.376  1.00  0.00    -0.268 OA
ATOM     26  N   UNL A   1      35.234  22.699  25.969  1.00  0.00    -0.242 N 
ATOM     27  O   UNL A   1      34.199  22.159  28.045  1.00  0.00    -0.268 OA
BRANCH  26  28
ATOM     28  C   UNL A   1      36.269  21.729  25.719  1.00  0.00     0.060 A 
ATOM     29  C   UNL A   1      37.615  22.113  25.943  1.00  0.00     0.027 A 
ATOM     30  C   UNL A   1      36.065  20.453  25.127  1.00  0.00     0.006 A 
ATOM     31  C   UNL A   1      38.709  21.313  25.606  1.00  0.00     0.002 A 
ATOM     32  C   UNL A   1      37.195  19.641  24.831  1.00  0.00     0.011 A 
ATOM     33  C   UNL A   1      38.499  20.067  25.056  1.00  0.00     0.001 A 
BRANCH  30  34
ATOM     34  C   UNL A   1      34.789  19.919  24.627  1.00  0.00    -0.016 A 
ATOM     35  C   UNL A   1      33.743  20.777  24.251  1.00  0.00     0.009 A 
ATOM     36  C   UNL A   1      34.551  18.535  24.622  1.00  0.00     0.009 A 
ATOM     37  C   UNL A   1      32.516  20.263  23.825  1.00  0.00     0.001 A 
ATOM     38  C   UNL A   1      33.321  18.021  24.204  1.00  0.00     0.001 A 
ATOM     39  C   UNL A   1      32.309  18.885  23.795  1.00  0.00     0.000 A 
ENDBRANCH  30  34
ENDBRANCH  26  28
ENDBRANCH  14  17
ENDBRANCH  11  13
ENDBRANCH   6   7
ENDBRANCH   5   6
ENDBRANCH   2   5
BRANCH   3  40
ATOM     40  C   UNL A   1      33.810  33.196  28.318  1.00  0.00     0.117 C 
BRANCH  40  41
ATOM     41  C   UNL A   1      33.125  34.517  28.022  1.00  0.00     0.042 C 
BRANCH  41  42
ATOM     42  C   UNL A   1      33.605  35.678  28.885  1.00  0.00     0.118 C 
BRANCH  42  43
ATOM     43  N   UNL A   1      32.846  35.830  30.120  1.00  0.00    -0.352 N 
ATOM     44  C   UNL A   1      33.073  35.312  31.372  1.00  0.00     0.251 C 
ATOM     45  H   UNL A   1      32.045  36.395  30.046  1.00  0.00     0.163 HD
ATOM     46  O   UNL A   1      32.221  35.469  32.244  1.00  0.00    -0.269 OA
BRANCH  44  47
ATOM     47  C   UNL A   1      34.310  34.556  31.677  1.00  0.00     0.039 A 
ATOM     48  C   UNL A   1      35.522  35.251  31.730  1.00  0.00     0.014 A 
ATOM     49  C   UNL A   1      34.296  33.173  31.876  1.00  0.00     0.014 A 
ATOM     50  C   UNL A   1      36.706  34.570  32.030  1.00  0.00     0.010 A 
ATOM     51  C   UNL A   1      35.461  32.510  32.257  1.00  0.00     0.010 A 
ATOM     52  C   UNL A   1      36.683  33.197  32.321  1.00  0.00    -0.014 A 
BRANCH  52  53
ATOM     53  C   UNL A   1      37.928  32.468  32.685  1.00  0.00     0.031 A 
ATOM     54  C   UNL A   1      38.582  32.692  34.024  1.00  0.00     0.074 A 
ATOM     55  C   UNL A   1      38.509  31.651  31.784  1.00  0.00     0.049 A 
ATOM     56  N   UNL A   1      39.671  32.153  34.509  1.00  0.00    -0.248 NA
ATOM     57  C   UNL A   1      37.946  33.666  34.924  1.00  0.00     0.031 C 
ATOM     58  C   UNL A   1      38.029  31.417  30.419  1.00  0.00     0.029 A 
ATOM     59  N   UNL A   1      39.641  30.880  31.873  1.00  0.00    -0.354 N 
ATOM     60  C   UNL A   1      39.870  32.746  35.749  1.00  0.00     0.074 A 
ATOM     61  C   UNL A   1      38.811  33.716  35.927  1.00  0.00     0.031 C 
ATOM     62  C   UNL A   1      38.854  30.553  29.805  1.00  0.00     0.029 A 
ATOM     63  C   UNL A   1      39.930  30.186  30.721  1.00  0.00     0.049 A 
ATOM     64  H   UNL A   1      40.194  30.828  32.686  1.00  0.00     0.167 HD
ATOM     65  C   UNL A   1      40.825  32.487  36.675  1.00  0.00     0.034 A 
ATOM     66  C   UNL A   1      40.941  29.343  30.437  1.00  0.00     0.034 A 
ATOM     67  C   UNL A   1      41.848  31.488  36.520  1.00  0.00     0.049 A 
ATOM     68  C   UNL A   1      41.945  29.014  31.509  1.00  0.00     0.074 A 
ATOM     69  C   UNL A   1      42.809  31.090  37.434  1.00  0.00     0.029 A 
ATOM     70  N   UNL A   1      42.041  30.724  35.380  1.00  0.00    -0.354 N 
ATOM     71  N   UNL A   1      42.017  29.465  32.739  1.00  0.00    -0.248 NA
ATOM     72  C   UNL A   1      42.978  28.024  31.171  1.00  0.00     0.031 C 
ATOM     73  C   UNL A   1      43.591  30.093  36.840  1.00  0.00     0.029 A 
ATOM     74  C   UNL A   1      43.104  29.856  35.565  1.00  0.00     0.049 A 
ATOM     75  H   UNL A   1      41.503  30.790  34.558  1.00  0.00     0.167 HD
ATOM     76  C   UNL A   1      43.074  28.785  33.332  1.00  0.00     0.074 A 
ATOM     77  C   UNL A   1      43.598  27.874  32.334  1.00  0.00     0.031 C 
ATOM     78  C   UNL A   1      43.577  28.913  34.585  1.00  0.00     0.034 A 
BRANCH  65  79
ATOM     79  C   UNL A   1      40.769  33.256  37.971  1.00  0.00     0.023 A 
ATOM     80  C   UNL A   1      41.678  34.313  38.188  1.00  0.00     0.012 A 
ATOM     81  C   UNL A   1      39.794  32.974  38.946  1.00  0.00     0.148 A 
ATOM     82  C   UNL A   1      41.639  35.053  39.368  1.00  0.00     0.002 A 
ATOM     83  C   UNL A   1      39.733  33.746  40.102  1.00  0.00     0.091 A 
ATOM     84  F   UNL A   1      38.952  31.952  38.733  1.00  0.00    -0.205 F 
ATOM     85  C   UNL A   1      40.662  34.777  40.319  1.00  0.00     0.022 A 
BRANCH  83  86
ATOM     86  S   UNL A   1      38.462  33.520  41.351  1.00  0.00     0.127 S 
ATOM     87  O   UNL A   1      38.891  34.464  42.382  1.00  0.00    -0.237 OA
ATOM     88  O   UNL A   1      37.249  33.912  40.633  1.00  0.00    -0.237 OA
ATOM     89  O   UNL A   1      38.516  32.114  41.727  1.00  0.00    -0.744 OA
ENDBRANCH  83  86
ENDBRANCH  65  79
BRANCH  66  90
ATOM     90  C   UNL A   1      41.001  28.675  29.105  1.00  0.00     0.023 A 
ATOM     91  C   UNL A   1      41.666  29.317  28.041  1.00  0.00     0.012 A 
ATOM     92  C   UNL A   1      40.429  27.407  28.893  1.00  0.00     0.148 A 
ATOM     93  C   UNL A   1      41.731  28.723  26.781  1.00  0.00     0.002 A 
ATOM     94  C   UNL A   1      40.545  26.796  27.649  1.00  0.00     0.091 A 
ATOM     95  F   UNL A   1      39.792  26.818  29.915  1.00  0.00    -0.205 F 
ATOM     96  C   UNL A   1      41.180  27.460  26.588  1.00  0.00     0.022 A 
BRANCH  94  97
ATOM     97  S   UNL A   1      39.980  25.118  27.347  1.00  0.00     0.127 S 
ATOM     98  O   UNL A   1      40.426  24.895  25.974  1.00  0.00    -0.237 OA
ATOM     99  O   UNL A   1      40.715  24.363  28.364  1.00  0.00    -0.237 OA
ATOM    100  O   UNL A   1      38.538  25.149  27.551  1.00  0.00    -0.744 OA
ENDBRANCH  94  97
ENDBRANCH  66  90
BRANCH  78 101
ATOM    101  C   UNL A   1      44.727  28.018  34.970  1.00  0.00     0.023 A 
ATOM    102  C   UNL A   1      46.052  28.472  34.817  1.00  0.00     0.012 A 
ATOM    103  C   UNL A   1      44.493  26.747  35.532  1.00  0.00     0.148 A 
ATOM    104  C   UNL A   1      47.126  27.660  35.180  1.00  0.00     0.002 A 
ATOM    105  C   UNL A   1      45.568  25.963  35.936  1.00  0.00     0.091 A 
ATOM    106  F   UNL A   1      43.227  26.320  35.650  1.00  0.00    -0.205 F 
ATOM    107  C   UNL A   1      46.884  26.411  35.748  1.00  0.00     0.022 A 
BRANCH 105 108
ATOM    108  S   UNL A   1      45.336  24.387  36.765  1.00  0.00     0.127 S 
ATOM    109  O   UNL A   1      46.703  23.871  36.816  1.00  0.00    -0.237 OA
ATOM    110  O   UNL A   1      44.787  24.789  38.061  1.00  0.00    -0.237 OA
ATOM    111  O   UNL A   1      44.407  23.635  35.930  1.00  0.00    -0.744 OA
ENDBRANCH 105 108
ENDBRANCH  78 101
ENDBRANCH  52  53
ENDBRANCH  44  47
ENDBRANCH  42  43
ENDBRANCH  41  42
ENDBRANCH  40  41
ENDBRANCH   3  40
TORSDOF 19
ENDMDL
MODEL 3
REMARK VINA RESULT:     -10.1      4.620     10.367
REMARK SMILES O=C(COc1cccc(NC(=O)c2ccc3c(c2)C(=O)N(c2ccccc2-c2ccccc2)C3=O)c1)NCCCNC(=O)c1ccc(-c2c3nc(c(-c4cccc(S(=O)(=O)[O-])c4F)c4ccc([nH]4)c(-c4cccc(S(=O)(=O)[O-])c4F)c4nc(c(-c5cccc(S(=O)(=O)[O-])c5F)c5ccc2[nH]5)C=C4)C=C3)cc1
REMARK SMILES IDX 1 1 2 2 37 3 3 5 4 6 5 7 6 8 36 9 7 10 9 11 8 12 10 13 11 14
REMARK SMILES IDX 12 16 13 17 14 18 18 19 15 20 17 21 16 22 19 23 34 24 20 25
REMARK SMILES IDX 21 26 35 27 22 28 23 29 27 30 24 31 26 32 25 33 28 34 29 35
REMARK SMILES IDX 33 36 30 37 32 38 31 39 38 40 39 41 40 42 41 43 42 44 43 46
REMARK SMILES IDX 44 47 45 48 106 49 46 50 105 51 47 52 48 53 49 54 99 55
REMARK SMILES IDX 50 56 104 57 98 58 100 59 51 60 103 61 97 62 96 63 52 65
REMARK SMILES IDX 84 66 64 67 83 68 65 69 68 70 82 71 101 72 66 73 67 74 81 76
REMARK SMILES IDX 102 77 69 78 53 79 54 80 62 81 55 82 57 83 63 84 56 85 58 86
REMARK SMILES IDX 59 87 60 88 61 89 85 90 86 91 94 92 87 93 89 94 95 95 88 96
REMARK SMILES IDX 90 97 91 98 92 99 93 100 70 101 71 102 79 103 72 104 74 105
REMARK SMILES IDX 80 106 73 107 75 108 76 109 77 110 78 111
REMARK H PARENT 37 4 10 15 41 45 100 64 68 75
REMARK Flexibility Score: inf
ROOT
ATOM      1  O   UNL A   1      35.687  33.117  27.892  1.00  0.00    -0.271 OA
ATOM      2  C   UNL A   1      34.769  32.589  28.512  1.00  0.00     0.257 C 
ATOM      3  N   UNL A   1      34.091  33.196  29.550  1.00  0.00    -0.353 N 
ATOM      4  H   UNL A   1      33.255  32.792  29.874  1.00  0.00     0.163 HD
ENDROOT
BRANCH   2   5
ATOM      5  C   UNL A   1      34.321  31.155  28.237  1.00  0.00     0.329 C 
BRANCH   5   6
ATOM      6  O   UNL A   1      34.186  30.805  26.865  1.00  0.00    -0.484 OA
BRANCH   6   7
ATOM      7  C   UNL A   1      33.213  29.892  26.551  1.00  0.00     0.122 A 
ATOM      8  C   UNL A   1      33.355  28.658  27.174  1.00  0.00     0.046 A 
ATOM      9  C   UNL A   1      32.231  30.064  25.563  1.00  0.00     0.072 A 
ATOM     10  C   UNL A   1      32.533  27.606  26.805  1.00  0.00     0.006 A 
ATOM     11  C   UNL A   1      31.411  29.001  25.152  1.00  0.00     0.045 A 
ATOM     12  C   UNL A   1      31.585  27.776  25.792  1.00  0.00     0.026 A 
BRANCH  11  13
ATOM     13  N   UNL A   1      30.554  29.231  24.043  1.00  0.00    -0.322 N 
ATOM     14  C   UNL A   1      30.557  28.783  22.733  1.00  0.00     0.255 C 
ATOM     15  H   UNL A   1      29.804  29.835  24.249  1.00  0.00     0.170 HD
ATOM     16  O   UNL A   1      29.844  29.289  21.874  1.00  0.00    -0.269 OA
BRANCH  14  17
ATOM     17  C   UNL A   1      31.317  27.575  22.388  1.00  0.00     0.041 A 
ATOM     18  C   UNL A   1      32.618  27.673  21.843  1.00  0.00     0.015 A 
ATOM     19  C   UNL A   1      30.806  26.374  22.872  1.00  0.00     0.028 A 
ATOM     20  C   UNL A   1      33.507  26.593  21.978  1.00  0.00     0.015 A 
ATOM     21  C   UNL A   1      31.713  25.348  22.996  1.00  0.00     0.054 A 
ATOM     22  C   UNL A   1      33.035  25.466  22.637  1.00  0.00     0.053 A 
ATOM     23  C   UNL A   1      31.567  24.161  23.807  1.00  0.00     0.266 C 
ATOM     24  C   UNL A   1      33.742  24.365  23.301  1.00  0.00     0.266 C 
ATOM     25  O   UNL A   1      30.455  23.733  24.051  1.00  0.00    -0.268 OA
ATOM     26  N   UNL A   1      32.841  23.771  24.165  1.00  0.00    -0.242 N 
ATOM     27  O   UNL A   1      34.884  24.088  22.984  1.00  0.00    -0.268 OA
BRANCH  26  28
ATOM     28  C   UNL A   1      33.107  22.926  25.301  1.00  0.00     0.060 A 
ATOM     29  C   UNL A   1      33.592  23.533  26.487  1.00  0.00     0.027 A 
ATOM     30  C   UNL A   1      33.061  21.506  25.289  1.00  0.00     0.006 A 
ATOM     31  C   UNL A   1      34.017  22.808  27.602  1.00  0.00     0.002 A 
ATOM     32  C   UNL A   1      33.461  20.793  26.453  1.00  0.00     0.011 A 
ATOM     33  C   UNL A   1      33.942  21.431  27.591  1.00  0.00     0.001 A 
BRANCH  30  34
ATOM     34  C   UNL A   1      32.783  20.653  24.123  1.00  0.00    -0.016 A 
ATOM     35  C   UNL A   1      32.244  21.191  22.944  1.00  0.00     0.009 A 
ATOM     36  C   UNL A   1      32.946  19.260  24.207  1.00  0.00     0.009 A 
ATOM     37  C   UNL A   1      31.936  20.368  21.859  1.00  0.00     0.001 A 
ATOM     38  C   UNL A   1      32.630  18.436  23.124  1.00  0.00     0.001 A 
ATOM     39  C   UNL A   1      32.136  18.992  21.947  1.00  0.00     0.000 A 
ENDBRANCH  30  34
ENDBRANCH  26  28
ENDBRANCH  14  17
ENDBRANCH  11  13
ENDBRANCH   6   7
ENDBRANCH   5   6
ENDBRANCH   2   5
BRANCH   3  40
ATOM     40  C   UNL A   1      34.571  34.408  30.176  1.00  0.00     0.117 C 
BRANCH  40  41
ATOM     41  C   UNL A   1      34.142  34.544  31.625  1.00  0.00     0.042 C 
BRANCH  41  42
ATOM     42  C   UNL A   1      35.163  35.240  32.517  1.00  0.00     0.118 C 
BRANCH  42  43
ATOM     43  N   UNL A   1      35.052  34.867  33.922  1.00  0.00    -0.352 N 
ATOM     44  C   UNL A   1      35.843  34.046  34.688  1.00  0.00     0.251 C 
ATOM     45  H   UNL A   1      34.289  35.267  34.397  1.00  0.00     0.163 HD
ATOM     46  O   UNL A   1      35.483  33.769  35.831  1.00  0.00    -0.269 OA
BRANCH  44  47
ATOM     47  C   UNL A   1      37.104  33.479  34.155  1.00  0.00     0.039 A 
ATOM     48  C   UNL A   1      38.318  34.009  34.604  1.00  0.00     0.014 A 
ATOM     49  C   UNL A   1      37.105  32.462  33.197  1.00  0.00     0.014 A 
ATOM     50  C   UNL A   1      39.525  33.486  34.132  1.00  0.00     0.010 A 
ATOM     51  C   UNL A   1      38.307  31.887  32.790  1.00  0.00     0.010 A 
ATOM     52  C   UNL A   1      39.532  32.403  33.239  1.00  0.00    -0.014 A 
BRANCH  52  53
ATOM     53  C   UNL A   1      40.809  31.809  32.761  1.00  0.00     0.031 A 
ATOM     54  C   UNL A   1      41.383  30.589  33.433  1.00  0.00     0.074 A 
ATOM     55  C   UNL A   1      41.490  32.406  31.763  1.00  0.00     0.049 A 
ATOM     56  N   UNL A   1      42.486  29.940  33.161  1.00  0.00    -0.248 NA
ATOM     57  C   UNL A   1      40.637  30.041  34.577  1.00  0.00     0.031 C 
ATOM     58  C   UNL A   1      41.092  33.644  31.088  1.00  0.00     0.029 A 
ATOM     59  N   UNL A   1      42.671  32.063  31.154  1.00  0.00    -0.354 N 
ATOM     60  C   UNL A   1      42.584  28.935  34.115  1.00  0.00     0.074 A 
ATOM     61  C   UNL A   1      41.449  29.083  35.000  1.00  0.00     0.031 C 
ATOM     62  C   UNL A   1      42.006  33.949  30.153  1.00  0.00     0.029 A 
ATOM     63  C   UNL A   1      43.063  32.942  30.171  1.00  0.00     0.049 A 
ATOM     64  H   UNL A   1      43.189  31.261  31.396  1.00  0.00     0.167 HD
ATOM     65  C   UNL A   1      43.513  27.955  34.229  1.00  0.00     0.034 A 
ATOM     66  C   UNL A   1      44.146  32.935  29.370  1.00  0.00     0.034 A 
ATOM     67  C   UNL A   1      44.612  27.776  33.320  1.00  0.00     0.049 A 
ATOM     68  C   UNL A   1      45.122  31.793  29.467  1.00  0.00     0.074 A 
ATOM     69  C   UNL A   1      45.558  26.765  33.299  1.00  0.00     0.029 A 
ATOM     70  N   UNL A   1      44.914  28.625  32.267  1.00  0.00    -0.354 N 
ATOM     71  N   UNL A   1      45.104  30.757  30.272  1.00  0.00    -0.248 NA
ATOM     72  C   UNL A   1      46.239  31.791  28.511  1.00  0.00     0.031 C 
ATOM     73  C   UNL A   1      46.438  27.011  32.240  1.00  0.00     0.029 A 
ATOM     74  C   UNL A   1      46.028  28.162  31.589  1.00  0.00     0.049 A 
ATOM     75  H   UNL A   1      44.410  29.439  32.036  1.00  0.00     0.167 HD
ATOM     76  C   UNL A   1      46.180  29.963  29.894  1.00  0.00     0.074 A 
ATOM     77  C   UNL A   1      46.815  30.625  28.773  1.00  0.00     0.031 C 
ATOM     78  C   UNL A   1      46.614  28.798  30.437  1.00  0.00     0.034 A 
BRANCH  65  79
ATOM     79  C   UNL A   1      43.341  26.956  35.346  1.00  0.00     0.023 A 
ATOM     80  C   UNL A   1      42.449  25.875  35.176  1.00  0.00     0.012 A 
ATOM     81  C   UNL A   1      44.091  27.050  36.533  1.00  0.00     0.148 A 
ATOM     82  C   UNL A   1      42.282  24.926  36.182  1.00  0.00     0.002 A 
ATOM     83  C   UNL A   1      43.952  26.075  37.515  1.00  0.00     0.091 A 
ATOM     84  F   UNL A   1      44.917  28.095  36.687  1.00  0.00    -0.205 F 
ATOM     85  C   UNL A   1      43.039  25.020  37.346  1.00  0.00     0.022 A 
BRANCH  83  86
ATOM     86  S   UNL A   1      44.938  26.063  39.016  1.00  0.00     0.127 S 
ATOM     87  O   UNL A   1      44.102  26.845  39.925  1.00  0.00    -0.237 OA
ATOM     88  O   UNL A   1      45.008  24.635  39.328  1.00  0.00    -0.237 OA
ATOM     89  O   UNL A   1      46.215  26.667  38.660  1.00  0.00    -0.744 OA
ENDBRANCH  83  86
ENDBRANCH  65  79
BRANCH  66  90
ATOM     90  C   UNL A   1      44.316  33.998  28.339  1.00  0.00     0.023 A 
ATOM     91  C   UNL A   1      43.826  33.779  27.036  1.00  0.00     0.012 A 
ATOM     92  C   UNL A   1      44.933  35.226  28.644  1.00  0.00     0.148 A 
ATOM     93  C   UNL A   1      43.978  34.751  26.047  1.00  0.00     0.002 A 
ATOM     94  C   UNL A   1      45.032  36.211  27.668  1.00  0.00     0.091 A 
ATOM     95  F   UNL A   1      45.402  35.410  29.886  1.00  0.00    -0.205 F 
ATOM     96  C   UNL A   1      44.571  35.968  26.364  1.00  0.00     0.022 A 
BRANCH  94  97
ATOM     97  S   UNL A   1      45.663  37.855  28.022  1.00  0.00     0.127 S 
ATOM     98  O   UNL A   1      47.099  37.671  27.834  1.00  0.00    -0.237 OA
ATOM     99  O   UNL A   1      45.004  38.661  26.992  1.00  0.00    -0.237 OA
ATOM    100  O   UNL A   1      45.233  38.153  29.381  1.00  0.00    -0.744 OA
ENDBRANCH  94  97
ENDBRANCH  66  90
BRANCH  78 101
ATOM    101  C   UNL A   1      47.809  28.135  29.800  1.00  0.00     0.023 A 
ATOM    102  C   UNL A   1      49.109  28.471  30.227  1.00  0.00     0.012 A 
ATOM    103  C   UNL A   1      47.640  27.141  28.816  1.00  0.00     0.148 A 
ATOM    104  C   UNL A   1      50.223  27.857  29.656  1.00  0.00     0.002 A 
ATOM    105  C   UNL A   1      48.754  26.499  28.286  1.00  0.00     0.091 A 
ATOM    106  F   UNL A   1      46.398  26.849  28.404  1.00  0.00    -0.205 F 
ATOM    107  C   UNL A   1      50.046  26.865  28.694  1.00  0.00     0.022 A 
BRANCH 105 108
ATOM    108  S   UNL A   1      48.604  25.145  27.116  1.00  0.00     0.127 S 
ATOM    109  O   UNL A   1      48.444  25.858  25.851  1.00  0.00    -0.237 OA
ATOM    110  O   UNL A   1      49.885  24.453  27.268  1.00  0.00    -0.237 OA
ATOM    111  O   UNL A   1      47.450  24.370  27.556  1.00  0.00    -0.744 OA
ENDBRANCH 105 108
ENDBRANCH  78 101
ENDBRANCH  52  53
ENDBRANCH  44  47
ENDBRANCH  42  43
ENDBRANCH  41  42
ENDBRANCH  40  41
ENDBRANCH   3  40
TORSDOF 19
ENDMDL
