MODEL 1
REMARK VINA RESULT:     -12.5      0.000      0.000
REMARK SMILES O=C(NCCCNC(=O)c1ccc2nc(C3CCCCC3)[nH]c2c1)c1ccc(-c2c3nc(c(-c4cccc(S(=O)(=O)[O-])c4F)c4ccc([nH]4)c(-c4cccc(S(=O)(=O)[O-])c4F)c4nc(c(-c5cccc(S(=O)(=O)[O-])c5F)c5ccc2[nH]5)C=C4)C=C3)cc1
REMARK SMILES IDX 4 1 3 2 1 3 2 4 25 6 26 7 87 8 27 9 86 10 28 11 29 12 30 13
REMARK SMILES IDX 80 14 31 15 85 16 79 17 81 18 32 19 84 20 78 21 77 22 33 24
REMARK SMILES IDX 65 25 45 26 64 27 46 28 49 29 63 30 82 31 47 32 48 33 62 35
REMARK SMILES IDX 83 36 50 37 34 38 35 39 43 40 36 41 38 42 44 43 37 44 39 45
REMARK SMILES IDX 40 46 41 47 42 48 66 49 67 50 75 51 68 52 70 53 76 54 69 55
REMARK SMILES IDX 71 56 72 57 73 58 74 59 51 60 52 61 60 62 53 63 55 64 61 65
REMARK SMILES IDX 54 66 56 67 57 68 58 69 59 70 5 71 6 72 7 73 8 74 9 76 10 77
REMARK SMILES IDX 11 78 24 79 12 80 23 81 13 82 22 83 14 84 15 85 16 87 17 88
REMARK SMILES IDX 21 89 18 90 20 91 19 92
REMARK H PARENT 3 5 81 23 49 34 7 75 22 86
REMARK Flexibility Score: inf
ROOT
ATOM      1  C   UNL A   1      33.973  28.777  26.101  1.00  0.00     0.118 C 
ENDROOT
BRANCH   1   2
ATOM      2  N   UNL A   1      33.820  30.136  26.603  1.00  0.00    -0.352 N 
ATOM      3  O   UNL A   1      34.084  31.882  27.984  1.00  0.00    -0.269 OA
ATOM      4  C   UNL A   1      34.535  30.825  27.550  1.00  0.00     0.251 C 
ATOM      5  H   UNL A   1      33.081  30.644  26.194  1.00  0.00     0.163 HD
BRANCH   4   6
ATOM      6  C   UNL A   1      35.823  30.300  28.055  1.00  0.00     0.039 A 
ATOM      7  C   UNL A   1      37.002  30.450  27.321  1.00  0.00     0.014 A 
ATOM      8  C   UNL A   1      35.860  29.691  29.314  1.00  0.00     0.014 A 
ATOM      9  C   UNL A   1      38.183  29.870  27.771  1.00  0.00     0.010 A 
ATOM     10  C   UNL A   1      37.067  29.189  29.807  1.00  0.00     0.010 A 
ATOM     11  C   UNL A   1      38.232  29.247  29.027  1.00  0.00    -0.014 A 
BRANCH  11  12
ATOM     12  C   UNL A   1      39.525  28.737  29.547  1.00  0.00     0.031 A 
ATOM     13  C   UNL A   1      40.246  29.440  30.662  1.00  0.00     0.074 A 
ATOM     14  C   UNL A   1      40.069  27.648  28.970  1.00  0.00     0.049 A 
ATOM     15  N   UNL A   1      41.397  29.145  31.209  1.00  0.00    -0.248 NA
ATOM     16  C   UNL A   1      39.599  30.633  31.230  1.00  0.00     0.031 C 
ATOM     17  C   UNL A   1      39.486  26.917  27.842  1.00  0.00     0.029 A 
ATOM     18  N   UNL A   1      41.239  26.981  29.230  1.00  0.00    -0.354 N 
ATOM     19  C   UNL A   1      41.637  30.138  32.151  1.00  0.00     0.074 A 
ATOM     20  C   UNL A   1      40.512  31.047  32.099  1.00  0.00     0.031 C 
ATOM     21  C   UNL A   1      40.301  25.909  27.504  1.00  0.00     0.029 A 
ATOM     22  C   UNL A   1      41.485  25.952  28.354  1.00  0.00     0.049 A 
ATOM     23  H   UNL A   1      41.842  27.217  29.972  1.00  0.00     0.167 HD
ATOM     24  C   UNL A   1      42.692  30.270  32.991  1.00  0.00     0.034 A 
ATOM     25  C   UNL A   1      42.558  25.148  28.223  1.00  0.00     0.034 A 
ATOM     26  C   UNL A   1      43.789  29.340  33.059  1.00  0.00     0.049 A 
ATOM     27  C   UNL A   1      43.701  25.296  29.183  1.00  0.00     0.074 A 
ATOM     28  C   UNL A   1      44.856  29.334  33.939  1.00  0.00     0.029 A 
ATOM     29  N   UNL A   1      43.969  28.263  32.205  1.00  0.00    -0.354 N 
ATOM     30  N   UNL A   1      43.836  26.145  30.172  1.00  0.00    -0.248 NA
ATOM     31  C   UNL A   1      44.822  24.359  29.035  1.00  0.00     0.031 C 
ATOM     32  C   UNL A   1      45.695  28.268  33.601  1.00  0.00     0.029 A 
ATOM     33  C   UNL A   1      45.139  27.595  32.525  1.00  0.00     0.049 A 
ATOM     34  H   UNL A   1      43.356  28.010  31.478  1.00  0.00     0.167 HD
ATOM     35  C   UNL A   1      45.046  25.835  30.779  1.00  0.00     0.074 A 
ATOM     36  C   UNL A   1      45.595  24.703  30.058  1.00  0.00     0.031 C 
ATOM     37  C   UNL A   1      45.653  26.442  31.828  1.00  0.00     0.034 A 
BRANCH  24  38
ATOM     38  C   UNL A   1      42.694  31.447  33.932  1.00  0.00     0.023 A 
ATOM     39  C   UNL A   1      43.262  32.669  33.518  1.00  0.00     0.012 A 
ATOM     40  C   UNL A   1      42.093  31.361  35.203  1.00  0.00     0.148 A 
ATOM     41  C   UNL A   1      43.263  33.776  34.366  1.00  0.00     0.002 A 
ATOM     42  C   UNL A   1      42.062  32.481  36.027  1.00  0.00     0.091 A 
ATOM     43  F   UNL A   1      41.578  30.186  35.592  1.00  0.00    -0.205 F 
ATOM     44  C   UNL A   1      42.656  33.685  35.615  1.00  0.00     0.022 A 
BRANCH  42  45
ATOM     45  S   UNL A   1      41.233  32.473  37.621  1.00  0.00     0.127 S 
ATOM     46  O   UNL A   1      42.077  31.561  38.389  1.00  0.00    -0.237 OA
ATOM     47  O   UNL A   1      41.326  33.876  38.030  1.00  0.00    -0.237 OA
ATOM     48  O   UNL A   1      39.877  32.014  37.358  1.00  0.00    -0.744 OA
ENDBRANCH  42  45
ENDBRANCH  24  38
BRANCH  25  49
ATOM     49  C   UNL A   1      42.560  24.118  27.148  1.00  0.00     0.023 A 
ATOM     50  C   UNL A   1      43.270  24.356  25.957  1.00  0.00     0.012 A 
ATOM     51  C   UNL A   1      41.944  22.866  27.347  1.00  0.00     0.148 A 
ATOM     52  C   UNL A   1      43.359  23.367  24.976  1.00  0.00     0.002 A 
ATOM     53  C   UNL A   1      42.086  21.867  26.392  1.00  0.00     0.091 A 
ATOM     54  F   UNL A   1      41.264  22.667  28.484  1.00  0.00    -0.205 F 
ATOM     55  C   UNL A   1      42.782  22.120  25.200  1.00  0.00     0.022 A 
BRANCH  53  56
ATOM     56  S   UNL A   1      41.507  20.187  26.664  1.00  0.00     0.127 S 
ATOM     57  O   UNL A   1      40.065  20.384  26.782  1.00  0.00    -0.237 OA
ATOM     58  O   UNL A   1      41.940  19.518  25.436  1.00  0.00    -0.237 OA
ATOM     59  O   UNL A   1      42.184  19.727  27.869  1.00  0.00    -0.744 OA
ENDBRANCH  53  56
ENDBRANCH  25  49
BRANCH  37  60
ATOM     60  C   UNL A   1      46.975  25.887  32.287  1.00  0.00     0.023 A 
ATOM     61  C   UNL A   1      48.166  26.356  31.701  1.00  0.00     0.012 A 
ATOM     62  C   UNL A   1      47.040  24.977  33.360  1.00  0.00     0.148 A 
ATOM     63  C   UNL A   1      49.405  25.912  32.164  1.00  0.00     0.002 A 
ATOM     64  C   UNL A   1      48.278  24.575  33.846  1.00  0.00     0.091 A 
ATOM     65  F   UNL A   1      45.891  24.531  33.889  1.00  0.00    -0.205 F 
ATOM     66  C   UNL A   1      49.460  25.033  33.244  1.00  0.00     0.022 A 
BRANCH  64  67
ATOM     67  S   UNL A   1      48.448  23.519  35.290  1.00  0.00     0.127 S 
ATOM     68  O   UNL A   1      47.943  22.243  34.787  1.00  0.00    -0.237 OA
ATOM     69  O   UNL A   1      49.891  23.553  35.528  1.00  0.00    -0.237 OA
ATOM     70  O   UNL A   1      47.647  24.137  36.338  1.00  0.00    -0.744 OA
ENDBRANCH  64  67
ENDBRANCH  37  60
ENDBRANCH  11  12
ENDBRANCH   4   6
ENDBRANCH   1   2
BRANCH   1  71
ATOM     71  C   UNL A   1      32.650  28.024  26.047  1.00  0.00     0.042 C 
BRANCH  71  72
ATOM     72  C   UNL A   1      32.751  26.647  25.404  1.00  0.00     0.118 C 
BRANCH  72  73
ATOM     73  N   UNL A   1      32.996  26.721  23.971  1.00  0.00    -0.352 N 
ATOM     74  C   UNL A   1      33.589  25.806  23.141  1.00  0.00     0.251 C 
ATOM     75  H   UNL A   1      32.690  27.549  23.533  1.00  0.00     0.163 HD
ATOM     76  O   UNL A   1      33.892  26.108  21.991  1.00  0.00    -0.269 OA
BRANCH  74  77
ATOM     77  C   UNL A   1      33.889  24.450  23.643  1.00  0.00     0.042 A 
ATOM     78  C   UNL A   1      35.033  24.220  24.419  1.00  0.00     0.016 A 
ATOM     79  C   UNL A   1      32.985  23.423  23.336  1.00  0.00     0.042 A 
ATOM     80  C   UNL A   1      35.358  22.926  24.840  1.00  0.00     0.031 A 
ATOM     81  C   UNL A   1      33.336  22.148  23.780  1.00  0.00     0.066 A 
ATOM     82  C   UNL A   1      34.493  21.877  24.503  1.00  0.00     0.089 A 
ATOM     83  N   UNL A   1      32.727  20.929  23.651  1.00  0.00    -0.342 N 
ATOM     84  N   UNL A   1      34.591  20.539  24.784  1.00  0.00    -0.233 NA
ATOM     85  C   UNL A   1      33.522  19.982  24.253  1.00  0.00     0.110 A 
ATOM     86  H   UNL A   1      31.867  20.758  23.203  1.00  0.00     0.168 HD
BRANCH  85  87
ATOM     87  C   UNL A   1      33.166  18.528  24.311  1.00  0.00     0.055 C 
ATOM     88  C   UNL A   1      34.331  17.667  23.800  1.00  0.00     0.011 C 
ATOM     89  C   UNL A   1      32.721  18.099  25.717  1.00  0.00     0.011 C 
ATOM     90  C   UNL A   1      34.004  16.179  23.871  1.00  0.00     0.001 C 
ATOM     91  C   UNL A   1      32.406  16.606  25.775  1.00  0.00     0.001 C 
ATOM     92  C   UNL A   1      33.578  15.766  25.276  1.00  0.00     0.000 C 
ENDBRANCH  85  87
ENDBRANCH  74  77
ENDBRANCH  72  73
ENDBRANCH  71  72
ENDBRANCH   1  71
TORSDOF 14
ENDMDL
MODEL 2
REMARK VINA RESULT:     -12.5      1.756      2.096
REMARK SMILES O=C(NCCCNC(=O)c1ccc2nc(C3CCCCC3)[nH]c2c1)c1ccc(-c2c3nc(c(-c4cccc(S(=O)(=O)[O-])c4F)c4ccc([nH]4)c(-c4cccc(S(=O)(=O)[O-])c4F)c4nc(c(-c5cccc(S(=O)(=O)[O-])c5F)c5ccc2[nH]5)C=C4)C=C3)cc1
REMARK SMILES IDX 4 1 3 2 1 3 2 4 25 6 26 7 87 8 27 9 86 10 28 11 29 12 30 13
REMARK SMILES IDX 80 14 31 15 85 16 79 17 81 18 32 19 84 20 78 21 77 22 33 24
REMARK SMILES IDX 65 25 45 26 64 27 46 28 49 29 63 30 82 31 47 32 48 33 62 35
REMARK SMILES IDX 83 36 50 37 34 38 35 39 43 40 36 41 38 42 44 43 37 44 39 45
REMARK SMILES IDX 40 46 41 47 42 48 66 49 67 50 75 51 68 52 70 53 76 54 69 55
REMARK SMILES IDX 71 56 72 57 73 58 74 59 51 60 52 61 60 62 53 63 55 64 61 65
REMARK SMILES IDX 54 66 56 67 57 68 58 69 59 70 5 71 6 72 7 73 8 74 9 76 10 77
REMARK SMILES IDX 11 78 24 79 12 80 23 81 13 82 22 83 14 84 15 85 16 87 17 88
REMARK SMILES IDX 21 89 18 90 20 91 19 92
REMARK H PARENT 3 5 81 23 49 34 7 75 22 86
REMARK Flexibility Score: inf
ROOT
ATOM      1  C   UNL A   1      34.024  28.770  26.083  1.00  0.00     0.118 C 
ENDROOT
BRANCH   1   2
ATOM      2  N   UNL A   1      33.848  30.115  26.612  1.00  0.00    -0.352 N 
ATOM      3  O   UNL A   1      34.079  31.835  28.032  1.00  0.00    -0.269 OA
ATOM      4  C   UNL A   1      34.548  30.793  27.578  1.00  0.00     0.251 C 
ATOM      5  H   UNL A   1      33.103  30.620  26.211  1.00  0.00     0.163 HD
BRANCH   4   6
ATOM      6  C   UNL A   1      35.841  30.277  28.078  1.00  0.00     0.039 A 
ATOM      7  C   UNL A   1      37.019  30.451  27.349  1.00  0.00     0.014 A 
ATOM      8  C   UNL A   1      35.883  29.651  29.328  1.00  0.00     0.014 A 
ATOM      9  C   UNL A   1      38.206  29.878  27.794  1.00  0.00     0.010 A 
ATOM     10  C   UNL A   1      37.094  29.156  29.817  1.00  0.00     0.010 A 
ATOM     11  C   UNL A   1      38.260  29.239  29.041  1.00  0.00    -0.014 A 
BRANCH  11  12
ATOM     12  C   UNL A   1      39.559  28.737  29.556  1.00  0.00     0.031 A 
ATOM     13  C   UNL A   1      40.270  29.433  30.681  1.00  0.00     0.074 A 
ATOM     14  C   UNL A   1      40.115  27.661  28.967  1.00  0.00     0.049 A 
ATOM     15  N   UNL A   1      41.423  29.145  31.226  1.00  0.00    -0.248 NA
ATOM     16  C   UNL A   1      39.609  30.612  31.263  1.00  0.00     0.031 C 
ATOM     17  C   UNL A   1      39.542  26.938  27.828  1.00  0.00     0.029 A 
ATOM     18  N   UNL A   1      41.292  27.004  29.220  1.00  0.00    -0.354 N 
ATOM     19  C   UNL A   1      41.650  30.128  32.181  1.00  0.00     0.074 A 
ATOM     20  C   UNL A   1      40.515  31.025  32.139  1.00  0.00     0.031 C 
ATOM     21  C   UNL A   1      40.369  25.943  27.479  1.00  0.00     0.029 A 
ATOM     22  C   UNL A   1      41.551  25.989  28.331  1.00  0.00     0.049 A 
ATOM     23  H   UNL A   1      41.892  27.237  29.965  1.00  0.00     0.167 HD
ATOM     24  C   UNL A   1      42.702  30.261  33.025  1.00  0.00     0.034 A 
ATOM     25  C   UNL A   1      42.633  25.199  28.192  1.00  0.00     0.034 A 
ATOM     26  C   UNL A   1      43.810  29.343  33.083  1.00  0.00     0.049 A 
ATOM     27  C   UNL A   1      43.773  25.347  29.156  1.00  0.00     0.074 A 
ATOM     28  C   UNL A   1      44.876  29.338  33.964  1.00  0.00     0.029 A 
ATOM     29  N   UNL A   1      44.003  28.279  32.215  1.00  0.00    -0.354 N 
ATOM     30  N   UNL A   1      43.897  26.185  30.156  1.00  0.00    -0.248 NA
ATOM     31  C   UNL A   1      44.905  24.425  28.998  1.00  0.00     0.031 C 
ATOM     32  C   UNL A   1      45.728  28.285  33.614  1.00  0.00     0.029 A 
ATOM     33  C   UNL A   1      45.181  27.620  32.529  1.00  0.00     0.049 A 
ATOM     34  H   UNL A   1      43.394  28.028  31.484  1.00  0.00     0.167 HD
ATOM     35  C   UNL A   1      45.110  25.881  30.760  1.00  0.00     0.074 A 
ATOM     36  C   UNL A   1      45.672  24.764  30.026  1.00  0.00     0.031 C 
ATOM     37  C   UNL A   1      45.708  26.481  31.818  1.00  0.00     0.034 A 
BRANCH  24  38
ATOM     38  C   UNL A   1      42.691  31.426  33.980  1.00  0.00     0.023 A 
ATOM     39  C   UNL A   1      43.306  32.639  33.609  1.00  0.00     0.012 A 
ATOM     40  C   UNL A   1      42.029  31.340  35.221  1.00  0.00     0.148 A 
ATOM     41  C   UNL A   1      43.296  33.735  34.471  1.00  0.00     0.002 A 
ATOM     42  C   UNL A   1      41.988  32.450  36.058  1.00  0.00     0.091 A 
ATOM     43  F   UNL A   1      41.469  30.173  35.570  1.00  0.00    -0.205 F 
ATOM     44  C   UNL A   1      42.629  33.643  35.690  1.00  0.00     0.022 A 
BRANCH  42  45
ATOM     45  S   UNL A   1      41.086  32.444  37.612  1.00  0.00     0.127 S 
ATOM     46  O   UNL A   1      41.985  31.678  38.472  1.00  0.00    -0.237 OA
ATOM     47  O   UNL A   1      41.005  33.870  37.933  1.00  0.00    -0.237 OA
ATOM     48  O   UNL A   1      39.803  31.821  37.321  1.00  0.00    -0.744 OA
ENDBRANCH  42  45
ENDBRANCH  24  38
BRANCH  25  49
ATOM     49  C   UNL A   1      42.649  24.183  27.104  1.00  0.00     0.023 A 
ATOM     50  C   UNL A   1      43.343  24.451  25.910  1.00  0.00     0.012 A 
ATOM     51  C   UNL A   1      42.062  22.915  27.292  1.00  0.00     0.148 A 
ATOM     52  C   UNL A   1      43.445  23.476  24.916  1.00  0.00     0.002 A 
ATOM     53  C   UNL A   1      42.217  21.931  26.324  1.00  0.00     0.091 A 
ATOM     54  F   UNL A   1      41.397  22.687  28.433  1.00  0.00    -0.205 F 
ATOM     55  C   UNL A   1      42.897  22.214  25.130  1.00  0.00     0.022 A 
BRANCH  53  56
ATOM     56  S   UNL A   1      41.678  20.236  26.580  1.00  0.00     0.127 S 
ATOM     57  O   UNL A   1      40.225  20.381  26.573  1.00  0.00    -0.237 OA
ATOM     58  O   UNL A   1      42.235  19.563  25.405  1.00  0.00    -0.237 OA
ATOM     59  O   UNL A   1      42.268  19.821  27.845  1.00  0.00    -0.744 OA
ENDBRANCH  53  56
ENDBRANCH  25  49
BRANCH  37  60
ATOM     60  C   UNL A   1      47.036  25.936  32.272  1.00  0.00     0.023 A 
ATOM     61  C   UNL A   1      47.092  25.084  33.391  1.00  0.00     0.012 A 
ATOM     62  C   UNL A   1      48.208  26.192  31.534  1.00  0.00     0.148 A 
ATOM     63  C   UNL A   1      48.301  24.508  33.782  1.00  0.00     0.002 A 
ATOM     64  C   UNL A   1      49.399  25.579  31.902  1.00  0.00     0.091 A 
ATOM     65  F   UNL A   1      48.132  27.022  30.484  1.00  0.00    -0.205 F 
ATOM     66  C   UNL A   1      49.450  24.744  33.030  1.00  0.00     0.022 A 
BRANCH  64  67
ATOM     67  S   UNL A   1      50.907  25.750  30.941  1.00  0.00     0.127 S 
ATOM     68  O   UNL A   1      51.849  24.948  31.720  1.00  0.00    -0.237 OA
ATOM     69  O   UNL A   1      50.524  25.164  29.656  1.00  0.00    -0.237 OA
ATOM     70  O   UNL A   1      51.196  27.177  30.893  1.00  0.00    -0.744 OA
ENDBRANCH  64  67
ENDBRANCH  37  60
ENDBRANCH  11  12
ENDBRANCH   4   6
ENDBRANCH   1   2
BRANCH   1  71
ATOM     71  C   UNL A   1      33.131  27.749  26.778  1.00  0.00     0.042 C 
BRANCH  71  72
ATOM     72  C   UNL A   1      32.281  26.922  25.823  1.00  0.00     0.118 C 
BRANCH  72  73
ATOM     73  N   UNL A   1      31.015  26.515  26.418  1.00  0.00    -0.352 N 
ATOM     74  C   UNL A   1      30.292  25.367  26.226  1.00  0.00     0.251 C 
ATOM     75  H   UNL A   1      30.622  27.159  27.052  1.00  0.00     0.163 HD
ATOM     76  O   UNL A   1      29.148  25.269  26.659  1.00  0.00    -0.269 OA
BRANCH  74  77
ATOM     77  C   UNL A   1      30.887  24.247  25.470  1.00  0.00     0.042 A 
ATOM     78  C   UNL A   1      30.972  24.302  24.073  1.00  0.00     0.016 A 
ATOM     79  C   UNL A   1      31.375  23.152  26.198  1.00  0.00     0.042 A 
ATOM     80  C   UNL A   1      31.472  23.216  23.347  1.00  0.00     0.031 A 
ATOM     81  C   UNL A   1      31.875  22.091  25.442  1.00  0.00     0.066 A 
ATOM     82  C   UNL A   1      31.921  22.091  24.053  1.00  0.00     0.089 A 
ATOM     83  N   UNL A   1      32.401  20.878  25.796  1.00  0.00    -0.342 N 
ATOM     84  N   UNL A   1      32.437  20.913  23.580  1.00  0.00    -0.233 NA
ATOM     85  C   UNL A   1      32.712  20.190  24.646  1.00  0.00     0.110 A 
ATOM     86  H   UNL A   1      32.535  20.552  26.715  1.00  0.00     0.168 HD
BRANCH  85  87
ATOM     87  C   UNL A   1      33.316  18.819  24.648  1.00  0.00     0.055 C 
ATOM     88  C   UNL A   1      32.698  17.959  25.760  1.00  0.00     0.011 C 
ATOM     89  C   UNL A   1      33.199  18.136  23.276  1.00  0.00     0.011 C 
ATOM     90  C   UNL A   1      33.279  16.548  25.769  1.00  0.00     0.001 C 
ATOM     91  C   UNL A   1      33.777  16.722  23.302  1.00  0.00     0.001 C 
ATOM     92  C   UNL A   1      33.143  15.879  24.405  1.00  0.00     0.000 C 
ENDBRANCH  85  87
ENDBRANCH  74  77
ENDBRANCH  72  73
ENDBRANCH  71  72
ENDBRANCH   1  71
TORSDOF 14
ENDMDL
MODEL 3
REMARK VINA RESULT:     -12.4      5.237      8.892
REMARK SMILES O=C(NCCCNC(=O)c1ccc2nc(C3CCCCC3)[nH]c2c1)c1ccc(-c2c3nc(c(-c4cccc(S(=O)(=O)[O-])c4F)c4ccc([nH]4)c(-c4cccc(S(=O)(=O)[O-])c4F)c4nc(c(-c5cccc(S(=O)(=O)[O-])c5F)c5ccc2[nH]5)C=C4)C=C3)cc1
REMARK SMILES IDX 4 1 3 2 1 3 2 4 25 6 26 7 87 8 27 9 86 10 28 11 29 12 30 13
REMARK SMILES IDX 80 14 31 15 85 16 79 17 81 18 32 19 84 20 78 21 77 22 33 24
REMARK SMILES IDX 65 25 45 26 64 27 46 28 49 29 63 30 82 31 47 32 48 33 62 35
REMARK SMILES IDX 83 36 50 37 34 38 35 39 43 40 36 41 38 42 44 43 37 44 39 45
REMARK SMILES IDX 40 46 41 47 42 48 66 49 67 50 75 51 68 52 70 53 76 54 69 55
REMARK SMILES IDX 71 56 72 57 73 58 74 59 51 60 52 61 60 62 53 63 55 64 61 65
REMARK SMILES IDX 54 66 56 67 57 68 58 69 59 70 5 71 6 72 7 73 8 74 9 76 10 77
REMARK SMILES IDX 11 78 24 79 12 80 23 81 13 82 22 83 14 84 15 85 16 87 17 88
REMARK SMILES IDX 21 89 18 90 20 91 19 92
REMARK H PARENT 3 5 81 23 49 34 7 75 22 86
REMARK Flexibility Score: inf
ROOT
ATOM      1  C   UNL A   1      38.839  20.180  25.732  1.00  0.00     0.118 C 
ENDROOT
BRANCH   1   2
ATOM      2  N   UNL A   1      39.992  19.313  25.934  1.00  0.00    -0.352 N 
ATOM      3  O   UNL A   1      42.152  18.729  26.068  1.00  0.00    -0.269 OA
ATOM      4  C   UNL A   1      41.310  19.619  26.160  1.00  0.00     0.251 C 
ATOM      5  H   UNL A   1      39.791  18.349  25.903  1.00  0.00     0.163 HD
BRANCH   4   6
ATOM      6  C   UNL A   1      41.719  21.001  26.495  1.00  0.00     0.039 A 
ATOM      7  C   UNL A   1      42.022  21.367  27.808  1.00  0.00     0.014 A 
ATOM      8  C   UNL A   1      41.855  21.937  25.464  1.00  0.00     0.014 A 
ATOM      9  C   UNL A   1      42.316  22.691  28.114  1.00  0.00     0.010 A 
ATOM     10  C   UNL A   1      42.240  23.247  25.761  1.00  0.00     0.010 A 
ATOM     11  C   UNL A   1      42.444  23.643  27.091  1.00  0.00    -0.014 A 
BRANCH  11  12
ATOM     12  C   UNL A   1      42.874  25.025  27.420  1.00  0.00     0.031 A 
ATOM     13  C   UNL A   1      41.928  26.003  28.056  1.00  0.00     0.074 A 
ATOM     14  C   UNL A   1      44.126  25.405  27.098  1.00  0.00     0.049 A 
ATOM     15  N   UNL A   1      42.134  27.253  28.376  1.00  0.00    -0.248 NA
ATOM     16  C   UNL A   1      40.572  25.520  28.362  1.00  0.00     0.031 C 
ATOM     17  C   UNL A   1      45.114  24.557  26.426  1.00  0.00     0.029 A 
ATOM     18  N   UNL A   1      44.773  26.602  27.265  1.00  0.00    -0.354 N 
ATOM     19  C   UNL A   1      40.927  27.723  28.878  1.00  0.00     0.074 A 
ATOM     20  C   UNL A   1      39.990  26.622  28.816  1.00  0.00     0.031 C 
ATOM     21  C   UNL A   1      46.237  25.260  26.233  1.00  0.00     0.029 A 
ATOM     22  C   UNL A   1      46.034  26.620  26.720  1.00  0.00     0.049 A 
ATOM     23  H   UNL A   1      44.374  27.372  27.731  1.00  0.00     0.167 HD
ATOM     24  C   UNL A   1      40.632  28.955  29.359  1.00  0.00     0.034 A 
ATOM     25  C   UNL A   1      46.923  27.624  26.593  1.00  0.00     0.034 A 
ATOM     26  C   UNL A   1      41.581  30.033  29.449  1.00  0.00     0.049 A 
ATOM     27  C   UNL A   1      46.584  28.972  27.159  1.00  0.00     0.074 A 
ATOM     28  C   UNL A   1      41.407  31.287  30.006  1.00  0.00     0.029 A 
ATOM     29  N   UNL A   1      42.876  29.992  28.954  1.00  0.00    -0.354 N 
ATOM     30  N   UNL A   1      45.490  29.352  27.773  1.00  0.00    -0.248 NA
ATOM     31  C   UNL A   1      47.607  30.020  27.046  1.00  0.00     0.031 C 
ATOM     32  C   UNL A   1      42.589  32.014  29.825  1.00  0.00     0.029 A 
ATOM     33  C   UNL A   1      43.508  31.205  29.177  1.00  0.00     0.049 A 
ATOM     34  H   UNL A   1      43.287  29.216  28.510  1.00  0.00     0.167 HD
ATOM     35  C   UNL A   1      45.698  30.675  28.139  1.00  0.00     0.074 A 
ATOM     36  C   UNL A   1      47.034  31.025  27.697  1.00  0.00     0.031 C 
ATOM     37  C   UNL A   1      44.854  31.526  28.772  1.00  0.00     0.034 A 
BRANCH  24  38
ATOM     38  C   UNL A   1      39.231  29.195  29.858  1.00  0.00     0.023 A 
ATOM     39  C   UNL A   1      38.886  28.827  31.174  1.00  0.00     0.012 A 
ATOM     40  C   UNL A   1      38.270  29.829  29.045  1.00  0.00     0.148 A 
ATOM     41  C   UNL A   1      37.600  29.052  31.662  1.00  0.00     0.002 A 
ATOM     42  C   UNL A   1      37.001  30.087  29.552  1.00  0.00     0.091 A 
ATOM     43  F   UNL A   1      38.605  30.152  27.788  1.00  0.00    -0.205 F 
ATOM     44  C   UNL A   1      36.661  29.689  30.855  1.00  0.00     0.022 A 
BRANCH  42  45
ATOM     45  S   UNL A   1      35.754  30.972  28.608  1.00  0.00     0.127 S 
ATOM     46  O   UNL A   1      35.217  29.910  27.760  1.00  0.00    -0.237 OA
ATOM     47  O   UNL A   1      34.841  31.436  29.654  1.00  0.00    -0.237 OA
ATOM     48  O   UNL A   1      36.467  32.037  27.917  1.00  0.00    -0.744 OA
ENDBRANCH  42  45
ENDBRANCH  24  38
BRANCH  25  49
ATOM     49  C   UNL A   1      48.224  27.356  25.923  1.00  0.00     0.023 A 
ATOM     50  C   UNL A   1      49.281  26.787  26.656  1.00  0.00     0.012 A 
ATOM     51  C   UNL A   1      48.382  27.572  24.539  1.00  0.00     0.148 A 
ATOM     52  C   UNL A   1      50.478  26.445  26.025  1.00  0.00     0.002 A 
ATOM     53  C   UNL A   1      49.553  27.175  23.906  1.00  0.00     0.091 A 
ATOM     54  F   UNL A   1      47.365  28.125  23.864  1.00  0.00    -0.205 F 
ATOM     55  C   UNL A   1      50.608  26.624  24.650  1.00  0.00     0.022 A 
BRANCH  53  56
ATOM     56  S   UNL A   1      49.748  27.227  22.121  1.00  0.00     0.127 S 
ATOM     57  O   UNL A   1      51.134  26.798  21.959  1.00  0.00    -0.237 OA
ATOM     58  O   UNL A   1      48.746  26.255  21.681  1.00  0.00    -0.237 OA
ATOM     59  O   UNL A   1      49.460  28.601  21.733  1.00  0.00    -0.744 OA
ENDBRANCH  53  56
ENDBRANCH  25  49
BRANCH  37  60
ATOM     60  C   UNL A   1      45.347  32.921  29.051  1.00  0.00     0.023 A 
ATOM     61  C   UNL A   1      46.084  33.176  30.223  1.00  0.00     0.012 A 
ATOM     62  C   UNL A   1      45.161  33.951  28.109  1.00  0.00     0.148 A 
ATOM     63  C   UNL A   1      46.615  34.444  30.462  1.00  0.00     0.002 A 
ATOM     64  C   UNL A   1      45.731  35.198  28.333  1.00  0.00     0.091 A 
ATOM     65  F   UNL A   1      44.438  33.688  27.010  1.00  0.00    -0.205 F 
ATOM     66  C   UNL A   1      46.450  35.449  29.512  1.00  0.00     0.022 A 
BRANCH  64  67
ATOM     67  S   UNL A   1      45.650  36.525  27.124  1.00  0.00     0.127 S 
ATOM     68  O   UNL A   1      46.287  35.909  25.962  1.00  0.00    -0.237 OA
ATOM     69  O   UNL A   1      44.208  36.734  26.990  1.00  0.00    -0.237 OA
ATOM     70  O   UNL A   1      46.372  37.647  27.708  1.00  0.00    -0.744 OA
ENDBRANCH  64  67
ENDBRANCH  37  60
ENDBRANCH  11  12
ENDBRANCH   4   6
ENDBRANCH   1   2
BRANCH   1  71
ATOM     71  C   UNL A   1      37.716  19.486  24.971  1.00  0.00     0.042 C 
BRANCH  71  72
ATOM     72  C   UNL A   1      36.417  20.281  24.928  1.00  0.00     0.118 C 
BRANCH  72  73
ATOM     73  N   UNL A   1      35.241  19.422  24.946  1.00  0.00    -0.352 N 
ATOM     74  C   UNL A   1      33.914  19.764  24.941  1.00  0.00     0.251 C 
ATOM     75  H   UNL A   1      35.427  18.454  24.962  1.00  0.00     0.163 HD
ATOM     76  O   UNL A   1      33.050  18.919  25.154  1.00  0.00    -0.269 OA
BRANCH  74  77
ATOM     77  C   UNL A   1      33.522  21.166  24.700  1.00  0.00     0.042 A 
ATOM     78  C   UNL A   1      32.943  21.540  23.480  1.00  0.00     0.016 A 
ATOM     79  C   UNL A   1      33.728  22.091  25.733  1.00  0.00     0.042 A 
ATOM     80  C   UNL A   1      32.631  22.879  23.220  1.00  0.00     0.031 A 
ATOM     81  C   UNL A   1      33.397  23.415  25.443  1.00  0.00     0.066 A 
ATOM     82  C   UNL A   1      32.874  23.827  24.223  1.00  0.00     0.089 A 
ATOM     83  N   UNL A   1      33.482  24.567  26.179  1.00  0.00    -0.342 N 
ATOM     84  N   UNL A   1      32.668  25.182  24.211  1.00  0.00    -0.233 NA
ATOM     85  C   UNL A   1      33.050  25.612  25.396  1.00  0.00     0.110 A 
ATOM     86  H   UNL A   1      33.798  24.636  27.109  1.00  0.00     0.168 HD
BRANCH  85  87
ATOM     87  C   UNL A   1      32.999  27.030  25.876  1.00  0.00     0.055 C 
ATOM     88  C   UNL A   1      32.985  28.002  24.688  1.00  0.00     0.011 C 
ATOM     89  C   UNL A   1      31.812  27.276  26.821  1.00  0.00     0.011 C 
ATOM     90  C   UNL A   1      32.908  29.454  25.149  1.00  0.00     0.001 C 
ATOM     91  C   UNL A   1      31.742  28.735  27.267  1.00  0.00     0.001 C 
ATOM     92  C   UNL A   1      31.718  29.685  26.073  1.00  0.00     0.000 C 
ENDBRANCH  85  87
ENDBRANCH  74  77
ENDBRANCH  72  73
ENDBRANCH  71  72
ENDBRANCH   1  71
TORSDOF 14
ENDMDL
