MODEL 1
REMARK VINA RESULT:     -10.6      0.000      0.000
REMARK SMILES Cc1cc(S(=O)(=O)N[C@H](CO)C(C)C)sc1C(=O)NCCCNC(=O)c1ccc(-c2c3nc(c(-c4cccc(S(=O)(=O)[O-])c4F)c4ccc([nH]4)c(-c4cccc(S(=O)(=O)[O-])c4F)c4nc(c(-c5cccc(S(=O)(=O)[O-])c5F)c5ccc2[nH]5)C=C4)C=C3)cc1
REMARK SMILES IDX 20 1 19 2 17 3 18 4 16 6 1 7 2 8 3 9 4 10 15 11 5 12 6 13
REMARK SMILES IDX 7 14 8 15 9 17 12 18 13 19 14 20 10 21 11 22 21 24 22 25
REMARK SMILES IDX 23 26 24 27 25 29 26 30 27 31 88 32 28 33 87 34 29 35 30 36
REMARK SMILES IDX 31 37 81 38 32 39 86 40 80 41 82 42 33 43 85 44 79 45 78 46
REMARK SMILES IDX 34 48 66 49 46 50 65 51 47 52 50 53 64 54 83 55 48 56 49 57
REMARK SMILES IDX 63 59 84 60 51 61 35 62 36 63 44 64 37 65 39 66 45 67 38 68
REMARK SMILES IDX 40 69 41 70 42 71 43 72 67 73 68 74 76 75 69 76 71 77 77 78
REMARK SMILES IDX 70 79 72 80 73 81 74 82 75 83 52 84 53 85 61 86 54 87 56 88
REMARK SMILES IDX 62 89 55 90 57 91 58 92 59 93 60 94
REMARK H PARENT 19 5 8 16 11 23 23 28 82 47 50 58
REMARK Flexibility Score: inf
ROOT
ATOM      1  C   UNL A   1      32.145  27.519  26.919  1.00  0.00     0.118 C 
ENDROOT
BRANCH   1   2
ATOM      2  N   UNL A   1      30.979  26.712  26.664  1.00  0.00    -0.351 N 
ATOM      3  C   UNL A   1      30.822  25.440  26.187  1.00  0.00     0.261 C 
ATOM      4  O   UNL A   1      29.687  24.990  26.398  1.00  0.00    -0.268 OA
ATOM      5  H   UNL A   1      30.130  27.164  26.875  1.00  0.00     0.163 HD
BRANCH   3   6
ATOM      6  C   UNL A   1      31.838  24.665  25.471  1.00  0.00     0.096 A 
ATOM      7  C   UNL A   1      31.625  24.883  22.862  1.00  0.00     0.046 C 
ATOM      8  C   UNL A   1      32.139  24.326  24.147  1.00  0.00    -0.026 A 
ATOM      9  C   UNL A   1      32.945  23.121  24.111  1.00  0.00     0.038 A 
ATOM     10  C   UNL A   1      33.244  22.630  25.360  1.00  0.00     0.135 A 
ATOM     11  S   UNL A   1      32.943  23.825  26.528  1.00  0.00    -0.117 S 
BRANCH  10  12
ATOM     12  S   UNL A   1      33.893  21.096  25.946  1.00  0.00     0.250 S 
ATOM     13  O   UNL A   1      33.408  20.949  27.302  1.00  0.00    -0.206 OA
ATOM     14  O   UNL A   1      33.558  20.124  24.929  1.00  0.00    -0.206 OA
BRANCH  12  15
ATOM     15  N   UNL A   1      35.575  21.178  25.989  1.00  0.00    -0.205 NA
ATOM     16  H   UNL A   1      35.877  20.468  26.656  1.00  0.00     0.141 HD
BRANCH  15  17
ATOM     17  C   UNL A   1      36.423  20.987  24.764  1.00  0.00     0.098 C 
BRANCH  17  18
ATOM     18  C   UNL A   1      37.236  22.235  24.353  1.00  0.00     0.003 C 
ATOM     19  C   UNL A   1      36.612  22.978  23.164  1.00  0.00     0.009 C 
ATOM     20  C   UNL A   1      37.368  23.239  25.505  1.00  0.00     0.009 C 
ENDBRANCH  17  18
BRANCH  17  21
ATOM     21  C   UNL A   1      37.266  19.700  24.898  1.00  0.00     0.176 C 
BRANCH  21  22
ATOM     22  O   UNL A   1      36.421  18.555  25.044  1.00  0.00    -0.395 OA
ATOM     23  H   UNL A   1      35.911  18.632  25.865  1.00  0.00     0.210 HD
ENDBRANCH  21  22
ENDBRANCH  17  21
ENDBRANCH  15  17
ENDBRANCH  12  15
ENDBRANCH  10  12
ENDBRANCH   3   6
ENDBRANCH   1   2
BRANCH   1  24
ATOM     24  C   UNL A   1      32.627  28.225  25.652  1.00  0.00     0.042 C 
BRANCH  24  25
ATOM     25  C   UNL A   1      33.977  28.923  25.808  1.00  0.00     0.118 C 
BRANCH  25  26
ATOM     26  N   UNL A   1      33.835  30.232  26.431  1.00  0.00    -0.352 N 
ATOM     27  C   UNL A   1      34.495  30.793  27.496  1.00  0.00     0.251 C 
ATOM     28  H   UNL A   1      33.151  30.810  26.021  1.00  0.00     0.163 HD
ATOM     29  O   UNL A   1      34.019  31.799  28.020  1.00  0.00    -0.269 OA
BRANCH  27  30
ATOM     30  C   UNL A   1      35.760  30.223  28.016  1.00  0.00     0.039 A 
ATOM     31  C   UNL A   1      35.755  29.622  29.280  1.00  0.00     0.014 A 
ATOM     32  C   UNL A   1      36.964  30.355  27.319  1.00  0.00     0.014 A 
ATOM     33  C   UNL A   1      36.942  29.123  29.825  1.00  0.00     0.010 A 
ATOM     34  C   UNL A   1      38.135  29.799  27.835  1.00  0.00     0.010 A 
ATOM     35  C   UNL A   1      38.141  29.192  29.100  1.00  0.00    -0.014 A 
BRANCH  35  36
ATOM     36  C   UNL A   1      39.410  28.649  29.648  1.00  0.00     0.031 A 
ATOM     37  C   UNL A   1      40.077  29.313  30.823  1.00  0.00     0.074 A 
ATOM     38  C   UNL A   1      40.009  27.611  29.033  1.00  0.00     0.049 A 
ATOM     39  N   UNL A   1      41.222  29.032  31.390  1.00  0.00    -0.248 NA
ATOM     40  C   UNL A   1      39.379  30.463  31.422  1.00  0.00     0.031 C 
ATOM     41  C   UNL A   1      39.504  26.930  27.839  1.00  0.00     0.029 A 
ATOM     42  N   UNL A   1      41.189  26.966  29.309  1.00  0.00    -0.354 N 
ATOM     43  C   UNL A   1      41.403  29.990  32.380  1.00  0.00     0.074 A 
ATOM     44  C   UNL A   1      40.261  30.877  32.323  1.00  0.00     0.031 C 
ATOM     45  C   UNL A   1      40.369  25.966  27.484  1.00  0.00     0.029 A 
ATOM     46  C   UNL A   1      41.498  25.972  28.409  1.00  0.00     0.049 A 
ATOM     47  H   UNL A   1      41.760  27.192  30.077  1.00  0.00     0.167 HD
ATOM     48  C   UNL A   1      42.411  30.105  33.278  1.00  0.00     0.034 A 
ATOM     49  C   UNL A   1      42.568  25.157  28.337  1.00  0.00     0.034 A 
ATOM     50  C   UNL A   1      43.510  29.183  33.377  1.00  0.00     0.049 A 
ATOM     51  C   UNL A   1      43.635  25.255  29.393  1.00  0.00     0.074 A 
ATOM     52  C   UNL A   1      44.533  29.161  34.309  1.00  0.00     0.029 A 
ATOM     53  N   UNL A   1      43.727  28.117  32.519  1.00  0.00    -0.354 N 
ATOM     54  N   UNL A   1      43.708  26.072  30.416  1.00  0.00    -0.248 NA
ATOM     55  C   UNL A   1      44.745  24.293  29.311  1.00  0.00     0.031 C 
ATOM     56  C   UNL A   1      45.369  28.077  34.014  1.00  0.00     0.029 A 
ATOM     57  C   UNL A   1      44.863  27.425  32.901  1.00  0.00     0.049 A 
ATOM     58  H   UNL A   1      43.156  27.885  31.752  1.00  0.00     0.167 HD
ATOM     59  C   UNL A   1      44.853  25.706  31.115  1.00  0.00     0.074 A 
ATOM     60  C   UNL A   1      45.429  24.578  30.411  1.00  0.00     0.031 C 
ATOM     61  C   UNL A   1      45.390  26.267  32.226  1.00  0.00     0.034 A 
BRANCH  48  62
ATOM     62  C   UNL A   1      42.331  31.229  34.277  1.00  0.00     0.023 A 
ATOM     63  C   UNL A   1      41.768  30.982  35.546  1.00  0.00     0.012 A 
ATOM     64  C   UNL A   1      42.851  32.505  33.989  1.00  0.00     0.148 A 
ATOM     65  C   UNL A   1      41.696  31.994  36.502  1.00  0.00     0.002 A 
ATOM     66  C   UNL A   1      42.808  33.500  34.961  1.00  0.00     0.091 A 
ATOM     67  F   UNL A   1      43.359  32.730  32.769  1.00  0.00    -0.205 F 
ATOM     68  C   UNL A   1      42.224  33.248  36.213  1.00  0.00     0.022 A 
BRANCH  66  69
ATOM     69  S   UNL A   1      43.527  35.127  34.704  1.00  0.00     0.127 S 
ATOM     70  O   UNL A   1      43.372  35.730  36.027  1.00  0.00    -0.237 OA
ATOM     71  O   UNL A   1      44.907  34.806  34.338  1.00  0.00    -0.237 OA
ATOM     72  O   UNL A   1      42.748  35.740  33.636  1.00  0.00    -0.744 OA
ENDBRANCH  66  69
ENDBRANCH  48  62
BRANCH  49  73
ATOM     73  C   UNL A   1      42.632  24.118  27.271  1.00  0.00     0.023 A 
ATOM     74  C   UNL A   1      43.405  24.363  26.120  1.00  0.00     0.012 A 
ATOM     75  C   UNL A   1      41.982  22.876  27.412  1.00  0.00     0.148 A 
ATOM     76  C   UNL A   1      43.514  23.398  25.118  1.00  0.00     0.002 A 
ATOM     77  C   UNL A   1      42.138  21.899  26.435  1.00  0.00     0.091 A 
ATOM     78  F   UNL A   1      41.237  22.667  28.507  1.00  0.00    -0.205 F 
ATOM     79  C   UNL A   1      42.891  22.162  25.281  1.00  0.00     0.022 A 
BRANCH  77  80
ATOM     80  S   UNL A   1      41.486  20.237  26.637  1.00  0.00     0.127 S 
ATOM     81  O   UNL A   1      40.067  20.496  26.863  1.00  0.00    -0.237 OA
ATOM     82  O   UNL A   1      41.802  19.621  25.347  1.00  0.00    -0.237 OA
ATOM     83  O   UNL A   1      42.221  19.670  27.760  1.00  0.00    -0.744 OA
ENDBRANCH  77  80
ENDBRANCH  49  73
BRANCH  61  84
ATOM     84  C   UNL A   1      46.656  25.662  32.770  1.00  0.00     0.023 A 
ATOM     85  C   UNL A   1      47.901  26.173  32.354  1.00  0.00     0.012 A 
ATOM     86  C   UNL A   1      46.614  24.649  33.748  1.00  0.00     0.148 A 
ATOM     87  C   UNL A   1      49.087  25.670  32.886  1.00  0.00     0.002 A 
ATOM     88  C   UNL A   1      47.799  24.179  34.302  1.00  0.00     0.091 A 
ATOM     89  F   UNL A   1      45.421  24.158  34.112  1.00  0.00    -0.205 F 
ATOM     90  C   UNL A   1      49.036  24.682  33.867  1.00  0.00     0.022 A 
BRANCH  88  91
ATOM     91  S   UNL A   1      47.813  22.970  35.631  1.00  0.00     0.127 S 
ATOM     92  O   UNL A   1      47.684  21.714  34.896  1.00  0.00    -0.237 OA
ATOM     93  O   UNL A   1      49.125  23.186  36.242  1.00  0.00    -0.237 OA
ATOM     94  O   UNL A   1      46.689  23.318  36.491  1.00  0.00    -0.744 OA
ENDBRANCH  88  91
ENDBRANCH  61  84
ENDBRANCH  35  36
ENDBRANCH  27  30
ENDBRANCH  25  26
ENDBRANCH  24  25
ENDBRANCH   1  24
TORSDOF 19
ENDMDL
MODEL 2
REMARK VINA RESULT:     -10.5      4.497     10.011
REMARK SMILES Cc1cc(S(=O)(=O)N[C@H](CO)C(C)C)sc1C(=O)NCCCNC(=O)c1ccc(-c2c3nc(c(-c4cccc(S(=O)(=O)[O-])c4F)c4ccc([nH]4)c(-c4cccc(S(=O)(=O)[O-])c4F)c4nc(c(-c5cccc(S(=O)(=O)[O-])c5F)c5ccc2[nH]5)C=C4)C=C3)cc1
REMARK SMILES IDX 20 1 19 2 17 3 18 4 16 6 1 7 2 8 3 9 4 10 15 11 5 12 6 13
REMARK SMILES IDX 7 14 8 15 9 17 12 18 13 19 14 20 10 21 11 22 21 24 22 25
REMARK SMILES IDX 23 26 24 27 25 29 26 30 27 31 88 32 28 33 87 34 29 35 30 36
REMARK SMILES IDX 31 37 81 38 32 39 86 40 80 41 82 42 33 43 85 44 79 45 78 46
REMARK SMILES IDX 34 48 66 49 46 50 65 51 47 52 50 53 64 54 83 55 48 56 49 57
REMARK SMILES IDX 63 59 84 60 51 61 35 62 36 63 44 64 37 65 39 66 45 67 38 68
REMARK SMILES IDX 40 69 41 70 42 71 43 72 67 73 68 74 76 75 69 76 71 77 77 78
REMARK SMILES IDX 70 79 72 80 73 81 74 82 75 83 52 84 53 85 61 86 54 87 56 88
REMARK SMILES IDX 62 89 55 90 57 91 58 92 59 93 60 94
REMARK H PARENT 19 5 8 16 11 23 23 28 82 47 50 58
REMARK Flexibility Score: inf
ROOT
ATOM      1  C   UNL A   1      34.108  23.638  25.597  1.00  0.00     0.118 C 
ENDROOT
BRANCH   1   2
ATOM      2  N   UNL A   1      33.049  23.971  26.514  1.00  0.00    -0.351 N 
ATOM      3  C   UNL A   1      31.778  24.439  26.328  1.00  0.00     0.261 C 
ATOM      4  O   UNL A   1      31.071  24.311  27.337  1.00  0.00    -0.268 OA
ATOM      5  H   UNL A   1      33.286  23.834  27.461  1.00  0.00     0.163 HD
BRANCH   3   6
ATOM      6  C   UNL A   1      31.268  25.061  25.103  1.00  0.00     0.096 A 
ATOM      7  C   UNL A   1      31.161  23.384  23.085  1.00  0.00     0.046 C 
ATOM      8  C   UNL A   1      31.098  24.714  23.759  1.00  0.00    -0.026 A 
ATOM      9  C   UNL A   1      31.037  25.908  22.939  1.00  0.00     0.038 A 
ATOM     10  C   UNL A   1      31.121  27.071  23.666  1.00  0.00     0.135 A 
ATOM     11  S   UNL A   1      30.835  26.739  25.306  1.00  0.00    -0.117 S 
BRANCH  10  12
ATOM     12  S   UNL A   1      31.407  28.761  23.239  1.00  0.00     0.250 S 
ATOM     13  O   UNL A   1      31.175  29.523  24.448  1.00  0.00    -0.206 OA
ATOM     14  O   UNL A   1      32.697  28.779  22.586  1.00  0.00    -0.206 OA
BRANCH  12  15
ATOM     15  N   UNL A   1      30.281  29.245  22.082  1.00  0.00    -0.205 NA
ATOM     16  H   UNL A   1      29.948  28.390  21.637  1.00  0.00     0.141 HD
BRANCH  15  17
ATOM     17  C   UNL A   1      29.054  30.037  22.433  1.00  0.00     0.098 C 
BRANCH  17  18
ATOM     18  C   UNL A   1      29.050  31.479  21.877  1.00  0.00     0.003 C 
ATOM     19  C   UNL A   1      28.073  31.655  20.705  1.00  0.00     0.009 C 
ATOM     20  C   UNL A   1      28.671  32.507  22.950  1.00  0.00     0.009 C 
ENDBRANCH  17  18
BRANCH  17  21
ATOM     21  C   UNL A   1      27.785  29.226  22.095  1.00  0.00     0.176 C 
BRANCH  21  22
ATOM     22  O   UNL A   1      26.794  29.390  23.114  1.00  0.00    -0.395 OA
ATOM     23  H   UNL A   1      27.209  29.300  23.985  1.00  0.00     0.210 HD
ENDBRANCH  21  22
ENDBRANCH  17  21
ENDBRANCH  15  17
ENDBRANCH  12  15
ENDBRANCH  10  12
ENDBRANCH   3   6
ENDBRANCH   1   2
BRANCH   1  24
ATOM     24  C   UNL A   1      35.325  23.070  26.326  1.00  0.00     0.042 C 
BRANCH  24  25
ATOM     25  C   UNL A   1      36.663  23.509  25.732  1.00  0.00     0.118 C 
BRANCH  25  26
ATOM     26  N   UNL A   1      37.729  22.574  26.066  1.00  0.00    -0.352 N 
ATOM     27  C   UNL A   1      39.032  22.797  26.435  1.00  0.00     0.251 C 
ATOM     28  H   UNL A   1      37.472  21.625  26.017  1.00  0.00     0.163 HD
ATOM     29  O   UNL A   1      39.823  21.856  26.398  1.00  0.00    -0.269 OA
BRANCH  27  30
ATOM     30  C   UNL A   1      39.498  24.130  26.881  1.00  0.00     0.039 A 
ATOM     31  C   UNL A   1      39.282  24.506  28.213  1.00  0.00     0.014 A 
ATOM     32  C   UNL A   1      40.060  25.047  25.988  1.00  0.00     0.014 A 
ATOM     33  C   UNL A   1      39.659  25.778  28.653  1.00  0.00     0.010 A 
ATOM     34  C   UNL A   1      40.494  26.292  26.445  1.00  0.00     0.010 A 
ATOM     35  C   UNL A   1      40.285  26.677  27.777  1.00  0.00    -0.014 A 
BRANCH  35  36
ATOM     36  C   UNL A   1      40.716  28.026  28.228  1.00  0.00     0.031 A 
ATOM     37  C   UNL A   1      42.177  28.385  28.260  1.00  0.00     0.074 A 
ATOM     38  C   UNL A   1      39.798  28.895  28.693  1.00  0.00     0.049 A 
ATOM     39  N   UNL A   1      42.748  29.480  28.693  1.00  0.00    -0.248 NA
ATOM     40  C   UNL A   1      43.124  27.372  27.766  1.00  0.00     0.031 C 
ATOM     41  C   UNL A   1      38.360  28.637  28.786  1.00  0.00     0.029 A 
ATOM     42  N   UNL A   1      39.941  30.162  29.202  1.00  0.00    -0.354 N 
ATOM     43  C   UNL A   1      44.116  29.272  28.566  1.00  0.00     0.074 A 
ATOM     44  C   UNL A   1      44.293  27.937  28.037  1.00  0.00     0.031 C 
ATOM     45  C   UNL A   1      37.755  29.709  29.324  1.00  0.00     0.029 A 
ATOM     46  C   UNL A   1      38.760  30.721  29.631  1.00  0.00     0.049 A 
ATOM     47  H   UNL A   1      40.808  30.626  29.257  1.00  0.00     0.167 HD
ATOM     48  C   UNL A   1      45.134  30.125  28.834  1.00  0.00     0.034 A 
ATOM     49  C   UNL A   1      38.514  31.915  30.205  1.00  0.00     0.034 A 
ATOM     50  C   UNL A   1      44.954  31.475  29.296  1.00  0.00     0.049 A 
ATOM     51  C   UNL A   1      39.653  32.873  30.420  1.00  0.00     0.074 A 
ATOM     52  C   UNL A   1      45.916  32.447  29.511  1.00  0.00     0.029 A 
ATOM     53  N   UNL A   1      43.731  32.046  29.608  1.00  0.00    -0.354 N 
ATOM     54  N   UNL A   1      40.926  32.714  30.147  1.00  0.00    -0.248 NA
ATOM     55  C   UNL A   1      39.319  34.191  30.982  1.00  0.00     0.031 C 
ATOM     56  C   UNL A   1      45.271  33.608  29.952  1.00  0.00     0.029 A 
ATOM     57  C   UNL A   1      43.910  33.359  30.009  1.00  0.00     0.049 A 
ATOM     58  H   UNL A   1      42.862  31.586  29.552  1.00  0.00     0.167 HD
ATOM     59  C   UNL A   1      41.540  33.916  30.476  1.00  0.00     0.074 A 
ATOM     60  C   UNL A   1      40.495  34.803  30.947  1.00  0.00     0.031 C 
ATOM     61  C   UNL A   1      42.853  34.249  30.414  1.00  0.00     0.034 A 
BRANCH  48  62
ATOM     62  C   UNL A   1      46.536  29.646  28.561  1.00  0.00     0.023 A 
ATOM     63  C   UNL A   1      47.107  29.879  27.293  1.00  0.00     0.012 A 
ATOM     64  C   UNL A   1      47.304  29.018  29.560  1.00  0.00     0.148 A 
ATOM     65  C   UNL A   1      48.409  29.467  27.013  1.00  0.00     0.002 A 
ATOM     66  C   UNL A   1      48.616  28.643  29.284  1.00  0.00     0.091 A 
ATOM     67  F   UNL A   1      46.738  28.784  30.752  1.00  0.00    -0.205 F 
ATOM     68  C   UNL A   1      49.165  28.858  28.010  1.00  0.00     0.022 A 
BRANCH  66  69
ATOM     69  S   UNL A   1      49.690  27.916  30.528  1.00  0.00     0.127 S 
ATOM     70  O   UNL A   1      48.806  26.922  31.135  1.00  0.00    -0.237 OA
ATOM     71  O   UNL A   1      50.772  27.355  29.717  1.00  0.00    -0.237 OA
ATOM     72  O   UNL A   1      50.094  29.014  31.394  1.00  0.00    -0.744 OA
ENDBRANCH  66  69
ENDBRANCH  48  62
BRANCH  49  73
ATOM     73  C   UNL A   1      37.112  32.298  30.532  1.00  0.00     0.023 A 
ATOM     74  C   UNL A   1      36.648  32.142  31.852  1.00  0.00     0.012 A 
ATOM     75  C   UNL A   1      36.257  32.864  29.566  1.00  0.00     0.148 A 
ATOM     76  C   UNL A   1      35.352  32.523  32.201  1.00  0.00     0.002 A 
ATOM     77  C   UNL A   1      34.985  33.290  29.931  1.00  0.00     0.091 A 
ATOM     78  F   UNL A   1      36.710  32.990  28.310  1.00  0.00    -0.205 F 
ATOM     79  C   UNL A   1      34.525  33.108  31.245  1.00  0.00     0.022 A 
BRANCH  77  80
ATOM     80  S   UNL A   1      33.915  34.179  28.795  1.00  0.00     0.127 S 
ATOM     81  O   UNL A   1      32.849  34.637  29.682  1.00  0.00    -0.237 OA
ATOM     82  O   UNL A   1      34.798  35.235  28.298  1.00  0.00    -0.237 OA
ATOM     83  O   UNL A   1      33.532  33.202  27.784  1.00  0.00    -0.744 OA
ENDBRANCH  77  80
ENDBRANCH  49  73
BRANCH  61  84
ATOM     84  C   UNL A   1      43.241  35.637  30.847  1.00  0.00     0.023 A 
ATOM     85  C   UNL A   1      43.536  35.883  32.202  1.00  0.00     0.012 A 
ATOM     86  C   UNL A   1      43.392  36.674  29.905  1.00  0.00     0.148 A 
ATOM     87  C   UNL A   1      43.954  37.146  32.618  1.00  0.00     0.002 A 
ATOM     88  C   UNL A   1      43.847  37.919  30.321  1.00  0.00     0.091 A 
ATOM     89  F   UNL A   1      43.083  36.427  28.623  1.00  0.00    -0.205 F 
ATOM     90  C   UNL A   1      44.121  38.160  31.677  1.00  0.00     0.022 A 
BRANCH  88  91
ATOM     91  S   UNL A   1      44.170  39.251  29.158  1.00  0.00     0.127 S 
ATOM     92  O   UNL A   1      45.282  38.708  28.382  1.00  0.00    -0.237 OA
ATOM     93  O   UNL A   1      42.906  39.347  28.427  1.00  0.00    -0.237 OA
ATOM     94  O   UNL A   1      44.478  40.419  29.974  1.00  0.00    -0.744 OA
ENDBRANCH  88  91
ENDBRANCH  61  84
ENDBRANCH  35  36
ENDBRANCH  27  30
ENDBRANCH  25  26
ENDBRANCH  24  25
ENDBRANCH   1  24
TORSDOF 19
ENDMDL
MODEL 3
REMARK VINA RESULT:     -10.4      5.319      8.915
REMARK SMILES Cc1cc(S(=O)(=O)N[C@H](CO)C(C)C)sc1C(=O)NCCCNC(=O)c1ccc(-c2c3nc(c(-c4cccc(S(=O)(=O)[O-])c4F)c4ccc([nH]4)c(-c4cccc(S(=O)(=O)[O-])c4F)c4nc(c(-c5cccc(S(=O)(=O)[O-])c5F)c5ccc2[nH]5)C=C4)C=C3)cc1
REMARK SMILES IDX 20 1 19 2 17 3 18 4 16 6 1 7 2 8 3 9 4 10 15 11 5 12 6 13
REMARK SMILES IDX 7 14 8 15 9 17 12 18 13 19 14 20 10 21 11 22 21 24 22 25
REMARK SMILES IDX 23 26 24 27 25 29 26 30 27 31 88 32 28 33 87 34 29 35 30 36
REMARK SMILES IDX 31 37 81 38 32 39 86 40 80 41 82 42 33 43 85 44 79 45 78 46
REMARK SMILES IDX 34 48 66 49 46 50 65 51 47 52 50 53 64 54 83 55 48 56 49 57
REMARK SMILES IDX 63 59 84 60 51 61 35 62 36 63 44 64 37 65 39 66 45 67 38 68
REMARK SMILES IDX 40 69 41 70 42 71 43 72 67 73 68 74 76 75 69 76 71 77 77 78
REMARK SMILES IDX 70 79 72 80 73 81 74 82 75 83 52 84 53 85 61 86 54 87 56 88
REMARK SMILES IDX 62 89 55 90 57 91 58 92 59 93 60 94
REMARK H PARENT 19 5 8 16 11 23 23 28 82 47 50 58
REMARK Flexibility Score: inf
ROOT
ATOM      1  C   UNL A   1      37.229  20.639  24.790  1.00  0.00     0.118 C 
ENDROOT
BRANCH   1   2
ATOM      2  N   UNL A   1      35.878  20.166  24.950  1.00  0.00    -0.351 N 
ATOM      3  C   UNL A   1      34.668  20.803  24.941  1.00  0.00     0.261 C 
ATOM      4  O   UNL A   1      33.718  20.019  24.806  1.00  0.00    -0.268 OA
ATOM      5  H   UNL A   1      35.812  19.193  25.094  1.00  0.00     0.163 HD
BRANCH   3   6
ATOM      6  C   UNL A   1      34.461  22.245  25.102  1.00  0.00     0.096 A 
ATOM      7  C   UNL A   1      34.011  22.929  27.597  1.00  0.00     0.046 C 
ATOM      8  C   UNL A   1      34.095  23.130  26.121  1.00  0.00    -0.026 A 
ATOM      9  C   UNL A   1      33.555  24.350  25.553  1.00  0.00     0.038 A 
ATOM     10  C   UNL A   1      33.566  24.360  24.179  1.00  0.00     0.135 A 
ATOM     11  S   UNL A   1      34.595  23.136  23.609  1.00  0.00    -0.117 S 
BRANCH  10  12
ATOM     12  S   UNL A   1      32.794  25.377  22.958  1.00  0.00     0.250 S 
ATOM     13  O   UNL A   1      33.648  25.318  21.791  1.00  0.00    -0.206 OA
ATOM     14  O   UNL A   1      31.421  24.928  22.896  1.00  0.00    -0.206 OA
BRANCH  12  15
ATOM     15  N   UNL A   1      32.749  26.971  23.503  1.00  0.00    -0.205 NA
ATOM     16  H   UNL A   1      32.720  27.555  22.668  1.00  0.00     0.141 HD
BRANCH  15  17
ATOM     17  C   UNL A   1      31.663  27.483  24.407  1.00  0.00     0.098 C 
BRANCH  17  18
ATOM     18  C   UNL A   1      32.177  28.128  25.713  1.00  0.00     0.003 C 
ATOM     19  C   UNL A   1      31.945  29.646  25.751  1.00  0.00     0.009 C 
ATOM     20  C   UNL A   1      31.502  27.529  26.953  1.00  0.00     0.009 C 
ENDBRANCH  17  18
BRANCH  17  21
ATOM     21  C   UNL A   1      30.682  28.367  23.608  1.00  0.00     0.176 C 
BRANCH  21  22
ATOM     22  O   UNL A   1      29.824  27.563  22.794  1.00  0.00    -0.395 OA
ATOM     23  H   UNL A   1      30.352  27.106  22.121  1.00  0.00     0.210 HD
ENDBRANCH  21  22
ENDBRANCH  17  21
ENDBRANCH  15  17
ENDBRANCH  12  15
ENDBRANCH  10  12
ENDBRANCH   3   6
ENDBRANCH   1   2
BRANCH   1  24
ATOM     24  C   UNL A   1      38.248  19.572  25.185  1.00  0.00     0.042 C 
BRANCH  24  25
ATOM     25  C   UNL A   1      39.339  20.077  26.129  1.00  0.00     0.118 C 
BRANCH  25  26
ATOM     26  N   UNL A   1      40.508  19.208  26.109  1.00  0.00    -0.352 N 
ATOM     27  C   UNL A   1      41.845  19.509  26.040  1.00  0.00     0.251 C 
ATOM     28  H   UNL A   1      40.305  18.246  26.151  1.00  0.00     0.163 HD
ATOM     29  O   UNL A   1      42.637  18.610  25.756  1.00  0.00    -0.269 OA
BRANCH  27  30
ATOM     30  C   UNL A   1      42.351  20.875  26.305  1.00  0.00     0.039 A 
ATOM     31  C   UNL A   1      42.532  21.279  27.633  1.00  0.00     0.014 A 
ATOM     32  C   UNL A   1      42.562  21.793  25.271  1.00  0.00     0.014 A 
ATOM     33  C   UNL A   1      42.955  22.580  27.921  1.00  0.00     0.010 A 
ATOM     34  C   UNL A   1      43.046  23.069  25.556  1.00  0.00     0.010 A 
ATOM     35  C   UNL A   1      43.233  23.482  26.883  1.00  0.00    -0.014 A 
BRANCH  35  36
ATOM     36  C   UNL A   1      43.706  24.863  27.164  1.00  0.00     0.031 A 
ATOM     37  C   UNL A   1      42.755  25.898  27.700  1.00  0.00     0.074 A 
ATOM     38  C   UNL A   1      44.971  25.207  26.851  1.00  0.00     0.049 A 
ATOM     39  N   UNL A   1      42.963  27.169  27.933  1.00  0.00    -0.248 NA
ATOM     40  C   UNL A   1      41.380  25.455  27.987  1.00  0.00     0.031 C 
ATOM     41  C   UNL A   1      45.967  24.316  26.254  1.00  0.00     0.029 A 
ATOM     42  N   UNL A   1      45.626  26.408  26.966  1.00  0.00    -0.354 N 
ATOM     43  C   UNL A   1      41.743  27.685  28.350  1.00  0.00     0.074 A 
ATOM     44  C   UNL A   1      40.790  26.596  28.317  1.00  0.00     0.031 C 
ATOM     45  C   UNL A   1      47.104  25.002  26.051  1.00  0.00     0.029 A 
ATOM     46  C   UNL A   1      46.913  26.383  26.484  1.00  0.00     0.049 A 
ATOM     47  H   UNL A   1      45.213  27.213  27.355  1.00  0.00     0.167 HD
ATOM     48  C   UNL A   1      41.445  28.943  28.756  1.00  0.00     0.034 A 
ATOM     49  C   UNL A   1      47.837  27.360  26.400  1.00  0.00     0.034 A 
ATOM     50  C   UNL A   1      42.408  30.007  28.853  1.00  0.00     0.049 A 
ATOM     51  C   UNL A   1      47.506  28.728  26.930  1.00  0.00     0.074 A 
ATOM     52  C   UNL A   1      42.227  31.291  29.337  1.00  0.00     0.029 A 
ATOM     53  N   UNL A   1      43.735  29.909  28.465  1.00  0.00    -0.354 N 
ATOM     54  N   UNL A   1      46.388  29.155  27.466  1.00  0.00    -0.248 NA
ATOM     55  C   UNL A   1      48.574  29.738  26.883  1.00  0.00     0.031 C 
ATOM     56  C   UNL A   1      43.448  31.969  29.242  1.00  0.00     0.029 A 
ATOM     57  C   UNL A   1      44.387  31.106  28.702  1.00  0.00     0.049 A 
ATOM     58  H   UNL A   1      44.152  29.106  28.078  1.00  0.00     0.167 HD
ATOM     59  C   UNL A   1      46.625  30.471  27.845  1.00  0.00     0.074 A 
ATOM     60  C   UNL A   1      48.001  30.764  27.499  1.00  0.00     0.031 C 
ATOM     61  C   UNL A   1      45.774  31.362  28.410  1.00  0.00     0.034 A 
BRANCH  48  62
ATOM     62  C   UNL A   1      40.032  29.218  29.199  1.00  0.00     0.023 A 
ATOM     63  C   UNL A   1      39.044  29.473  28.226  1.00  0.00     0.012 A 
ATOM     64  C   UNL A   1      39.669  29.176  30.559  1.00  0.00     0.148 A 
ATOM     65  C   UNL A   1      37.723  29.712  28.600  1.00  0.00     0.002 A 
ATOM     66  C   UNL A   1      38.341  29.379  30.921  1.00  0.00     0.091 A 
ATOM     67  F   UNL A   1      40.626  28.957  31.472  1.00  0.00    -0.205 F 
ATOM     68  C   UNL A   1      37.370  29.656  29.945  1.00  0.00     0.022 A 
BRANCH  66  69
ATOM     69  S   UNL A   1      37.779  29.257  32.624  1.00  0.00     0.127 S 
ATOM     70  O   UNL A   1      36.440  29.837  32.535  1.00  0.00    -0.237 OA
ATOM     71  O   UNL A   1      37.803  27.812  32.859  1.00  0.00    -0.237 OA
ATOM     72  O   UNL A   1      38.743  30.011  33.414  1.00  0.00    -0.744 OA
ENDBRANCH  66  69
ENDBRANCH  48  62
BRANCH  49  73
ATOM     73  C   UNL A   1      49.195  27.045  25.872  1.00  0.00     0.023 A 
ATOM     74  C   UNL A   1      50.112  26.367  26.698  1.00  0.00     0.012 A 
ATOM     75  C   UNL A   1      49.564  27.361  24.550  1.00  0.00     0.148 A 
ATOM     76  C   UNL A   1      51.379  26.027  26.224  1.00  0.00     0.002 A 
ATOM     77  C   UNL A   1      50.808  26.972  24.067  1.00  0.00     0.091 A 
ATOM     78  F   UNL A   1      48.684  28.021  23.783  1.00  0.00    -0.205 F 
ATOM     79  C   UNL A   1      51.723  26.318  24.906  1.00  0.00     0.022 A 
BRANCH  77  80
ATOM     80  S   UNL A   1      51.271  27.184  22.344  1.00  0.00     0.127 S 
ATOM     81  O   UNL A   1      50.098  26.658  21.651  1.00  0.00    -0.237 OA
ATOM     82  O   UNL A   1      51.446  28.634  22.246  1.00  0.00    -0.237 OA
ATOM     83  O   UNL A   1      52.505  26.427  22.182  1.00  0.00    -0.744 OA
ENDBRANCH  77  80
ENDBRANCH  49  73
BRANCH  61  84
ATOM     84  C   UNL A   1      46.305  32.738  28.711  1.00  0.00     0.023 A 
ATOM     85  C   UNL A   1      46.884  32.997  29.969  1.00  0.00     0.012 A 
ATOM     86  C   UNL A   1      46.307  33.745  27.726  1.00  0.00     0.148 A 
ATOM     87  C   UNL A   1      47.435  34.245  30.251  1.00  0.00     0.002 A 
ATOM     88  C   UNL A   1      46.894  34.975  28.002  1.00  0.00     0.091 A 
ATOM     89  F   UNL A   1      45.730  33.488  26.543  1.00  0.00    -0.205 F 
ATOM     90  C   UNL A   1      47.451  35.229  29.266  1.00  0.00     0.022 A 
BRANCH  88  91
ATOM     91  S   UNL A   1      47.030  36.264  26.757  1.00  0.00     0.127 S 
ATOM     92  O   UNL A   1      47.888  37.238  27.428  1.00  0.00    -0.237 OA
ATOM     93  O   UNL A   1      47.664  35.561  25.641  1.00  0.00    -0.237 OA
ATOM     94  O   UNL A   1      45.665  36.701  26.492  1.00  0.00    -0.744 OA
ENDBRANCH  88  91
ENDBRANCH  61  84
ENDBRANCH  35  36
ENDBRANCH  27  30
ENDBRANCH  25  26
ENDBRANCH  24  25
ENDBRANCH   1  24
TORSDOF 19
ENDMDL
