MODEL 1
REMARK VINA RESULT:     -11.4      0.000      0.000
REMARK SMILES O=C(NCCCNC(=O)c1cc(-c2ccc(F)c(C(F)(F)F)c2)cnc1O)c1ccc(-c2c3nc(c(-c4cccc(S(=O)(=O)[O-])c4F)c4ccc([nH]4)c(-c4cccc(S(=O)(=O)[O-])c4F)c4nc(c(-c5cccc(S(=O)(=O)[O-])c5F)c5ccc2[nH]5)C=C4)C=C3)cc1
REMARK SMILES IDX 4 1 3 2 1 3 2 4 28 6 29 7 90 8 30 9 89 10 31 11 32 12 33 13
REMARK SMILES IDX 83 14 34 15 88 16 82 17 84 18 35 19 87 20 81 21 80 22 36 24
REMARK SMILES IDX 68 25 48 26 67 27 49 28 52 29 66 30 85 31 50 32 51 33 65 35
REMARK SMILES IDX 86 36 53 37 37 38 38 39 46 40 39 41 41 42 47 43 40 44 42 45
REMARK SMILES IDX 43 46 44 47 45 48 69 49 70 50 78 51 71 52 73 53 79 54 72 55
REMARK SMILES IDX 74 56 75 57 76 58 77 59 54 60 55 61 63 62 56 63 58 64 64 65
REMARK SMILES IDX 57 66 59 67 60 68 61 69 62 70 5 71 6 72 7 73 8 74 9 76 10 77
REMARK SMILES IDX 11 78 26 79 12 80 25 81 24 82 27 83 13 85 14 86 23 87 15 88
REMARK SMILES IDX 18 89 16 90 17 91 19 92 20 93 21 94 22 95
REMARK H PARENT 3 5 84 23 52 34 7 75 27 84
REMARK Flexibility Score: inf
ROOT
ATOM      1  C   UNL A   1      34.713  34.978  28.062  1.00  0.00     0.118 C 
ENDROOT
BRANCH   1   2
ATOM      2  N   UNL A   1      33.729  33.957  27.732  1.00  0.00    -0.352 N 
ATOM      3  O   UNL A   1      32.945  31.961  27.090  1.00  0.00    -0.269 OA
ATOM      4  C   UNL A   1      33.860  32.597  27.610  1.00  0.00     0.251 C 
ATOM      5  H   UNL A   1      32.821  34.299  27.570  1.00  0.00     0.163 HD
BRANCH   4   6
ATOM      6  C   UNL A   1      35.062  31.889  28.103  1.00  0.00     0.039 A 
ATOM      7  C   UNL A   1      34.959  30.529  28.420  1.00  0.00     0.014 A 
ATOM      8  C   UNL A   1      36.255  32.570  28.357  1.00  0.00     0.014 A 
ATOM      9  C   UNL A   1      36.049  29.856  28.977  1.00  0.00     0.010 A 
ATOM     10  C   UNL A   1      37.364  31.882  28.836  1.00  0.00     0.010 A 
ATOM     11  C   UNL A   1      37.260  30.530  29.190  1.00  0.00    -0.014 A 
BRANCH  11  12
ATOM     12  C   UNL A   1      38.402  29.887  29.884  1.00  0.00     0.031 A 
ATOM     13  C   UNL A   1      38.640  30.188  31.340  1.00  0.00     0.074 A 
ATOM     14  C   UNL A   1      39.255  29.091  29.214  1.00  0.00     0.049 A 
ATOM     15  N   UNL A   1      39.657  29.868  32.096  1.00  0.00    -0.248 NA
ATOM     16  C   UNL A   1      37.604  30.977  32.030  1.00  0.00     0.031 C 
ATOM     17  C   UNL A   1      39.145  28.733  27.801  1.00  0.00     0.029 A 
ATOM     18  N   UNL A   1      40.397  28.460  29.635  1.00  0.00    -0.354 N 
ATOM     19  C   UNL A   1      39.405  30.449  33.332  1.00  0.00     0.074 A 
ATOM     20  C   UNL A   1      38.155  31.168  33.218  1.00  0.00     0.031 C 
ATOM     21  C   UNL A   1      40.177  27.938  27.472  1.00  0.00     0.029 A 
ATOM     22  C   UNL A   1      41.038  27.765  28.639  1.00  0.00     0.049 A 
ATOM     23  H   UNL A   1      40.725  28.500  30.562  1.00  0.00     0.167 HD
ATOM     24  C   UNL A   1      40.127  30.366  34.473  1.00  0.00     0.034 A 
ATOM     25  C   UNL A   1      42.196  27.077  28.659  1.00  0.00     0.034 A 
ATOM     26  C   UNL A   1      41.340  29.606  34.606  1.00  0.00     0.049 A 
ATOM     27  C   UNL A   1      42.987  26.995  29.934  1.00  0.00     0.074 A 
ATOM     28  C   UNL A   1      42.124  29.429  35.732  1.00  0.00     0.029 A 
ATOM     29  N   UNL A   1      41.936  28.886  33.583  1.00  0.00    -0.354 N 
ATOM     30  N   UNL A   1      42.711  27.510  31.107  1.00  0.00    -0.248 NA
ATOM     31  C   UNL A   1      44.238  26.224  29.892  1.00  0.00     0.031 C 
ATOM     32  C   UNL A   1      43.197  28.599  35.388  1.00  0.00     0.029 A 
ATOM     33  C   UNL A   1      43.076  28.256  34.050  1.00  0.00     0.049 A 
ATOM     34  H   UNL A   1      41.598  28.832  32.660  1.00  0.00     0.167 HD
ATOM     35  C   UNL A   1      43.748  27.122  31.948  1.00  0.00     0.074 A 
ATOM     36  C   UNL A   1      44.646  26.307  31.153  1.00  0.00     0.031 C 
ATOM     37  C   UNL A   1      43.945  27.427  33.255  1.00  0.00     0.034 A 
BRANCH  24  38
ATOM     38  C   UNL A   1      39.580  31.066  35.686  1.00  0.00     0.023 A 
ATOM     39  C   UNL A   1      38.389  30.591  36.271  1.00  0.00     0.012 A 
ATOM     40  C   UNL A   1      40.245  32.167  36.259  1.00  0.00     0.148 A 
ATOM     41  C   UNL A   1      37.849  31.220  37.392  1.00  0.00     0.002 A 
ATOM     42  C   UNL A   1      39.719  32.767  37.398  1.00  0.00     0.091 A 
ATOM     43  F   UNL A   1      41.363  32.615  35.671  1.00  0.00    -0.205 F 
ATOM     44  C   UNL A   1      38.518  32.300  37.960  1.00  0.00     0.022 A 
BRANCH  42  45
ATOM     45  S   UNL A   1      40.526  34.134  38.236  1.00  0.00     0.127 S 
ATOM     46  O   UNL A   1      40.431  35.193  37.230  1.00  0.00    -0.237 OA
ATOM     47  O   UNL A   1      39.669  34.328  39.406  1.00  0.00    -0.237 OA
ATOM     48  O   UNL A   1      41.876  33.682  38.538  1.00  0.00    -0.744 OA
ENDBRANCH  42  45
ENDBRANCH  24  38
BRANCH  25  49
ATOM     49  C   UNL A   1      42.625  26.363  27.428  1.00  0.00     0.023 A 
ATOM     50  C   UNL A   1      43.485  27.019  26.527  1.00  0.00     0.012 A 
ATOM     51  C   UNL A   1      42.284  25.016  27.205  1.00  0.00     0.148 A 
ATOM     52  C   UNL A   1      44.005  26.342  25.424  1.00  0.00     0.002 A 
ATOM     53  C   UNL A   1      42.834  24.336  26.125  1.00  0.00     0.091 A 
ATOM     54  F   UNL A   1      41.470  24.416  28.085  1.00  0.00    -0.205 F 
ATOM     55  C   UNL A   1      43.688  24.999  25.229  1.00  0.00     0.022 A 
BRANCH  53  56
ATOM     56  S   UNL A   1      42.575  22.581  25.847  1.00  0.00     0.127 S 
ATOM     57  O   UNL A   1      43.122  22.405  24.503  1.00  0.00    -0.237 OA
ATOM     58  O   UNL A   1      43.375  21.992  26.920  1.00  0.00    -0.237 OA
ATOM     59  O   UNL A   1      41.139  22.366  25.962  1.00  0.00    -0.744 OA
ENDBRANCH  53  56
ENDBRANCH  25  49
BRANCH  37  60
ATOM     60  C   UNL A   1      45.186  26.894  33.917  1.00  0.00     0.023 A 
ATOM     61  C   UNL A   1      46.332  27.709  33.987  1.00  0.00     0.012 A 
ATOM     62  C   UNL A   1      45.188  25.635  34.550  1.00  0.00     0.148 A 
ATOM     63  C   UNL A   1      47.469  27.274  34.664  1.00  0.00     0.002 A 
ATOM     64  C   UNL A   1      46.314  25.221  35.251  1.00  0.00     0.091 A 
ATOM     65  F   UNL A   1      44.089  24.873  34.459  1.00  0.00    -0.205 F 
ATOM     66  C   UNL A   1      47.457  26.036  35.305  1.00  0.00     0.022 A 
BRANCH  64  67
ATOM     67  S   UNL A   1      46.370  23.676  36.167  1.00  0.00     0.127 S 
ATOM     68  O   UNL A   1      46.451  22.694  35.086  1.00  0.00    -0.237 OA
ATOM     69  O   UNL A   1      47.596  23.823  36.951  1.00  0.00    -0.237 OA
ATOM     70  O   UNL A   1      45.147  23.633  36.958  1.00  0.00    -0.744 OA
ENDBRANCH  64  67
ENDBRANCH  37  60
ENDBRANCH  11  12
ENDBRANCH   4   6
ENDBRANCH   1   2
BRANCH   1  71
ATOM     71  C   UNL A   1      34.066  36.310  28.424  1.00  0.00     0.042 C 
BRANCH  71  72
ATOM     72  C   UNL A   1      32.882  36.198  29.375  1.00  0.00     0.118 C 
BRANCH  72  73
ATOM     73  N   UNL A   1      32.872  37.254  30.384  1.00  0.00    -0.352 N 
ATOM     74  C   UNL A   1      33.166  37.174  31.720  1.00  0.00     0.256 C 
ATOM     75  H   UNL A   1      32.616  38.148  30.060  1.00  0.00     0.163 HD
ATOM     76  O   UNL A   1      32.910  38.111  32.475  1.00  0.00    -0.269 OA
BRANCH  74  77
ATOM     77  C   UNL A   1      33.819  35.975  32.253  1.00  0.00     0.102 A 
ATOM     78  C   UNL A   1      35.214  35.894  32.214  1.00  0.00     0.029 A 
ATOM     79  C   UNL A   1      33.098  34.895  32.748  1.00  0.00     0.223 A 
ATOM     80  C   UNL A   1      35.857  34.761  32.721  1.00  0.00     0.001 A 
ATOM     81  N   UNL A   1      33.680  33.801  33.273  1.00  0.00    -0.221 NA
ATOM     82  C   UNL A   1      35.033  33.766  33.257  1.00  0.00     0.124 A 
BRANCH  79  83
ATOM     83  O   UNL A   1      31.733  34.837  32.749  1.00  0.00    -0.493 OA
ATOM     84  H   UNL A   1      31.247  35.233  32.054  1.00  0.00     0.295 HD
ENDBRANCH  79  83
BRANCH  80  85
ATOM     85  C   UNL A   1      37.315  34.598  32.674  1.00  0.00    -0.016 A 
ATOM     86  C   UNL A   1      38.068  34.643  33.860  1.00  0.00     0.012 A 
ATOM     87  C   UNL A   1      37.995  34.406  31.458  1.00  0.00     0.025 A 
ATOM     88  C   UNL A   1      39.457  34.517  33.832  1.00  0.00     0.040 A 
ATOM     89  C   UNL A   1      39.397  34.280  31.422  1.00  0.00     0.092 A 
ATOM     90  C   UNL A   1      40.107  34.342  32.617  1.00  0.00     0.135 A 
ATOM     91  F   UNL A   1      41.443  34.238  32.612  1.00  0.00    -0.206 F 
BRANCH  89  92
ATOM     92  C   UNL A   1      40.151  34.107  30.137  1.00  0.00     0.419 C 
ATOM     93  F   UNL A   1      41.258  34.895  30.071  1.00  0.00    -0.166 F 
ATOM     94  F   UNL A   1      40.579  32.830  29.939  1.00  0.00    -0.166 F 
ATOM     95  F   UNL A   1      39.407  34.420  29.039  1.00  0.00    -0.166 F 
ENDBRANCH  89  92
ENDBRANCH  80  85
ENDBRANCH  74  77
ENDBRANCH  72  73
ENDBRANCH  71  72
ENDBRANCH   1  71
TORSDOF 16
ENDMDL
MODEL 2
REMARK VINA RESULT:     -11.1      3.793     10.374
REMARK SMILES O=C(NCCCNC(=O)c1cc(-c2ccc(F)c(C(F)(F)F)c2)cnc1O)c1ccc(-c2c3nc(c(-c4cccc(S(=O)(=O)[O-])c4F)c4ccc([nH]4)c(-c4cccc(S(=O)(=O)[O-])c4F)c4nc(c(-c5cccc(S(=O)(=O)[O-])c5F)c5ccc2[nH]5)C=C4)C=C3)cc1
REMARK SMILES IDX 4 1 3 2 1 3 2 4 28 6 29 7 90 8 30 9 89 10 31 11 32 12 33 13
REMARK SMILES IDX 83 14 34 15 88 16 82 17 84 18 35 19 87 20 81 21 80 22 36 24
REMARK SMILES IDX 68 25 48 26 67 27 49 28 52 29 66 30 85 31 50 32 51 33 65 35
REMARK SMILES IDX 86 36 53 37 37 38 38 39 46 40 39 41 41 42 47 43 40 44 42 45
REMARK SMILES IDX 43 46 44 47 45 48 69 49 70 50 78 51 71 52 73 53 79 54 72 55
REMARK SMILES IDX 74 56 75 57 76 58 77 59 54 60 55 61 63 62 56 63 58 64 64 65
REMARK SMILES IDX 57 66 59 67 60 68 61 69 62 70 5 71 6 72 7 73 8 74 9 76 10 77
REMARK SMILES IDX 11 78 26 79 12 80 25 81 24 82 27 83 13 85 14 86 23 87 15 88
REMARK SMILES IDX 18 89 16 90 17 91 19 92 20 93 21 94 22 95
REMARK H PARENT 3 5 84 23 52 34 7 75 27 84
REMARK Flexibility Score: inf
ROOT
ATOM      1  C   UNL A   1      33.319  29.134  25.107  1.00  0.00     0.118 C 
ENDROOT
BRANCH   1   2
ATOM      2  N   UNL A   1      32.822  30.365  25.703  1.00  0.00    -0.352 N 
ATOM      3  O   UNL A   1      32.520  31.942  27.263  1.00  0.00    -0.269 OA
ATOM      4  C   UNL A   1      33.241  31.054  26.811  1.00  0.00     0.251 C 
ATOM      5  H   UNL A   1      32.058  30.769  25.233  1.00  0.00     0.163 HD
BRANCH   4   6
ATOM      6  C   UNL A   1      34.540  30.763  27.456  1.00  0.00     0.039 A 
ATOM      7  C   UNL A   1      34.752  29.488  27.998  1.00  0.00     0.014 A 
ATOM      8  C   UNL A   1      35.508  31.756  27.627  1.00  0.00     0.014 A 
ATOM      9  C   UNL A   1      35.929  29.211  28.696  1.00  0.00     0.010 A 
ATOM     10  C   UNL A   1      36.714  31.457  28.251  1.00  0.00     0.010 A 
ATOM     11  C   UNL A   1      36.919  30.196  28.829  1.00  0.00    -0.014 A 
BRANCH  11  12
ATOM     12  C   UNL A   1      38.129  29.983  29.658  1.00  0.00     0.031 A 
ATOM     13  C   UNL A   1      39.221  29.081  29.147  1.00  0.00     0.074 A 
ATOM     14  C   UNL A   1      38.232  30.536  30.880  1.00  0.00     0.049 A 
ATOM     15  N   UNL A   1      40.280  28.630  29.765  1.00  0.00    -0.248 NA
ATOM     16  C   UNL A   1      39.086  28.602  27.759  1.00  0.00     0.031 C 
ATOM     17  C   UNL A   1      37.241  31.416  31.498  1.00  0.00     0.029 A 
ATOM     18  N   UNL A   1      39.216  30.418  31.829  1.00  0.00    -0.354 N 
ATOM     19  C   UNL A   1      40.913  27.786  28.862  1.00  0.00     0.074 A 
ATOM     20  C   UNL A   1      40.104  27.761  27.663  1.00  0.00     0.031 C 
ATOM     21  C   UNL A   1      37.670  31.764  32.722  1.00  0.00     0.029 A 
ATOM     22  C   UNL A   1      38.944  31.101  32.988  1.00  0.00     0.049 A 
ATOM     23  H   UNL A   1      40.037  29.893  31.691  1.00  0.00     0.167 HD
ATOM     24  C   UNL A   1      42.081  27.118  28.999  1.00  0.00     0.034 A 
ATOM     25  C   UNL A   1      39.635  31.175  34.142  1.00  0.00     0.034 A 
ATOM     26  C   UNL A   1      42.917  27.185  30.166  1.00  0.00     0.049 A 
ATOM     27  C   UNL A   1      40.931  30.426  34.279  1.00  0.00     0.074 A 
ATOM     28  C   UNL A   1      44.138  26.574  30.385  1.00  0.00     0.029 A 
ATOM     29  N   UNL A   1      42.623  27.918  31.305  1.00  0.00    -0.354 N 
ATOM     30  N   UNL A   1      41.540  29.670  33.397  1.00  0.00    -0.248 NA
ATOM     31  C   UNL A   1      41.640  30.552  35.560  1.00  0.00     0.031 C 
ATOM     32  C   UNL A   1      44.584  26.939  31.661  1.00  0.00     0.029 A 
ATOM     33  C   UNL A   1      43.643  27.782  32.230  1.00  0.00     0.049 A 
ATOM     34  H   UNL A   1      41.810  28.456  31.436  1.00  0.00     0.167 HD
ATOM     35  C   UNL A   1      42.709  29.235  34.012  1.00  0.00     0.074 A 
ATOM     36  C   UNL A   1      42.733  29.833  35.332  1.00  0.00     0.031 C 
ATOM     37  C   UNL A   1      43.666  28.404  33.530  1.00  0.00     0.034 A 
BRANCH  24  38
ATOM     38  C   UNL A   1      42.552  26.308  27.823  1.00  0.00     0.023 A 
ATOM     39  C   UNL A   1      43.159  26.969  26.735  1.00  0.00     0.012 A 
ATOM     40  C   UNL A   1      42.421  24.906  27.797  1.00  0.00     0.148 A 
ATOM     41  C   UNL A   1      43.602  26.252  25.625  1.00  0.00     0.002 A 
ATOM     42  C   UNL A   1      42.896  24.194  26.702  1.00  0.00     0.091 A 
ATOM     43  F   UNL A   1      41.820  24.303  28.832  1.00  0.00    -0.205 F 
ATOM     44  C   UNL A   1      43.479  24.865  25.613  1.00  0.00     0.022 A 
BRANCH  42  45
ATOM     45  S   UNL A   1      42.830  22.402  26.606  1.00  0.00     0.127 S 
ATOM     46  O   UNL A   1      42.065  22.202  25.375  1.00  0.00    -0.237 OA
ATOM     47  O   UNL A   1      44.246  22.046  26.508  1.00  0.00    -0.237 OA
ATOM     48  O   UNL A   1      42.173  21.957  27.826  1.00  0.00    -0.744 OA
ENDBRANCH  42  45
ENDBRANCH  24  38
BRANCH  25  49
ATOM     49  C   UNL A   1      39.124  32.052  35.228  1.00  0.00     0.023 A 
ATOM     50  C   UNL A   1      38.189  31.529  36.141  1.00  0.00     0.012 A 
ATOM     51  C   UNL A   1      39.638  33.348  35.427  1.00  0.00     0.148 A 
ATOM     52  C   UNL A   1      37.777  32.280  37.241  1.00  0.00     0.002 A 
ATOM     53  C   UNL A   1      39.252  34.077  36.545  1.00  0.00     0.091 A 
ATOM     54  F   UNL A   1      40.532  33.815  34.545  1.00  0.00    -0.205 F 
ATOM     55  C   UNL A   1      38.316  33.548  37.449  1.00  0.00     0.022 A 
BRANCH  53  56
ATOM     56  S   UNL A   1      39.965  35.672  36.959  1.00  0.00     0.127 S 
ATOM     57  O   UNL A   1      41.378  35.337  37.123  1.00  0.00    -0.237 OA
ATOM     58  O   UNL A   1      39.652  36.453  35.763  1.00  0.00    -0.237 OA
ATOM     59  O   UNL A   1      39.288  36.110  38.172  1.00  0.00    -0.744 OA
ENDBRANCH  53  56
ENDBRANCH  25  49
BRANCH  37  60
ATOM     60  C   UNL A   1      44.822  28.070  34.433  1.00  0.00     0.023 A 
ATOM     61  C   UNL A   1      45.943  28.923  34.458  1.00  0.00     0.012 A 
ATOM     62  C   UNL A   1      44.759  26.976  35.319  1.00  0.00     0.148 A 
ATOM     63  C   UNL A   1      46.993  28.683  35.342  1.00  0.00     0.002 A 
ATOM     64  C   UNL A   1      45.796  26.763  36.220  1.00  0.00     0.091 A 
ATOM     65  F   UNL A   1      43.688  26.173  35.267  1.00  0.00    -0.205 F 
ATOM     66  C   UNL A   1      46.915  27.612  36.229  1.00  0.00     0.022 A 
BRANCH  64  67
ATOM     67  S   UNL A   1      45.755  25.452  37.448  1.00  0.00     0.127 S 
ATOM     68  O   UNL A   1      45.878  24.258  36.612  1.00  0.00    -0.237 OA
ATOM     69  O   UNL A   1      46.934  25.751  38.261  1.00  0.00    -0.237 OA
ATOM     70  O   UNL A   1      44.485  25.596  38.147  1.00  0.00    -0.744 OA
ENDBRANCH  64  67
ENDBRANCH  37  60
ENDBRANCH  11  12
ENDBRANCH   4   6
ENDBRANCH   1   2
BRANCH   1  71
ATOM     71  C   UNL A   1      32.789  28.918  23.694  1.00  0.00     0.042 C 
BRANCH  71  72
ATOM     72  C   UNL A   1      32.145  27.558  23.463  1.00  0.00     0.118 C 
BRANCH  72  73
ATOM     73  N   UNL A   1      32.411  27.032  22.126  1.00  0.00    -0.352 N 
ATOM     74  C   UNL A   1      32.921  25.812  21.765  1.00  0.00     0.256 C 
ATOM     75  H   UNL A   1      32.194  27.638  21.381  1.00  0.00     0.163 HD
ATOM     76  O   UNL A   1      33.278  25.600  20.608  1.00  0.00    -0.269 OA
BRANCH  74  77
ATOM     77  C   UNL A   1      33.017  24.738  22.758  1.00  0.00     0.102 A 
ATOM     78  C   UNL A   1      34.280  24.352  23.215  1.00  0.00     0.029 A 
ATOM     79  C   UNL A   1      31.898  24.054  23.222  1.00  0.00     0.223 A 
ATOM     80  C   UNL A   1      34.392  23.332  24.164  1.00  0.00     0.001 A 
ATOM     81  N   UNL A   1      31.962  23.090  24.157  1.00  0.00    -0.221 NA
ATOM     82  C   UNL A   1      33.195  22.763  24.610  1.00  0.00     0.124 A 
BRANCH  79  83
ATOM     83  O   UNL A   1      30.630  24.293  22.773  1.00  0.00    -0.493 OA
ATOM     84  H   UNL A   1      29.895  24.060  23.303  1.00  0.00     0.295 HD
ENDBRANCH  79  83
BRANCH  80  85
ATOM     85  C   UNL A   1      35.691  22.855  24.654  1.00  0.00    -0.016 A 
ATOM     86  C   UNL A   1      36.070  21.516  24.458  1.00  0.00     0.012 A 
ATOM     87  C   UNL A   1      36.578  23.706  25.336  1.00  0.00     0.025 A 
ATOM     88  C   UNL A   1      37.289  21.037  24.940  1.00  0.00     0.040 A 
ATOM     89  C   UNL A   1      37.808  23.230  25.827  1.00  0.00     0.092 A 
ATOM     90  C   UNL A   1      38.142  21.895  25.623  1.00  0.00     0.135 A 
ATOM     91  F   UNL A   1      39.300  21.411  26.090  1.00  0.00    -0.206 F 
BRANCH  89  92
ATOM     92  C   UNL A   1      38.759  24.108  26.587  1.00  0.00     0.419 C 
ATOM     93  F   UNL A   1      38.151  25.205  27.114  1.00  0.00    -0.166 F 
ATOM     94  F   UNL A   1      39.358  23.466  27.628  1.00  0.00    -0.166 F 
ATOM     95  F   UNL A   1      39.776  24.583  25.814  1.00  0.00    -0.166 F 
ENDBRANCH  89  92
ENDBRANCH  80  85
ENDBRANCH  74  77
ENDBRANCH  72  73
ENDBRANCH  71  72
ENDBRANCH   1  71
TORSDOF 16
ENDMDL
MODEL 3
REMARK VINA RESULT:     -10.9      3.777     10.266
REMARK SMILES O=C(NCCCNC(=O)c1cc(-c2ccc(F)c(C(F)(F)F)c2)cnc1O)c1ccc(-c2c3nc(c(-c4cccc(S(=O)(=O)[O-])c4F)c4ccc([nH]4)c(-c4cccc(S(=O)(=O)[O-])c4F)c4nc(c(-c5cccc(S(=O)(=O)[O-])c5F)c5ccc2[nH]5)C=C4)C=C3)cc1
REMARK SMILES IDX 4 1 3 2 1 3 2 4 28 6 29 7 90 8 30 9 89 10 31 11 32 12 33 13
REMARK SMILES IDX 83 14 34 15 88 16 82 17 84 18 35 19 87 20 81 21 80 22 36 24
REMARK SMILES IDX 68 25 48 26 67 27 49 28 52 29 66 30 85 31 50 32 51 33 65 35
REMARK SMILES IDX 86 36 53 37 37 38 38 39 46 40 39 41 41 42 47 43 40 44 42 45
REMARK SMILES IDX 43 46 44 47 45 48 69 49 70 50 78 51 71 52 73 53 79 54 72 55
REMARK SMILES IDX 74 56 75 57 76 58 77 59 54 60 55 61 63 62 56 63 58 64 64 65
REMARK SMILES IDX 57 66 59 67 60 68 61 69 62 70 5 71 6 72 7 73 8 74 9 76 10 77
REMARK SMILES IDX 11 78 26 79 12 80 25 81 24 82 27 83 13 85 14 86 23 87 15 88
REMARK SMILES IDX 18 89 16 90 17 91 19 92 20 93 21 94 22 95
REMARK H PARENT 3 5 84 23 52 34 7 75 27 84
REMARK Flexibility Score: inf
ROOT
ATOM      1  C   UNL A   1      32.955  29.061  25.717  1.00  0.00     0.118 C 
ENDROOT
BRANCH   1   2
ATOM      2  N   UNL A   1      32.604  30.423  26.094  1.00  0.00    -0.352 N 
ATOM      3  O   UNL A   1      32.564  32.289  27.328  1.00  0.00    -0.269 OA
ATOM      4  C   UNL A   1      33.175  31.272  27.006  1.00  0.00     0.251 C 
ATOM      5  H   UNL A   1      31.829  30.794  25.615  1.00  0.00     0.163 HD
BRANCH   4   6
ATOM      6  C   UNL A   1      34.506  30.997  27.590  1.00  0.00     0.039 A 
ATOM      7  C   UNL A   1      34.807  29.689  27.993  1.00  0.00     0.014 A 
ATOM      8  C   UNL A   1      35.418  32.025  27.842  1.00  0.00     0.014 A 
ATOM      9  C   UNL A   1      36.017  29.415  28.634  1.00  0.00     0.010 A 
ATOM     10  C   UNL A   1      36.656  31.738  28.407  1.00  0.00     0.010 A 
ATOM     11  C   UNL A   1      36.951  30.440  28.847  1.00  0.00    -0.014 A 
BRANCH  11  12
ATOM     12  C   UNL A   1      38.193  30.218  29.624  1.00  0.00     0.031 A 
ATOM     13  C   UNL A   1      39.276  29.347  29.046  1.00  0.00     0.074 A 
ATOM     14  C   UNL A   1      38.335  30.736  30.858  1.00  0.00     0.049 A 
ATOM     15  N   UNL A   1      40.363  28.892  29.611  1.00  0.00    -0.248 NA
ATOM     16  C   UNL A   1      39.096  28.908  27.650  1.00  0.00     0.031 C 
ATOM     17  C   UNL A   1      37.357  31.584  31.538  1.00  0.00     0.029 A 
ATOM     18  N   UNL A   1      39.354  30.602  31.766  1.00  0.00    -0.354 N 
ATOM     19  C   UNL A   1      40.972  28.084  28.659  1.00  0.00     0.074 A 
ATOM     20  C   UNL A   1      40.119  28.084  27.491  1.00  0.00     0.031 C 
ATOM     21  C   UNL A   1      37.827  31.901  32.755  1.00  0.00     0.029 A 
ATOM     22  C   UNL A   1      39.118  31.247  32.955  1.00  0.00     0.049 A 
ATOM     23  H   UNL A   1      40.177  30.094  31.582  1.00  0.00     0.167 HD
ATOM     24  C   UNL A   1      42.153  27.427  28.733  1.00  0.00     0.034 A 
ATOM     25  C   UNL A   1      39.850  31.296  34.084  1.00  0.00     0.034 A 
ATOM     26  C   UNL A   1      43.030  27.470  29.870  1.00  0.00     0.049 A 
ATOM     27  C   UNL A   1      41.159  30.560  34.150  1.00  0.00     0.074 A 
ATOM     28  C   UNL A   1      44.266  26.869  30.025  1.00  0.00     0.029 A 
ATOM     29  N   UNL A   1      42.770  28.165  31.041  1.00  0.00    -0.354 N 
ATOM     30  N   UNL A   1      41.744  29.839  33.224  1.00  0.00    -0.248 NA
ATOM     31  C   UNL A   1      41.914  30.658  35.407  1.00  0.00     0.031 C 
ATOM     32  C   UNL A   1      44.755  27.202  31.294  1.00  0.00     0.029 A 
ATOM     33  C   UNL A   1      43.825  28.015  31.924  1.00  0.00     0.049 A 
ATOM     34  H   UNL A   1      41.956  28.688  31.218  1.00  0.00     0.167 HD
ATOM     35  C   UNL A   1      42.941  29.401  33.782  1.00  0.00     0.074 A 
ATOM     36  C   UNL A   1      43.006  29.960  35.118  1.00  0.00     0.031 C 
ATOM     37  C   UNL A   1      43.889  28.598  33.240  1.00  0.00     0.034 A 
BRANCH  24  38
ATOM     38  C   UNL A   1      42.590  26.660  27.516  1.00  0.00     0.023 A 
ATOM     39  C   UNL A   1      42.991  27.369  26.366  1.00  0.00     0.012 A 
ATOM     40  C   UNL A   1      42.628  25.252  27.512  1.00  0.00     0.148 A 
ATOM     41  C   UNL A   1      43.396  26.691  25.218  1.00  0.00     0.002 A 
ATOM     42  C   UNL A   1      43.065  24.583  26.374  1.00  0.00     0.091 A 
ATOM     43  F   UNL A   1      42.219  24.599  28.608  1.00  0.00    -0.205 F 
ATOM     44  C   UNL A   1      43.442  25.300  25.226  1.00  0.00     0.022 A 
BRANCH  42  45
ATOM     45  S   UNL A   1      43.208  22.794  26.294  1.00  0.00     0.127 S 
ATOM     46  O   UNL A   1      44.656  22.610  26.389  1.00  0.00    -0.237 OA
ATOM     47  O   UNL A   1      42.462  22.373  27.481  1.00  0.00    -0.237 OA
ATOM     48  O   UNL A   1      42.611  22.399  25.027  1.00  0.00    -0.744 OA
ENDBRANCH  42  45
ENDBRANCH  24  38
BRANCH  25  49
ATOM     49  C   UNL A   1      39.369  32.133  35.214  1.00  0.00     0.023 A 
ATOM     50  C   UNL A   1      39.468  33.534  35.110  1.00  0.00     0.012 A 
ATOM     51  C   UNL A   1      38.719  31.564  36.325  1.00  0.00     0.148 A 
ATOM     52  C   UNL A   1      38.920  34.357  36.095  1.00  0.00     0.002 A 
ATOM     53  C   UNL A   1      38.144  32.389  37.283  1.00  0.00     0.091 A 
ATOM     54  F   UNL A   1      38.635  30.228  36.390  1.00  0.00    -0.205 F 
ATOM     55  C   UNL A   1      38.250  33.785  37.174  1.00  0.00     0.022 A 
BRANCH  53  56
ATOM     56  S   UNL A   1      37.169  31.756  38.652  1.00  0.00     0.127 S 
ATOM     57  O   UNL A   1      38.089  31.919  39.776  1.00  0.00    -0.237 OA
ATOM     58  O   UNL A   1      36.030  32.673  38.650  1.00  0.00    -0.237 OA
ATOM     59  O   UNL A   1      36.848  30.377  38.311  1.00  0.00    -0.744 OA
ENDBRANCH  53  56
ENDBRANCH  25  49
BRANCH  37  60
ATOM     60  C   UNL A   1      45.081  28.253  34.089  1.00  0.00     0.023 A 
ATOM     61  C   UNL A   1      46.210  29.094  34.064  1.00  0.00     0.012 A 
ATOM     62  C   UNL A   1      45.049  27.159  34.977  1.00  0.00     0.148 A 
ATOM     63  C   UNL A   1      47.298  28.845  34.899  1.00  0.00     0.002 A 
ATOM     64  C   UNL A   1      46.124  26.935  35.830  1.00  0.00     0.091 A 
ATOM     65  F   UNL A   1      43.968  26.366  34.974  1.00  0.00    -0.205 F 
ATOM     66  C   UNL A   1      47.250  27.773  35.788  1.00  0.00     0.022 A 
BRANCH  64  67
ATOM     67  S   UNL A   1      46.126  25.624  37.059  1.00  0.00     0.127 S 
ATOM     68  O   UNL A   1      44.952  25.967  37.860  1.00  0.00    -0.237 OA
ATOM     69  O   UNL A   1      45.972  24.425  36.234  1.00  0.00    -0.237 OA
ATOM     70  O   UNL A   1      47.404  25.723  37.750  1.00  0.00    -0.744 OA
ENDBRANCH  64  67
ENDBRANCH  37  60
ENDBRANCH  11  12
ENDBRANCH   4   6
ENDBRANCH   1   2
BRANCH   1  71
ATOM     71  C   UNL A   1      32.962  28.862  24.206  1.00  0.00     0.042 C 
BRANCH  71  72
ATOM     72  C   UNL A   1      33.746  27.645  23.733  1.00  0.00     0.118 C 
BRANCH  72  73
ATOM     73  N   UNL A   1      33.340  27.198  22.403  1.00  0.00    -0.352 N 
ATOM     74  C   UNL A   1      33.274  25.923  21.905  1.00  0.00     0.256 C 
ATOM     75  H   UNL A   1      33.079  27.911  21.777  1.00  0.00     0.163 HD
ATOM     76  O   UNL A   1      33.110  25.729  20.702  1.00  0.00    -0.269 OA
BRANCH  74  77
ATOM     77  C   UNL A   1      33.367  24.778  22.815  1.00  0.00     0.102 A 
ATOM     78  C   UNL A   1      34.619  24.424  23.327  1.00  0.00     0.029 A 
ATOM     79  C   UNL A   1      32.263  23.999  23.144  1.00  0.00     0.223 A 
ATOM     80  C   UNL A   1      34.728  23.337  24.199  1.00  0.00     0.001 A 
ATOM     81  N   UNL A   1      32.322  22.966  24.003  1.00  0.00    -0.221 NA
ATOM     82  C   UNL A   1      33.540  22.670  24.514  1.00  0.00     0.124 A 
BRANCH  79  83
ATOM     83  O   UNL A   1      31.015  24.206  22.628  1.00  0.00    -0.493 OA
ATOM     84  H   UNL A   1      30.844  24.963  22.105  1.00  0.00     0.295 HD
ENDBRANCH  79  83
BRANCH  80  85
ATOM     85  C   UNL A   1      36.017  22.892  24.741  1.00  0.00    -0.016 A 
ATOM     86  C   UNL A   1      36.425  21.555  24.584  1.00  0.00     0.012 A 
ATOM     87  C   UNL A   1      36.869  23.771  25.433  1.00  0.00     0.025 A 
ATOM     88  C   UNL A   1      37.634  21.107  25.115  1.00  0.00     0.040 A 
ATOM     89  C   UNL A   1      38.090  23.326  25.973  1.00  0.00     0.092 A 
ATOM     90  C   UNL A   1      38.451  21.993  25.807  1.00  0.00     0.135 A 
ATOM     91  F   UNL A   1      39.601  21.538  26.321  1.00  0.00    -0.206 F 
BRANCH  89  92
ATOM     92  C   UNL A   1      39.001  24.235  26.744  1.00  0.00     0.419 C 
ATOM     93  F   UNL A   1      39.952  24.810  25.960  1.00  0.00    -0.166 F 
ATOM     94  F   UNL A   1      38.341  25.256  27.356  1.00  0.00    -0.166 F 
ATOM     95  F   UNL A   1      39.679  23.590  27.735  1.00  0.00    -0.166 F 
ENDBRANCH  89  92
ENDBRANCH  80  85
ENDBRANCH  74  77
ENDBRANCH  72  73
ENDBRANCH  71  72
ENDBRANCH   1  71
TORSDOF 16
ENDMDL
