MODEL 1
REMARK VINA RESULT:     -10.8      0.000      0.000
REMARK SMILES COCCS(=O)(=O)N[C@@H]1C=C[C@@H](C(=O)NCCCNC(=O)c2ccc(-c3c4nc(c(-c5cccc(S(=O)(=O)[O-])c5F)c5ccc([nH]5)c(-c5cccc(S(=O)(=O)[O-])c5F)c5nc(c(-c6cccc(S(=O)(=O)[O-])c6F)c6ccc3[nH]6)C=C5)C=C4)cc2)C1
REMARK SMILES IDX 16 1 15 2 13 3 14 4 12 6 9 7 10 8 85 9 11 10 8 11 5 13 6 14
REMARK SMILES IDX 7 15 4 16 3 17 2 18 1 19 17 20 18 21 19 22 20 23 21 25 22 26
REMARK SMILES IDX 23 27 84 28 24 29 83 30 25 31 26 32 27 33 77 34 28 35 82 36
REMARK SMILES IDX 76 37 78 38 29 39 81 40 75 41 74 42 30 44 62 45 42 46 61 47
REMARK SMILES IDX 43 48 46 49 60 50 79 51 44 52 45 53 59 55 80 56 47 57 31 58
REMARK SMILES IDX 32 59 40 60 33 61 35 62 41 63 34 64 36 65 37 66 38 67 39 68
REMARK SMILES IDX 63 69 64 70 72 71 65 72 67 73 73 74 66 75 68 76 69 77 70 78
REMARK SMILES IDX 71 79 48 80 49 81 57 82 50 83 52 84 58 85 51 86 53 87 54 88
REMARK SMILES IDX 55 89 56 90
REMARK H PARENT 15 5 8 12 19 24 78 43 46 54
REMARK Flexibility Score: inf
ROOT
ATOM      1  C   UNL A   1      36.178  20.457  24.902  1.00  0.00     0.117 C 
ENDROOT
BRANCH   1   2
ATOM      2  N   UNL A   1      34.937  19.729  25.093  1.00  0.00    -0.356 N 
ATOM      3  C   UNL A   1      33.638  20.125  24.981  1.00  0.00     0.226 C 
ATOM      4  O   UNL A   1      32.775  19.244  25.039  1.00  0.00    -0.274 OA
ATOM      5  H   UNL A   1      35.053  18.785  25.349  1.00  0.00     0.163 HD
BRANCH   3   6
ATOM      6  C   UNL A   1      33.227  21.594  24.840  1.00  0.00     0.103 C 
ATOM      7  C   UNL A   1      31.661  22.793  23.359  1.00  0.00     0.093 C 
ATOM      8  C   UNL A   1      31.188  22.745  24.784  1.00  0.00    -0.011 C 
ATOM      9  C   UNL A   1      32.940  21.962  23.391  1.00  0.00     0.042 C 
ATOM     10  C   UNL A   1      32.012  22.051  25.579  1.00  0.00    -0.016 C 
BRANCH   7  11
ATOM     11  N   UNL A   1      31.768  24.188  22.961  1.00  0.00    -0.208 NA
ATOM     12  H   UNL A   1      30.971  24.341  22.343  1.00  0.00     0.141 HD
BRANCH  11  13
ATOM     13  S   UNL A   1      33.031  24.943  22.206  1.00  0.00     0.214 S 
ATOM     14  O   UNL A   1      33.268  24.320  20.920  1.00  0.00    -0.212 OA
ATOM     15  O   UNL A   1      34.082  24.925  23.203  1.00  0.00    -0.212 OA
BRANCH  13  16
ATOM     16  C   UNL A   1      32.618  26.669  21.973  1.00  0.00     0.182 C 
BRANCH  16  17
ATOM     17  C   UNL A   1      31.412  27.203  22.716  1.00  0.00     0.177 C 
BRANCH  17  18
ATOM     18  O   UNL A   1      30.469  27.916  21.918  1.00  0.00    -0.384 OA
ATOM     19  C   UNL A   1      29.838  29.016  22.556  1.00  0.00     0.194 C 
ENDBRANCH  17  18
ENDBRANCH  16  17
ENDBRANCH  13  16
ENDBRANCH  11  13
ENDBRANCH   7  11
ENDBRANCH   3   6
ENDBRANCH   1   2
BRANCH   1  20
ATOM     20  C   UNL A   1      37.425  19.580  24.999  1.00  0.00     0.042 C 
BRANCH  20  21
ATOM     21  C   UNL A   1      38.635  20.249  25.640  1.00  0.00     0.118 C 
BRANCH  21  22
ATOM     22  N   UNL A   1      39.717  19.311  25.908  1.00  0.00    -0.352 N 
ATOM     23  C   UNL A   1      41.043  19.534  26.180  1.00  0.00     0.251 C 
ATOM     24  H   UNL A   1      39.454  18.363  25.890  1.00  0.00     0.163 HD
ATOM     25  O   UNL A   1      41.824  18.586  26.163  1.00  0.00    -0.269 OA
BRANCH  23  26
ATOM     26  C   UNL A   1      41.538  20.894  26.487  1.00  0.00     0.039 A 
ATOM     27  C   UNL A   1      41.870  21.746  25.428  1.00  0.00     0.014 A 
ATOM     28  C   UNL A   1      41.729  21.318  27.805  1.00  0.00     0.014 A 
ATOM     29  C   UNL A   1      42.346  23.033  25.690  1.00  0.00     0.010 A 
ATOM     30  C   UNL A   1      42.127  22.627  28.064  1.00  0.00     0.010 A 
ATOM     31  C   UNL A   1      42.454  23.494  27.011  1.00  0.00    -0.014 A 
BRANCH  31  32
ATOM     32  C   UNL A   1      42.909  24.876  27.312  1.00  0.00     0.031 A 
ATOM     33  C   UNL A   1      41.971  25.860  27.961  1.00  0.00     0.074 A 
ATOM     34  C   UNL A   1      44.139  25.270  26.929  1.00  0.00     0.049 A 
ATOM     35  N   UNL A   1      42.166  27.122  28.242  1.00  0.00    -0.248 NA
ATOM     36  C   UNL A   1      40.628  25.370  28.313  1.00  0.00     0.031 C 
ATOM     37  C   UNL A   1      45.115  24.432  26.228  1.00  0.00     0.029 A 
ATOM     38  N   UNL A   1      44.770  26.484  27.048  1.00  0.00    -0.354 N 
ATOM     39  C   UNL A   1      40.966  27.586  28.768  1.00  0.00     0.074 A 
ATOM     40  C   UNL A   1      40.036  26.478  28.735  1.00  0.00     0.031 C 
ATOM     41  C   UNL A   1      46.219  25.154  25.982  1.00  0.00     0.029 A 
ATOM     42  C   UNL A   1      46.021  26.514  26.475  1.00  0.00     0.049 A 
ATOM     43  H   UNL A   1      44.365  27.259  27.499  1.00  0.00     0.167 HD
ATOM     44  C   UNL A   1      40.671  28.813  29.259  1.00  0.00     0.034 A 
ATOM     45  C   UNL A   1      46.904  27.525  26.350  1.00  0.00     0.034 A 
ATOM     46  C   UNL A   1      41.610  29.900  29.326  1.00  0.00     0.049 A 
ATOM     47  C   UNL A   1      46.563  28.868  26.935  1.00  0.00     0.074 A 
ATOM     48  C   UNL A   1      41.435  31.154  29.884  1.00  0.00     0.029 A 
ATOM     49  N   UNL A   1      42.896  29.867  28.812  1.00  0.00    -0.354 N 
ATOM     50  N   UNL A   1      45.476  29.242  27.566  1.00  0.00    -0.248 NA
ATOM     51  C   UNL A   1      47.585  29.919  26.825  1.00  0.00     0.031 C 
ATOM     52  C   UNL A   1      42.607  31.890  29.680  1.00  0.00     0.029 A 
ATOM     53  C   UNL A   1      43.525  31.082  29.029  1.00  0.00     0.049 A 
ATOM     54  H   UNL A   1      43.304  29.094  28.360  1.00  0.00     0.167 HD
ATOM     55  C   UNL A   1      45.699  30.556  27.963  1.00  0.00     0.074 A 
ATOM     56  C   UNL A   1      47.032  30.906  27.517  1.00  0.00     0.031 C 
ATOM     57  C   UNL A   1      44.870  31.400  28.627  1.00  0.00     0.034 A 
BRANCH  44  58
ATOM     58  C   UNL A   1      39.283  29.035  29.805  1.00  0.00     0.023 A 
ATOM     59  C   UNL A   1      38.977  28.628  31.120  1.00  0.00     0.012 A 
ATOM     60  C   UNL A   1      38.301  29.697  29.043  1.00  0.00     0.148 A 
ATOM     61  C   UNL A   1      37.707  28.841  31.654  1.00  0.00     0.002 A 
ATOM     62  C   UNL A   1      37.052  29.950  29.598  1.00  0.00     0.091 A 
ATOM     63  F   UNL A   1      38.603  30.060  27.788  1.00  0.00    -0.205 F 
ATOM     64  C   UNL A   1      36.749  29.510  30.897  1.00  0.00     0.022 A 
BRANCH  62  65
ATOM     65  S   UNL A   1      35.777  30.878  28.737  1.00  0.00     0.127 S 
ATOM     66  O   UNL A   1      35.071  29.815  28.023  1.00  0.00    -0.237 OA
ATOM     67  O   UNL A   1      35.026  31.468  29.846  1.00  0.00    -0.237 OA
ATOM     68  O   UNL A   1      36.477  31.837  27.896  1.00  0.00    -0.744 OA
ENDBRANCH  62  65
ENDBRANCH  44  58
BRANCH  45  69
ATOM     69  C   UNL A   1      48.221  27.285  25.696  1.00  0.00     0.023 A 
ATOM     70  C   UNL A   1      49.302  26.813  26.466  1.00  0.00     0.012 A 
ATOM     71  C   UNL A   1      48.404  27.500  24.315  1.00  0.00     0.148 A 
ATOM     72  C   UNL A   1      50.550  26.594  25.882  1.00  0.00     0.002 A 
ATOM     73  C   UNL A   1      49.633  27.224  23.728  1.00  0.00     0.091 A 
ATOM     74  F   UNL A   1      47.365  27.957  23.601  1.00  0.00    -0.205 F 
ATOM     75  C   UNL A   1      50.713  26.789  24.512  1.00  0.00     0.022 A 
BRANCH  73  76
ATOM     76  S   UNL A   1      49.895  27.315  21.953  1.00  0.00     0.127 S 
ATOM     77  O   UNL A   1      48.838  26.443  21.449  1.00  0.00    -0.237 OA
ATOM     78  O   UNL A   1      49.694  28.741  21.692  1.00  0.00    -0.237 OA
ATOM     79  O   UNL A   1      51.257  26.853  21.730  1.00  0.00    -0.744 OA
ENDBRANCH  73  76
ENDBRANCH  45  69
BRANCH  57  80
ATOM     80  C   UNL A   1      45.392  32.774  28.960  1.00  0.00     0.023 A 
ATOM     81  C   UNL A   1      46.113  32.986  30.151  1.00  0.00     0.012 A 
ATOM     82  C   UNL A   1      45.230  33.838  28.050  1.00  0.00     0.148 A 
ATOM     83  C   UNL A   1      46.636  34.244  30.448  1.00  0.00     0.002 A 
ATOM     84  C   UNL A   1      45.798  35.074  28.328  1.00  0.00     0.091 A 
ATOM     85  F   UNL A   1      44.524  33.621  26.930  1.00  0.00    -0.205 F 
ATOM     86  C   UNL A   1      46.489  35.284  29.533  1.00  0.00     0.022 A 
BRANCH  84  87
ATOM     87  S   UNL A   1      45.746  36.441  27.164  1.00  0.00     0.127 S 
ATOM     88  O   UNL A   1      44.307  36.668  27.034  1.00  0.00    -0.237 OA
ATOM     89  O   UNL A   1      46.465  37.491  27.887  1.00  0.00    -0.237 OA
ATOM     90  O   UNL A   1      46.416  35.970  25.960  1.00  0.00    -0.744 OA
ENDBRANCH  84  87
ENDBRANCH  57  80
ENDBRANCH  31  32
ENDBRANCH  23  26
ENDBRANCH  21  22
ENDBRANCH  20  21
ENDBRANCH   1  20
TORSDOF 18
ENDMDL
MODEL 2
REMARK VINA RESULT:     -10.8      3.338      8.582
REMARK SMILES COCCS(=O)(=O)N[C@@H]1C=C[C@@H](C(=O)NCCCNC(=O)c2ccc(-c3c4nc(c(-c5cccc(S(=O)(=O)[O-])c5F)c5ccc([nH]5)c(-c5cccc(S(=O)(=O)[O-])c5F)c5nc(c(-c6cccc(S(=O)(=O)[O-])c6F)c6ccc3[nH]6)C=C5)C=C4)cc2)C1
REMARK SMILES IDX 16 1 15 2 13 3 14 4 12 6 9 7 10 8 85 9 11 10 8 11 5 13 6 14
REMARK SMILES IDX 7 15 4 16 3 17 2 18 1 19 17 20 18 21 19 22 20 23 21 25 22 26
REMARK SMILES IDX 23 27 84 28 24 29 83 30 25 31 26 32 27 33 77 34 28 35 82 36
REMARK SMILES IDX 76 37 78 38 29 39 81 40 75 41 74 42 30 44 62 45 42 46 61 47
REMARK SMILES IDX 43 48 46 49 60 50 79 51 44 52 45 53 59 55 80 56 47 57 31 58
REMARK SMILES IDX 32 59 40 60 33 61 35 62 41 63 34 64 36 65 37 66 38 67 39 68
REMARK SMILES IDX 63 69 64 70 72 71 65 72 67 73 73 74 66 75 68 76 69 77 70 78
REMARK SMILES IDX 71 79 48 80 49 81 57 82 50 83 52 84 58 85 51 86 53 87 54 88
REMARK SMILES IDX 55 89 56 90
REMARK H PARENT 15 5 8 12 19 24 78 43 46 54
REMARK Flexibility Score: inf
ROOT
ATOM      1  C   UNL A   1      34.538  21.964  25.552  1.00  0.00     0.117 C 
ENDROOT
BRANCH   1   2
ATOM      2  N   UNL A   1      34.558  22.264  24.132  1.00  0.00    -0.356 N 
ATOM      3  C   UNL A   1      33.871  23.186  23.400  1.00  0.00     0.226 C 
ATOM      4  O   UNL A   1      34.212  23.335  22.223  1.00  0.00    -0.274 OA
ATOM      5  H   UNL A   1      35.175  21.705  23.605  1.00  0.00     0.163 HD
BRANCH   3   6
ATOM      6  C   UNL A   1      32.691  23.982  23.965  1.00  0.00     0.103 C 
ATOM      7  C   UNL A   1      31.094  25.590  22.991  1.00  0.00     0.093 C 
ATOM      8  C   UNL A   1      30.450  24.282  23.352  1.00  0.00    -0.011 C 
ATOM      9  C   UNL A   1      32.567  25.350  23.308  1.00  0.00     0.042 C 
ATOM     10  C   UNL A   1      31.325  23.391  23.834  1.00  0.00    -0.016 C 
BRANCH   7  11
ATOM     11  N   UNL A   1      30.409  26.651  23.714  1.00  0.00    -0.208 NA
ATOM     12  H   UNL A   1      29.618  26.187  24.161  1.00  0.00     0.141 HD
BRANCH  11  13
ATOM     13  S   UNL A   1      29.783  28.059  23.114  1.00  0.00     0.214 S 
ATOM     14  O   UNL A   1      28.342  28.047  23.259  1.00  0.00    -0.212 OA
ATOM     15  O   UNL A   1      30.358  28.148  21.788  1.00  0.00    -0.212 OA
BRANCH  13  16
ATOM     16  C   UNL A   1      30.470  29.434  24.030  1.00  0.00     0.182 C 
BRANCH  16  17
ATOM     17  C   UNL A   1      31.474  29.114  25.117  1.00  0.00     0.177 C 
BRANCH  17  18
ATOM     18  O   UNL A   1      32.716  28.581  24.662  1.00  0.00    -0.384 OA
ATOM     19  C   UNL A   1      33.781  28.627  25.600  1.00  0.00     0.194 C 
ENDBRANCH  17  18
ENDBRANCH  16  17
ENDBRANCH  13  16
ENDBRANCH  11  13
ENDBRANCH   7  11
ENDBRANCH   3   6
ENDBRANCH   1   2
BRANCH   1  20
ATOM     20  C   UNL A   1      35.433  22.880  26.385  1.00  0.00     0.042 C 
BRANCH  20  21
ATOM     21  C   UNL A   1      36.743  23.281  25.717  1.00  0.00     0.118 C 
BRANCH  21  22
ATOM     22  N   UNL A   1      37.839  22.381  26.047  1.00  0.00    -0.352 N 
ATOM     23  C   UNL A   1      39.119  22.649  26.462  1.00  0.00     0.251 C 
ATOM     24  H   UNL A   1      37.627  21.424  25.957  1.00  0.00     0.163 HD
ATOM     25  O   UNL A   1      39.944  21.740  26.478  1.00  0.00    -0.269 OA
BRANCH  23  26
ATOM     26  C   UNL A   1      39.512  24.011  26.884  1.00  0.00     0.039 A 
ATOM     27  C   UNL A   1      39.304  24.391  28.215  1.00  0.00     0.014 A 
ATOM     28  C   UNL A   1      40.031  24.934  25.972  1.00  0.00     0.014 A 
ATOM     29  C   UNL A   1      39.661  25.673  28.639  1.00  0.00     0.010 A 
ATOM     30  C   UNL A   1      40.459  26.184  26.413  1.00  0.00     0.010 A 
ATOM     31  C   UNL A   1      40.265  26.573  27.747  1.00  0.00    -0.014 A 
BRANCH  31  32
ATOM     32  C   UNL A   1      40.699  27.924  28.188  1.00  0.00     0.031 A 
ATOM     33  C   UNL A   1      42.162  28.282  28.214  1.00  0.00     0.074 A 
ATOM     34  C   UNL A   1      39.782  28.801  28.642  1.00  0.00     0.049 A 
ATOM     35  N   UNL A   1      42.734  29.383  28.625  1.00  0.00    -0.248 NA
ATOM     36  C   UNL A   1      43.108  27.256  27.743  1.00  0.00     0.031 C 
ATOM     37  C   UNL A   1      38.343  28.549  28.735  1.00  0.00     0.029 A 
ATOM     38  N   UNL A   1      39.928  30.074  29.138  1.00  0.00    -0.354 N 
ATOM     39  C   UNL A   1      44.102  29.173  28.499  1.00  0.00     0.074 A 
ATOM     40  C   UNL A   1      44.276  27.824  28.005  1.00  0.00     0.031 C 
ATOM     41  C   UNL A   1      37.739  29.630  29.252  1.00  0.00     0.029 A 
ATOM     42  C   UNL A   1      38.746  30.639  29.560  1.00  0.00     0.049 A 
ATOM     43  H   UNL A   1      40.795  30.537  29.187  1.00  0.00     0.167 HD
ATOM     44  C   UNL A   1      45.120  30.031  28.745  1.00  0.00     0.034 A 
ATOM     45  C   UNL A   1      38.504  31.832  30.140  1.00  0.00     0.034 A 
ATOM     46  C   UNL A   1      44.941  31.383  29.198  1.00  0.00     0.049 A 
ATOM     47  C   UNL A   1      39.649  32.778  30.371  1.00  0.00     0.074 A 
ATOM     48  C   UNL A   1      45.902  32.359  29.394  1.00  0.00     0.029 A 
ATOM     49  N   UNL A   1      43.722  31.950  29.535  1.00  0.00    -0.354 N 
ATOM     50  N   UNL A   1      40.922  32.615  30.100  1.00  0.00    -0.248 NA
ATOM     51  C   UNL A   1      39.322  34.089  30.950  1.00  0.00     0.031 C 
ATOM     52  C   UNL A   1      45.266  33.507  29.879  1.00  0.00     0.029 A 
ATOM     53  C   UNL A   1      43.905  33.258  29.949  1.00  0.00     0.049 A 
ATOM     54  H   UNL A   1      42.853  31.489  29.487  1.00  0.00     0.167 HD
ATOM     55  C   UNL A   1      41.541  33.814  30.439  1.00  0.00     0.074 A 
ATOM     56  C   UNL A   1      40.499  34.700  30.916  1.00  0.00     0.031 C 
ATOM     57  C   UNL A   1      42.854  34.147  30.371  1.00  0.00     0.034 A 
BRANCH  44  58
ATOM     58  C   UNL A   1      46.524  29.546  28.486  1.00  0.00     0.023 A 
ATOM     59  C   UNL A   1      47.107  29.737  27.216  1.00  0.00     0.012 A 
ATOM     60  C   UNL A   1      47.289  28.956  29.512  1.00  0.00     0.148 A 
ATOM     61  C   UNL A   1      48.410  29.316  26.959  1.00  0.00     0.002 A 
ATOM     62  C   UNL A   1      48.605  28.583  29.263  1.00  0.00     0.091 A 
ATOM     63  F   UNL A   1      46.714  28.765  30.708  1.00  0.00    -0.205 F 
ATOM     64  C   UNL A   1      49.161  28.748  27.984  1.00  0.00     0.022 A 
BRANCH  62  65
ATOM     65  S   UNL A   1      49.683  27.921  30.538  1.00  0.00     0.127 S 
ATOM     66  O   UNL A   1      49.637  28.982  31.543  1.00  0.00    -0.237 OA
ATOM     67  O   UNL A   1      48.988  26.691  30.919  1.00  0.00    -0.237 OA
ATOM     68  O   UNL A   1      50.977  27.717  29.904  1.00  0.00    -0.744 OA
ENDBRANCH  62  65
ENDBRANCH  44  58
BRANCH  45  69
ATOM     69  C   UNL A   1      37.107  32.220  30.486  1.00  0.00     0.023 A 
ATOM     70  C   UNL A   1      36.629  31.997  31.793  1.00  0.00     0.012 A 
ATOM     71  C   UNL A   1      36.259  32.829  29.540  1.00  0.00     0.148 A 
ATOM     72  C   UNL A   1      35.322  32.338  32.141  1.00  0.00     0.002 A 
ATOM     73  C   UNL A   1      34.978  33.219  29.909  1.00  0.00     0.091 A 
ATOM     74  F   UNL A   1      36.730  33.026  28.300  1.00  0.00    -0.205 F 
ATOM     75  C   UNL A   1      34.500  32.957  31.202  1.00  0.00     0.022 A 
BRANCH  73  76
ATOM     76  S   UNL A   1      33.899  34.145  28.810  1.00  0.00     0.127 S 
ATOM     77  O   UNL A   1      34.794  35.193  28.326  1.00  0.00    -0.237 OA
ATOM     78  O   UNL A   1      33.540  33.133  27.817  1.00  0.00    -0.237 OA
ATOM     79  O   UNL A   1      32.786  34.594  29.635  1.00  0.00    -0.744 OA
ENDBRANCH  73  76
ENDBRANCH  45  69
BRANCH  57  80
ATOM     80  C   UNL A   1      43.243  35.545  30.776  1.00  0.00     0.023 A 
ATOM     81  C   UNL A   1      43.597  35.821  32.111  1.00  0.00     0.012 A 
ATOM     82  C   UNL A   1      43.330  36.569  29.811  1.00  0.00     0.148 A 
ATOM     83  C   UNL A   1      43.999  37.102  32.487  1.00  0.00     0.002 A 
ATOM     84  C   UNL A   1      43.781  37.829  30.183  1.00  0.00     0.091 A 
ATOM     85  F   UNL A   1      42.971  36.291  28.549  1.00  0.00    -0.205 F 
ATOM     86  C   UNL A   1      44.102  38.102  31.523  1.00  0.00     0.022 A 
BRANCH  84  87
ATOM     87  S   UNL A   1      44.041  39.148  28.992  1.00  0.00     0.127 S 
ATOM     88  O   UNL A   1      42.676  39.416  28.541  1.00  0.00    -0.237 OA
ATOM     89  O   UNL A   1      44.627  40.202  29.821  1.00  0.00    -0.237 OA
ATOM     90  O   UNL A   1      44.938  38.606  27.981  1.00  0.00    -0.744 OA
ENDBRANCH  84  87
ENDBRANCH  57  80
ENDBRANCH  31  32
ENDBRANCH  23  26
ENDBRANCH  21  22
ENDBRANCH  20  21
ENDBRANCH   1  20
TORSDOF 18
ENDMDL
MODEL 3
REMARK VINA RESULT:     -10.7      5.391      8.365
REMARK SMILES COCCS(=O)(=O)N[C@@H]1C=C[C@@H](C(=O)NCCCNC(=O)c2ccc(-c3c4nc(c(-c5cccc(S(=O)(=O)[O-])c5F)c5ccc([nH]5)c(-c5cccc(S(=O)(=O)[O-])c5F)c5nc(c(-c6cccc(S(=O)(=O)[O-])c6F)c6ccc3[nH]6)C=C5)C=C4)cc2)C1
REMARK SMILES IDX 16 1 15 2 13 3 14 4 12 6 9 7 10 8 85 9 11 10 8 11 5 13 6 14
REMARK SMILES IDX 7 15 4 16 3 17 2 18 1 19 17 20 18 21 19 22 20 23 21 25 22 26
REMARK SMILES IDX 23 27 84 28 24 29 83 30 25 31 26 32 27 33 77 34 28 35 82 36
REMARK SMILES IDX 76 37 78 38 29 39 81 40 75 41 74 42 30 44 62 45 42 46 61 47
REMARK SMILES IDX 43 48 46 49 60 50 79 51 44 52 45 53 59 55 80 56 47 57 31 58
REMARK SMILES IDX 32 59 40 60 33 61 35 62 41 63 34 64 36 65 37 66 38 67 39 68
REMARK SMILES IDX 63 69 64 70 72 71 65 72 67 73 73 74 66 75 68 76 69 77 70 78
REMARK SMILES IDX 71 79 48 80 49 81 57 82 50 83 52 84 58 85 51 86 53 87 54 88
REMARK SMILES IDX 55 89 56 90
REMARK H PARENT 15 5 8 12 19 24 78 43 46 54
REMARK Flexibility Score: inf
ROOT
ATOM      1  C   UNL A   1      33.004  26.442  26.068  1.00  0.00     0.117 C 
ENDROOT
BRANCH   1   2
ATOM      2  N   UNL A   1      31.916  25.609  26.547  1.00  0.00    -0.356 N 
ATOM      3  C   UNL A   1      30.812  25.123  25.913  1.00  0.00     0.226 C 
ATOM      4  O   UNL A   1      30.133  24.293  26.526  1.00  0.00    -0.274 OA
ATOM      5  H   UNL A   1      31.988  25.349  27.495  1.00  0.00     0.163 HD
BRANCH   3   6
ATOM      6  C   UNL A   1      30.375  25.599  24.525  1.00  0.00     0.103 C 
ATOM      7  C   UNL A   1      30.527  27.753  23.333  1.00  0.00     0.093 C 
ATOM      8  C   UNL A   1      31.425  26.703  22.745  1.00  0.00    -0.011 C 
ATOM      9  C   UNL A   1      29.920  27.052  24.544  1.00  0.00     0.042 C 
ATOM     10  C   UNL A   1      31.381  25.548  23.422  1.00  0.00    -0.016 C 
BRANCH   7  11
ATOM     11  N   UNL A   1      29.622  28.213  22.291  1.00  0.00    -0.208 NA
ATOM     12  H   UNL A   1      30.226  28.672  21.609  1.00  0.00     0.141 HD
BRANCH  11  13
ATOM     13  S   UNL A   1      28.320  29.223  22.439  1.00  0.00     0.214 S 
ATOM     14  O   UNL A   1      27.204  28.493  23.006  1.00  0.00    -0.212 OA
ATOM     15  O   UNL A   1      28.187  29.801  21.118  1.00  0.00    -0.212 OA
BRANCH  13  16
ATOM     16  C   UNL A   1      28.762  30.582  23.518  1.00  0.00     0.182 C 
BRANCH  16  17
ATOM     17  C   UNL A   1      27.688  31.604  23.825  1.00  0.00     0.177 C 
BRANCH  17  18
ATOM     18  O   UNL A   1      27.747  32.802  23.053  1.00  0.00    -0.384 OA
ATOM     19  C   UNL A   1      28.949  32.996  22.321  1.00  0.00     0.194 C 
ENDBRANCH  17  18
ENDBRANCH  16  17
ENDBRANCH  13  16
ENDBRANCH  11  13
ENDBRANCH   7  11
ENDBRANCH   3   6
ENDBRANCH   1   2
BRANCH   1  20
ATOM     20  C   UNL A   1      32.845  27.920  26.420  1.00  0.00     0.042 C 
BRANCH  20  21
ATOM     21  C   UNL A   1      34.056  28.791  26.107  1.00  0.00     0.118 C 
BRANCH  21  22
ATOM     22  N   UNL A   1      33.896  30.162  26.572  1.00  0.00    -0.352 N 
ATOM     23  C   UNL A   1      34.601  30.874  27.509  1.00  0.00     0.251 C 
ATOM     24  H   UNL A   1      33.161  30.659  26.144  1.00  0.00     0.163 HD
ATOM     25  O   UNL A   1      34.157  31.951  27.898  1.00  0.00    -0.269 OA
BRANCH  23  26
ATOM     26  C   UNL A   1      35.877  30.360  28.053  1.00  0.00     0.039 A 
ATOM     27  C   UNL A   1      35.866  29.696  29.284  1.00  0.00     0.014 A 
ATOM     28  C   UNL A   1      37.088  30.572  27.389  1.00  0.00     0.014 A 
ATOM     29  C   UNL A   1      37.057  29.206  29.824  1.00  0.00     0.010 A 
ATOM     30  C   UNL A   1      38.263  30.014  27.889  1.00  0.00     0.010 A 
ATOM     31  C   UNL A   1      38.263  29.338  29.118  1.00  0.00    -0.014 A 
BRANCH  31  32
ATOM     32  C   UNL A   1      39.534  28.780  29.648  1.00  0.00     0.031 A 
ATOM     33  C   UNL A   1      40.237  29.450  30.799  1.00  0.00     0.074 A 
ATOM     34  C   UNL A   1      40.097  27.716  29.042  1.00  0.00     0.049 A 
ATOM     35  N   UNL A   1      41.381  29.149  31.355  1.00  0.00    -0.248 NA
ATOM     36  C   UNL A   1      39.582  30.634  31.382  1.00  0.00     0.031 C 
ATOM     37  C   UNL A   1      39.552  27.021  27.874  1.00  0.00     0.029 A 
ATOM     38  N   UNL A   1      41.269  27.050  29.306  1.00  0.00    -0.354 N 
ATOM     39  C   UNL A   1      41.603  30.121  32.324  1.00  0.00     0.074 A 
ATOM     40  C   UNL A   1      40.489  31.042  32.258  1.00  0.00     0.031 C 
ATOM     41  C   UNL A   1      40.384  26.027  27.525  1.00  0.00     0.029 A 
ATOM     42  C   UNL A   1      41.538  26.033  28.419  1.00  0.00     0.049 A 
ATOM     43  H   UNL A   1      41.861  27.279  30.059  1.00  0.00     0.167 HD
ATOM     44  C   UNL A   1      42.623  30.222  33.207  1.00  0.00     0.034 A 
ATOM     45  C   UNL A   1      42.598  25.207  28.328  1.00  0.00     0.034 A 
ATOM     46  C   UNL A   1      43.707  29.282  33.297  1.00  0.00     0.049 A 
ATOM     47  C   UNL A   1      43.702  25.320  29.344  1.00  0.00     0.074 A 
ATOM     48  C   UNL A   1      44.744  29.249  34.213  1.00  0.00     0.029 A 
ATOM     49  N   UNL A   1      43.902  28.215  32.435  1.00  0.00    -0.354 N 
ATOM     50  N   UNL A   1      43.815  26.154  30.350  1.00  0.00    -0.248 NA
ATOM     51  C   UNL A   1      44.807  24.356  29.237  1.00  0.00     0.031 C 
ATOM     52  C   UNL A   1      45.582  28.178  33.885  1.00  0.00     0.029 A 
ATOM     53  C   UNL A   1      45.047  27.522  32.788  1.00  0.00     0.049 A 
ATOM     54  H   UNL A   1      43.312  27.983  31.681  1.00  0.00     0.167 HD
ATOM     55  C   UNL A   1      44.979  25.790  31.018  1.00  0.00     0.074 A 
ATOM     56  C   UNL A   1      45.525  24.648  30.312  1.00  0.00     0.031 C 
ATOM     57  C   UNL A   1      45.550  26.356  32.110  1.00  0.00     0.034 A 
BRANCH  44  58
ATOM     58  C   UNL A   1      42.595  31.372  34.183  1.00  0.00     0.023 A 
ATOM     59  C   UNL A   1      43.416  32.497  33.962  1.00  0.00     0.012 A 
ATOM     60  C   UNL A   1      41.717  31.366  35.285  1.00  0.00     0.148 A 
ATOM     61  C   UNL A   1      43.393  33.579  34.839  1.00  0.00     0.002 A 
ATOM     62  C   UNL A   1      41.663  32.470  36.129  1.00  0.00     0.091 A 
ATOM     63  F   UNL A   1      40.958  30.280  35.492  1.00  0.00    -0.205 F 
ATOM     64  C   UNL A   1      42.510  33.570  35.916  1.00  0.00     0.022 A 
BRANCH  62  65
ATOM     65  S   UNL A   1      40.503  32.591  37.494  1.00  0.00     0.127 S 
ATOM     66  O   UNL A   1      41.321  32.138  38.618  1.00  0.00    -0.237 OA
ATOM     67  O   UNL A   1      40.191  34.021  37.505  1.00  0.00    -0.237 OA
ATOM     68  O   UNL A   1      39.384  31.727  37.149  1.00  0.00    -0.744 OA
ENDBRANCH  62  65
ENDBRANCH  44  58
BRANCH  45  69
ATOM     69  C   UNL A   1      42.636  24.158  27.270  1.00  0.00     0.023 A 
ATOM     70  C   UNL A   1      43.333  24.408  26.071  1.00  0.00     0.012 A 
ATOM     71  C   UNL A   1      42.009  22.910  27.452  1.00  0.00     0.148 A 
ATOM     72  C   UNL A   1      43.373  23.450  25.058  1.00  0.00     0.002 A 
ATOM     73  C   UNL A   1      42.102  21.938  26.463  1.00  0.00     0.091 A 
ATOM     74  F   UNL A   1      41.344  22.694  28.596  1.00  0.00    -0.205 F 
ATOM     75  C   UNL A   1      42.766  22.211  25.257  1.00  0.00     0.022 A 
BRANCH  73  76
ATOM     76  S   UNL A   1      41.470  20.271  26.689  1.00  0.00     0.127 S 
ATOM     77  O   UNL A   1      41.872  19.627  25.441  1.00  0.00    -0.237 OA
ATOM     78  O   UNL A   1      42.203  19.828  27.875  1.00  0.00    -0.237 OA
ATOM     79  O   UNL A   1      40.036  20.416  26.893  1.00  0.00    -0.744 OA
ENDBRANCH  73  76
ENDBRANCH  45  69
BRANCH  57  80
ATOM     80  C   UNL A   1      46.809  25.725  32.647  1.00  0.00     0.023 A 
ATOM     81  C   UNL A   1      46.745  24.845  33.745  1.00  0.00     0.012 A 
ATOM     82  C   UNL A   1      48.046  25.948  32.010  1.00  0.00     0.148 A 
ATOM     83  C   UNL A   1      47.898  24.224  34.223  1.00  0.00     0.002 A 
ATOM     84  C   UNL A   1      49.181  25.286  32.460  1.00  0.00     0.091 A 
ATOM     85  F   UNL A   1      48.090  26.803  30.978  1.00  0.00    -0.205 F 
ATOM     86  C   UNL A   1      49.112  24.434  33.574  1.00  0.00     0.022 A 
BRANCH  84  87
ATOM     87  S   UNL A   1      50.767  25.417  31.625  1.00  0.00     0.127 S 
ATOM     88  O   UNL A   1      51.100  26.825  31.838  1.00  0.00    -0.237 OA
ATOM     89  O   UNL A   1      51.593  24.474  32.380  1.00  0.00    -0.237 OA
ATOM     90  O   UNL A   1      50.525  25.034  30.240  1.00  0.00    -0.744 OA
ENDBRANCH  84  87
ENDBRANCH  57  80
ENDBRANCH  31  32
ENDBRANCH  23  26
ENDBRANCH  21  22
ENDBRANCH  20  21
ENDBRANCH   1  20
TORSDOF 18
ENDMDL
