MODEL 1
REMARK VINA RESULT:     -13.6      0.000      0.000
REMARK SMILES Cc1c(CC(=O)NCCCNC(=O)c2ccc(-c3c4nc(c(-c5cccc(S(=O)(=O)[O-])c5F)c5ccc([nH]5)c(-c5cccc(S(=O)(=O)[O-])c5F)c5nc(c(-c6cccc(S(=O)(=O)[O-])c6F)c6ccc3[nH]6)C=C5)C=C4)cc2)cc(-c2ccccc2)cc1-c1ccccc1
REMARK SMILES IDX 9 1 8 2 7 3 5 4 6 5 4 7 3 8 1 9 2 10 86 11 77 12 85 13 78 14
REMARK SMILES IDX 87 15 88 16 92 17 89 18 91 19 90 20 79 21 80 22 84 23 81 24
REMARK SMILES IDX 83 25 82 26 10 27 11 28 12 29 13 31 14 32 15 33 76 34 16 35
REMARK SMILES IDX 75 36 17 37 18 38 19 39 69 40 20 41 74 42 68 43 70 44 21 45
REMARK SMILES IDX 73 46 67 47 66 48 22 50 54 51 34 52 53 53 35 54 38 55 52 56
REMARK SMILES IDX 71 57 36 58 37 59 51 61 72 62 39 63 23 64 24 65 32 66 25 67
REMARK SMILES IDX 27 68 33 69 26 70 28 71 29 72 30 73 31 74 55 75 56 76 64 77
REMARK SMILES IDX 57 78 59 79 65 80 58 81 60 82 61 83 62 84 63 85 40 86 41 87
REMARK SMILES IDX 49 88 42 89 44 90 50 91 43 92 45 93 46 94 47 95 48 96
REMARK H PARENT 7 6 11 30 70 49 38 60
REMARK Flexibility Score: inf
ROOT
ATOM      1  C   UNL A   1      40.603  20.276  26.980  1.00  0.00     0.042 C 
ENDROOT
BRANCH   1   2
ATOM      2  C   UNL A   1      39.736  20.937  25.914  1.00  0.00     0.117 C 
BRANCH   2   3
ATOM      3  N   UNL A   1      38.992  22.082  26.413  1.00  0.00    -0.356 N 
ATOM      4  C   UNL A   1      37.906  22.716  25.874  1.00  0.00     0.224 C 
ATOM      5  O   UNL A   1      37.403  23.656  26.496  1.00  0.00    -0.275 OA
ATOM      6  H   UNL A   1      39.316  22.455  27.265  1.00  0.00     0.163 HD
BRANCH   4   7
ATOM      7  C   UNL A   1      37.313  22.263  24.542  1.00  0.00     0.135 C 
BRANCH   7   8
ATOM      8  C   UNL A   1      35.890  21.739  24.651  1.00  0.00    -0.035 A 
ATOM      9  C   UNL A   1      36.652  19.326  24.963  1.00  0.00     0.045 C 
ATOM     10  C   UNL A   1      35.567  20.360  24.772  1.00  0.00    -0.040 A 
ATOM     11  C   UNL A   1      34.203  19.960  24.716  1.00  0.00    -0.015 A 
ATOM     12  C   UNL A   1      34.849  22.687  24.560  1.00  0.00     0.013 A 
ATOM     13  C   UNL A   1      33.203  20.948  24.597  1.00  0.00     0.017 A 
ATOM     14  C   UNL A   1      33.501  22.314  24.535  1.00  0.00    -0.017 A 
BRANCH  11  15
ATOM     15  C   UNL A   1      33.778  18.547  24.706  1.00  0.00    -0.018 A 
ATOM     16  C   UNL A   1      34.297  17.657  23.747  1.00  0.00     0.009 A 
ATOM     17  C   UNL A   1      32.863  18.047  25.645  1.00  0.00     0.009 A 
ATOM     18  C   UNL A   1      33.924  16.310  23.738  1.00  0.00     0.001 A 
ATOM     19  C   UNL A   1      32.500  16.697  25.646  1.00  0.00     0.001 A 
ATOM     20  C   UNL A   1      33.030  15.830  24.692  1.00  0.00     0.000 A 
ENDBRANCH  11  15
BRANCH  14  21
ATOM     21  C   UNL A   1      32.431  23.322  24.441  1.00  0.00    -0.018 A 
ATOM     22  C   UNL A   1      31.460  23.266  23.430  1.00  0.00     0.009 A 
ATOM     23  C   UNL A   1      32.364  24.379  25.365  1.00  0.00     0.009 A 
ATOM     24  C   UNL A   1      30.458  24.237  23.340  1.00  0.00     0.001 A 
ATOM     25  C   UNL A   1      31.366  25.353  25.274  1.00  0.00     0.001 A 
ATOM     26  C   UNL A   1      30.414  25.282  24.260  1.00  0.00     0.000 A 
ENDBRANCH  14  21
ENDBRANCH   7   8
ENDBRANCH   4   7
ENDBRANCH   2   3
ENDBRANCH   1   2
BRANCH   1  27
ATOM     27  C   UNL A   1      42.060  20.701  26.952  1.00  0.00     0.118 C 
BRANCH  27  28
ATOM     28  N   UNL A   1      42.838  20.045  25.913  1.00  0.00    -0.352 N 
ATOM     29  C   UNL A   1      43.788  20.585  25.056  1.00  0.00     0.251 C 
ATOM     30  H   UNL A   1      42.667  19.082  25.800  1.00  0.00     0.163 HD
ATOM     31  O   UNL A   1      44.230  19.909  24.152  1.00  0.00    -0.269 OA
BRANCH  29  32
ATOM     32  C   UNL A   1      44.315  21.945  25.341  1.00  0.00     0.039 A 
ATOM     33  C   UNL A   1      45.171  22.100  26.439  1.00  0.00     0.014 A 
ATOM     34  C   UNL A   1      43.814  23.062  24.679  1.00  0.00     0.014 A 
ATOM     35  C   UNL A   1      45.325  23.358  27.020  1.00  0.00     0.010 A 
ATOM     36  C   UNL A   1      43.892  24.291  25.299  1.00  0.00     0.010 A 
ATOM     37  C   UNL A   1      44.591  24.422  26.505  1.00  0.00    -0.014 A 
BRANCH  37  38
ATOM     38  C   UNL A   1      44.388  25.691  27.188  1.00  0.00     0.031 A 
ATOM     39  C   UNL A   1      43.063  26.338  27.205  1.00  0.00     0.074 A 
ATOM     40  C   UNL A   1      45.371  26.135  27.999  1.00  0.00     0.049 A 
ATOM     41  N   UNL A   1      42.853  27.557  27.573  1.00  0.00    -0.248 NA
ATOM     42  C   UNL A   1      41.859  25.647  26.768  1.00  0.00     0.031 C 
ATOM     43  C   UNL A   1      45.241  27.067  29.112  1.00  0.00     0.029 A 
ATOM     44  N   UNL A   1      46.753  25.980  27.836  1.00  0.00    -0.354 N 
ATOM     45  C   UNL A   1      41.489  27.725  27.692  1.00  0.00     0.074 A 
ATOM     46  C   UNL A   1      40.919  26.534  27.105  1.00  0.00     0.031 C 
ATOM     47  C   UNL A   1      46.442  27.612  29.355  1.00  0.00     0.029 A 
ATOM     48  C   UNL A   1      47.333  27.176  28.294  1.00  0.00     0.049 A 
ATOM     49  H   UNL A   1      47.222  25.193  27.476  1.00  0.00     0.167 HD
ATOM     50  C   UNL A   1      41.009  28.782  28.410  1.00  0.00     0.034 A 
ATOM     51  C   UNL A   1      48.105  27.993  27.522  1.00  0.00     0.034 A 
ATOM     52  C   UNL A   1      42.103  29.651  28.865  1.00  0.00     0.049 A 
ATOM     53  C   UNL A   1      47.577  29.413  27.431  1.00  0.00     0.074 A 
ATOM     54  C   UNL A   1      42.791  29.755  30.065  1.00  0.00     0.029 A 
ATOM     55  N   UNL A   1      42.817  30.401  27.940  1.00  0.00    -0.354 N 
ATOM     56  N   UNL A   1      46.438  29.806  27.930  1.00  0.00    -0.248 NA
ATOM     57  C   UNL A   1      48.271  30.494  26.737  1.00  0.00     0.031 C 
ATOM     58  C   UNL A   1      43.972  30.507  29.831  1.00  0.00     0.029 A 
ATOM     59  C   UNL A   1      43.991  30.882  28.498  1.00  0.00     0.049 A 
ATOM     60  H   UNL A   1      42.528  30.568  27.013  1.00  0.00     0.167 HD
ATOM     61  C   UNL A   1      46.163  31.083  27.514  1.00  0.00     0.074 A 
ATOM     62  C   UNL A   1      47.386  31.501  26.853  1.00  0.00     0.031 C 
ATOM     63  C   UNL A   1      44.927  31.650  27.683  1.00  0.00     0.034 A 
BRANCH  50  64
ATOM     64  C   UNL A   1      39.602  28.874  28.983  1.00  0.00     0.023 A 
ATOM     65  C   UNL A   1      38.539  29.081  28.072  1.00  0.00     0.012 A 
ATOM     66  C   UNL A   1      39.238  28.852  30.347  1.00  0.00     0.148 A 
ATOM     67  C   UNL A   1      37.235  29.376  28.485  1.00  0.00     0.002 A 
ATOM     68  C   UNL A   1      37.958  29.228  30.767  1.00  0.00     0.091 A 
ATOM     69  F   UNL A   1      40.090  28.366  31.254  1.00  0.00    -0.205 F 
ATOM     70  C   UNL A   1      36.952  29.497  29.836  1.00  0.00     0.022 A 
BRANCH  68  71
ATOM     71  S   UNL A   1      37.555  29.491  32.504  1.00  0.00     0.127 S 
ATOM     72  O   UNL A   1      36.255  30.161  32.423  1.00  0.00    -0.237 OA
ATOM     73  O   UNL A   1      37.505  28.129  33.028  1.00  0.00    -0.237 OA
ATOM     74  O   UNL A   1      38.620  30.333  33.038  1.00  0.00    -0.744 OA
ENDBRANCH  68  71
ENDBRANCH  50  64
BRANCH  51  75
ATOM     75  C   UNL A   1      48.867  27.276  26.460  1.00  0.00     0.023 A 
ATOM     76  C   UNL A   1      48.371  27.388  25.139  1.00  0.00     0.012 A 
ATOM     77  C   UNL A   1      50.195  26.861  26.654  1.00  0.00     0.148 A 
ATOM     78  C   UNL A   1      49.209  27.206  24.038  1.00  0.00     0.002 A 
ATOM     79  C   UNL A   1      51.029  26.689  25.549  1.00  0.00     0.091 A 
ATOM     80  F   UNL A   1      50.648  26.729  27.908  1.00  0.00    -0.205 F 
ATOM     81  C   UNL A   1      50.546  26.889  24.246  1.00  0.00     0.022 A 
BRANCH  79  82
ATOM     82  S   UNL A   1      52.788  26.361  25.731  1.00  0.00     0.127 S 
ATOM     83  O   UNL A   1      53.206  27.468  26.585  1.00  0.00    -0.237 OA
ATOM     84  O   UNL A   1      52.794  25.048  26.375  1.00  0.00    -0.237 OA
ATOM     85  O   UNL A   1      53.310  26.360  24.372  1.00  0.00    -0.744 OA
ENDBRANCH  79  82
ENDBRANCH  51  75
BRANCH  63  86
ATOM     86  C   UNL A   1      44.458  32.956  27.067  1.00  0.00     0.023 A 
ATOM     87  C   UNL A   1      44.159  33.081  25.697  1.00  0.00     0.012 A 
ATOM     88  C   UNL A   1      44.143  34.071  27.889  1.00  0.00     0.148 A 
ATOM     89  C   UNL A   1      43.627  34.259  25.158  1.00  0.00     0.002 A 
ATOM     90  C   UNL A   1      43.512  35.199  27.366  1.00  0.00     0.091 A 
ATOM     91  F   UNL A   1      44.468  34.056  29.190  1.00  0.00    -0.205 F 
ATOM     92  C   UNL A   1      43.278  35.309  25.996  1.00  0.00     0.022 A 
BRANCH  90  93
ATOM     93  S   UNL A   1      42.836  36.455  28.462  1.00  0.00     0.127 S 
ATOM     94  O   UNL A   1      41.936  37.188  27.575  1.00  0.00    -0.237 OA
ATOM     95  O   UNL A   1      42.159  35.656  29.488  1.00  0.00    -0.237 OA
ATOM     96  O   UNL A   1      44.002  37.180  28.949  1.00  0.00    -0.744 OA
ENDBRANCH  90  93
ENDBRANCH  63  86
ENDBRANCH  37  38
ENDBRANCH  29  32
ENDBRANCH  27  28
ENDBRANCH   1  27
TORSDOF 16
ENDMDL
MODEL 2
REMARK VINA RESULT:     -13.5      5.804     11.677
REMARK SMILES Cc1c(CC(=O)NCCCNC(=O)c2ccc(-c3c4nc(c(-c5cccc(S(=O)(=O)[O-])c5F)c5ccc([nH]5)c(-c5cccc(S(=O)(=O)[O-])c5F)c5nc(c(-c6cccc(S(=O)(=O)[O-])c6F)c6ccc3[nH]6)C=C5)C=C4)cc2)cc(-c2ccccc2)cc1-c1ccccc1
REMARK SMILES IDX 9 1 8 2 7 3 5 4 6 5 4 7 3 8 1 9 2 10 86 11 77 12 85 13 78 14
REMARK SMILES IDX 87 15 88 16 92 17 89 18 91 19 90 20 79 21 80 22 84 23 81 24
REMARK SMILES IDX 83 25 82 26 10 27 11 28 12 29 13 31 14 32 15 33 76 34 16 35
REMARK SMILES IDX 75 36 17 37 18 38 19 39 69 40 20 41 74 42 68 43 70 44 21 45
REMARK SMILES IDX 73 46 67 47 66 48 22 50 54 51 34 52 53 53 35 54 38 55 52 56
REMARK SMILES IDX 71 57 36 58 37 59 51 61 72 62 39 63 23 64 24 65 32 66 25 67
REMARK SMILES IDX 27 68 33 69 26 70 28 71 29 72 30 73 31 74 55 75 56 76 64 77
REMARK SMILES IDX 57 78 59 79 65 80 58 81 60 82 61 83 62 84 63 85 40 86 41 87
REMARK SMILES IDX 49 88 42 89 44 90 50 91 43 92 45 93 46 94 47 95 48 96
REMARK H PARENT 7 6 11 30 70 49 38 60
REMARK Flexibility Score: inf
ROOT
ATOM      1  C   UNL A   1      33.689  33.586  28.037  1.00  0.00     0.042 C 
ENDROOT
BRANCH   1   2
ATOM      2  C   UNL A   1      33.479  32.080  27.912  1.00  0.00     0.117 C 
BRANCH   2   3
ATOM      3  N   UNL A   1      34.700  31.358  27.594  1.00  0.00    -0.356 N 
ATOM      4  C   UNL A   1      34.896  30.016  27.418  1.00  0.00     0.224 C 
ATOM      5  O   UNL A   1      36.024  29.620  27.110  1.00  0.00    -0.275 OA
ATOM      6  H   UNL A   1      35.504  31.918  27.490  1.00  0.00     0.163 HD
BRANCH   4   7
ATOM      7  C   UNL A   1      33.745  29.026  27.577  1.00  0.00     0.135 C 
BRANCH   7   8
ATOM      8  C   UNL A   1      33.284  28.405  26.268  1.00  0.00    -0.035 A 
ATOM      9  C   UNL A   1      31.632  30.287  25.791  1.00  0.00     0.045 C 
ATOM     10  C   UNL A   1      32.245  28.945  25.463  1.00  0.00    -0.040 A 
ATOM     11  C   UNL A   1      31.788  28.208  24.336  1.00  0.00    -0.015 A 
ATOM     12  C   UNL A   1      33.894  27.190  25.886  1.00  0.00     0.013 A 
ATOM     13  C   UNL A   1      32.415  26.986  24.014  1.00  0.00     0.017 A 
ATOM     14  C   UNL A   1      33.478  26.468  24.762  1.00  0.00    -0.017 A 
BRANCH  11  15
ATOM     15  C   UNL A   1      30.633  28.626  23.516  1.00  0.00    -0.018 A 
ATOM     16  C   UNL A   1      29.354  28.097  23.770  1.00  0.00     0.009 A 
ATOM     17  C   UNL A   1      30.768  29.558  22.476  1.00  0.00     0.009 A 
ATOM     18  C   UNL A   1      28.246  28.498  23.020  1.00  0.00     0.001 A 
ATOM     19  C   UNL A   1      29.658  29.972  21.734  1.00  0.00     0.001 A 
ATOM     20  C   UNL A   1      28.398  29.441  22.007  1.00  0.00     0.000 A 
ENDBRANCH  11  15
BRANCH  14  21
ATOM     21  C   UNL A   1      34.130  25.204  24.382  1.00  0.00    -0.018 A 
ATOM     22  C   UNL A   1      33.758  24.509  23.221  1.00  0.00     0.009 A 
ATOM     23  C   UNL A   1      35.143  24.654  25.186  1.00  0.00     0.009 A 
ATOM     24  C   UNL A   1      34.373  23.300  22.878  1.00  0.00     0.001 A 
ATOM     25  C   UNL A   1      35.756  23.445  24.847  1.00  0.00     0.001 A 
ATOM     26  C   UNL A   1      35.369  22.768  23.694  1.00  0.00     0.000 A 
ENDBRANCH  14  21
ENDBRANCH   7   8
ENDBRANCH   4   7
ENDBRANCH   2   3
ENDBRANCH   1   2
BRANCH   1  27
ATOM     27  C   UNL A   1      34.442  34.009  29.285  1.00  0.00     0.118 C 
BRANCH  27  28
ATOM     28  N   UNL A   1      33.584  34.554  30.325  1.00  0.00    -0.352 N 
ATOM     29  C   UNL A   1      33.756  34.536  31.703  1.00  0.00     0.251 C 
ATOM     30  H   UNL A   1      32.764  34.997  30.009  1.00  0.00     0.163 HD
ATOM     31  O   UNL A   1      32.858  34.916  32.423  1.00  0.00    -0.269 OA
BRANCH  29  32
ATOM     32  C   UNL A   1      35.084  34.152  32.251  1.00  0.00     0.039 A 
ATOM     33  C   UNL A   1      36.208  34.852  31.796  1.00  0.00     0.014 A 
ATOM     34  C   UNL A   1      35.236  33.004  33.023  1.00  0.00     0.014 A 
ATOM     35  C   UNL A   1      37.471  34.271  31.903  1.00  0.00     0.010 A 
ATOM     36  C   UNL A   1      36.468  32.385  33.054  1.00  0.00     0.010 A 
ATOM     37  C   UNL A   1      37.569  32.988  32.435  1.00  0.00    -0.014 A 
BRANCH  37  38
ATOM     38  C   UNL A   1      38.738  32.131  32.311  1.00  0.00     0.031 A 
ATOM     39  C   UNL A   1      38.680  30.876  31.537  1.00  0.00     0.074 A 
ATOM     40  C   UNL A   1      39.928  32.626  32.713  1.00  0.00     0.049 A 
ATOM     41  N   UNL A   1      39.582  29.956  31.575  1.00  0.00    -0.248 NA
ATOM     42  C   UNL A   1      37.556  30.555  30.670  1.00  0.00     0.031 C 
ATOM     43  C   UNL A   1      41.252  32.197  32.280  1.00  0.00     0.029 A 
ATOM     44  N   UNL A   1      40.178  33.499  33.778  1.00  0.00    -0.354 N 
ATOM     45  C   UNL A   1      39.313  29.070  30.553  1.00  0.00     0.074 A 
ATOM     46  C   UNL A   1      38.003  29.446  30.075  1.00  0.00     0.031 C 
ATOM     47  C   UNL A   1      42.146  32.567  33.209  1.00  0.00     0.029 A 
ATOM     48  C   UNL A   1      41.397  33.085  34.340  1.00  0.00     0.049 A 
ATOM     49  H   UNL A   1      39.614  34.251  34.072  1.00  0.00     0.167 HD
ATOM     50  C   UNL A   1      40.295  28.220  30.133  1.00  0.00     0.034 A 
ATOM     51  C   UNL A   1      41.543  32.684  35.636  1.00  0.00     0.034 A 
ATOM     52  C   UNL A   1      41.499  28.350  30.968  1.00  0.00     0.049 A 
ATOM     53  C   UNL A   1      42.109  31.283  35.774  1.00  0.00     0.074 A 
ATOM     54  C   UNL A   1      42.687  29.047  30.811  1.00  0.00     0.029 A 
ATOM     55  N   UNL A   1      41.470  27.918  32.287  1.00  0.00    -0.354 N 
ATOM     56  N   UNL A   1      42.329  30.478  34.772  1.00  0.00    -0.248 NA
ATOM     57  C   UNL A   1      42.438  30.663  37.055  1.00  0.00     0.031 C 
ATOM     58  C   UNL A   1      43.334  29.102  32.074  1.00  0.00     0.029 A 
ATOM     59  C   UNL A   1      42.555  28.417  32.991  1.00  0.00     0.049 A 
ATOM     60  H   UNL A   1      40.774  27.335  32.670  1.00  0.00     0.167 HD
ATOM     61  C   UNL A   1      42.655  29.230  35.239  1.00  0.00     0.074 A 
ATOM     62  C   UNL A   1      42.806  29.427  36.670  1.00  0.00     0.031 C 
ATOM     63  C   UNL A   1      42.695  28.136  34.416  1.00  0.00     0.034 A 
BRANCH  50  64
ATOM     64  C   UNL A   1      40.309  27.506  28.788  1.00  0.00     0.023 A 
ATOM     65  C   UNL A   1      39.407  26.430  28.612  1.00  0.00     0.012 A 
ATOM     66  C   UNL A   1      41.184  27.750  27.707  1.00  0.00     0.148 A 
ATOM     67  C   UNL A   1      39.456  25.575  27.505  1.00  0.00     0.002 A 
ATOM     68  C   UNL A   1      41.294  26.852  26.641  1.00  0.00     0.091 A 
ATOM     69  F   UNL A   1      41.850  28.906  27.639  1.00  0.00    -0.205 F 
ATOM     70  C   UNL A   1      40.432  25.757  26.539  1.00  0.00     0.022 A 
BRANCH  68  71
ATOM     71  S   UNL A   1      42.599  26.982  25.405  1.00  0.00     0.127 S 
ATOM     72  O   UNL A   1      43.800  27.102  26.234  1.00  0.00    -0.237 OA
ATOM     73  O   UNL A   1      42.482  25.718  24.685  1.00  0.00    -0.237 OA
ATOM     74  O   UNL A   1      42.296  28.180  24.629  1.00  0.00    -0.744 OA
ENDBRANCH  68  71
ENDBRANCH  50  64
BRANCH  51  75
ATOM     75  C   UNL A   1      40.590  33.336  36.579  1.00  0.00     0.023 A 
ATOM     76  C   UNL A   1      39.441  32.590  36.937  1.00  0.00     0.012 A 
ATOM     77  C   UNL A   1      40.973  34.422  37.385  1.00  0.00     0.148 A 
ATOM     78  C   UNL A   1      38.761  32.845  38.128  1.00  0.00     0.002 A 
ATOM     79  C   UNL A   1      40.293  34.665  38.578  1.00  0.00     0.091 A 
ATOM     80  F   UNL A   1      42.045  35.141  37.023  1.00  0.00    -0.205 F 
ATOM     81  C   UNL A   1      39.208  33.861  38.964  1.00  0.00     0.022 A 
BRANCH  79  82
ATOM     82  S   UNL A   1      40.855  35.903  39.755  1.00  0.00     0.127 S 
ATOM     83  O   UNL A   1      40.730  37.129  38.972  1.00  0.00    -0.237 OA
ATOM     84  O   UNL A   1      39.885  35.762  40.840  1.00  0.00    -0.237 OA
ATOM     85  O   UNL A   1      42.207  35.496  40.108  1.00  0.00    -0.744 OA
ENDBRANCH  79  82
ENDBRANCH  51  75
BRANCH  63  86
ATOM     86  C   UNL A   1      42.822  26.692  34.866  1.00  0.00     0.023 A 
ATOM     87  C   UNL A   1      41.836  26.050  35.640  1.00  0.00     0.012 A 
ATOM     88  C   UNL A   1      43.878  25.874  34.381  1.00  0.00     0.148 A 
ATOM     89  C   UNL A   1      41.912  24.689  35.961  1.00  0.00     0.002 A 
ATOM     90  C   UNL A   1      43.890  24.499  34.611  1.00  0.00     0.091 A 
ATOM     91  F   UNL A   1      44.894  26.426  33.702  1.00  0.00    -0.205 F 
ATOM     92  C   UNL A   1      42.925  23.907  35.424  1.00  0.00     0.022 A 
BRANCH  90  93
ATOM     93  S   UNL A   1      45.047  23.439  33.729  1.00  0.00     0.127 S 
ATOM     94  O   UNL A   1      44.702  22.114  34.239  1.00  0.00    -0.237 OA
ATOM     95  O   UNL A   1      44.684  23.663  32.328  1.00  0.00    -0.237 OA
ATOM     96  O   UNL A   1      46.361  23.953  34.091  1.00  0.00    -0.744 OA
ENDBRANCH  90  93
ENDBRANCH  63  86
ENDBRANCH  37  38
ENDBRANCH  29  32
ENDBRANCH  27  28
ENDBRANCH   1  27
TORSDOF 16
ENDMDL
MODEL 3
REMARK VINA RESULT:     -13.5      4.921     10.056
REMARK SMILES Cc1c(CC(=O)NCCCNC(=O)c2ccc(-c3c4nc(c(-c5cccc(S(=O)(=O)[O-])c5F)c5ccc([nH]5)c(-c5cccc(S(=O)(=O)[O-])c5F)c5nc(c(-c6cccc(S(=O)(=O)[O-])c6F)c6ccc3[nH]6)C=C5)C=C4)cc2)cc(-c2ccccc2)cc1-c1ccccc1
REMARK SMILES IDX 9 1 8 2 7 3 5 4 6 5 4 7 3 8 1 9 2 10 86 11 77 12 85 13 78 14
REMARK SMILES IDX 87 15 88 16 92 17 89 18 91 19 90 20 79 21 80 22 84 23 81 24
REMARK SMILES IDX 83 25 82 26 10 27 11 28 12 29 13 31 14 32 15 33 76 34 16 35
REMARK SMILES IDX 75 36 17 37 18 38 19 39 69 40 20 41 74 42 68 43 70 44 21 45
REMARK SMILES IDX 73 46 67 47 66 48 22 50 54 51 34 52 53 53 35 54 38 55 52 56
REMARK SMILES IDX 71 57 36 58 37 59 51 61 72 62 39 63 23 64 24 65 32 66 25 67
REMARK SMILES IDX 27 68 33 69 26 70 28 71 29 72 30 73 31 74 55 75 56 76 64 77
REMARK SMILES IDX 57 78 59 79 65 80 58 81 60 82 61 83 62 84 63 85 40 86 41 87
REMARK SMILES IDX 49 88 42 89 44 90 50 91 43 92 45 93 46 94 47 95 48 96
REMARK H PARENT 7 6 11 30 70 49 38 60
REMARK Flexibility Score: inf
ROOT
ATOM      1  C   UNL A   1      33.960  32.630  28.076  1.00  0.00     0.042 C 
ENDROOT
BRANCH   1   2
ATOM      2  C   UNL A   1      34.278  31.294  27.412  1.00  0.00     0.117 C 
BRANCH   2   3
ATOM      3  N   UNL A   1      33.455  30.202  27.903  1.00  0.00    -0.356 N 
ATOM      4  C   UNL A   1      33.185  28.989  27.330  1.00  0.00     0.224 C 
ATOM      5  O   UNL A   1      32.482  28.187  27.950  1.00  0.00    -0.275 OA
ATOM      6  H   UNL A   1      33.027  30.358  28.777  1.00  0.00     0.163 HD
BRANCH   4   7
ATOM      7  C   UNL A   1      33.757  28.622  25.963  1.00  0.00     0.135 C 
BRANCH   7   8
ATOM      8  C   UNL A   1      32.784  27.865  25.073  1.00  0.00    -0.035 A 
ATOM      9  C   UNL A   1      33.940  25.627  25.473  1.00  0.00     0.045 C 
ATOM     10  C   UNL A   1      32.904  26.480  24.777  1.00  0.00    -0.040 A 
ATOM     11  C   UNL A   1      32.031  25.899  23.816  1.00  0.00    -0.015 A 
ATOM     12  C   UNL A   1      31.751  28.614  24.470  1.00  0.00     0.013 A 
ATOM     13  C   UNL A   1      31.032  26.701  23.222  1.00  0.00     0.017 A 
ATOM     14  C   UNL A   1      30.863  28.052  23.547  1.00  0.00    -0.017 A 
BRANCH  11  15
ATOM     15  C   UNL A   1      32.160  24.504  23.350  1.00  0.00    -0.018 A 
ATOM     16  C   UNL A   1      33.029  24.188  22.290  1.00  0.00     0.009 A 
ATOM     17  C   UNL A   1      31.438  23.460  23.947  1.00  0.00     0.009 A 
ATOM     18  C   UNL A   1      33.181  22.870  21.852  1.00  0.00     0.001 A 
ATOM     19  C   UNL A   1      31.600  22.139  23.520  1.00  0.00     0.001 A 
ATOM     20  C   UNL A   1      32.471  21.845  22.472  1.00  0.00     0.000 A 
ENDBRANCH  11  15
BRANCH  14  21
ATOM     21  C   UNL A   1      29.792  28.853  22.932  1.00  0.00    -0.018 A 
ATOM     22  C   UNL A   1      28.439  28.603  23.210  1.00  0.00     0.009 A 
ATOM     23  C   UNL A   1      30.102  29.889  22.035  1.00  0.00     0.009 A 
ATOM     24  C   UNL A   1      27.429  29.359  22.608  1.00  0.00     0.001 A 
ATOM     25  C   UNL A   1      29.094  30.643  21.428  1.00  0.00     0.001 A 
ATOM     26  C   UNL A   1      27.758  30.376  21.715  1.00  0.00     0.000 A 
ENDBRANCH  14  21
ENDBRANCH   7   8
ENDBRANCH   4   7
ENDBRANCH   2   3
ENDBRANCH   1   2
BRANCH   1  27
ATOM     27  C   UNL A   1      35.126  33.248  28.825  1.00  0.00     0.118 C 
BRANCH  27  28
ATOM     28  N   UNL A   1      35.091  33.005  30.259  1.00  0.00    -0.352 N 
ATOM     29  C   UNL A   1      35.615  31.942  30.981  1.00  0.00     0.251 C 
ATOM     30  H   UNL A   1      34.630  33.692  30.793  1.00  0.00     0.163 HD
ATOM     31  O   UNL A   1      35.361  31.838  32.162  1.00  0.00    -0.269 OA
BRANCH  29  32
ATOM     32  C   UNL A   1      36.565  31.019  30.305  1.00  0.00     0.039 A 
ATOM     33  C   UNL A   1      36.675  29.714  30.801  1.00  0.00     0.014 A 
ATOM     34  C   UNL A   1      37.468  31.488  29.356  1.00  0.00     0.014 A 
ATOM     35  C   UNL A   1      37.823  28.970  30.534  1.00  0.00     0.010 A 
ATOM     36  C   UNL A   1      38.643  30.794  29.159  1.00  0.00     0.010 A 
ATOM     37  C   UNL A   1      38.846  29.567  29.803  1.00  0.00    -0.014 A 
BRANCH  37  38
ATOM     38  C   UNL A   1      40.208  29.061  29.725  1.00  0.00     0.031 A 
ATOM     39  C   UNL A   1      40.477  27.662  29.343  1.00  0.00     0.074 A 
ATOM     40  C   UNL A   1      41.217  29.957  29.775  1.00  0.00     0.049 A 
ATOM     41  N   UNL A   1      41.618  27.077  29.480  1.00  0.00    -0.248 NA
ATOM     42  C   UNL A   1      39.442  26.799  28.794  1.00  0.00     0.031 C 
ATOM     43  C   UNL A   1      42.571  29.789  29.262  1.00  0.00     0.029 A 
ATOM     44  N   UNL A   1      41.269  31.149  30.506  1.00  0.00    -0.354 N 
ATOM     45  C   UNL A   1      41.555  25.880  28.797  1.00  0.00     0.074 A 
ATOM     46  C   UNL A   1      40.159  25.723  28.458  1.00  0.00     0.031 C 
ATOM     47  C   UNL A   1      43.378  30.653  29.895  1.00  0.00     0.029 A 
ATOM     48  C   UNL A   1      42.597  31.273  30.950  1.00  0.00     0.049 A 
ATOM     49  H   UNL A   1      40.527  31.774  30.673  1.00  0.00     0.167 HD
ATOM     50  C   UNL A   1      42.715  25.240  28.468  1.00  0.00     0.034 A 
ATOM     51  C   UNL A   1      42.958  31.346  32.263  1.00  0.00     0.034 A 
ATOM     52  C   UNL A   1      43.881  25.940  29.025  1.00  0.00     0.049 A 
ATOM     53  C   UNL A   1      43.935  30.264  32.682  1.00  0.00     0.074 A 
ATOM     54  C   UNL A   1      44.783  26.847  28.489  1.00  0.00     0.029 A 
ATOM     55  N   UNL A   1      44.089  25.945  30.398  1.00  0.00    -0.354 N 
ATOM     56  N   UNL A   1      44.313  29.279  31.914  1.00  0.00    -0.248 NA
ATOM     57  C   UNL A   1      44.537  30.182  34.011  1.00  0.00     0.031 C 
ATOM     58  C   UNL A   1      45.478  27.462  29.565  1.00  0.00     0.029 A 
ATOM     59  C   UNL A   1      45.020  26.910  30.749  1.00  0.00     0.049 A 
ATOM     60  H   UNL A   1      43.636  25.345  31.034  1.00  0.00     0.167 HD
ATOM     61  C   UNL A   1      45.040  28.373  32.643  1.00  0.00     0.074 A 
ATOM     62  C   UNL A   1      45.234  29.035  33.921  1.00  0.00     0.031 C 
ATOM     63  C   UNL A   1      45.349  27.131  32.154  1.00  0.00     0.034 A 
BRANCH  50  64
ATOM     64  C   UNL A   1      42.841  24.177  27.384  1.00  0.00     0.023 A 
ATOM     65  C   UNL A   1      43.285  24.598  26.108  1.00  0.00     0.012 A 
ATOM     66  C   UNL A   1      42.489  22.814  27.487  1.00  0.00     0.148 A 
ATOM     67  C   UNL A   1      43.256  23.764  24.985  1.00  0.00     0.002 A 
ATOM     68  C   UNL A   1      42.379  22.001  26.355  1.00  0.00     0.091 A 
ATOM     69  F   UNL A   1      42.356  22.252  28.692  1.00  0.00    -0.205 F 
ATOM     70  C   UNL A   1      42.758  22.476  25.097  1.00  0.00     0.022 A 
BRANCH  68  71
ATOM     71  S   UNL A   1      41.653  20.353  26.421  1.00  0.00     0.127 S 
ATOM     72  O   UNL A   1      40.219  20.642  26.348  1.00  0.00    -0.237 OA
ATOM     73  O   UNL A   1      42.205  19.715  25.230  1.00  0.00    -0.237 OA
ATOM     74  O   UNL A   1      42.075  19.781  27.696  1.00  0.00    -0.744 OA
ENDBRANCH  68  71
ENDBRANCH  50  64
BRANCH  51  75
ATOM     75  C   UNL A   1      41.928  31.976  33.138  1.00  0.00     0.023 A 
ATOM     76  C   UNL A   1      41.641  33.341  32.898  1.00  0.00     0.012 A 
ATOM     77  C   UNL A   1      41.007  31.206  33.869  1.00  0.00     0.148 A 
ATOM     78  C   UNL A   1      40.417  33.895  33.273  1.00  0.00     0.002 A 
ATOM     79  C   UNL A   1      39.782  31.765  34.233  1.00  0.00     0.091 A 
ATOM     80  F   UNL A   1      41.300  29.923  34.117  1.00  0.00    -0.205 F 
ATOM     81  C   UNL A   1      39.475  33.097  33.911  1.00  0.00     0.022 A 
BRANCH  79  82
ATOM     82  S   UNL A   1      38.477  30.782  34.985  1.00  0.00     0.127 S 
ATOM     83  O   UNL A   1      37.431  31.781  35.177  1.00  0.00    -0.237 OA
ATOM     84  O   UNL A   1      38.199  29.789  33.946  1.00  0.00    -0.237 OA
ATOM     85  O   UNL A   1      39.074  30.229  36.191  1.00  0.00    -0.744 OA
ENDBRANCH  79  82
ENDBRANCH  51  75
BRANCH  63  86
ATOM     86  C   UNL A   1      45.947  25.987  32.952  1.00  0.00     0.023 A 
ATOM     87  C   UNL A   1      47.336  25.796  33.077  1.00  0.00     0.012 A 
ATOM     88  C   UNL A   1      45.118  25.150  33.747  1.00  0.00     0.148 A 
ATOM     89  C   UNL A   1      47.878  24.802  33.901  1.00  0.00     0.002 A 
ATOM     90  C   UNL A   1      45.666  24.237  34.648  1.00  0.00     0.091 A 
ATOM     91  F   UNL A   1      43.784  25.219  33.626  1.00  0.00    -0.205 F 
ATOM     92  C   UNL A   1      47.045  24.039  34.707  1.00  0.00     0.022 A 
BRANCH  90  93
ATOM     93  S   UNL A   1      44.622  23.421  35.865  1.00  0.00     0.127 S 
ATOM     94  O   UNL A   1      45.604  22.763  36.723  1.00  0.00    -0.237 OA
ATOM     95  O   UNL A   1      43.923  24.545  36.494  1.00  0.00    -0.237 OA
ATOM     96  O   UNL A   1      43.758  22.550  35.080  1.00  0.00    -0.744 OA
ENDBRANCH  90  93
ENDBRANCH  63  86
ENDBRANCH  37  38
ENDBRANCH  29  32
ENDBRANCH  27  28
ENDBRANCH   1  27
TORSDOF 16
ENDMDL
