MODEL 1
REMARK VINA RESULT:     -12.4      0.000      0.000
REMARK SMILES CCc1cc(N2CCC(O)(C(=O)NCCCNC(=O)c3ccc(-c4c5nc(c(-c6cccc(S(=O)(=O)[O-])c6F)c6ccc([nH]6)c(-c6cccc(S(=O)(=O)[O-])c6F)c6nc(c(-c7cccc(S(=O)(=O)[O-])c7F)c7ccc4[nH]7)C=C6)C=C5)cc3)CC2)nc(N2CCOCC2)n1
REMARK SMILES IDX 15 1 14 2 13 3 11 4 12 5 9 7 6 8 7 9 84 10 8 11 83 12 5 13
REMARK SMILES IDX 3 14 4 15 93 16 86 17 85 18 2 19 1 20 87 21 88 22 92 23
REMARK SMILES IDX 89 24 91 25 90 26 10 27 16 29 17 30 18 31 19 33 20 34 21 35
REMARK SMILES IDX 82 36 22 37 81 38 23 39 24 40 25 41 75 42 26 43 80 44 74 45
REMARK SMILES IDX 76 46 27 47 79 48 73 49 72 50 28 52 60 53 40 54 59 55 41 56
REMARK SMILES IDX 44 57 58 58 77 59 42 60 43 61 57 63 78 64 45 65 29 66 30 67
REMARK SMILES IDX 38 68 31 69 33 70 39 71 32 72 34 73 35 74 36 75 37 76 61 77
REMARK SMILES IDX 62 78 70 79 63 80 65 81 71 82 64 83 66 84 67 85 68 86 69 87
REMARK SMILES IDX 46 88 47 89 55 90 48 91 50 92 56 93 49 94 51 95 52 96 53 97
REMARK SMILES IDX 54 98
REMARK H PARENT 13 6 10 28 17 32 76 51 44 62
REMARK Flexibility Score: inf
ROOT
ATOM      1  C   UNL A   1      33.590  29.094  23.938  1.00  0.00     0.042 C 
ENDROOT
BRANCH   1   2
ATOM      2  C   UNL A   1      32.426  28.718  23.025  1.00  0.00     0.117 C 
BRANCH   2   3
ATOM      3  N   UNL A   1      32.841  27.827  21.957  1.00  0.00    -0.354 N 
ATOM      4  C   UNL A   1      32.918  26.465  21.915  1.00  0.00     0.252 C 
ATOM      5  O   UNL A   1      33.278  25.967  20.843  1.00  0.00    -0.272 OA
ATOM      6  H   UNL A   1      33.109  28.281  21.125  1.00  0.00     0.163 HD
BRANCH   4   7
ATOM      7  C   UNL A   1      32.562  25.596  23.155  1.00  0.00     0.146 C 
ATOM      8  N   UNL A   1      32.927  23.222  24.757  1.00  0.00    -0.356 N 
ATOM      9  C   UNL A   1      33.474  24.479  25.241  1.00  0.00     0.121 C 
ATOM     10  C   UNL A   1      31.822  23.246  23.807  1.00  0.00     0.121 C 
ATOM     11  C   UNL A   1      33.779  25.410  24.073  1.00  0.00     0.067 C 
ATOM     12  C   UNL A   1      32.082  24.216  22.663  1.00  0.00     0.067 C 
BRANCH   8  13
ATOM     13  C   UNL A   1      33.778  22.125  24.726  1.00  0.00     0.134 A 
ATOM     14  C   UNL A   1      35.923  21.190  24.984  1.00  0.00     0.048 A 
ATOM     15  C   UNL A   1      35.135  22.315  24.884  1.00  0.00     0.071 A 
ATOM     16  N   UNL A   1      35.399  19.950  24.943  1.00  0.00    -0.218 NA
ATOM     17  C   UNL A   1      34.086  19.847  24.695  1.00  0.00     0.227 A 
ATOM     18  N   UNL A   1      33.259  20.899  24.600  1.00  0.00    -0.196 NA
BRANCH  14  19
ATOM     19  C   UNL A   1      37.405  21.326  25.222  1.00  0.00     0.053 C 
ATOM     20  C   UNL A   1      38.160  20.023  25.007  1.00  0.00     0.011 C 
ENDBRANCH  14  19
BRANCH  17  21
ATOM     21  N   UNL A   1      33.526  18.613  24.577  1.00  0.00    -0.336 N 
ATOM     22  C   UNL A   1      32.901  17.988  25.732  1.00  0.00     0.148 C 
ATOM     23  C   UNL A   1      33.293  17.996  23.290  1.00  0.00     0.148 C 
ATOM     24  C   UNL A   1      33.259  16.496  25.747  1.00  0.00     0.181 C 
ATOM     25  C   UNL A   1      33.684  16.511  23.415  1.00  0.00     0.181 C 
ATOM     26  O   UNL A   1      32.969  15.860  24.484  1.00  0.00    -0.378 OA
ENDBRANCH  17  21
ENDBRANCH   8  13
BRANCH   7  27
ATOM     27  O   UNL A   1      31.495  26.251  23.861  1.00  0.00    -0.380 OA
ATOM     28  H   UNL A   1      31.784  27.134  24.137  1.00  0.00     0.212 HD
ENDBRANCH   7  27
ENDBRANCH   4   7
ENDBRANCH   2   3
ENDBRANCH   1   2
BRANCH   1  29
ATOM     29  C   UNL A   1      33.239  29.131  25.421  1.00  0.00     0.118 C 
BRANCH  29  30
ATOM     30  N   UNL A   1      32.777  30.439  25.856  1.00  0.00    -0.352 N 
ATOM     31  C   UNL A   1      33.208  31.236  26.887  1.00  0.00     0.251 C 
ATOM     32  H   UNL A   1      32.036  30.814  25.326  1.00  0.00     0.163 HD
ATOM     33  O   UNL A   1      32.549  32.229  27.189  1.00  0.00    -0.269 OA
BRANCH  31  34
ATOM     34  C   UNL A   1      34.439  30.910  27.646  1.00  0.00     0.039 A 
ATOM     35  C   UNL A   1      34.523  29.666  28.278  1.00  0.00     0.014 A 
ATOM     36  C   UNL A   1      35.485  31.829  27.782  1.00  0.00     0.014 A 
ATOM     37  C   UNL A   1      35.671  29.325  28.999  1.00  0.00     0.010 A 
ATOM     38  C   UNL A   1      36.658  31.459  28.439  1.00  0.00     0.010 A 
ATOM     39  C   UNL A   1      36.761  30.208  29.064  1.00  0.00    -0.014 A 
BRANCH  39  40
ATOM     40  C   UNL A   1      38.012  29.828  29.773  1.00  0.00     0.031 A 
ATOM     41  C   UNL A   1      38.325  30.397  31.132  1.00  0.00     0.074 A 
ATOM     42  C   UNL A   1      38.897  29.011  29.165  1.00  0.00     0.049 A 
ATOM     43  N   UNL A   1      39.375  30.197  31.886  1.00  0.00    -0.248 NA
ATOM     44  C   UNL A   1      37.342  31.328  31.711  1.00  0.00     0.031 C 
ATOM     45  C   UNL A   1      38.745  28.450  27.820  1.00  0.00     0.029 A 
ATOM     46  N   UNL A   1      40.106  28.523  29.591  1.00  0.00    -0.354 N 
ATOM     47  C   UNL A   1      39.191  30.988  33.015  1.00  0.00     0.074 A 
ATOM     48  C   UNL A   1      37.948  31.703  32.830  1.00  0.00     0.031 C 
ATOM     49  C   UNL A   1      39.816  27.690  27.537  1.00  0.00     0.029 A 
ATOM     50  C   UNL A   1      40.739  27.726  28.665  1.00  0.00     0.049 A 
ATOM     51  H   UNL A   1      40.487  28.726  30.477  1.00  0.00     0.167 HD
ATOM     52  C   UNL A   1      39.966  31.083  34.122  1.00  0.00     0.034 A 
ATOM     53  C   UNL A   1      41.927  27.093  28.721  1.00  0.00     0.034 A 
ATOM     54  C   UNL A   1      41.181  30.340  34.325  1.00  0.00     0.049 A 
ATOM     55  C   UNL A   1      42.750  27.192  29.978  1.00  0.00     0.074 A 
ATOM     56  C   UNL A   1      42.006  30.326  35.436  1.00  0.00     0.029 A 
ATOM     57  N   UNL A   1      41.743  29.475  33.399  1.00  0.00    -0.354 N 
ATOM     58  N   UNL A   1      42.482  27.828  31.092  1.00  0.00    -0.248 NA
ATOM     59  C   UNL A   1      44.019  26.450  30.002  1.00  0.00     0.031 C 
ATOM     60  C   UNL A   1      43.072  29.457  35.180  1.00  0.00     0.029 A 
ATOM     61  C   UNL A   1      42.902  28.918  33.915  1.00  0.00     0.049 A 
ATOM     62  H   UNL A   1      41.374  29.284  32.507  1.00  0.00     0.167 HD
ATOM     63  C   UNL A   1      43.527  27.532  31.961  1.00  0.00     0.074 A 
ATOM     64  C   UNL A   1      44.418  26.637  31.251  1.00  0.00     0.031 C 
ATOM     65  C   UNL A   1      43.742  27.976  33.223  1.00  0.00     0.034 A 
BRANCH  52  66
ATOM     66  C   UNL A   1      39.483  31.966  35.243  1.00  0.00     0.023 A 
ATOM     67  C   UNL A   1      38.626  31.423  36.223  1.00  0.00     0.012 A 
ATOM     68  C   UNL A   1      39.933  33.295  35.378  1.00  0.00     0.148 A 
ATOM     69  C   UNL A   1      38.203  32.193  37.305  1.00  0.00     0.002 A 
ATOM     70  C   UNL A   1      39.539  34.044  36.482  1.00  0.00     0.091 A 
ATOM     71  F   UNL A   1      40.734  33.798  34.430  1.00  0.00    -0.205 F 
ATOM     72  C   UNL A   1      38.668  33.498  37.440  1.00  0.00     0.022 A 
BRANCH  70  73
ATOM     73  S   UNL A   1      40.140  35.709  36.791  1.00  0.00     0.127 S 
ATOM     74  O   UNL A   1      41.589  35.497  36.825  1.00  0.00    -0.237 OA
ATOM     75  O   UNL A   1      39.661  36.431  35.610  1.00  0.00    -0.237 OA
ATOM     76  O   UNL A   1      39.544  36.129  38.046  1.00  0.00    -0.744 OA
ENDBRANCH  70  73
ENDBRANCH  52  66
BRANCH  53  77
ATOM     77  C   UNL A   1      42.382  26.244  27.582  1.00  0.00     0.023 A 
ATOM     78  C   UNL A   1      43.218  26.806  26.595  1.00  0.00     0.012 A 
ATOM     79  C   UNL A   1      41.999  24.895  27.467  1.00  0.00     0.148 A 
ATOM     80  C   UNL A   1      43.625  26.052  25.494  1.00  0.00     0.002 A 
ATOM     81  C   UNL A   1      42.456  24.134  26.397  1.00  0.00     0.091 A 
ATOM     82  F   UNL A   1      41.191  24.379  28.404  1.00  0.00    -0.205 F 
ATOM     83  C   UNL A   1      43.253  24.714  25.400  1.00  0.00     0.022 A 
BRANCH  81  84
ATOM     84  S   UNL A   1      42.132  22.370  26.281  1.00  0.00     0.127 S 
ATOM     85  O   UNL A   1      42.760  22.032  25.007  1.00  0.00    -0.237 OA
ATOM     86  O   UNL A   1      42.818  21.849  27.464  1.00  0.00    -0.237 OA
ATOM     87  O   UNL A   1      40.681  22.244  26.335  1.00  0.00    -0.744 OA
ENDBRANCH  81  84
ENDBRANCH  53  77
BRANCH  65  88
ATOM     88  C   UNL A   1      44.966  27.472  33.939  1.00  0.00     0.023 A 
ATOM     89  C   UNL A   1      46.160  28.220  33.895  1.00  0.00     0.012 A 
ATOM     90  C   UNL A   1      44.919  26.288  34.704  1.00  0.00     0.148 A 
ATOM     91  C   UNL A   1      47.297  27.780  34.570  1.00  0.00     0.002 A 
ATOM     92  C   UNL A   1      46.044  25.881  35.413  1.00  0.00     0.091 A 
ATOM     93  F   UNL A   1      43.781  25.579  34.717  1.00  0.00    -0.205 F 
ATOM     94  C   UNL A   1      47.236  26.619  35.336  1.00  0.00     0.022 A 
BRANCH  92  95
ATOM     95  S   UNL A   1      46.027  24.449  36.496  1.00  0.00     0.127 S 
ATOM     96  O   UNL A   1      44.849  24.712  37.321  1.00  0.00    -0.237 OA
ATOM     97  O   UNL A   1      45.874  23.343  35.549  1.00  0.00    -0.237 OA
ATOM     98  O   UNL A   1      47.303  24.466  37.198  1.00  0.00    -0.744 OA
ENDBRANCH  92  95
ENDBRANCH  65  88
ENDBRANCH  39  40
ENDBRANCH  31  34
ENDBRANCH  29  30
ENDBRANCH   1  29
TORSDOF 17
ENDMDL
MODEL 2
REMARK VINA RESULT:     -12.3      1.485      2.069
REMARK SMILES CCc1cc(N2CCC(O)(C(=O)NCCCNC(=O)c3ccc(-c4c5nc(c(-c6cccc(S(=O)(=O)[O-])c6F)c6ccc([nH]6)c(-c6cccc(S(=O)(=O)[O-])c6F)c6nc(c(-c7cccc(S(=O)(=O)[O-])c7F)c7ccc4[nH]7)C=C6)C=C5)cc3)CC2)nc(N2CCOCC2)n1
REMARK SMILES IDX 15 1 14 2 13 3 11 4 12 5 9 7 6 8 7 9 84 10 8 11 83 12 5 13
REMARK SMILES IDX 3 14 4 15 93 16 86 17 85 18 2 19 1 20 87 21 88 22 92 23
REMARK SMILES IDX 89 24 91 25 90 26 10 27 16 29 17 30 18 31 19 33 20 34 21 35
REMARK SMILES IDX 82 36 22 37 81 38 23 39 24 40 25 41 75 42 26 43 80 44 74 45
REMARK SMILES IDX 76 46 27 47 79 48 73 49 72 50 28 52 60 53 40 54 59 55 41 56
REMARK SMILES IDX 44 57 58 58 77 59 42 60 43 61 57 63 78 64 45 65 29 66 30 67
REMARK SMILES IDX 38 68 31 69 33 70 39 71 32 72 34 73 35 74 36 75 37 76 61 77
REMARK SMILES IDX 62 78 70 79 63 80 65 81 71 82 64 83 66 84 67 85 68 86 69 87
REMARK SMILES IDX 46 88 47 89 55 90 48 91 50 92 56 93 49 94 51 95 52 96 53 97
REMARK SMILES IDX 54 98
REMARK H PARENT 13 6 10 28 17 32 76 51 44 62
REMARK Flexibility Score: inf
ROOT
ATOM      1  C   UNL A   1      32.880  29.213  24.387  1.00  0.00     0.042 C 
ENDROOT
BRANCH   1   2
ATOM      2  C   UNL A   1      31.506  28.551  24.341  1.00  0.00     0.117 C 
BRANCH   2   3
ATOM      3  N   UNL A   1      31.241  27.767  25.534  1.00  0.00    -0.354 N 
ATOM      4  C   UNL A   1      31.216  26.415  25.722  1.00  0.00     0.252 C 
ATOM      5  O   UNL A   1      30.992  26.024  26.872  1.00  0.00    -0.272 OA
ATOM      6  H   UNL A   1      31.048  28.298  26.340  1.00  0.00     0.163 HD
BRANCH   4   7
ATOM      7  C   UNL A   1      31.467  25.430  24.544  1.00  0.00     0.146 C 
ATOM      8  N   UNL A   1      32.883  23.196  23.386  1.00  0.00    -0.356 N 
ATOM      9  C   UNL A   1      31.521  22.991  23.851  1.00  0.00     0.121 C 
ATOM     10  C   UNL A   1      33.320  24.541  23.038  1.00  0.00     0.121 C 
ATOM     11  C   UNL A   1      31.184  23.980  24.962  1.00  0.00     0.067 C 
ATOM     12  C   UNL A   1      32.941  25.554  24.108  1.00  0.00     0.067 C 
BRANCH   8  13
ATOM     13  C   UNL A   1      33.848  22.298  23.824  1.00  0.00     0.134 A 
ATOM     14  C   UNL A   1      36.006  21.854  24.653  1.00  0.00     0.048 A 
ATOM     15  C   UNL A   1      35.122  22.750  24.093  1.00  0.00     0.071 A 
ATOM     16  N   UNL A   1      35.646  20.588  24.941  1.00  0.00    -0.218 NA
ATOM     17  C   UNL A   1      34.420  20.198  24.564  1.00  0.00     0.227 A 
ATOM     18  N   UNL A   1      33.507  21.021  24.028  1.00  0.00    -0.196 NA
BRANCH  14  19
ATOM     19  C   UNL A   1      37.395  22.300  25.033  1.00  0.00     0.053 C 
ATOM     20  C   UNL A   1      37.397  23.559  25.888  1.00  0.00     0.011 C 
ENDBRANCH  14  19
BRANCH  17  21
ATOM     21  N   UNL A   1      34.038  18.909  24.773  1.00  0.00    -0.336 N 
ATOM     22  C   UNL A   1      34.939  17.821  24.426  1.00  0.00     0.148 C 
ATOM     23  C   UNL A   1      32.876  18.573  25.566  1.00  0.00     0.148 C 
ATOM     24  C   UNL A   1      34.127  16.687  23.787  1.00  0.00     0.181 C 
ATOM     25  C   UNL A   1      32.138  17.433  24.838  1.00  0.00     0.181 C 
ATOM     26  O   UNL A   1      33.002  16.303  24.605  1.00  0.00    -0.378 OA
ENDBRANCH  17  21
ENDBRANCH   8  13
BRANCH   7  27
ATOM     27  O   UNL A   1      30.612  25.815  23.456  1.00  0.00    -0.380 OA
ATOM     28  H   UNL A   1      31.153  26.083  22.697  1.00  0.00     0.212 HD
ENDBRANCH   7  27
ENDBRANCH   4   7
ENDBRANCH   2   3
ENDBRANCH   1   2
BRANCH   1  29
ATOM     29  C   UNL A   1      33.432  29.418  25.794  1.00  0.00     0.118 C 
BRANCH  29  30
ATOM     30  N   UNL A   1      33.173  30.753  26.308  1.00  0.00    -0.352 N 
ATOM     31  C   UNL A   1      33.795  31.455  27.310  1.00  0.00     0.251 C 
ATOM     32  H   UNL A   1      32.434  31.231  25.867  1.00  0.00     0.163 HD
ATOM     33  O   UNL A   1      33.291  32.505  27.704  1.00  0.00    -0.269 OA
BRANCH  31  34
ATOM     34  C   UNL A   1      35.048  30.961  27.930  1.00  0.00     0.039 A 
ATOM     35  C   UNL A   1      36.147  31.823  27.990  1.00  0.00     0.014 A 
ATOM     36  C   UNL A   1      35.167  29.651  28.405  1.00  0.00     0.014 A 
ATOM     37  C   UNL A   1      37.343  31.390  28.571  1.00  0.00     0.010 A 
ATOM     38  C   UNL A   1      36.336  29.245  29.049  1.00  0.00     0.010 A 
ATOM     39  C   UNL A   1      37.440  30.106  29.131  1.00  0.00    -0.014 A 
BRANCH  39  40
ATOM     40  C   UNL A   1      38.685  29.660  29.810  1.00  0.00     0.031 A 
ATOM     41  C   UNL A   1      39.077  30.231  31.147  1.00  0.00     0.074 A 
ATOM     42  C   UNL A   1      39.497  28.776  29.191  1.00  0.00     0.049 A 
ATOM     43  N   UNL A   1      40.135  29.977  31.873  1.00  0.00    -0.248 NA
ATOM     44  C   UNL A   1      38.174  31.233  31.738  1.00  0.00     0.031 C 
ATOM     45  C   UNL A   1      39.268  28.204  27.863  1.00  0.00     0.029 A 
ATOM     46  N   UNL A   1      40.686  28.220  29.590  1.00  0.00    -0.354 N 
ATOM     47  C   UNL A   1      40.037  30.798  32.992  1.00  0.00     0.074 A 
ATOM     48  C   UNL A   1      38.837  31.588  32.830  1.00  0.00     0.031 C 
ATOM     49  C   UNL A   1      40.278  27.371  27.562  1.00  0.00     0.029 A 
ATOM     50  C   UNL A   1      41.237  27.368  28.661  1.00  0.00     0.049 A 
ATOM     51  H   UNL A   1      41.106  28.413  30.460  1.00  0.00     0.167 HD
ATOM     52  C   UNL A   1      40.851  30.862  34.073  1.00  0.00     0.034 A 
ATOM     53  C   UNL A   1      42.384  26.661  28.693  1.00  0.00     0.034 A 
ATOM     54  C   UNL A   1      42.022  30.046  34.253  1.00  0.00     0.049 A 
ATOM     55  C   UNL A   1      43.250  26.729  29.923  1.00  0.00     0.074 A 
ATOM     56  C   UNL A   1      42.879  30.000  35.339  1.00  0.00     0.029 A 
ATOM     57  N   UNL A   1      42.499  29.132  33.328  1.00  0.00    -0.354 N 
ATOM     58  N   UNL A   1      43.058  27.400  31.032  1.00  0.00    -0.248 NA
ATOM     59  C   UNL A   1      44.469  25.907  29.923  1.00  0.00     0.031 C 
ATOM     60  C   UNL A   1      43.879  29.059  35.067  1.00  0.00     0.029 A 
ATOM     61  C   UNL A   1      43.635  28.510  33.819  1.00  0.00     0.049 A 
ATOM     62  H   UNL A   1      42.090  28.949  32.451  1.00  0.00     0.167 HD
ATOM     63  C   UNL A   1      44.109  27.053  31.874  1.00  0.00     0.074 A 
ATOM     64  C   UNL A   1      44.918  26.090  31.156  1.00  0.00     0.031 C 
ATOM     65  C   UNL A   1      44.391  27.504  33.121  1.00  0.00     0.034 A 
BRANCH  52  66
ATOM     66  C   UNL A   1      40.461  31.794  35.191  1.00  0.00     0.023 A 
ATOM     67  C   UNL A   1      41.151  33.017  35.336  1.00  0.00     0.012 A 
ATOM     68  C   UNL A   1      39.374  31.509  36.040  1.00  0.00     0.148 A 
ATOM     69  C   UNL A   1      40.783  33.928  36.323  1.00  0.00     0.002 A 
ATOM     70  C   UNL A   1      38.987  32.443  36.997  1.00  0.00     0.091 A 
ATOM     71  F   UNL A   1      38.741  30.337  35.898  1.00  0.00    -0.205 F 
ATOM     72  C   UNL A   1      39.695  33.647  37.145  1.00  0.00     0.022 A 
BRANCH  70  73
ATOM     73  S   UNL A   1      37.554  32.212  38.056  1.00  0.00     0.127 S 
ATOM     74  O   UNL A   1      36.523  32.947  37.320  1.00  0.00    -0.237 OA
ATOM     75  O   UNL A   1      37.390  30.756  38.036  1.00  0.00    -0.237 OA
ATOM     76  O   UNL A   1      37.911  32.767  39.348  1.00  0.00    -0.744 OA
ENDBRANCH  70  73
ENDBRANCH  52  66
BRANCH  53  77
ATOM     77  C   UNL A   1      42.748  25.765  27.558  1.00  0.00     0.023 A 
ATOM     78  C   UNL A   1      43.609  26.245  26.550  1.00  0.00     0.012 A 
ATOM     79  C   UNL A   1      42.254  24.450  27.467  1.00  0.00     0.148 A 
ATOM     80  C   UNL A   1      43.934  25.447  25.452  1.00  0.00     0.002 A 
ATOM     81  C   UNL A   1      42.629  23.641  26.400  1.00  0.00     0.091 A 
ATOM     82  F   UNL A   1      41.423  24.013  28.424  1.00  0.00    -0.205 F 
ATOM     83  C   UNL A   1      43.452  24.144  25.381  1.00  0.00     0.022 A 
BRANCH  81  84
ATOM     84  S   UNL A   1      42.160  21.909  26.312  1.00  0.00     0.127 S 
ATOM     85  O   UNL A   1      40.721  21.998  26.076  1.00  0.00    -0.237 OA
ATOM     86  O   UNL A   1      42.943  21.433  25.171  1.00  0.00    -0.237 OA
ATOM     87  O   UNL A   1      42.567  21.338  27.589  1.00  0.00    -0.744 OA
ENDBRANCH  81  84
ENDBRANCH  53  77
BRANCH  65  88
ATOM     88  C   UNL A   1      45.603  26.935  33.809  1.00  0.00     0.023 A 
ATOM     89  C   UNL A   1      46.844  27.594  33.699  1.00  0.00     0.012 A 
ATOM     90  C   UNL A   1      45.502  25.781  34.612  1.00  0.00     0.148 A 
ATOM     91  C   UNL A   1      47.972  27.094  34.348  1.00  0.00     0.002 A 
ATOM     92  C   UNL A   1      46.620  25.316  35.294  1.00  0.00     0.091 A 
ATOM     93  F   UNL A   1      44.318  25.155  34.688  1.00  0.00    -0.205 F 
ATOM     94  C   UNL A   1      47.858  25.963  35.152  1.00  0.00     0.022 A 
BRANCH  92  95
ATOM     95  S   UNL A   1      46.543  23.921  36.423  1.00  0.00     0.127 S 
ATOM     96  O   UNL A   1      46.471  22.791  35.498  1.00  0.00    -0.237 OA
ATOM     97  O   UNL A   1      47.809  24.035  37.148  1.00  0.00    -0.237 OA
ATOM     98  O   UNL A   1      45.359  24.138  37.243  1.00  0.00    -0.744 OA
ENDBRANCH  92  95
ENDBRANCH  65  88
ENDBRANCH  39  40
ENDBRANCH  31  34
ENDBRANCH  29  30
ENDBRANCH   1  29
TORSDOF 17
ENDMDL
MODEL 3
REMARK VINA RESULT:     -12.3      2.018      2.870
REMARK SMILES CCc1cc(N2CCC(O)(C(=O)NCCCNC(=O)c3ccc(-c4c5nc(c(-c6cccc(S(=O)(=O)[O-])c6F)c6ccc([nH]6)c(-c6cccc(S(=O)(=O)[O-])c6F)c6nc(c(-c7cccc(S(=O)(=O)[O-])c7F)c7ccc4[nH]7)C=C6)C=C5)cc3)CC2)nc(N2CCOCC2)n1
REMARK SMILES IDX 15 1 14 2 13 3 11 4 12 5 9 7 6 8 7 9 84 10 8 11 83 12 5 13
REMARK SMILES IDX 3 14 4 15 93 16 86 17 85 18 2 19 1 20 87 21 88 22 92 23
REMARK SMILES IDX 89 24 91 25 90 26 10 27 16 29 17 30 18 31 19 33 20 34 21 35
REMARK SMILES IDX 82 36 22 37 81 38 23 39 24 40 25 41 75 42 26 43 80 44 74 45
REMARK SMILES IDX 76 46 27 47 79 48 73 49 72 50 28 52 60 53 40 54 59 55 41 56
REMARK SMILES IDX 44 57 58 58 77 59 42 60 43 61 57 63 78 64 45 65 29 66 30 67
REMARK SMILES IDX 38 68 31 69 33 70 39 71 32 72 34 73 35 74 36 75 37 76 61 77
REMARK SMILES IDX 62 78 70 79 63 80 65 81 71 82 64 83 66 84 67 85 68 86 69 87
REMARK SMILES IDX 46 88 47 89 55 90 48 91 50 92 56 93 49 94 51 95 52 96 53 97
REMARK SMILES IDX 54 98
REMARK H PARENT 13 6 10 28 17 32 76 51 44 62
REMARK Flexibility Score: inf
ROOT
ATOM      1  C   UNL A   1      33.486  28.778  24.685  1.00  0.00     0.042 C 
ENDROOT
BRANCH   1   2
ATOM      2  C   UNL A   1      31.997  28.489  24.510  1.00  0.00     0.117 C 
BRANCH   2   3
ATOM      3  N   UNL A   1      31.454  27.738  25.627  1.00  0.00    -0.354 N 
ATOM      4  C   UNL A   1      31.198  26.404  25.762  1.00  0.00     0.252 C 
ATOM      5  O   UNL A   1      30.761  26.036  26.857  1.00  0.00    -0.272 OA
ATOM      6  H   UNL A   1      31.235  28.281  26.419  1.00  0.00     0.163 HD
BRANCH   4   7
ATOM      7  C   UNL A   1      31.456  25.410  24.594  1.00  0.00     0.146 C 
ATOM      8  N   UNL A   1      32.877  23.163  23.466  1.00  0.00    -0.356 N 
ATOM      9  C   UNL A   1      31.510  22.965  23.920  1.00  0.00     0.121 C 
ATOM     10  C   UNL A   1      33.320  24.504  23.110  1.00  0.00     0.121 C 
ATOM     11  C   UNL A   1      31.167  23.963  25.021  1.00  0.00     0.067 C 
ATOM     12  C   UNL A   1      32.934  25.527  24.169  1.00  0.00     0.067 C 
BRANCH   8  13
ATOM     13  C   UNL A   1      33.836  22.266  23.918  1.00  0.00     0.134 A 
ATOM     14  C   UNL A   1      35.962  21.830  24.829  1.00  0.00     0.048 A 
ATOM     15  C   UNL A   1      35.090  22.730  24.258  1.00  0.00     0.071 A 
ATOM     16  N   UNL A   1      35.611  20.550  25.062  1.00  0.00    -0.218 NA
ATOM     17  C   UNL A   1      34.410  20.153  24.618  1.00  0.00     0.227 A 
ATOM     18  N   UNL A   1      33.508  20.979  24.067  1.00  0.00    -0.196 NA
BRANCH  14  19
ATOM     19  C   UNL A   1      37.325  22.285  25.286  1.00  0.00     0.053 C 
ATOM     20  C   UNL A   1      37.295  23.642  25.973  1.00  0.00     0.011 C 
ENDBRANCH  14  19
BRANCH  17  21
ATOM     21  N   UNL A   1      34.041  18.853  24.769  1.00  0.00    -0.336 N 
ATOM     22  C   UNL A   1      34.916  17.791  24.297  1.00  0.00     0.148 C 
ATOM     23  C   UNL A   1      32.931  18.464  25.612  1.00  0.00     0.148 C 
ATOM     24  C   UNL A   1      34.063  16.697  23.641  1.00  0.00     0.181 C 
ATOM     25  C   UNL A   1      32.147  17.370  24.863  1.00  0.00     0.181 C 
ATOM     26  O   UNL A   1      32.992  16.259  24.504  1.00  0.00    -0.378 OA
ENDBRANCH  17  21
ENDBRANCH   8  13
BRANCH   7  27
ATOM     27  O   UNL A   1      30.611  25.788  23.496  1.00  0.00    -0.380 OA
ATOM     28  H   UNL A   1      30.434  26.740  23.536  1.00  0.00     0.212 HD
ENDBRANCH   7  27
ENDBRANCH   4   7
ENDBRANCH   2   3
ENDBRANCH   1   2
BRANCH   1  29
ATOM     29  C   UNL A   1      33.942  28.858  26.138  1.00  0.00     0.118 C 
BRANCH  29  30
ATOM     30  N   UNL A   1      33.804  30.194  26.695  1.00  0.00    -0.352 N 
ATOM     31  C   UNL A   1      34.563  30.848  27.632  1.00  0.00     0.251 C 
ATOM     32  H   UNL A   1      33.043  30.712  26.345  1.00  0.00     0.163 HD
ATOM     33  O   UNL A   1      34.155  31.912  28.094  1.00  0.00    -0.269 OA
BRANCH  31  34
ATOM     34  C   UNL A   1      35.852  30.287  28.104  1.00  0.00     0.039 A 
ATOM     35  C   UNL A   1      36.982  30.441  27.295  1.00  0.00     0.014 A 
ATOM     36  C   UNL A   1      35.949  29.573  29.302  1.00  0.00     0.014 A 
ATOM     37  C   UNL A   1      38.214  29.928  27.711  1.00  0.00     0.010 A 
ATOM     38  C   UNL A   1      37.192  29.125  29.749  1.00  0.00     0.010 A 
ATOM     39  C   UNL A   1      38.336  29.289  28.955  1.00  0.00    -0.014 A 
BRANCH  39  40
ATOM     40  C   UNL A   1      39.655  28.797  29.436  1.00  0.00     0.031 A 
ATOM     41  C   UNL A   1      40.389  29.521  30.534  1.00  0.00     0.074 A 
ATOM     42  C   UNL A   1      40.219  27.725  28.842  1.00  0.00     0.049 A 
ATOM     43  N   UNL A   1      41.555  29.250  31.062  1.00  0.00    -0.248 NA
ATOM     44  C   UNL A   1      39.741  30.717  31.098  1.00  0.00     0.031 C 
ATOM     45  C   UNL A   1      39.644  26.979  27.720  1.00  0.00     0.029 A 
ATOM     46  N   UNL A   1      41.409  27.087  29.086  1.00  0.00    -0.354 N 
ATOM     47  C   UNL A   1      41.790  30.247  32.003  1.00  0.00     0.074 A 
ATOM     48  C   UNL A   1      40.664  31.154  31.944  1.00  0.00     0.031 C 
ATOM     49  C   UNL A   1      40.478  25.982  27.381  1.00  0.00     0.029 A 
ATOM     50  C   UNL A   1      41.655  26.029  28.241  1.00  0.00     0.049 A 
ATOM     51  H   UNL A   1      42.031  27.361  29.800  1.00  0.00     0.167 HD
ATOM     52  C   UNL A   1      42.828  30.378  32.863  1.00  0.00     0.034 A 
ATOM     53  C   UNL A   1      42.707  25.191  28.170  1.00  0.00     0.034 A 
ATOM     54  C   UNL A   1      43.927  29.454  32.950  1.00  0.00     0.049 A 
ATOM     55  C   UNL A   1      43.830  25.342  29.162  1.00  0.00     0.074 A 
ATOM     56  C   UNL A   1      44.998  29.470  33.826  1.00  0.00     0.029 A 
ATOM     57  N   UNL A   1      44.095  28.345  32.135  1.00  0.00    -0.354 N 
ATOM     58  N   UNL A   1      43.957  26.204  30.140  1.00  0.00    -0.248 NA
ATOM     59  C   UNL A   1      44.934  24.376  29.066  1.00  0.00     0.031 C 
ATOM     60  C   UNL A   1      45.818  28.373  33.537  1.00  0.00     0.029 A 
ATOM     61  C   UNL A   1      45.248  27.667  32.491  1.00  0.00     0.049 A 
ATOM     62  H   UNL A   1      43.484  28.079  31.411  1.00  0.00     0.167 HD
ATOM     63  C   UNL A   1      45.133  25.862  30.799  1.00  0.00     0.074 A 
ATOM     64  C   UNL A   1      45.665  24.696  30.124  1.00  0.00     0.031 C 
ATOM     65  C   UNL A   1      45.730  26.469  31.854  1.00  0.00     0.034 A 
BRANCH  52  66
ATOM     66  C   UNL A   1      42.789  31.523  33.841  1.00  0.00     0.023 A 
ATOM     67  C   UNL A   1      43.181  32.807  33.409  1.00  0.00     0.012 A 
ATOM     68  C   UNL A   1      42.296  31.355  35.150  1.00  0.00     0.148 A 
ATOM     69  C   UNL A   1      43.107  33.901  34.269  1.00  0.00     0.002 A 
ATOM     70  C   UNL A   1      42.187  32.459  35.990  1.00  0.00     0.091 A 
ATOM     71  F   UNL A   1      41.944  30.125  35.548  1.00  0.00    -0.205 F 
ATOM     72  C   UNL A   1      42.600  33.729  35.554  1.00  0.00     0.022 A 
BRANCH  70  73
ATOM     73  S   UNL A   1      41.477  32.361  37.638  1.00  0.00     0.127 S 
ATOM     74  O   UNL A   1      41.613  33.744  38.099  1.00  0.00    -0.237 OA
ATOM     75  O   UNL A   1      40.100  31.949  37.354  1.00  0.00    -0.237 OA
ATOM     76  O   UNL A   1      42.269  31.383  38.362  1.00  0.00    -0.744 OA
ENDBRANCH  70  73
ENDBRANCH  52  66
BRANCH  53  77
ATOM     77  C   UNL A   1      42.720  24.081  27.173  1.00  0.00     0.023 A 
ATOM     78  C   UNL A   1      43.406  24.259  25.955  1.00  0.00     0.012 A 
ATOM     79  C   UNL A   1      42.063  22.861  27.418  1.00  0.00     0.148 A 
ATOM     80  C   UNL A   1      43.401  23.257  24.983  1.00  0.00     0.002 A 
ATOM     81  C   UNL A   1      42.111  21.846  26.469  1.00  0.00     0.091 A 
ATOM     82  F   UNL A   1      41.400  22.714  28.574  1.00  0.00    -0.205 F 
ATOM     83  C   UNL A   1      42.762  22.048  25.243  1.00  0.00     0.022 A 
BRANCH  81  84
ATOM     84  S   UNL A   1      41.429  20.215  26.789  1.00  0.00     0.127 S 
ATOM     85  O   UNL A   1      40.050  20.531  27.152  1.00  0.00    -0.237 OA
ATOM     86  O   UNL A   1      41.588  19.552  25.494  1.00  0.00    -0.237 OA
ATOM     87  O   UNL A   1      42.260  19.655  27.847  1.00  0.00    -0.744 OA
ENDBRANCH  81  84
ENDBRANCH  53  77
BRANCH  65  88
ATOM     88  C   UNL A   1      47.006  25.863  32.375  1.00  0.00     0.023 A 
ATOM     89  C   UNL A   1      48.240  26.243  31.812  1.00  0.00     0.012 A 
ATOM     90  C   UNL A   1      46.988  24.962  33.459  1.00  0.00     0.148 A 
ATOM     91  C   UNL A   1      49.434  25.710  32.295  1.00  0.00     0.002 A 
ATOM     92  C   UNL A   1      48.185  24.471  33.966  1.00  0.00     0.091 A 
ATOM     93  F   UNL A   1      45.802  24.596  33.967  1.00  0.00    -0.205 F 
ATOM     94  C   UNL A   1      49.407  24.834  33.378  1.00  0.00     0.022 A 
BRANCH  92  95
ATOM     95  S   UNL A   1      48.249  23.410  35.414  1.00  0.00     0.127 S 
ATOM     96  O   UNL A   1      49.678  23.407  35.720  1.00  0.00    -0.237 OA
ATOM     97  O   UNL A   1      47.422  24.143  36.374  1.00  0.00    -0.237 OA
ATOM     98  O   UNL A   1      47.692  22.131  34.995  1.00  0.00    -0.744 OA
ENDBRANCH  92  95
ENDBRANCH  65  88
ENDBRANCH  39  40
ENDBRANCH  31  34
ENDBRANCH  29  30
ENDBRANCH   1  29
TORSDOF 17
ENDMDL
