MODEL 1
REMARK VINA RESULT:      -8.8      0.000      0.000
REMARK SMILES N#CCC[NH+]1CCN(c2ccc(NS(=O)(=O)c3ccccc3Cl)cc2C(=O)NCCCNC(=O)c2ccc(-c3c4nc(c(-c5cccc(S(=O)(=O)[O-])c5F)c5ccc([nH]5)c(-c5cccc(S(=O)(=O)[O-])c5F)c5nc(c(-c6cccc(S(=O)(=O)[O-])c6F)c6ccc3[nH]6)C=C5)C=C4)cc2)CC1
REMARK SMILES IDX 29 1 28 2 26 3 27 4 25 6 9 7 10 8 11 9 24 10 12 11 8 12 5 13
REMARK SMILES IDX 6 14 99 15 7 17 98 18 4 19 3 20 2 21 1 22 13 23 14 25 15 26
REMARK SMILES IDX 16 27 17 28 18 29 22 30 19 31 21 32 23 33 20 34 30 35 31 36
REMARK SMILES IDX 32 37 33 38 34 40 35 41 36 42 97 43 37 44 96 45 38 46 39 47
REMARK SMILES IDX 40 48 90 49 41 50 95 51 89 52 91 53 42 54 94 55 88 56 87 57
REMARK SMILES IDX 43 59 75 60 55 61 74 62 56 63 59 64 73 65 92 66 57 67 58 68
REMARK SMILES IDX 72 70 93 71 60 72 44 73 45 74 53 75 46 76 48 77 54 78 47 79
REMARK SMILES IDX 49 80 50 81 51 82 52 83 76 84 77 85 85 86 78 87 80 88 86 89
REMARK SMILES IDX 79 90 81 91 82 92 83 93 84 94 61 95 62 96 70 97 63 98 65 99
REMARK SMILES IDX 71 100 64 101 66 102 67 103 68 104 69 105
REMARK H PARENT 28 5 5 16 13 24 32 39 91 58 59 69
REMARK Flexibility Score: inf
ROOT
ATOM      1  C   UNL A   1      45.883  25.406  27.535  1.00  0.00     0.118 C 
ENDROOT
BRANCH   1   2
ATOM      2  N   UNL A   1      44.562  24.995  27.028  1.00  0.00    -0.352 N 
ATOM      3  C   UNL A   1      43.646  25.884  26.496  1.00  0.00     0.253 C 
ATOM      4  O   UNL A   1      43.933  26.567  25.516  1.00  0.00    -0.269 OA
ATOM      5  H   UNL A   1      44.318  24.042  27.069  1.00  0.00     0.163 HD
BRANCH   3   6
ATOM      6  C   UNL A   1      42.212  25.807  26.969  1.00  0.00     0.065 A 
ATOM      7  C   UNL A   1      41.333  24.681  26.956  1.00  0.00     0.050 A 
ATOM      8  C   UNL A   1      40.001  24.950  27.343  1.00  0.00     0.029 A 
ATOM      9  C   UNL A   1      39.575  26.189  27.837  1.00  0.00     0.029 A 
ATOM     10  C   UNL A   1      41.783  27.025  27.550  1.00  0.00     0.042 A 
ATOM     11  C   UNL A   1      40.502  27.183  28.077  1.00  0.00     0.050 A 
BRANCH   7  12
ATOM     12  N   UNL A   1      41.660  23.368  26.655  1.00  0.00    -0.360 N 
ATOM     13  N   UNL A   1      42.815  20.607  26.731  1.00  0.00    -0.331 N 
ATOM     14  C   UNL A   1      43.227  21.562  25.669  1.00  0.00     0.284 C 
ATOM     15  C   UNL A   1      42.223  21.396  27.806  1.00  0.00     0.284 C 
ATOM     16  H   UNL A   1      43.648  20.113  27.052  1.00  0.00     0.348 HD
ATOM     17  C   UNL A   1      42.405  22.900  25.446  1.00  0.00     0.178 C 
ATOM     18  C   UNL A   1      41.042  22.258  27.356  1.00  0.00     0.178 C 
BRANCH  13  19
ATOM     19  C   UNL A   1      41.978  19.476  26.299  1.00  0.00     0.277 C 
BRANCH  19  20
ATOM     20  C   UNL A   1      42.653  18.070  26.435  1.00  0.00     0.181 C 
BRANCH  20  21
ATOM     21  C   UNL A   1      44.053  18.101  25.845  1.00  0.00     0.068 C 
ATOM     22  N   UNL A   1      45.215  18.127  25.355  1.00  0.00    -0.198 NA
ENDBRANCH  20  21
ENDBRANCH  19  20
ENDBRANCH  13  19
ENDBRANCH   7  12
BRANCH  11  23
ATOM     23  N   UNL A   1      40.195  28.420  28.729  1.00  0.00    -0.280 N 
ATOM     24  H   UNL A   1      40.298  29.254  28.214  1.00  0.00     0.180 HD
BRANCH  23  25
ATOM     25  S   UNL A   1      39.668  28.537  30.338  1.00  0.00     0.263 S 
ATOM     26  O   UNL A   1      38.486  27.702  30.434  1.00  0.00    -0.201 OA
ATOM     27  O   UNL A   1      40.818  28.217  31.159  1.00  0.00    -0.201 OA
BRANCH  25  28
ATOM     28  C   UNL A   1      39.187  30.198  30.721  1.00  0.00     0.106 A 
ATOM     29  C   UNL A   1      39.467  31.188  29.755  1.00  0.00     0.024 A 
ATOM     30  C   UNL A   1      38.535  30.549  31.902  1.00  0.00     0.061 A 
ATOM     31  C   UNL A   1      39.033  32.499  29.937  1.00  0.00     0.002 A 
ATOM     32  C   UNL A   1      38.093  31.870  32.070  1.00  0.00     0.022 A 
ATOM     33  Cl  UNL A   1      38.189  29.445  33.181  1.00  0.00    -0.083 Cl
ATOM     34  C   UNL A   1      38.330  32.837  31.089  1.00  0.00     0.002 A 
ENDBRANCH  25  28
ENDBRANCH  23  25
ENDBRANCH  11  23
ENDBRANCH   3   6
ENDBRANCH   1   2
BRANCH   1  35
ATOM     35  C   UNL A   1      46.972  24.886  26.589  1.00  0.00     0.042 C 
BRANCH  35  36
ATOM     36  C   UNL A   1      47.266  25.524  25.218  1.00  0.00     0.118 C 
BRANCH  36  37
ATOM     37  N   UNL A   1      48.378  26.437  25.045  1.00  0.00    -0.352 N 
ATOM     38  C   UNL A   1      48.556  27.676  25.651  1.00  0.00     0.251 C 
ATOM     39  H   UNL A   1      49.087  26.147  24.428  1.00  0.00     0.163 HD
ATOM     40  O   UNL A   1      49.501  28.380  25.292  1.00  0.00    -0.269 OA
BRANCH  38  41
ATOM     41  C   UNL A   1      47.592  28.227  26.660  1.00  0.00     0.039 A 
ATOM     42  C   UNL A   1      47.962  28.302  28.020  1.00  0.00     0.014 A 
ATOM     43  C   UNL A   1      46.300  28.607  26.308  1.00  0.00     0.014 A 
ATOM     44  C   UNL A   1      47.070  28.786  28.994  1.00  0.00     0.010 A 
ATOM     45  C   UNL A   1      45.430  29.135  27.260  1.00  0.00     0.010 A 
ATOM     46  C   UNL A   1      45.789  29.195  28.616  1.00  0.00    -0.014 A 
BRANCH  46  47
ATOM     47  C   UNL A   1      44.703  29.508  29.583  1.00  0.00     0.031 A 
ATOM     48  C   UNL A   1      44.129  30.902  29.549  1.00  0.00     0.074 A 
ATOM     49  C   UNL A   1      44.357  28.654  30.563  1.00  0.00     0.049 A 
ATOM     50  N   UNL A   1      43.450  31.547  30.459  1.00  0.00    -0.248 NA
ATOM     51  C   UNL A   1      44.415  31.691  28.337  1.00  0.00     0.031 C 
ATOM     52  C   UNL A   1      44.853  27.288  30.716  1.00  0.00     0.029 A 
ATOM     53  N   UNL A   1      43.551  28.845  31.661  1.00  0.00    -0.354 N 
ATOM     54  C   UNL A   1      43.284  32.834  29.959  1.00  0.00     0.074 A 
ATOM     55  C   UNL A   1      43.951  32.885  28.677  1.00  0.00     0.031 C 
ATOM     56  C   UNL A   1      44.384  26.780  31.870  1.00  0.00     0.029 A 
ATOM     57  C   UNL A   1      43.591  27.798  32.556  1.00  0.00     0.049 A 
ATOM     58  H   UNL A   1      43.000  29.649  31.795  1.00  0.00     0.167 HD
ATOM     59  C   UNL A   1      42.621  33.879  30.510  1.00  0.00     0.034 A 
ATOM     60  C   UNL A   1      43.084  27.696  33.803  1.00  0.00     0.034 A 
ATOM     61  C   UNL A   1      41.915  33.804  31.758  1.00  0.00     0.049 A 
ATOM     62  C   UNL A   1      42.318  28.860  34.381  1.00  0.00     0.074 A 
ATOM     63  C   UNL A   1      41.163  34.782  32.383  1.00  0.00     0.029 A 
ATOM     64  N   UNL A   1      41.864  32.679  32.567  1.00  0.00    -0.354 N 
ATOM     65  N   UNL A   1      42.092  30.043  33.860  1.00  0.00    -0.248 NA
ATOM     66  C   UNL A   1      41.710  28.668  35.707  1.00  0.00     0.031 C 
ATOM     67  C   UNL A   1      40.660  34.248  33.574  1.00  0.00     0.029 A 
ATOM     68  C   UNL A   1      41.081  32.932  33.678  1.00  0.00     0.049 A 
ATOM     69  H   UNL A   1      42.318  31.827  32.377  1.00  0.00     0.167 HD
ATOM     70  C   UNL A   1      41.283  30.716  34.772  1.00  0.00     0.074 A 
ATOM     71  C   UNL A   1      41.043  29.802  35.869  1.00  0.00     0.031 C 
ATOM     72  C   UNL A   1      40.797  31.981  34.720  1.00  0.00     0.034 A 
BRANCH  59  73
ATOM     73  C   UNL A   1      42.579  35.171  29.736  1.00  0.00     0.023 A 
ATOM     74  C   UNL A   1      41.614  35.339  28.722  1.00  0.00     0.012 A 
ATOM     75  C   UNL A   1      43.449  36.235  30.045  1.00  0.00     0.148 A 
ATOM     76  C   UNL A   1      41.538  36.531  28.003  1.00  0.00     0.002 A 
ATOM     77  C   UNL A   1      43.334  37.438  29.357  1.00  0.00     0.091 A 
ATOM     78  F   UNL A   1      44.371  36.051  30.999  1.00  0.00    -0.205 F 
ATOM     79  C   UNL A   1      42.389  37.583  28.328  1.00  0.00     0.022 A 
BRANCH  77  80
ATOM     80  S   UNL A   1      44.327  38.883  29.748  1.00  0.00     0.127 S 
ATOM     81  O   UNL A   1      45.684  38.369  29.558  1.00  0.00    -0.237 OA
ATOM     82  O   UNL A   1      43.889  39.838  28.729  1.00  0.00    -0.237 OA
ATOM     83  O   UNL A   1      43.988  39.249  31.115  1.00  0.00    -0.744 OA
ENDBRANCH  77  80
ENDBRANCH  59  73
BRANCH  60  84
ATOM     84  C   UNL A   1      43.257  26.438  34.587  1.00  0.00     0.023 A 
ATOM     85  C   UNL A   1      42.197  25.512  34.654  1.00  0.00     0.012 A 
ATOM     86  C   UNL A   1      44.458  26.149  35.267  1.00  0.00     0.148 A 
ATOM     87  C   UNL A   1      42.311  24.348  35.415  1.00  0.00     0.002 A 
ATOM     88  C   UNL A   1      44.588  24.957  35.972  1.00  0.00     0.091 A 
ATOM     89  F   UNL A   1      45.453  27.046  35.212  1.00  0.00    -0.205 F 
ATOM     90  C   UNL A   1      43.508  24.064  36.065  1.00  0.00     0.022 A 
BRANCH  88  91
ATOM     91  S   UNL A   1      46.142  24.448  36.716  1.00  0.00     0.127 S 
ATOM     92  O   UNL A   1      45.815  23.116  37.216  1.00  0.00    -0.237 OA
ATOM     93  O   UNL A   1      47.051  24.469  35.568  1.00  0.00    -0.237 OA
ATOM     94  O   UNL A   1      46.437  25.456  37.725  1.00  0.00    -0.744 OA
ENDBRANCH  88  91
ENDBRANCH  60  84
BRANCH  72  95
ATOM     95  C   UNL A   1      39.904  32.438  35.844  1.00  0.00     0.023 A 
ATOM     96  C   UNL A   1      38.505  32.404  35.690  1.00  0.00     0.012 A 
ATOM     97  C   UNL A   1      40.457  32.819  37.084  1.00  0.00     0.148 A 
ATOM     98  C   UNL A   1      37.669  32.774  36.742  1.00  0.00     0.002 A 
ATOM     99  C   UNL A   1      39.617  33.138  38.143  1.00  0.00     0.091 A 
ATOM    100  F   UNL A   1      41.791  32.859  37.203  1.00  0.00    -0.205 F 
ATOM    101  C   UNL A   1      38.223  33.129  37.971  1.00  0.00     0.022 A 
BRANCH  99 102
ATOM    102  S   UNL A   1      40.239  33.512  39.786  1.00  0.00     0.127 S 
ATOM    103  O   UNL A   1      41.046  32.328  40.075  1.00  0.00    -0.237 OA
ATOM    104  O   UNL A   1      41.011  34.734  39.553  1.00  0.00    -0.237 OA
ATOM    105  O   UNL A   1      39.065  33.691  40.629  1.00  0.00    -0.744 OA
ENDBRANCH  99 102
ENDBRANCH  72  95
ENDBRANCH  46  47
ENDBRANCH  38  41
ENDBRANCH  36  37
ENDBRANCH  35  36
ENDBRANCH   1  35
TORSDOF 20
ENDMDL
MODEL 2
REMARK VINA RESULT:      -8.7      5.327     11.833
REMARK SMILES N#CCC[NH+]1CCN(c2ccc(NS(=O)(=O)c3ccccc3Cl)cc2C(=O)NCCCNC(=O)c2ccc(-c3c4nc(c(-c5cccc(S(=O)(=O)[O-])c5F)c5ccc([nH]5)c(-c5cccc(S(=O)(=O)[O-])c5F)c5nc(c(-c6cccc(S(=O)(=O)[O-])c6F)c6ccc3[nH]6)C=C5)C=C4)cc2)CC1
REMARK SMILES IDX 29 1 28 2 26 3 27 4 25 6 9 7 10 8 11 9 24 10 12 11 8 12 5 13
REMARK SMILES IDX 6 14 99 15 7 17 98 18 4 19 3 20 2 21 1 22 13 23 14 25 15 26
REMARK SMILES IDX 16 27 17 28 18 29 22 30 19 31 21 32 23 33 20 34 30 35 31 36
REMARK SMILES IDX 32 37 33 38 34 40 35 41 36 42 97 43 37 44 96 45 38 46 39 47
REMARK SMILES IDX 40 48 90 49 41 50 95 51 89 52 91 53 42 54 94 55 88 56 87 57
REMARK SMILES IDX 43 59 75 60 55 61 74 62 56 63 59 64 73 65 92 66 57 67 58 68
REMARK SMILES IDX 72 70 93 71 60 72 44 73 45 74 53 75 46 76 48 77 54 78 47 79
REMARK SMILES IDX 49 80 50 81 51 82 52 83 76 84 77 85 85 86 78 87 80 88 86 89
REMARK SMILES IDX 79 90 81 91 82 92 83 93 84 94 61 95 62 96 70 97 63 98 65 99
REMARK SMILES IDX 71 100 64 101 66 102 67 103 68 104 69 105
REMARK H PARENT 28 5 5 16 13 24 32 39 91 58 59 69
REMARK Flexibility Score: inf
ROOT
ATOM      1  C   UNL A   1      37.443  29.233  30.235  1.00  0.00     0.118 C 
ENDROOT
BRANCH   1   2
ATOM      2  N   UNL A   1      36.193  29.456  29.487  1.00  0.00    -0.352 N 
ATOM      3  C   UNL A   1      36.126  30.223  28.340  1.00  0.00     0.253 C 
ATOM      4  O   UNL A   1      36.795  29.931  27.351  1.00  0.00    -0.269 OA
ATOM      5  H   UNL A   1      35.366  29.039  29.821  1.00  0.00     0.163 HD
BRANCH   3   6
ATOM      6  C   UNL A   1      35.026  31.255  28.229  1.00  0.00     0.065 A 
ATOM      7  C   UNL A   1      33.779  31.153  27.540  1.00  0.00     0.050 A 
ATOM      8  C   UNL A   1      33.010  32.338  27.504  1.00  0.00     0.029 A 
ATOM      9  C   UNL A   1      33.355  33.505  28.198  1.00  0.00     0.029 A 
ATOM     10  C   UNL A   1      35.314  32.414  28.990  1.00  0.00     0.042 A 
ATOM     11  C   UNL A   1      34.433  33.493  29.058  1.00  0.00     0.050 A 
BRANCH   7  12
ATOM     12  N   UNL A   1      33.236  30.018  26.958  1.00  0.00    -0.360 N 
ATOM     13  N   UNL A   1      32.170  27.260  26.492  1.00  0.00    -0.331 N 
ATOM     14  C   UNL A   1      33.433  27.694  25.842  1.00  0.00     0.284 C 
ATOM     15  C   UNL A   1      31.928  28.174  27.604  1.00  0.00     0.284 C 
ATOM     16  H   UNL A   1      32.297  26.303  26.823  1.00  0.00     0.348 HD
ATOM     17  C   UNL A   1      33.836  29.228  25.840  1.00  0.00     0.178 C 
ATOM     18  C   UNL A   1      31.853  29.644  27.185  1.00  0.00     0.178 C 
BRANCH  13  19
ATOM     19  C   UNL A   1      31.007  27.090  25.606  1.00  0.00     0.277 C 
BRANCH  19  20
ATOM     20  C   UNL A   1      31.349  27.021  24.080  1.00  0.00     0.181 C 
BRANCH  20  21
ATOM     21  C   UNL A   1      30.666  28.159  23.338  1.00  0.00     0.068 C 
ATOM     22  N   UNL A   1      30.100  29.103  22.723  1.00  0.00    -0.198 NA
ENDBRANCH  20  21
ENDBRANCH  19  20
ENDBRANCH  13  19
ENDBRANCH   7  12
BRANCH  11  23
ATOM     23  N   UNL A   1      34.770  34.577  29.931  1.00  0.00    -0.280 N 
ATOM     24  H   UNL A   1      35.077  35.421  29.526  1.00  0.00     0.180 HD
BRANCH  23  25
ATOM     25  S   UNL A   1      34.674  34.494  31.624  1.00  0.00     0.263 S 
ATOM     26  O   UNL A   1      34.202  35.792  32.063  1.00  0.00    -0.201 OA
ATOM     27  O   UNL A   1      33.875  33.322  31.921  1.00  0.00    -0.201 OA
BRANCH  25  28
ATOM     28  C   UNL A   1      36.278  34.236  32.330  1.00  0.00     0.106 A 
ATOM     29  C   UNL A   1      37.358  34.089  31.436  1.00  0.00     0.024 A 
ATOM     30  C   UNL A   1      36.508  34.200  33.705  1.00  0.00     0.061 A 
ATOM     31  C   UNL A   1      38.663  33.982  31.912  1.00  0.00     0.002 A 
ATOM     32  C   UNL A   1      37.826  34.102  34.173  1.00  0.00     0.022 A 
ATOM     33  Cl  UNL A   1      35.266  34.309  34.896  1.00  0.00    -0.083 Cl
ATOM     34  C   UNL A   1      38.899  34.006  33.282  1.00  0.00     0.002 A 
ENDBRANCH  25  28
ENDBRANCH  23  25
ENDBRANCH  11  23
ENDBRANCH   3   6
ENDBRANCH   1   2
BRANCH   1  35
ATOM     35  C   UNL A   1      37.132  29.184  31.736  1.00  0.00     0.042 C 
BRANCH  35  36
ATOM     36  C   UNL A   1      37.502  30.323  32.706  1.00  0.00     0.118 C 
BRANCH  36  37
ATOM     37  N   UNL A   1      38.073  30.036  34.007  1.00  0.00    -0.352 N 
ATOM     38  C   UNL A   1      39.416  30.073  34.369  1.00  0.00     0.251 C 
ATOM     39  H   UNL A   1      37.437  29.786  34.715  1.00  0.00     0.163 HD
ATOM     40  O   UNL A   1      39.738  29.676  35.489  1.00  0.00    -0.269 OA
BRANCH  38  41
ATOM     41  C   UNL A   1      40.496  30.494  33.416  1.00  0.00     0.039 A 
ATOM     42  C   UNL A   1      41.643  31.158  33.901  1.00  0.00     0.014 A 
ATOM     43  C   UNL A   1      40.372  30.314  32.041  1.00  0.00     0.014 A 
ATOM     44  C   UNL A   1      42.659  31.591  33.030  1.00  0.00     0.010 A 
ATOM     45  C   UNL A   1      41.398  30.694  31.179  1.00  0.00     0.010 A 
ATOM     46  C   UNL A   1      42.533  31.370  31.656  1.00  0.00    -0.014 A 
BRANCH  46  47
ATOM     47  C   UNL A   1      43.429  31.977  30.636  1.00  0.00     0.031 A 
ATOM     48  C   UNL A   1      44.666  31.204  30.256  1.00  0.00     0.074 A 
ATOM     49  C   UNL A   1      43.249  33.235  30.191  1.00  0.00     0.049 A 
ATOM     50  N   UNL A   1      45.765  31.616  29.682  1.00  0.00    -0.248 NA
ATOM     51  C   UNL A   1      44.679  29.777  30.628  1.00  0.00     0.031 C 
ATOM     52  C   UNL A   1      42.107  34.091  30.500  1.00  0.00     0.029 A 
ATOM     53  N   UNL A   1      44.075  34.033  29.433  1.00  0.00    -0.354 N 
ATOM     54  C   UNL A   1      46.622  30.521  29.686  1.00  0.00     0.074 A 
ATOM     55  C   UNL A   1      45.925  29.434  30.335  1.00  0.00     0.031 C 
ATOM     56  C   UNL A   1      42.325  35.314  29.982  1.00  0.00     0.029 A 
ATOM     57  C   UNL A   1      43.640  35.337  29.344  1.00  0.00     0.049 A 
ATOM     58  H   UNL A   1      44.894  33.705  28.999  1.00  0.00     0.167 HD
ATOM     59  C   UNL A   1      47.873  30.422  29.177  1.00  0.00     0.034 A 
ATOM     60  C   UNL A   1      44.256  36.430  28.846  1.00  0.00     0.034 A 
ATOM     61  C   UNL A   1      48.538  31.491  28.485  1.00  0.00     0.049 A 
ATOM     62  C   UNL A   1      45.636  36.287  28.252  1.00  0.00     0.074 A 
ATOM     63  C   UNL A   1      49.782  31.485  27.881  1.00  0.00     0.029 A 
ATOM     64  N   UNL A   1      48.003  32.756  28.294  1.00  0.00    -0.354 N 
ATOM     65  N   UNL A   1      46.401  35.224  28.180  1.00  0.00    -0.248 NA
ATOM     66  C   UNL A   1      46.228  37.488  27.642  1.00  0.00     0.031 C 
ATOM     67  C   UNL A   1      50.001  32.750  27.327  1.00  0.00     0.029 A 
ATOM     68  C   UNL A   1      48.885  33.535  27.568  1.00  0.00     0.049 A 
ATOM     69  H   UNL A   1      47.127  33.054  28.626  1.00  0.00     0.167 HD
ATOM     70  C   UNL A   1      47.540  35.616  27.483  1.00  0.00     0.074 A 
ATOM     71  C   UNL A   1      47.356  37.010  27.137  1.00  0.00     0.031 C 
ATOM     72  C   UNL A   1      48.648  34.898  27.172  1.00  0.00     0.034 A 
BRANCH  59  73
ATOM     73  C   UNL A   1      48.578  29.096  29.300  1.00  0.00     0.023 A 
ATOM     74  C   UNL A   1      49.282  28.792  30.483  1.00  0.00     0.012 A 
ATOM     75  C   UNL A   1      48.499  28.131  28.276  1.00  0.00     0.148 A 
ATOM     76  C   UNL A   1      49.927  27.566  30.633  1.00  0.00     0.002 A 
ATOM     77  C   UNL A   1      49.104  26.891  28.453  1.00  0.00     0.091 A 
ATOM     78  F   UNL A   1      47.842  28.444  27.151  1.00  0.00    -0.205 F 
ATOM     79  C   UNL A   1      49.828  26.612  29.624  1.00  0.00     0.022 A 
BRANCH  77  80
ATOM     80  S   UNL A   1      48.973  25.563  27.251  1.00  0.00     0.127 S 
ATOM     81  O   UNL A   1      47.522  25.432  27.113  1.00  0.00    -0.237 OA
ATOM     82  O   UNL A   1      49.646  26.140  26.086  1.00  0.00    -0.237 OA
ATOM     83  O   UNL A   1      49.647  24.416  27.839  1.00  0.00    -0.744 OA
ENDBRANCH  77  80
ENDBRANCH  59  73
BRANCH  60  84
ATOM     84  C   UNL A   1      43.569  37.755  28.857  1.00  0.00     0.023 A 
ATOM     85  C   UNL A   1      42.656  38.070  27.832  1.00  0.00     0.012 A 
ATOM     86  C   UNL A   1      43.810  38.704  29.871  1.00  0.00     0.148 A 
ATOM     87  C   UNL A   1      42.030  39.317  27.790  1.00  0.00     0.002 A 
ATOM     88  C   UNL A   1      43.136  39.921  29.859  1.00  0.00     0.091 A 
ATOM     89  F   UNL A   1      44.695  38.400  30.831  1.00  0.00    -0.205 F 
ATOM     90  C   UNL A   1      42.261  40.238  28.808  1.00  0.00     0.022 A 
BRANCH  88  91
ATOM     91  S   UNL A   1      43.266  41.102  31.206  1.00  0.00     0.127 S 
ATOM     92  O   UNL A   1      44.713  41.213  31.370  1.00  0.00    -0.237 OA
ATOM     93  O   UNL A   1      42.617  42.286  30.638  1.00  0.00    -0.237 OA
ATOM     94  O   UNL A   1      42.541  40.503  32.318  1.00  0.00    -0.744 OA
ENDBRANCH  88  91
ENDBRANCH  60  84
BRANCH  72  95
ATOM     95  C   UNL A   1      49.723  35.578  26.365  1.00  0.00     0.023 A 
ATOM     96  C   UNL A   1      49.764  35.413  24.967  1.00  0.00     0.012 A 
ATOM     97  C   UNL A   1      50.639  36.449  26.988  1.00  0.00     0.148 A 
ATOM     98  C   UNL A   1      50.721  36.080  24.205  1.00  0.00     0.002 A 
ATOM     99  C   UNL A   1      51.558  37.148  26.216  1.00  0.00     0.091 A 
ATOM    100  F   UNL A   1      50.592  36.578  28.322  1.00  0.00    -0.205 F 
ATOM    101  C   UNL A   1      51.609  36.956  24.826  1.00  0.00     0.022 A 
BRANCH  99 102
ATOM    102  S   UNL A   1      52.675  38.368  26.920  1.00  0.00     0.127 S 
ATOM    103  O   UNL A   1      53.459  38.761  25.751  1.00  0.00    -0.237 OA
ATOM    104  O   UNL A   1      51.748  39.391  27.405  1.00  0.00    -0.237 OA
ATOM    105  O   UNL A   1      53.414  37.677  27.967  1.00  0.00    -0.744 OA
ENDBRANCH  99 102
ENDBRANCH  72  95
ENDBRANCH  46  47
ENDBRANCH  38  41
ENDBRANCH  36  37
ENDBRANCH  35  36
ENDBRANCH   1  35
TORSDOF 20
ENDMDL
MODEL 3
REMARK VINA RESULT:      -8.7      1.701      2.060
REMARK SMILES N#CCC[NH+]1CCN(c2ccc(NS(=O)(=O)c3ccccc3Cl)cc2C(=O)NCCCNC(=O)c2ccc(-c3c4nc(c(-c5cccc(S(=O)(=O)[O-])c5F)c5ccc([nH]5)c(-c5cccc(S(=O)(=O)[O-])c5F)c5nc(c(-c6cccc(S(=O)(=O)[O-])c6F)c6ccc3[nH]6)C=C5)C=C4)cc2)CC1
REMARK SMILES IDX 29 1 28 2 26 3 27 4 25 6 9 7 10 8 11 9 24 10 12 11 8 12 5 13
REMARK SMILES IDX 6 14 99 15 7 17 98 18 4 19 3 20 2 21 1 22 13 23 14 25 15 26
REMARK SMILES IDX 16 27 17 28 18 29 22 30 19 31 21 32 23 33 20 34 30 35 31 36
REMARK SMILES IDX 32 37 33 38 34 40 35 41 36 42 97 43 37 44 96 45 38 46 39 47
REMARK SMILES IDX 40 48 90 49 41 50 95 51 89 52 91 53 42 54 94 55 88 56 87 57
REMARK SMILES IDX 43 59 75 60 55 61 74 62 56 63 59 64 73 65 92 66 57 67 58 68
REMARK SMILES IDX 72 70 93 71 60 72 44 73 45 74 53 75 46 76 48 77 54 78 47 79
REMARK SMILES IDX 49 80 50 81 51 82 52 83 76 84 77 85 85 86 78 87 80 88 86 89
REMARK SMILES IDX 79 90 81 91 82 92 83 93 84 94 61 95 62 96 70 97 63 98 65 99
REMARK SMILES IDX 71 100 64 101 66 102 67 103 68 104 69 105
REMARK H PARENT 28 5 5 16 13 24 32 39 91 58 59 69
REMARK Flexibility Score: inf
ROOT
ATOM      1  C   UNL A   1      45.853  27.618  24.631  1.00  0.00     0.118 C 
ENDROOT
BRANCH   1   2
ATOM      2  N   UNL A   1      44.690  26.762  24.927  1.00  0.00    -0.352 N 
ATOM      3  C   UNL A   1      43.451  27.266  25.275  1.00  0.00     0.253 C 
ATOM      4  O   UNL A   1      42.844  28.018  24.515  1.00  0.00    -0.269 OA
ATOM      5  H   UNL A   1      44.801  25.785  24.876  1.00  0.00     0.163 HD
BRANCH   3   6
ATOM      6  C   UNL A   1      42.743  26.670  26.471  1.00  0.00     0.065 A 
ATOM      7  C   UNL A   1      42.681  25.301  26.874  1.00  0.00     0.050 A 
ATOM      8  C   UNL A   1      41.828  25.032  27.968  1.00  0.00     0.029 A 
ATOM      9  C   UNL A   1      41.182  26.029  28.709  1.00  0.00     0.029 A 
ATOM     10  C   UNL A   1      42.151  27.668  27.283  1.00  0.00     0.042 A 
ATOM     11  C   UNL A   1      41.462  27.356  28.455  1.00  0.00     0.050 A 
BRANCH   7  12
ATOM     12  N   UNL A   1      43.396  24.240  26.342  1.00  0.00    -0.360 N 
ATOM     13  N   UNL A   1      45.576  22.522  25.220  1.00  0.00    -0.331 N 
ATOM     14  C   UNL A   1      44.431  22.932  24.366  1.00  0.00     0.284 C 
ATOM     15  C   UNL A   1      45.605  23.434  26.358  1.00  0.00     0.284 C 
ATOM     16  H   UNL A   1      46.428  22.598  24.664  1.00  0.00     0.348 HD
ATOM     17  C   UNL A   1      43.141  23.576  25.026  1.00  0.00     0.178 C 
ATOM     18  C   UNL A   1      44.303  23.457  27.160  1.00  0.00     0.178 C 
BRANCH  13  19
ATOM     19  C   UNL A   1      45.627  21.101  25.602  1.00  0.00     0.277 C 
BRANCH  19  20
ATOM     20  C   UNL A   1      46.525  20.205  24.684  1.00  0.00     0.181 C 
BRANCH  20  21
ATOM     21  C   UNL A   1      46.443  18.753  25.125  1.00  0.00     0.068 C 
ATOM     22  N   UNL A   1      46.375  17.549  25.492  1.00  0.00    -0.198 NA
ENDBRANCH  20  21
ENDBRANCH  19  20
ENDBRANCH  13  19
ENDBRANCH   7  12
BRANCH  11  23
ATOM     23  N   UNL A   1      40.983  28.441  29.257  1.00  0.00    -0.280 N 
ATOM     24  H   UNL A   1      41.576  28.796  29.959  1.00  0.00     0.180 HD
BRANCH  23  25
ATOM     25  S   UNL A   1      39.453  29.151  29.072  1.00  0.00     0.263 S 
ATOM     26  O   UNL A   1      39.692  30.501  28.599  1.00  0.00    -0.201 OA
ATOM     27  O   UNL A   1      38.689  28.244  28.239  1.00  0.00    -0.201 OA
BRANCH  25  28
ATOM     28  C   UNL A   1      38.622  29.266  30.633  1.00  0.00     0.106 A 
ATOM     29  C   UNL A   1      39.295  28.747  31.759  1.00  0.00     0.024 A 
ATOM     30  C   UNL A   1      37.370  29.860  30.788  1.00  0.00     0.061 A 
ATOM     31  C   UNL A   1      38.754  28.887  33.035  1.00  0.00     0.002 A 
ATOM     32  C   UNL A   1      36.839  30.004  32.078  1.00  0.00     0.022 A 
ATOM     33  Cl  UNL A   1      36.425  30.477  29.485  1.00  0.00    -0.083 Cl
ATOM     34  C   UNL A   1      37.532  29.531  33.197  1.00  0.00     0.002 A 
ENDBRANCH  25  28
ENDBRANCH  23  25
ENDBRANCH  11  23
ENDBRANCH   3   6
ENDBRANCH   1   2
BRANCH   1  35
ATOM     35  C   UNL A   1      47.079  26.733  24.376  1.00  0.00     0.042 C 
BRANCH  35  36
ATOM     36  C   UNL A   1      48.517  27.180  24.702  1.00  0.00     0.118 C 
BRANCH  36  37
ATOM     37  N   UNL A   1      49.304  26.484  25.700  1.00  0.00    -0.352 N 
ATOM     38  C   UNL A   1      49.100  26.464  27.076  1.00  0.00     0.251 C 
ATOM     39  H   UNL A   1      50.071  25.965  25.365  1.00  0.00     0.163 HD
ATOM     40  O   UNL A   1      49.943  25.922  27.792  1.00  0.00    -0.269 OA
BRANCH  38  41
ATOM     41  C   UNL A   1      47.939  27.155  27.729  1.00  0.00     0.039 A 
ATOM     42  C   UNL A   1      48.101  28.450  28.265  1.00  0.00     0.014 A 
ATOM     43  C   UNL A   1      46.707  26.527  27.888  1.00  0.00     0.014 A 
ATOM     44  C   UNL A   1      47.041  29.112  28.909  1.00  0.00     0.010 A 
ATOM     45  C   UNL A   1      45.638  27.197  28.479  1.00  0.00     0.010 A 
ATOM     46  C   UNL A   1      45.802  28.479  29.030  1.00  0.00    -0.014 A 
BRANCH  46  47
ATOM     47  C   UNL A   1      44.692  28.990  29.877  1.00  0.00     0.031 A 
ATOM     48  C   UNL A   1      44.209  30.393  29.612  1.00  0.00     0.074 A 
ATOM     49  C   UNL A   1      44.245  28.309  30.948  1.00  0.00     0.049 A 
ATOM     50  N   UNL A   1      43.528  31.201  30.379  1.00  0.00    -0.248 NA
ATOM     51  C   UNL A   1      44.603  30.980  28.317  1.00  0.00     0.031 C 
ATOM     52  C   UNL A   1      44.645  26.954  31.324  1.00  0.00     0.029 A 
ATOM     53  N   UNL A   1      43.399  28.703  31.960  1.00  0.00    -0.354 N 
ATOM     54  C   UNL A   1      43.469  32.409  29.691  1.00  0.00     0.074 A 
ATOM     55  C   UNL A   1      44.199  32.234  28.456  1.00  0.00     0.031 C 
ATOM     56  C   UNL A   1      44.089  26.647  32.509  1.00  0.00     0.029 A 
ATOM     57  C   UNL A   1      43.329  27.797  32.996  1.00  0.00     0.049 A 
ATOM     58  H   UNL A   1      42.894  29.547  31.944  1.00  0.00     0.167 HD
ATOM     59  C   UNL A   1      42.847  33.557  30.048  1.00  0.00     0.034 A 
ATOM     60  C   UNL A   1      42.756  27.907  34.213  1.00  0.00     0.034 A 
ATOM     61  C   UNL A   1      42.077  33.705  31.251  1.00  0.00     0.049 A 
ATOM     62  C   UNL A   1      42.037  29.184  34.573  1.00  0.00     0.074 A 
ATOM     63  C   UNL A   1      41.358  34.804  31.685  1.00  0.00     0.029 A 
ATOM     64  N   UNL A   1      41.916  32.715  32.208  1.00  0.00    -0.354 N 
ATOM     65  N   UNL A   1      41.912  30.289  33.876  1.00  0.00    -0.248 NA
ATOM     66  C   UNL A   1      41.354  29.221  35.876  1.00  0.00     0.031 C 
ATOM     67  C   UNL A   1      40.765  34.479  32.909  1.00  0.00     0.029 A 
ATOM     68  C   UNL A   1      41.096  33.171  33.224  1.00  0.00     0.049 A 
ATOM     69  H   UNL A   1      42.323  31.821  32.169  1.00  0.00     0.167 HD
ATOM     70  C   UNL A   1      41.104  31.132  34.634  1.00  0.00     0.074 A 
ATOM     71  C   UNL A   1      40.753  30.402  35.835  1.00  0.00     0.031 C 
ATOM     72  C   UNL A   1      40.702  32.400  34.374  1.00  0.00     0.034 A 
BRANCH  59  73
ATOM     73  C   UNL A   1      42.924  34.723  29.095  1.00  0.00     0.023 A 
ATOM     74  C   UNL A   1      41.813  35.029  28.284  1.00  0.00     0.012 A 
ATOM     75  C   UNL A   1      44.066  35.547  29.043  1.00  0.00     0.148 A 
ATOM     76  C   UNL A   1      41.848  36.112  27.408  1.00  0.00     0.002 A 
ATOM     77  C   UNL A   1      44.074  36.655  28.203  1.00  0.00     0.091 A 
ATOM     78  F   UNL A   1      45.119  35.231  29.808  1.00  0.00    -0.205 F 
ATOM     79  C   UNL A   1      42.973  36.932  27.376  1.00  0.00     0.022 A 
BRANCH  77  80
ATOM     80  S   UNL A   1      45.441  37.820  28.141  1.00  0.00     0.127 S 
ATOM     81  O   UNL A   1      45.466  38.319  29.517  1.00  0.00    -0.237 OA
ATOM     82  O   UNL A   1      46.564  36.952  27.787  1.00  0.00    -0.237 OA
ATOM     83  O   UNL A   1      45.087  38.806  27.130  1.00  0.00    -0.744 OA
ENDBRANCH  77  80
ENDBRANCH  59  73
BRANCH  60  84
ATOM     84  C   UNL A   1      42.811  26.770  35.178  1.00  0.00     0.023 A 
ATOM     85  C   UNL A   1      41.814  25.774  35.132  1.00  0.00     0.012 A 
ATOM     86  C   UNL A   1      43.836  26.664  36.139  1.00  0.00     0.148 A 
ATOM     87  C   UNL A   1      41.812  24.722  36.048  1.00  0.00     0.002 A 
ATOM     88  C   UNL A   1      43.864  25.578  37.009  1.00  0.00     0.091 A 
ATOM     89  F   UNL A   1      44.768  27.627  36.186  1.00  0.00    -0.205 F 
ATOM     90  C   UNL A   1      42.841  24.617  36.980  1.00  0.00     0.022 A 
BRANCH  88  91
ATOM     91  S   UNL A   1      45.230  25.292  38.141  1.00  0.00     0.127 S 
ATOM     92  O   UNL A   1      44.887  23.989  38.703  1.00  0.00    -0.237 OA
ATOM     93  O   UNL A   1      46.381  25.289  37.235  1.00  0.00    -0.237 OA
ATOM     94  O   UNL A   1      45.207  26.414  39.068  1.00  0.00    -0.744 OA
ENDBRANCH  88  91
ENDBRANCH  60  84
BRANCH  72  95
ATOM     95  C   UNL A   1      39.786  33.065  35.368  1.00  0.00     0.023 A 
ATOM     96  C   UNL A   1      38.403  32.803  35.335  1.00  0.00     0.012 A 
ATOM     97  C   UNL A   1      40.313  33.884  36.386  1.00  0.00     0.148 A 
ATOM     98  C   UNL A   1      37.553  33.371  36.283  1.00  0.00     0.002 A 
ATOM     99  C   UNL A   1      39.467  34.407  37.357  1.00  0.00     0.091 A 
ATOM    100  F   UNL A   1      41.630  34.133  36.389  1.00  0.00    -0.205 F 
ATOM    101  C   UNL A   1      38.085  34.162  37.300  1.00  0.00     0.022 A 
BRANCH  99 102
ATOM    102  S   UNL A   1      40.077  35.354  38.756  1.00  0.00     0.127 S 
ATOM    103  O   UNL A   1      38.849  35.594  39.511  1.00  0.00    -0.237 OA
ATOM    104  O   UNL A   1      41.007  34.415  39.384  1.00  0.00    -0.237 OA
ATOM    105  O   UNL A   1      40.707  36.541  38.192  1.00  0.00    -0.744 OA
ENDBRANCH  99 102
ENDBRANCH  72  95
ENDBRANCH  46  47
ENDBRANCH  38  41
ENDBRANCH  36  37
ENDBRANCH  35  36
ENDBRANCH   1  35
TORSDOF 20
ENDMDL
