MODEL 1
REMARK VINA RESULT:     -12.4      0.000      0.000
REMARK SMILES Cc1cc(C)c(C(N)=O)c(N[C@H]2C=C[C@H](C(=O)NCCCNC(=O)c3ccc(-c4c5nc(c(-c6cccc(S(=O)(=O)[O-])c6F)c6ccc([nH]6)c(-c6cccc(S(=O)(=O)[O-])c6F)c6nc(c(-c7cccc(S(=O)(=O)[O-])c7F)c7ccc4[nH]7)C=C6)C=C5)cc3)C2)n1
REMARK SMILES IDX 20 1 19 2 18 3 16 4 17 5 15 7 12 8 13 9 88 10 14 11 11 12
REMARK SMILES IDX 10 14 1 15 2 16 3 17 89 18 4 19 5 20 6 21 7 22 8 23 9 24
REMARK SMILES IDX 21 27 22 28 23 29 24 31 25 32 26 33 87 34 27 35 86 36 28 37
REMARK SMILES IDX 29 38 30 39 80 40 31 41 85 42 79 43 81 44 32 45 84 46 78 47
REMARK SMILES IDX 77 48 33 50 65 51 45 52 64 53 46 54 49 55 63 56 82 57 47 58
REMARK SMILES IDX 48 59 62 61 83 62 50 63 34 64 35 65 43 66 36 67 38 68 44 69
REMARK SMILES IDX 37 70 39 71 40 72 41 73 42 74 66 75 67 76 75 77 68 78 70 79
REMARK SMILES IDX 76 80 69 81 71 82 72 83 73 84 74 85 51 86 52 87 60 88 53 89
REMARK SMILES IDX 55 90 61 91 54 92 56 93 57 94 58 95 59 96
REMARK H PARENT 18 6 11 13 8 25 8 26 22 30 81 49 49 60
REMARK Flexibility Score: inf
ROOT
ATOM      1  C   UNL A   1      31.703  30.391  25.758  1.00  0.00     0.042 C 
ENDROOT
BRANCH   1   2
ATOM      2  C   UNL A   1      32.500  29.587  24.746  1.00  0.00     0.117 C 
BRANCH   2   3
ATOM      3  N   UNL A   1      31.760  29.327  23.524  1.00  0.00    -0.356 N 
ATOM      4  C   UNL A   1      31.123  28.184  23.137  1.00  0.00     0.227 C 
ATOM      5  O   UNL A   1      30.449  28.214  22.107  1.00  0.00    -0.274 OA
ATOM      6  H   UNL A   1      31.712  30.078  22.888  1.00  0.00     0.163 HD
BRANCH   4   7
ATOM      7  C   UNL A   1      31.271  26.935  24.003  1.00  0.00     0.103 C 
ATOM      8  C   UNL A   1      31.393  24.765  22.873  1.00  0.00     0.104 C 
ATOM      9  C   UNL A   1      30.033  25.006  23.428  1.00  0.00    -0.006 C 
ATOM     10  C   UNL A   1      32.255  25.920  23.394  1.00  0.00     0.046 C 
ATOM     11  C   UNL A   1      29.965  26.187  24.048  1.00  0.00    -0.016 C 
BRANCH   8  12
ATOM     12  N   UNL A   1      31.905  23.453  23.227  1.00  0.00    -0.363 N 
ATOM     13  H   UNL A   1      31.425  22.662  22.888  1.00  0.00     0.162 HD
BRANCH  12  14
ATOM     14  C   UNL A   1      33.035  23.245  24.019  1.00  0.00     0.139 A 
ATOM     15  C   UNL A   1      36.634  22.809  23.336  1.00  0.00     0.067 C 
ATOM     16  C   UNL A   1      35.352  22.932  24.103  1.00  0.00     0.040 A 
ATOM     17  C   UNL A   1      35.327  22.752  25.474  1.00  0.00     0.028 A 
ATOM     18  N   UNL A   1      34.234  23.190  23.397  1.00  0.00    -0.236 NA
ATOM     19  C   UNL A   1      34.109  22.856  26.161  1.00  0.00    -0.033 A 
ATOM     20  C   UNL A   1      34.155  22.649  27.650  1.00  0.00     0.045 C 
ATOM     21  C   UNL A   1      32.934  23.102  25.419  1.00  0.00     0.084 A 
BRANCH  21  22
ATOM     22  C   UNL A   1      31.600  23.171  26.091  1.00  0.00     0.252 C 
ATOM     23  N   UNL A   1      31.333  24.281  26.846  1.00  0.00    -0.365 N 
ATOM     24  O   UNL A   1      30.752  22.290  25.982  1.00  0.00    -0.269 OA
ATOM     25  H   UNL A   1      32.009  24.990  26.936  1.00  0.00     0.159 HD
ATOM     26  H   UNL A   1      30.462  24.369  27.298  1.00  0.00     0.159 HD
ENDBRANCH  21  22
ENDBRANCH  12  14
ENDBRANCH   8  12
ENDBRANCH   4   7
ENDBRANCH   2   3
ENDBRANCH   1   2
BRANCH   1  27
ATOM     27  C   UNL A   1      32.494  30.805  26.989  1.00  0.00     0.118 C 
BRANCH  27  28
ATOM     28  N   UNL A   1      32.670  32.247  27.101  1.00  0.00    -0.352 N 
ATOM     29  C   UNL A   1      33.688  32.971  27.679  1.00  0.00     0.251 C 
ATOM     30  H   UNL A   1      31.949  32.787  26.701  1.00  0.00     0.163 HD
ATOM     31  O   UNL A   1      33.577  34.182  27.809  1.00  0.00    -0.269 OA
BRANCH  29  32
ATOM     32  C   UNL A   1      34.899  32.274  28.166  1.00  0.00     0.039 A 
ATOM     33  C   UNL A   1      36.105  32.978  28.232  1.00  0.00     0.014 A 
ATOM     34  C   UNL A   1      34.843  30.942  28.575  1.00  0.00     0.014 A 
ATOM     35  C   UNL A   1      37.232  32.367  28.789  1.00  0.00     0.010 A 
ATOM     36  C   UNL A   1      35.934  30.371  29.220  1.00  0.00     0.010 A 
ATOM     37  C   UNL A   1      37.143  31.074  29.330  1.00  0.00    -0.014 A 
BRANCH  37  38
ATOM     38  C   UNL A   1      38.294  30.433  30.017  1.00  0.00     0.031 A 
ATOM     39  C   UNL A   1      38.662  30.849  31.417  1.00  0.00     0.074 A 
ATOM     40  C   UNL A   1      39.061  29.545  29.353  1.00  0.00     0.049 A 
ATOM     41  N   UNL A   1      39.682  30.478  32.147  1.00  0.00    -0.248 NA
ATOM     42  C   UNL A   1      37.787  31.837  32.072  1.00  0.00     0.031 C 
ATOM     43  C   UNL A   1      38.852  29.109  27.969  1.00  0.00     0.029 A 
ATOM     44  N   UNL A   1      40.190  28.867  29.743  1.00  0.00    -0.354 N 
ATOM     45  C   UNL A   1      39.587  31.204  33.329  1.00  0.00     0.074 A 
ATOM     46  C   UNL A   1      38.439  32.073  33.202  1.00  0.00     0.031 C 
ATOM     47  C   UNL A   1      39.812  28.232  27.632  1.00  0.00     0.029 A 
ATOM     48  C   UNL A   1      40.727  28.071  28.756  1.00  0.00     0.049 A 
ATOM     49  H   UNL A   1      40.579  28.943  30.644  1.00  0.00     0.167 HD
ATOM     50  C   UNL A   1      40.362  31.130  34.437  1.00  0.00     0.034 A 
ATOM     51  C   UNL A   1      41.837  27.308  28.755  1.00  0.00     0.034 A 
ATOM     52  C   UNL A   1      41.479  30.237  34.578  1.00  0.00     0.049 A 
ATOM     53  C   UNL A   1      42.675  27.238  30.005  1.00  0.00     0.074 A 
ATOM     54  C   UNL A   1      42.290  30.040  35.681  1.00  0.00     0.029 A 
ATOM     55  N   UNL A   1      41.944  29.390  33.583  1.00  0.00    -0.354 N 
ATOM     56  N   UNL A   1      42.487  27.829  31.159  1.00  0.00    -0.248 NA
ATOM     57  C   UNL A   1      43.858  26.366  29.963  1.00  0.00     0.031 C 
ATOM     58  C   UNL A   1      43.258  29.089  35.348  1.00  0.00     0.029 A 
ATOM     59  C   UNL A   1      43.031  28.671  34.046  1.00  0.00     0.049 A 
ATOM     60  H   UNL A   1      41.558  29.312  32.681  1.00  0.00     0.167 HD
ATOM     61  C   UNL A   1      43.500  27.366  31.993  1.00  0.00     0.074 A 
ATOM     62  C   UNL A   1      44.286  26.432  31.216  1.00  0.00     0.031 C 
ATOM     63  C   UNL A   1      43.763  27.694  33.281  1.00  0.00     0.034 A 
BRANCH  50  64
ATOM     64  C   UNL A   1      39.987  31.995  35.613  1.00  0.00     0.023 A 
ATOM     65  C   UNL A   1      40.637  33.235  35.794  1.00  0.00     0.012 A 
ATOM     66  C   UNL A   1      38.959  31.619  36.497  1.00  0.00     0.148 A 
ATOM     67  C   UNL A   1      40.294  34.069  36.856  1.00  0.00     0.002 A 
ATOM     68  C   UNL A   1      38.589  32.479  37.527  1.00  0.00     0.091 A 
ATOM     69  F   UNL A   1      38.365  30.431  36.321  1.00  0.00    -0.205 F 
ATOM     70  C   UNL A   1      39.264  33.697  37.714  1.00  0.00     0.022 A 
BRANCH  68  71
ATOM     71  S   UNL A   1      37.223  32.132  38.640  1.00  0.00     0.127 S 
ATOM     72  O   UNL A   1      37.732  32.662  39.905  1.00  0.00    -0.237 OA
ATOM     73  O   UNL A   1      36.138  32.913  38.045  1.00  0.00    -0.237 OA
ATOM     74  O   UNL A   1      37.028  30.690  38.602  1.00  0.00    -0.744 OA
ENDBRANCH  68  71
ENDBRANCH  50  64
BRANCH  51  75
ATOM     75  C   UNL A   1      42.196  26.497  27.556  1.00  0.00     0.023 A 
ATOM     76  C   UNL A   1      42.853  27.117  26.475  1.00  0.00     0.012 A 
ATOM     77  C   UNL A   1      41.891  25.124  27.474  1.00  0.00     0.148 A 
ATOM     78  C   UNL A   1      43.156  26.399  25.316  1.00  0.00     0.002 A 
ATOM     79  C   UNL A   1      42.248  24.401  26.342  1.00  0.00     0.091 A 
ATOM     80  F   UNL A   1      41.257  24.551  28.507  1.00  0.00    -0.205 F 
ATOM     81  C   UNL A   1      42.861  25.041  25.253  1.00  0.00     0.022 A 
BRANCH  79  82
ATOM     82  S   UNL A   1      42.023  22.622  26.226  1.00  0.00     0.127 S 
ATOM     83  O   UNL A   1      42.652  22.324  24.942  1.00  0.00    -0.237 OA
ATOM     84  O   UNL A   1      42.757  22.146  27.399  1.00  0.00    -0.237 OA
ATOM     85  O   UNL A   1      40.584  22.406  26.294  1.00  0.00    -0.744 OA
ENDBRANCH  79  82
ENDBRANCH  51  75
BRANCH  63  86
ATOM     86  C   UNL A   1      44.916  27.002  33.960  1.00  0.00     0.023 A 
ATOM     87  C   UNL A   1      46.206  27.565  33.909  1.00  0.00     0.012 A 
ATOM     88  C   UNL A   1      44.700  25.832  34.714  1.00  0.00     0.148 A 
ATOM     89  C   UNL A   1      47.271  26.956  34.571  1.00  0.00     0.002 A 
ATOM     90  C   UNL A   1      45.755  25.259  35.415  1.00  0.00     0.091 A 
ATOM     91  F   UNL A   1      43.468  25.303  34.736  1.00  0.00    -0.205 F 
ATOM     92  C   UNL A   1      47.043  25.811  35.333  1.00  0.00     0.022 A 
BRANCH  90  93
ATOM     93  S   UNL A   1      45.537  23.845  36.501  1.00  0.00     0.127 S 
ATOM     94  O   UNL A   1      46.916  23.559  36.896  1.00  0.00    -0.237 OA
ATOM     95  O   UNL A   1      44.699  24.399  37.564  1.00  0.00    -0.237 OA
ATOM     96  O   UNL A   1      44.894  22.815  35.697  1.00  0.00    -0.744 OA
ENDBRANCH  90  93
ENDBRANCH  63  86
ENDBRANCH  37  38
ENDBRANCH  29  32
ENDBRANCH  27  28
ENDBRANCH   1  27
TORSDOF 16
ENDMDL
MODEL 2
REMARK VINA RESULT:     -12.4      2.125      7.994
REMARK SMILES Cc1cc(C)c(C(N)=O)c(N[C@H]2C=C[C@H](C(=O)NCCCNC(=O)c3ccc(-c4c5nc(c(-c6cccc(S(=O)(=O)[O-])c6F)c6ccc([nH]6)c(-c6cccc(S(=O)(=O)[O-])c6F)c6nc(c(-c7cccc(S(=O)(=O)[O-])c7F)c7ccc4[nH]7)C=C6)C=C5)cc3)C2)n1
REMARK SMILES IDX 20 1 19 2 18 3 16 4 17 5 15 7 12 8 13 9 88 10 14 11 11 12
REMARK SMILES IDX 10 14 1 15 2 16 3 17 89 18 4 19 5 20 6 21 7 22 8 23 9 24
REMARK SMILES IDX 21 27 22 28 23 29 24 31 25 32 26 33 87 34 27 35 86 36 28 37
REMARK SMILES IDX 29 38 30 39 80 40 31 41 85 42 79 43 81 44 32 45 84 46 78 47
REMARK SMILES IDX 77 48 33 50 65 51 45 52 64 53 46 54 49 55 63 56 82 57 47 58
REMARK SMILES IDX 48 59 62 61 83 62 50 63 34 64 35 65 43 66 36 67 38 68 44 69
REMARK SMILES IDX 37 70 39 71 40 72 41 73 42 74 66 75 67 76 75 77 68 78 70 79
REMARK SMILES IDX 76 80 69 81 71 82 72 83 73 84 74 85 51 86 52 87 60 88 53 89
REMARK SMILES IDX 55 90 61 91 54 92 56 93 57 94 58 95 59 96
REMARK H PARENT 18 6 11 13 8 25 8 26 22 30 81 49 49 60
REMARK Flexibility Score: inf
ROOT
ATOM      1  C   UNL A   1      31.701  31.678  26.715  1.00  0.00     0.042 C 
ENDROOT
BRANCH   1   2
ATOM      2  C   UNL A   1      32.018  30.234  26.371  1.00  0.00     0.117 C 
BRANCH   2   3
ATOM      3  N   UNL A   1      32.508  30.072  25.014  1.00  0.00    -0.356 N 
ATOM      4  C   UNL A   1      32.524  28.949  24.239  1.00  0.00     0.227 C 
ATOM      5  O   UNL A   1      32.877  29.058  23.064  1.00  0.00    -0.274 OA
ATOM      6  H   UNL A   1      32.880  30.883  24.596  1.00  0.00     0.163 HD
BRANCH   4   7
ATOM      7  C   UNL A   1      32.095  27.623  24.864  1.00  0.00     0.103 C 
ATOM      8  C   UNL A   1      32.064  25.638  23.430  1.00  0.00     0.104 C 
ATOM      9  C   UNL A   1      30.693  26.187  23.617  1.00  0.00    -0.006 C 
ATOM     10  C   UNL A   1      32.958  26.446  24.376  1.00  0.00     0.046 C 
ATOM     11  C   UNL A   1      30.707  27.267  24.402  1.00  0.00    -0.016 C 
BRANCH   8  12
ATOM     12  N   UNL A   1      32.118  24.205  23.662  1.00  0.00    -0.363 N 
ATOM     13  H   UNL A   1      31.388  23.650  23.302  1.00  0.00     0.162 HD
BRANCH  12  14
ATOM     14  C   UNL A   1      33.142  23.567  24.365  1.00  0.00     0.139 A 
ATOM     15  C   UNL A   1      36.583  22.518  23.549  1.00  0.00     0.067 C 
ATOM     16  C   UNL A   1      35.328  22.736  24.340  1.00  0.00     0.040 A 
ATOM     17  C   UNL A   1      35.207  22.244  25.627  1.00  0.00     0.028 A 
ATOM     18  N   UNL A   1      34.324  23.398  23.733  1.00  0.00    -0.236 NA
ATOM     19  C   UNL A   1      34.015  22.449  26.335  1.00  0.00    -0.033 A 
ATOM     20  C   UNL A   1      33.952  21.887  27.729  1.00  0.00     0.045 C 
ATOM     21  C   UNL A   1      32.954  23.120  25.691  1.00  0.00     0.084 A 
BRANCH  21  22
ATOM     22  C   UNL A   1      31.640  23.322  26.376  1.00  0.00     0.252 C 
ATOM     23  N   UNL A   1      30.776  22.261  26.402  1.00  0.00    -0.365 N 
ATOM     24  O   UNL A   1      31.323  24.378  26.914  1.00  0.00    -0.269 OA
ATOM     25  H   UNL A   1      31.025  21.411  25.972  1.00  0.00     0.159 HD
ATOM     26  H   UNL A   1      29.903  22.348  26.851  1.00  0.00     0.159 HD
ENDBRANCH  21  22
ENDBRANCH  12  14
ENDBRANCH   8  12
ENDBRANCH   4   7
ENDBRANCH   2   3
ENDBRANCH   1   2
BRANCH   1  27
ATOM     27  C   UNL A   1      32.879  32.461  27.272  1.00  0.00     0.118 C 
BRANCH  27  28
ATOM     28  N   UNL A   1      32.559  33.853  27.562  1.00  0.00    -0.352 N 
ATOM     29  C   UNL A   1      33.072  34.697  28.520  1.00  0.00     0.251 C 
ATOM     30  H   UNL A   1      31.866  34.250  26.984  1.00  0.00     0.163 HD
ATOM     31  O   UNL A   1      32.559  35.791  28.708  1.00  0.00    -0.269 OA
BRANCH  29  32
ATOM     32  C   UNL A   1      34.228  34.264  29.338  1.00  0.00     0.039 A 
ATOM     33  C   UNL A   1      33.992  33.595  30.542  1.00  0.00     0.014 A 
ATOM     34  C   UNL A   1      35.535  34.495  28.909  1.00  0.00     0.014 A 
ATOM     35  C   UNL A   1      35.071  33.085  31.271  1.00  0.00     0.010 A 
ATOM     36  C   UNL A   1      36.597  33.902  29.581  1.00  0.00     0.010 A 
ATOM     37  C   UNL A   1      36.379  33.194  30.773  1.00  0.00    -0.014 A 
BRANCH  37  38
ATOM     38  C   UNL A   1      37.536  32.579  31.473  1.00  0.00     0.031 A 
ATOM     39  C   UNL A   1      38.266  31.421  30.845  1.00  0.00     0.074 A 
ATOM     40  C   UNL A   1      37.873  33.001  32.708  1.00  0.00     0.049 A 
ATOM     41  N   UNL A   1      39.235  30.692  31.336  1.00  0.00    -0.248 NA
ATOM     42  C   UNL A   1      37.831  31.007  29.500  1.00  0.00     0.031 C 
ATOM     43  C   UNL A   1      37.200  34.068  33.456  1.00  0.00     0.029 A 
ATOM     44  N   UNL A   1      38.851  32.564  33.568  1.00  0.00    -0.354 N 
ATOM     45  C   UNL A   1      39.503  29.721  30.378  1.00  0.00     0.074 A 
ATOM     46  C   UNL A   1      38.564  29.922  29.297  1.00  0.00     0.031 C 
ATOM     47  C   UNL A   1      37.791  34.208  34.654  1.00  0.00     0.029 A 
ATOM     48  C   UNL A   1      38.857  33.219  34.780  1.00  0.00     0.049 A 
ATOM     49  H   UNL A   1      39.488  31.849  33.341  1.00  0.00     0.167 HD
ATOM     50  C   UNL A   1      40.466  28.770  30.378  1.00  0.00     0.034 A 
ATOM     51  C   UNL A   1      39.626  33.036  35.870  1.00  0.00     0.034 A 
ATOM     52  C   UNL A   1      41.425  28.597  31.435  1.00  0.00     0.049 A 
ATOM     53  C   UNL A   1      40.696  31.977  35.838  1.00  0.00     0.074 A 
ATOM     54  C   UNL A   1      42.480  27.705  31.503  1.00  0.00     0.029 A 
ATOM     55  N   UNL A   1      41.446  29.332  32.610  1.00  0.00    -0.354 N 
ATOM     56  N   UNL A   1      41.021  31.161  34.865  1.00  0.00    -0.248 NA
ATOM     57  C   UNL A   1      41.529  31.838  37.041  1.00  0.00     0.031 C 
ATOM     58  C   UNL A   1      43.127  27.885  32.728  1.00  0.00     0.029 A 
ATOM     59  C   UNL A   1      42.494  28.913  33.410  1.00  0.00     0.049 A 
ATOM     60  H   UNL A   1      40.810  30.047  32.841  1.00  0.00     0.167 HD
ATOM     61  C   UNL A   1      42.123  30.445  35.322  1.00  0.00     0.074 A 
ATOM     62  C   UNL A   1      42.420  30.937  36.650  1.00  0.00     0.031 C 
ATOM     63  C   UNL A   1      42.818  29.459  34.703  1.00  0.00     0.034 A 
BRANCH  50  64
ATOM     64  C   UNL A   1      40.573  27.882  29.165  1.00  0.00     0.023 A 
ATOM     65  C   UNL A   1      39.718  26.765  29.049  1.00  0.00     0.012 A 
ATOM     66  C   UNL A   1      41.466  28.180  28.119  1.00  0.00     0.148 A 
ATOM     67  C   UNL A   1      39.774  25.940  27.926  1.00  0.00     0.002 A 
ATOM     68  C   UNL A   1      41.483  27.379  26.981  1.00  0.00     0.091 A 
ATOM     69  F   UNL A   1      42.283  29.234  28.254  1.00  0.00    -0.205 F 
ATOM     70  C   UNL A   1      40.648  26.254  26.889  1.00  0.00     0.022 A 
BRANCH  68  71
ATOM     71  S   UNL A   1      42.512  27.740  25.554  1.00  0.00     0.127 S 
ATOM     72  O   UNL A   1      41.947  29.009  25.097  1.00  0.00    -0.237 OA
ATOM     73  O   UNL A   1      43.842  27.846  26.154  1.00  0.00    -0.237 OA
ATOM     74  O   UNL A   1      42.344  26.619  24.640  1.00  0.00    -0.744 OA
ENDBRANCH  68  71
ENDBRANCH  50  64
BRANCH  51  75
ATOM     75  C   UNL A   1      39.462  33.911  37.067  1.00  0.00     0.023 A 
ATOM     76  C   UNL A   1      39.948  35.232  37.027  1.00  0.00     0.012 A 
ATOM     77  C   UNL A   1      38.836  33.447  38.241  1.00  0.00     0.148 A 
ATOM     78  C   UNL A   1      39.857  36.061  38.147  1.00  0.00     0.002 A 
ATOM     79  C   UNL A   1      38.697  34.296  39.333  1.00  0.00     0.091 A 
ATOM     80  F   UNL A   1      38.389  32.184  38.267  1.00  0.00    -0.205 F 
ATOM     81  C   UNL A   1      39.226  35.596  39.296  1.00  0.00     0.022 A 
BRANCH  79  82
ATOM     82  S   UNL A   1      37.785  33.824  40.807  1.00  0.00     0.127 S 
ATOM     83  O   UNL A   1      36.649  33.103  40.239  1.00  0.00    -0.237 OA
ATOM     84  O   UNL A   1      38.757  32.987  41.511  1.00  0.00    -0.237 OA
ATOM     85  O   UNL A   1      37.469  35.073  41.488  1.00  0.00    -0.744 OA
ENDBRANCH  79  82
ENDBRANCH  51  75
BRANCH  63  86
ATOM     86  C   UNL A   1      44.006  28.879  35.425  1.00  0.00     0.023 A 
ATOM     87  C   UNL A   1      45.278  29.463  35.272  1.00  0.00     0.012 A 
ATOM     88  C   UNL A   1      43.841  27.802  36.318  1.00  0.00     0.148 A 
ATOM     89  C   UNL A   1      46.376  28.962  35.971  1.00  0.00     0.002 A 
ATOM     90  C   UNL A   1      44.928  27.341  37.050  1.00  0.00     0.091 A 
ATOM     91  F   UNL A   1      42.624  27.250  36.437  1.00  0.00    -0.205 F 
ATOM     92  C   UNL A   1      46.198  27.911  36.868  1.00  0.00     0.022 A 
BRANCH  90  93
ATOM     93  S   UNL A   1      44.776  26.061  38.301  1.00  0.00     0.127 S 
ATOM     94  O   UNL A   1      46.161  25.917  38.748  1.00  0.00    -0.237 OA
ATOM     95  O   UNL A   1      43.882  26.687  39.275  1.00  0.00    -0.237 OA
ATOM     96  O   UNL A   1      44.216  24.900  37.623  1.00  0.00    -0.744 OA
ENDBRANCH  90  93
ENDBRANCH  63  86
ENDBRANCH  37  38
ENDBRANCH  29  32
ENDBRANCH  27  28
ENDBRANCH   1  27
TORSDOF 16
ENDMDL
MODEL 3
REMARK VINA RESULT:     -12.3      5.049     10.597
REMARK SMILES Cc1cc(C)c(C(N)=O)c(N[C@H]2C=C[C@H](C(=O)NCCCNC(=O)c3ccc(-c4c5nc(c(-c6cccc(S(=O)(=O)[O-])c6F)c6ccc([nH]6)c(-c6cccc(S(=O)(=O)[O-])c6F)c6nc(c(-c7cccc(S(=O)(=O)[O-])c7F)c7ccc4[nH]7)C=C6)C=C5)cc3)C2)n1
REMARK SMILES IDX 20 1 19 2 18 3 16 4 17 5 15 7 12 8 13 9 88 10 14 11 11 12
REMARK SMILES IDX 10 14 1 15 2 16 3 17 89 18 4 19 5 20 6 21 7 22 8 23 9 24
REMARK SMILES IDX 21 27 22 28 23 29 24 31 25 32 26 33 87 34 27 35 86 36 28 37
REMARK SMILES IDX 29 38 30 39 80 40 31 41 85 42 79 43 81 44 32 45 84 46 78 47
REMARK SMILES IDX 77 48 33 50 65 51 45 52 64 53 46 54 49 55 63 56 82 57 47 58
REMARK SMILES IDX 48 59 62 61 83 62 50 63 34 64 35 65 43 66 36 67 38 68 44 69
REMARK SMILES IDX 37 70 39 71 40 72 41 73 42 74 66 75 67 76 75 77 68 78 70 79
REMARK SMILES IDX 76 80 69 81 71 82 72 83 73 84 74 85 51 86 52 87 60 88 53 89
REMARK SMILES IDX 55 90 61 91 54 92 56 93 57 94 58 95 59 96
REMARK H PARENT 18 6 11 13 8 25 8 26 22 30 81 49 49 60
REMARK Flexibility Score: inf
ROOT
ATOM      1  C   UNL A   1      37.097  20.261  24.926  1.00  0.00     0.042 C 
ENDROOT
BRANCH   1   2
ATOM      2  C   UNL A   1      35.739  20.934  25.004  1.00  0.00     0.117 C 
BRANCH   2   3
ATOM      3  N   UNL A   1      35.453  21.476  26.320  1.00  0.00    -0.356 N 
ATOM      4  C   UNL A   1      34.549  22.437  26.671  1.00  0.00     0.227 C 
ATOM      5  O   UNL A   1      34.381  22.667  27.869  1.00  0.00    -0.274 OA
ATOM      6  H   UNL A   1      35.984  21.100  27.060  1.00  0.00     0.163 HD
BRANCH   4   7
ATOM      7  C   UNL A   1      33.791  23.167  25.565  1.00  0.00     0.103 C 
ATOM      8  C   UNL A   1      34.033  25.600  25.422  1.00  0.00     0.104 C 
ATOM      9  C   UNL A   1      32.749  25.225  26.077  1.00  0.00    -0.006 C 
ATOM     10  C   UNL A   1      34.634  24.282  24.922  1.00  0.00     0.046 C 
ATOM     11  C   UNL A   1      32.613  23.899  26.151  1.00  0.00    -0.016 C 
BRANCH   8  12
ATOM     12  N   UNL A   1      33.847  26.589  24.375  1.00  0.00    -0.363 N 
ATOM     13  H   UNL A   1      34.478  26.586  23.619  1.00  0.00     0.162 HD
BRANCH  12  14
ATOM     14  C   UNL A   1      32.828  27.543  24.377  1.00  0.00     0.139 A 
ATOM     15  C   UNL A   1      32.107  30.561  26.371  1.00  0.00     0.067 C 
ATOM     16  C   UNL A   1      31.955  29.491  25.332  1.00  0.00     0.040 A 
ATOM     17  C   UNL A   1      30.831  29.441  24.526  1.00  0.00     0.028 A 
ATOM     18  N   UNL A   1      32.936  28.573  25.245  1.00  0.00    -0.236 NA
ATOM     19  C   UNL A   1      30.710  28.418  23.575  1.00  0.00    -0.033 A 
ATOM     20  C   UNL A   1      29.464  28.424  22.734  1.00  0.00     0.045 C 
ATOM     21  C   UNL A   1      31.727  27.442  23.500  1.00  0.00     0.084 A 
BRANCH  21  22
ATOM     22  C   UNL A   1      31.626  26.298  22.542  1.00  0.00     0.252 C 
ATOM     23  N   UNL A   1      31.972  26.536  21.240  1.00  0.00    -0.365 N 
ATOM     24  O   UNL A   1      31.261  25.176  22.879  1.00  0.00    -0.269 OA
ATOM     25  H   UNL A   1      32.266  27.434  20.964  1.00  0.00     0.159 HD
ATOM     26  H   UNL A   1      31.929  25.808  20.578  1.00  0.00     0.159 HD
ENDBRANCH  21  22
ENDBRANCH  12  14
ENDBRANCH   8  12
ENDBRANCH   4   7
ENDBRANCH   2   3
ENDBRANCH   1   2
BRANCH   1  27
ATOM     27  C   UNL A   1      38.221  21.044  25.585  1.00  0.00     0.118 C 
BRANCH  27  28
ATOM     28  N   UNL A   1      39.321  20.201  26.036  1.00  0.00    -0.352 N 
ATOM     29  C   UNL A   1      40.522  20.547  26.612  1.00  0.00     0.251 C 
ATOM     30  H   UNL A   1      39.184  19.233  25.907  1.00  0.00     0.163 HD
ATOM     31  O   UNL A   1      41.387  19.698  26.779  1.00  0.00    -0.269 OA
BRANCH  29  32
ATOM     32  C   UNL A   1      40.771  21.954  27.002  1.00  0.00     0.039 A 
ATOM     33  C   UNL A   1      41.553  22.216  28.129  1.00  0.00     0.014 A 
ATOM     34  C   UNL A   1      40.254  23.007  26.247  1.00  0.00     0.014 A 
ATOM     35  C   UNL A   1      41.885  23.536  28.447  1.00  0.00     0.010 A 
ATOM     36  C   UNL A   1      40.667  24.309  26.505  1.00  0.00     0.010 A 
ATOM     37  C   UNL A   1      41.483  24.590  27.612  1.00  0.00    -0.014 A 
BRANCH  37  38
ATOM     38  C   UNL A   1      41.901  25.993  27.866  1.00  0.00     0.031 A 
ATOM     39  C   UNL A   1      43.294  26.440  27.508  1.00  0.00     0.074 A 
ATOM     40  C   UNL A   1      41.061  26.837  28.499  1.00  0.00     0.049 A 
ATOM     41  N   UNL A   1      43.875  27.590  27.735  1.00  0.00    -0.248 NA
ATOM     42  C   UNL A   1      44.159  25.457  26.833  1.00  0.00     0.031 C 
ATOM     43  C   UNL A   1      39.710  26.506  28.960  1.00  0.00     0.029 A 
ATOM     44  N   UNL A   1      41.230  28.143  28.889  1.00  0.00    -0.354 N 
ATOM     45  C   UNL A   1      45.175  27.458  27.261  1.00  0.00     0.074 A 
ATOM     46  C   UNL A   1      45.314  26.103  26.776  1.00  0.00     0.031 C 
ATOM     47  C   UNL A   1      39.172  27.581  29.560  1.00  0.00     0.029 A 
ATOM     48  C   UNL A   1      40.148  28.665  29.563  1.00  0.00     0.049 A 
ATOM     49  H   UNL A   1      42.048  28.659  28.706  1.00  0.00     0.167 HD
ATOM     50  C   UNL A   1      46.156  28.390  27.198  1.00  0.00     0.034 A 
ATOM     51  C   UNL A   1      39.969  29.875  30.127  1.00  0.00     0.034 A 
ATOM     52  C   UNL A   1      46.004  29.748  27.642  1.00  0.00     0.049 A 
ATOM     53  C   UNL A   1      41.073  30.894  30.034  1.00  0.00     0.074 A 
ATOM     54  C   UNL A   1      46.915  30.786  27.566  1.00  0.00     0.029 A 
ATOM     55  N   UNL A   1      44.866  30.258  28.247  1.00  0.00    -0.354 N 
ATOM     56  N   UNL A   1      42.246  30.790  29.457  1.00  0.00    -0.248 NA
ATOM     57  C   UNL A   1      40.816  32.210  30.638  1.00  0.00     0.031 C 
ATOM     58  C   UNL A   1      46.336  31.919  28.144  1.00  0.00     0.029 A 
ATOM     59  C   UNL A   1      45.052  31.595  28.552  1.00  0.00     0.049 A 
ATOM     60  H   UNL A   1      44.046  29.745  28.434  1.00  0.00     0.167 HD
ATOM     61  C   UNL A   1      42.846  32.039  29.589  1.00  0.00     0.074 A 
ATOM     62  C   UNL A   1      41.900  32.886  30.283  1.00  0.00     0.031 C 
ATOM     63  C   UNL A   1      44.074  32.443  29.184  1.00  0.00     0.034 A 
BRANCH  50  64
ATOM     64  C   UNL A   1      47.464  27.988  26.566  1.00  0.00     0.023 A 
ATOM     65  C   UNL A   1      48.561  27.666  27.393  1.00  0.00     0.012 A 
ATOM     66  C   UNL A   1      47.593  27.868  25.169  1.00  0.00     0.148 A 
ATOM     67  C   UNL A   1      49.776  27.265  26.839  1.00  0.00     0.002 A 
ATOM     68  C   UNL A   1      48.794  27.421  24.626  1.00  0.00     0.091 A 
ATOM     69  F   UNL A   1      46.546  28.194  24.399  1.00  0.00    -0.205 F 
ATOM     70  C   UNL A   1      49.888  27.132  25.458  1.00  0.00     0.022 A 
BRANCH  68  71
ATOM     71  S   UNL A   1      49.019  27.138  22.867  1.00  0.00     0.127 S 
ATOM     72  O   UNL A   1      48.282  25.890  22.673  1.00  0.00    -0.237 OA
ATOM     73  O   UNL A   1      48.383  28.319  22.283  1.00  0.00    -0.237 OA
ATOM     74  O   UNL A   1      50.457  27.052  22.653  1.00  0.00    -0.744 OA
ENDBRANCH  68  71
ENDBRANCH  50  64
BRANCH  51  75
ATOM     75  C   UNL A   1      38.673  30.220  30.780  1.00  0.00     0.023 A 
ATOM     76  C   UNL A   1      38.412  29.757  32.085  1.00  0.00     0.012 A 
ATOM     77  C   UNL A   1      37.698  30.995  30.122  1.00  0.00     0.148 A 
ATOM     78  C   UNL A   1      37.189  30.018  32.704  1.00  0.00     0.002 A 
ATOM     79  C   UNL A   1      36.505  31.301  30.766  1.00  0.00     0.091 A 
ATOM     80  F   UNL A   1      37.956  31.419  28.876  1.00  0.00    -0.205 F 
ATOM     81  C   UNL A   1      36.239  30.796  32.049  1.00  0.00     0.022 A 
BRANCH  79  82
ATOM     82  S   UNL A   1      35.279  32.402  30.049  1.00  0.00     0.127 S 
ATOM     83  O   UNL A   1      36.097  33.547  29.658  1.00  0.00    -0.237 OA
ATOM     84  O   UNL A   1      34.766  31.601  28.937  1.00  0.00    -0.237 OA
ATOM     85  O   UNL A   1      34.308  32.647  31.107  1.00  0.00    -0.744 OA
ENDBRANCH  79  82
ENDBRANCH  51  75
BRANCH  63  86
ATOM     86  C   UNL A   1      44.454  33.881  29.426  1.00  0.00     0.023 A 
ATOM     87  C   UNL A   1      45.213  34.228  30.561  1.00  0.00     0.012 A 
ATOM     88  C   UNL A   1      44.123  34.874  28.483  1.00  0.00     0.148 A 
ATOM     89  C   UNL A   1      45.608  35.548  30.770  1.00  0.00     0.002 A 
ATOM     90  C   UNL A   1      44.565  36.178  28.672  1.00  0.00     0.091 A 
ATOM     91  F   UNL A   1      43.386  34.525  27.418  1.00  0.00    -0.205 F 
ATOM     92  C   UNL A   1      45.296  36.519  29.821  1.00  0.00     0.022 A 
BRANCH  90  93
ATOM     93  S   UNL A   1      44.298  37.473  27.457  1.00  0.00     0.127 S 
ATOM     94  O   UNL A   1      44.069  38.638  28.310  1.00  0.00    -0.237 OA
ATOM     95  O   UNL A   1      45.570  37.485  26.734  1.00  0.00    -0.237 OA
ATOM     96  O   UNL A   1      43.153  37.049  26.662  1.00  0.00    -0.744 OA
ENDBRANCH  90  93
ENDBRANCH  63  86
ENDBRANCH  37  38
ENDBRANCH  29  32
ENDBRANCH  27  28
ENDBRANCH   1  27
TORSDOF 16
ENDMDL
