MODEL 1
REMARK VINA RESULT:     -11.5      0.000      0.000
REMARK SMILES Cc1nn(C)c(OCC(C)(C)[NH+](C)C)c1C(=O)NCCCNC(=O)c1ccc(-c2c3nc(c(-c4cccc(S(=O)(=O)[O-])c4F)c4ccc([nH]4)c(-c4cccc(S(=O)(=O)[O-])c4F)c4nc(c(-c5cccc(S(=O)(=O)[O-])c5F)c5ccc2[nH]5)C=C4)C=C3)cc1
REMARK SMILES IDX 19 1 18 2 16 3 17 4 15 6 1 7 2 8 3 9 4 10 6 11 5 12 7 13
REMARK SMILES IDX 8 14 9 15 10 16 11 17 12 18 13 19 14 20 20 22 21 23 22 24
REMARK SMILES IDX 23 25 24 27 25 28 26 29 87 30 27 31 86 32 28 33 29 34 30 35
REMARK SMILES IDX 80 36 31 37 85 38 79 39 81 40 32 41 84 42 78 43 77 44 33 46
REMARK SMILES IDX 65 47 45 48 64 49 46 50 49 51 63 52 82 53 47 54 48 55 62 57
REMARK SMILES IDX 83 58 50 59 34 60 35 61 43 62 36 63 38 64 44 65 37 66 39 67
REMARK SMILES IDX 40 68 41 69 42 70 66 71 67 72 75 73 68 74 70 75 76 76 69 77
REMARK SMILES IDX 71 78 72 79 73 80 74 81 51 82 52 83 60 84 53 85 55 86 61 87
REMARK SMILES IDX 54 88 56 89 57 90 58 91 59 92
REMARK H PARENT 18 5 12 21 22 26 81 45 49 56
REMARK Flexibility Score: inf
ROOT
ATOM      1  C   UNL A   1      31.830  30.511  26.649  1.00  0.00     0.118 C 
ENDROOT
BRANCH   1   2
ATOM      2  N   UNL A   1      32.580  30.198  25.451  1.00  0.00    -0.352 N 
ATOM      3  C   UNL A   1      32.637  29.072  24.677  1.00  0.00     0.258 C 
ATOM      4  O   UNL A   1      33.501  29.055  23.802  1.00  0.00    -0.269 OA
ATOM      5  H   UNL A   1      33.156  30.932  25.135  1.00  0.00     0.163 HD
BRANCH   3   6
ATOM      6  C   UNL A   1      31.662  28.007  24.807  1.00  0.00     0.124 A 
ATOM      7  C   UNL A   1      32.627  26.254  26.566  1.00  0.00     0.070 C 
ATOM      8  C   UNL A   1      31.672  26.790  25.567  1.00  0.00     0.076 A 
ATOM      9  N   UNL A   1      30.628  26.009  25.267  1.00  0.00    -0.174 NA
ATOM     10  N   UNL A   1      30.035  26.649  24.255  1.00  0.00    -0.236 N 
ATOM     11  C   UNL A   1      30.477  27.935  24.069  1.00  0.00     0.225 A 
ATOM     12  C   UNL A   1      29.054  25.938  23.470  1.00  0.00     0.178 C 
BRANCH  11  13
ATOM     13  O   UNL A   1      29.769  28.718  23.251  1.00  0.00    -0.471 OA
BRANCH  13  14
ATOM     14  C   UNL A   1      29.596  30.112  23.494  1.00  0.00     0.299 C 
BRANCH  14  15
ATOM     15  C   UNL A   1      28.506  30.899  22.656  1.00  0.00     0.126 C 
ATOM     16  C   UNL A   1      27.829  29.983  21.620  1.00  0.00     0.082 C 
ATOM     17  C   UNL A   1      27.413  31.257  23.708  1.00  0.00     0.082 C 
BRANCH  15  18
ATOM     18  N   UNL A   1      28.996  32.183  22.051  1.00  0.00    -0.333 N 
ATOM     19  C   UNL A   1      28.190  32.655  20.922  1.00  0.00     0.333 C 
ATOM     20  C   UNL A   1      29.147  33.289  23.005  1.00  0.00     0.333 C 
ATOM     21  H   UNL A   1      29.921  31.920  21.714  1.00  0.00     0.348 HD
ENDBRANCH  15  18
ENDBRANCH  14  15
ENDBRANCH  13  14
ENDBRANCH  11  13
ENDBRANCH   3   6
ENDBRANCH   1   2
BRANCH   1  22
ATOM     22  C   UNL A   1      31.666  32.023  26.736  1.00  0.00     0.042 C 
BRANCH  22  23
ATOM     23  C   UNL A   1      32.898  32.702  27.314  1.00  0.00     0.118 C 
BRANCH  23  24
ATOM     24  N   UNL A   1      32.633  34.092  27.642  1.00  0.00    -0.352 N 
ATOM     25  C   UNL A   1      33.139  34.821  28.693  1.00  0.00     0.251 C 
ATOM     26  H   UNL A   1      32.017  34.569  27.040  1.00  0.00     0.163 HD
ATOM     27  O   UNL A   1      32.640  35.898  28.992  1.00  0.00    -0.269 OA
BRANCH  25  28
ATOM     28  C   UNL A   1      34.280  34.275  29.464  1.00  0.00     0.039 A 
ATOM     29  C   UNL A   1      34.026  33.446  30.558  1.00  0.00     0.014 A 
ATOM     30  C   UNL A   1      35.595  34.569  29.090  1.00  0.00     0.014 A 
ATOM     31  C   UNL A   1      35.096  32.877  31.252  1.00  0.00     0.010 A 
ATOM     32  C   UNL A   1      36.654  33.933  29.727  1.00  0.00     0.010 A 
ATOM     33  C   UNL A   1      36.417  33.096  30.827  1.00  0.00    -0.014 A 
BRANCH  33  34
ATOM     34  C   UNL A   1      37.567  32.471  31.529  1.00  0.00     0.031 A 
ATOM     35  C   UNL A   1      38.311  31.331  30.887  1.00  0.00     0.074 A 
ATOM     36  C   UNL A   1      37.890  32.876  32.773  1.00  0.00     0.049 A 
ATOM     37  N   UNL A   1      39.305  30.624  31.359  1.00  0.00    -0.248 NA
ATOM     38  C   UNL A   1      37.862  30.909  29.549  1.00  0.00     0.031 C 
ATOM     39  C   UNL A   1      37.193  33.918  33.532  1.00  0.00     0.029 A 
ATOM     40  N   UNL A   1      38.871  32.443  33.629  1.00  0.00    -0.354 N 
ATOM     41  C   UNL A   1      39.576  29.657  30.398  1.00  0.00     0.074 A 
ATOM     42  C   UNL A   1      38.616  29.840  29.333  1.00  0.00     0.031 C 
ATOM     43  C   UNL A   1      37.774  34.049  34.735  1.00  0.00     0.029 A 
ATOM     44  C   UNL A   1      38.861  33.081  34.847  1.00  0.00     0.049 A 
ATOM     45  H   UNL A   1      39.522  31.743  33.394  1.00  0.00     0.167 HD
ATOM     46  C   UNL A   1      40.553  28.721  30.387  1.00  0.00     0.034 A 
ATOM     47  C   UNL A   1      39.635  32.901  35.936  1.00  0.00     0.034 A 
ATOM     48  C   UNL A   1      41.530  28.571  31.431  1.00  0.00     0.049 A 
ATOM     49  C   UNL A   1      40.735  31.876  35.885  1.00  0.00     0.074 A 
ATOM     50  C   UNL A   1      42.614  27.712  31.478  1.00  0.00     0.029 A 
ATOM     51  N   UNL A   1      41.536  29.289  32.617  1.00  0.00    -0.354 N 
ATOM     52  N   UNL A   1      41.073  31.077  34.903  1.00  0.00    -0.248 NA
ATOM     53  C   UNL A   1      41.583  31.752  37.079  1.00  0.00     0.031 C 
ATOM     54  C   UNL A   1      43.259  27.892  32.706  1.00  0.00     0.029 A 
ATOM     55  C   UNL A   1      42.598  28.887  33.409  1.00  0.00     0.049 A 
ATOM     56  H   UNL A   1      40.882  29.983  32.860  1.00  0.00     0.167 HD
ATOM     57  C   UNL A   1      42.194  30.383  35.343  1.00  0.00     0.074 A 
ATOM     58  C   UNL A   1      42.489  30.872  36.675  1.00  0.00     0.031 C 
ATOM     59  C   UNL A   1      42.908  29.420  34.710  1.00  0.00     0.034 A 
BRANCH  46  60
ATOM     60  C   UNL A   1      40.645  27.817  29.185  1.00  0.00     0.023 A 
ATOM     61  C   UNL A   1      39.811  26.684  29.098  1.00  0.00     0.012 A 
ATOM     62  C   UNL A   1      41.513  28.117  28.116  1.00  0.00     0.148 A 
ATOM     63  C   UNL A   1      39.866  25.841  27.989  1.00  0.00     0.002 A 
ATOM     64  C   UNL A   1      41.527  27.300  26.992  1.00  0.00     0.091 A 
ATOM     65  F   UNL A   1      42.313  29.187  28.223  1.00  0.00    -0.205 F 
ATOM     66  C   UNL A   1      40.715  26.156  26.932  1.00  0.00     0.022 A 
BRANCH  64  67
ATOM     67  S   UNL A   1      42.525  27.662  25.542  1.00  0.00     0.127 S 
ATOM     68  O   UNL A   1      43.868  27.723  26.117  1.00  0.00    -0.237 OA
ATOM     69  O   UNL A   1      42.276  26.493  24.699  1.00  0.00    -0.237 OA
ATOM     70  O   UNL A   1      42.018  28.918  25.007  1.00  0.00    -0.744 OA
ENDBRANCH  64  67
ENDBRANCH  46  60
BRANCH  47  71
ATOM     71  C   UNL A   1      39.436  33.754  37.143  1.00  0.00     0.023 A 
ATOM     72  C   UNL A   1      39.906  35.082  37.137  1.00  0.00     0.012 A 
ATOM     73  C   UNL A   1      38.768  33.267  38.282  1.00  0.00     0.148 A 
ATOM     74  C   UNL A   1      39.744  35.899  38.256  1.00  0.00     0.002 A 
ATOM     75  C   UNL A   1      38.561  34.104  39.373  1.00  0.00     0.091 A 
ATOM     76  F   UNL A   1      38.337  31.997  38.272  1.00  0.00    -0.205 F 
ATOM     77  C   UNL A   1      39.064  35.414  39.370  1.00  0.00     0.022 A 
BRANCH  75  78
ATOM     78  S   UNL A   1      37.582  33.609  40.796  1.00  0.00     0.127 S 
ATOM     79  O   UNL A   1      37.438  34.872  41.513  1.00  0.00    -0.237 OA
ATOM     80  O   UNL A   1      36.359  33.115  40.162  1.00  0.00    -0.237 OA
ATOM     81  O   UNL A   1      38.363  32.581  41.471  1.00  0.00    -0.744 OA
ENDBRANCH  75  78
ENDBRANCH  47  71
BRANCH  59  82
ATOM     82  C   UNL A   1      44.107  28.853  35.425  1.00  0.00     0.023 A 
ATOM     83  C   UNL A   1      45.379  29.424  35.229  1.00  0.00     0.012 A 
ATOM     84  C   UNL A   1      43.954  27.801  36.350  1.00  0.00     0.148 A 
ATOM     85  C   UNL A   1      46.488  28.934  35.919  1.00  0.00     0.002 A 
ATOM     86  C   UNL A   1      45.053  27.355  37.072  1.00  0.00     0.091 A 
ATOM     87  F   UNL A   1      42.737  27.261  36.509  1.00  0.00    -0.205 F 
ATOM     88  C   UNL A   1      46.323  27.910  36.849  1.00  0.00     0.022 A 
BRANCH  86  89
ATOM     89  S   UNL A   1      44.919  26.111  38.361  1.00  0.00     0.127 S 
ATOM     90  O   UNL A   1      43.967  26.734  39.279  1.00  0.00    -0.237 OA
ATOM     91  O   UNL A   1      44.393  24.960  37.626  1.00  0.00    -0.237 OA
ATOM     92  O   UNL A   1      46.265  25.928  38.888  1.00  0.00    -0.744 OA
ENDBRANCH  86  89
ENDBRANCH  59  82
ENDBRANCH  33  34
ENDBRANCH  25  28
ENDBRANCH  23  24
ENDBRANCH  22  23
ENDBRANCH   1  22
TORSDOF 17
ENDMDL
MODEL 2
REMARK VINA RESULT:     -11.2      2.697      8.655
REMARK SMILES Cc1nn(C)c(OCC(C)(C)[NH+](C)C)c1C(=O)NCCCNC(=O)c1ccc(-c2c3nc(c(-c4cccc(S(=O)(=O)[O-])c4F)c4ccc([nH]4)c(-c4cccc(S(=O)(=O)[O-])c4F)c4nc(c(-c5cccc(S(=O)(=O)[O-])c5F)c5ccc2[nH]5)C=C4)C=C3)cc1
REMARK SMILES IDX 19 1 18 2 16 3 17 4 15 6 1 7 2 8 3 9 4 10 6 11 5 12 7 13
REMARK SMILES IDX 8 14 9 15 10 16 11 17 12 18 13 19 14 20 20 22 21 23 22 24
REMARK SMILES IDX 23 25 24 27 25 28 26 29 87 30 27 31 86 32 28 33 29 34 30 35
REMARK SMILES IDX 80 36 31 37 85 38 79 39 81 40 32 41 84 42 78 43 77 44 33 46
REMARK SMILES IDX 65 47 45 48 64 49 46 50 49 51 63 52 82 53 47 54 48 55 62 57
REMARK SMILES IDX 83 58 50 59 34 60 35 61 43 62 36 63 38 64 44 65 37 66 39 67
REMARK SMILES IDX 40 68 41 69 42 70 66 71 67 72 75 73 68 74 70 75 76 76 69 77
REMARK SMILES IDX 71 78 72 79 73 80 74 81 51 82 52 83 60 84 53 85 55 86 61 87
REMARK SMILES IDX 54 88 56 89 57 90 58 91 59 92
REMARK H PARENT 18 5 12 21 22 26 81 45 49 56
REMARK Flexibility Score: inf
ROOT
ATOM      1  C   UNL A   1      32.265  27.539  26.775  1.00  0.00     0.118 C 
ENDROOT
BRANCH   1   2
ATOM      2  N   UNL A   1      31.156  26.624  26.608  1.00  0.00    -0.352 N 
ATOM      3  C   UNL A   1      30.440  26.250  25.506  1.00  0.00     0.258 C 
ATOM      4  O   UNL A   1      29.439  25.565  25.712  1.00  0.00    -0.269 OA
ATOM      5  H   UNL A   1      30.864  26.191  27.443  1.00  0.00     0.163 HD
BRANCH   3   6
ATOM      6  C   UNL A   1      30.896  26.547  24.162  1.00  0.00     0.124 A 
ATOM      7  C   UNL A   1      29.328  28.473  23.197  1.00  0.00     0.070 C 
ATOM      8  C   UNL A   1      30.401  27.452  23.164  1.00  0.00     0.076 A 
ATOM      9  N   UNL A   1      31.029  27.290  21.993  1.00  0.00    -0.174 NA
ATOM     10  N   UNL A   1      31.814  26.230  22.200  1.00  0.00    -0.236 N 
ATOM     11  C   UNL A   1      31.934  25.869  23.518  1.00  0.00     0.225 A 
ATOM     12  C   UNL A   1      32.405  25.576  21.056  1.00  0.00     0.178 C 
BRANCH  11  13
ATOM     13  O   UNL A   1      32.887  24.987  23.832  1.00  0.00    -0.471 OA
BRANCH  13  14
ATOM     14  C   UNL A   1      32.585  23.665  24.271  1.00  0.00     0.299 C 
BRANCH  14  15
ATOM     15  C   UNL A   1      33.588  22.946  25.263  1.00  0.00     0.126 C 
ATOM     16  C   UNL A   1      34.508  21.965  24.512  1.00  0.00     0.082 C 
ATOM     17  C   UNL A   1      34.501  24.101  25.775  1.00  0.00     0.082 C 
BRANCH  15  18
ATOM     18  N   UNL A   1      32.935  22.315  26.459  1.00  0.00    -0.333 N 
ATOM     19  C   UNL A   1      33.810  22.212  27.630  1.00  0.00     0.333 C 
ATOM     20  C   UNL A   1      31.679  22.951  26.875  1.00  0.00     0.333 C 
ATOM     21  H   UNL A   1      32.724  21.378  26.116  1.00  0.00     0.348 HD
ENDBRANCH  15  18
ENDBRANCH  14  15
ENDBRANCH  13  14
ENDBRANCH  11  13
ENDBRANCH   3   6
ENDBRANCH   1   2
BRANCH   1  22
ATOM     22  C   UNL A   1      31.766  28.955  26.524  1.00  0.00     0.042 C 
BRANCH  22  23
ATOM     23  C   UNL A   1      32.850  29.854  25.948  1.00  0.00     0.118 C 
BRANCH  23  24
ATOM     24  N   UNL A   1      32.613  31.249  26.279  1.00  0.00    -0.352 N 
ATOM     25  C   UNL A   1      33.235  32.002  27.247  1.00  0.00     0.251 C 
ATOM     26  H   UNL A   1      31.925  31.709  25.746  1.00  0.00     0.163 HD
ATOM     27  O   UNL A   1      32.767  33.082  27.582  1.00  0.00    -0.269 OA
BRANCH  25  28
ATOM     28  C   UNL A   1      34.466  31.479  27.885  1.00  0.00     0.039 A 
ATOM     29  C   UNL A   1      35.573  32.319  28.014  1.00  0.00     0.014 A 
ATOM     30  C   UNL A   1      34.511  30.169  28.370  1.00  0.00     0.014 A 
ATOM     31  C   UNL A   1      36.715  31.854  28.670  1.00  0.00     0.010 A 
ATOM     32  C   UNL A   1      35.616  29.739  29.098  1.00  0.00     0.010 A 
ATOM     33  C   UNL A   1      36.736  30.570  29.239  1.00  0.00    -0.014 A 
BRANCH  33  34
ATOM     34  C   UNL A   1      37.927  30.070  29.972  1.00  0.00     0.031 A 
ATOM     35  C   UNL A   1      38.215  30.564  31.365  1.00  0.00     0.074 A 
ATOM     36  C   UNL A   1      38.788  29.235  29.358  1.00  0.00     0.049 A 
ATOM     37  N   UNL A   1      39.227  30.286  32.146  1.00  0.00    -0.248 NA
ATOM     38  C   UNL A   1      37.257  31.519  31.947  1.00  0.00     0.031 C 
ATOM     39  C   UNL A   1      38.658  28.748  27.982  1.00  0.00     0.029 A 
ATOM     40  N   UNL A   1      39.956  28.668  29.801  1.00  0.00    -0.354 N 
ATOM     41  C   UNL A   1      39.046  31.054  33.290  1.00  0.00     0.074 A 
ATOM     42  C   UNL A   1      37.851  31.841  33.087  1.00  0.00     0.031 C 
ATOM     43  C   UNL A   1      39.699  27.949  27.698  1.00  0.00     0.029 A 
ATOM     44  C   UNL A   1      40.586  27.893  28.856  1.00  0.00     0.049 A 
ATOM     45  H   UNL A   1      40.309  28.802  30.710  1.00  0.00     0.167 HD
ATOM     46  C   UNL A   1      39.790  31.080  34.421  1.00  0.00     0.034 A 
ATOM     47  C   UNL A   1      41.752  27.220  28.913  1.00  0.00     0.034 A 
ATOM     48  C   UNL A   1      40.955  30.265  34.633  1.00  0.00     0.049 A 
ATOM     49  C   UNL A   1      42.543  27.240  30.192  1.00  0.00     0.074 A 
ATOM     50  C   UNL A   1      41.730  30.152  35.773  1.00  0.00     0.029 A 
ATOM     51  N   UNL A   1      41.520  29.431  33.680  1.00  0.00    -0.354 N 
ATOM     52  N   UNL A   1      42.271  27.850  31.320  1.00  0.00    -0.248 NA
ATOM     53  C   UNL A   1      43.782  26.450  30.220  1.00  0.00     0.031 C 
ATOM     54  C   UNL A   1      42.781  29.270  35.500  1.00  0.00     0.029 A 
ATOM     55  C   UNL A   1      42.640  28.808  34.201  1.00  0.00     0.049 A 
ATOM     56  H   UNL A   1      41.175  29.303  32.767  1.00  0.00     0.167 HD
ATOM     57  C   UNL A   1      43.282  27.488  32.203  1.00  0.00     0.074 A 
ATOM     58  C   UNL A   1      44.161  26.589  31.483  1.00  0.00     0.031 C 
ATOM     59  C   UNL A   1      43.475  27.875  33.488  1.00  0.00     0.034 A 
BRANCH  46  60
ATOM     60  C   UNL A   1      39.337  31.985  35.537  1.00  0.00     0.023 A 
ATOM     61  C   UNL A   1      38.436  31.500  36.507  1.00  0.00     0.012 A 
ATOM     62  C   UNL A   1      39.842  33.294  35.661  1.00  0.00     0.148 A 
ATOM     63  C   UNL A   1      38.014  32.312  37.559  1.00  0.00     0.002 A 
ATOM     64  C   UNL A   1      39.455  34.082  36.739  1.00  0.00     0.091 A 
ATOM     65  F   UNL A   1      40.682  33.747  34.719  1.00  0.00    -0.205 F 
ATOM     66  C   UNL A   1      38.532  33.598  37.680  1.00  0.00     0.022 A 
BRANCH  64  67
ATOM     67  S   UNL A   1      40.126  35.723  37.032  1.00  0.00     0.127 S 
ATOM     68  O   UNL A   1      39.655  36.448  35.852  1.00  0.00    -0.237 OA
ATOM     69  O   UNL A   1      39.471  36.104  38.283  1.00  0.00    -0.237 OA
ATOM     70  O   UNL A   1      41.570  35.557  37.126  1.00  0.00    -0.744 OA
ENDBRANCH  64  67
ENDBRANCH  46  60
BRANCH  47  71
ATOM     71  C   UNL A   1      42.210  26.419  27.740  1.00  0.00     0.023 A 
ATOM     72  C   UNL A   1      43.047  27.018  26.778  1.00  0.00     0.012 A 
ATOM     73  C   UNL A   1      41.843  25.069  27.586  1.00  0.00     0.148 A 
ATOM     74  C   UNL A   1      43.481  26.297  25.665  1.00  0.00     0.002 A 
ATOM     75  C   UNL A   1      42.324  24.340  26.505  1.00  0.00     0.091 A 
ATOM     76  F   UNL A   1      41.038  24.520  28.508  1.00  0.00    -0.205 F 
ATOM     77  C   UNL A   1      43.128  24.956  25.533  1.00  0.00     0.022 A 
BRANCH  75  78
ATOM     78  S   UNL A   1      42.031  22.577  26.323  1.00  0.00     0.127 S 
ATOM     79  O   UNL A   1      42.661  22.044  27.527  1.00  0.00    -0.237 OA
ATOM     80  O   UNL A   1      40.569  22.515  26.311  1.00  0.00    -0.237 OA
ATOM     81  O   UNL A   1      42.658  22.203  25.062  1.00  0.00    -0.744 OA
ENDBRANCH  75  78
ENDBRANCH  47  71
BRANCH  59  82
ATOM     82  C   UNL A   1      44.657  27.299  34.223  1.00  0.00     0.023 A 
ATOM     83  C   UNL A   1      45.890  27.978  34.217  1.00  0.00     0.012 A 
ATOM     84  C   UNL A   1      44.519  26.120  34.983  1.00  0.00     0.148 A 
ATOM     85  C   UNL A   1      46.978  27.476  34.929  1.00  0.00     0.002 A 
ATOM     86  C   UNL A   1      45.592  25.655  35.732  1.00  0.00     0.091 A 
ATOM     87  F   UNL A   1      43.341  25.479  34.961  1.00  0.00    -0.205 F 
ATOM     88  C   UNL A   1      46.826  26.323  35.696  1.00  0.00     0.022 A 
BRANCH  86  89
ATOM     89  S   UNL A   1      45.460  24.237  36.827  1.00  0.00     0.127 S 
ATOM     90  O   UNL A   1      46.831  24.110  37.317  1.00  0.00    -0.237 OA
ATOM     91  O   UNL A   1      44.496  24.704  37.823  1.00  0.00    -0.237 OA
ATOM     92  O   UNL A   1      44.988  23.132  36.001  1.00  0.00    -0.744 OA
ENDBRANCH  86  89
ENDBRANCH  59  82
ENDBRANCH  33  34
ENDBRANCH  25  28
ENDBRANCH  23  24
ENDBRANCH  22  23
ENDBRANCH   1  22
TORSDOF 17
ENDMDL
MODEL 3
REMARK VINA RESULT:     -11.1      3.617      9.235
REMARK SMILES Cc1nn(C)c(OCC(C)(C)[NH+](C)C)c1C(=O)NCCCNC(=O)c1ccc(-c2c3nc(c(-c4cccc(S(=O)(=O)[O-])c4F)c4ccc([nH]4)c(-c4cccc(S(=O)(=O)[O-])c4F)c4nc(c(-c5cccc(S(=O)(=O)[O-])c5F)c5ccc2[nH]5)C=C4)C=C3)cc1
REMARK SMILES IDX 19 1 18 2 16 3 17 4 15 6 1 7 2 8 3 9 4 10 6 11 5 12 7 13
REMARK SMILES IDX 8 14 9 15 10 16 11 17 12 18 13 19 14 20 20 22 21 23 22 24
REMARK SMILES IDX 23 25 24 27 25 28 26 29 87 30 27 31 86 32 28 33 29 34 30 35
REMARK SMILES IDX 80 36 31 37 85 38 79 39 81 40 32 41 84 42 78 43 77 44 33 46
REMARK SMILES IDX 65 47 45 48 64 49 46 50 49 51 63 52 82 53 47 54 48 55 62 57
REMARK SMILES IDX 83 58 50 59 34 60 35 61 43 62 36 63 38 64 44 65 37 66 39 67
REMARK SMILES IDX 40 68 41 69 42 70 66 71 67 72 75 73 68 74 70 75 76 76 69 77
REMARK SMILES IDX 71 78 72 79 73 80 74 81 51 82 52 83 60 84 53 85 55 86 61 87
REMARK SMILES IDX 54 88 56 89 57 90 58 91 59 92
REMARK H PARENT 18 5 12 21 22 26 81 45 49 56
REMARK Flexibility Score: inf
ROOT
ATOM      1  C   UNL A   1      31.848  28.233  26.866  1.00  0.00     0.118 C 
ENDROOT
BRANCH   1   2
ATOM      2  N   UNL A   1      31.091  27.000  26.813  1.00  0.00    -0.352 N 
ATOM      3  C   UNL A   1      30.556  26.302  25.766  1.00  0.00     0.258 C 
ATOM      4  O   UNL A   1      29.819  25.362  26.057  1.00  0.00    -0.269 OA
ATOM      5  H   UNL A   1      30.931  26.590  27.693  1.00  0.00     0.163 HD
BRANCH   3   6
ATOM      6  C   UNL A   1      30.925  26.584  24.392  1.00  0.00     0.124 A 
ATOM      7  C   UNL A   1      29.019  28.130  23.356  1.00  0.00     0.070 C 
ATOM      8  C   UNL A   1      30.257  27.315  23.354  1.00  0.00     0.076 A 
ATOM      9  N   UNL A   1      30.882  27.189  22.178  1.00  0.00    -0.174 NA
ATOM     10  N   UNL A   1      31.848  26.301  22.427  1.00  0.00    -0.236 N 
ATOM     11  C   UNL A   1      32.056  26.059  23.762  1.00  0.00     0.225 A 
ATOM     12  C   UNL A   1      32.525  25.687  21.310  1.00  0.00     0.178 C 
BRANCH  11  13
ATOM     13  O   UNL A   1      33.158  25.384  24.101  1.00  0.00    -0.471 OA
BRANCH  13  14
ATOM     14  C   UNL A   1      33.103  24.132  24.780  1.00  0.00     0.299 C 
BRANCH  14  15
ATOM     15  C   UNL A   1      33.739  22.860  24.083  1.00  0.00     0.126 C 
ATOM     16  C   UNL A   1      32.790  22.274  23.020  1.00  0.00     0.082 C 
ATOM     17  C   UNL A   1      34.966  23.431  23.310  1.00  0.00     0.082 C 
BRANCH  15  18
ATOM     18  N   UNL A   1      34.245  21.816  25.036  1.00  0.00    -0.333 N 
ATOM     19  C   UNL A   1      34.393  22.289  26.415  1.00  0.00     0.333 C 
ATOM     20  C   UNL A   1      33.460  20.576  25.055  1.00  0.00     0.333 C 
ATOM     21  H   UNL A   1      35.167  21.608  24.653  1.00  0.00     0.348 HD
ENDBRANCH  15  18
ENDBRANCH  14  15
ENDBRANCH  13  14
ENDBRANCH  11  13
ENDBRANCH   3   6
ENDBRANCH   1   2
BRANCH   1  22
ATOM     22  C   UNL A   1      33.331  27.888  26.896  1.00  0.00     0.042 C 
BRANCH  22  23
ATOM     23  C   UNL A   1      34.182  28.944  26.207  1.00  0.00     0.118 C 
BRANCH  23  24
ATOM     24  N   UNL A   1      33.840  30.281  26.663  1.00  0.00    -0.352 N 
ATOM     25  C   UNL A   1      34.431  31.002  27.674  1.00  0.00     0.251 C 
ATOM     26  H   UNL A   1      33.096  30.722  26.193  1.00  0.00     0.163 HD
ATOM     27  O   UNL A   1      33.885  32.005  28.116  1.00  0.00    -0.269 OA
BRANCH  25  28
ATOM     28  C   UNL A   1      35.724  30.538  28.228  1.00  0.00     0.039 A 
ATOM     29  C   UNL A   1      35.724  29.719  29.358  1.00  0.00     0.014 A 
ATOM     30  C   UNL A   1      36.928  30.899  27.616  1.00  0.00     0.014 A 
ATOM     31  C   UNL A   1      36.935  29.227  29.850  1.00  0.00     0.010 A 
ATOM     32  C   UNL A   1      38.122  30.337  28.055  1.00  0.00     0.010 A 
ATOM     33  C   UNL A   1      38.141  29.511  29.188  1.00  0.00    -0.014 A 
BRANCH  33  34
ATOM     34  C   UNL A   1      39.435  28.967  29.673  1.00  0.00     0.031 A 
ATOM     35  C   UNL A   1      40.168  29.656  30.793  1.00  0.00     0.074 A 
ATOM     36  C   UNL A   1      39.985  27.904  29.055  1.00  0.00     0.049 A 
ATOM     37  N   UNL A   1      41.329  29.365  31.320  1.00  0.00    -0.248 NA
ATOM     38  C   UNL A   1      39.527  30.846  31.379  1.00  0.00     0.031 C 
ATOM     39  C   UNL A   1      39.409  27.199  27.907  1.00  0.00     0.029 A 
ATOM     40  N   UNL A   1      41.166  27.245  29.289  1.00  0.00    -0.354 N 
ATOM     41  C   UNL A   1      41.573  30.350  32.270  1.00  0.00     0.074 A 
ATOM     42  C   UNL A   1      40.459  31.271  32.220  1.00  0.00     0.031 C 
ATOM     43  C   UNL A   1      40.231  26.202  27.544  1.00  0.00     0.029 A 
ATOM     44  C   UNL A   1      41.407  26.216  28.408  1.00  0.00     0.049 A 
ATOM     45  H   UNL A   1      41.782  27.484  30.018  1.00  0.00     0.167 HD
ATOM     46  C   UNL A   1      42.613  30.462  33.128  1.00  0.00     0.034 A 
ATOM     47  C   UNL A   1      42.462  25.383  28.304  1.00  0.00     0.034 A 
ATOM     48  C   UNL A   1      43.697  29.521  33.202  1.00  0.00     0.049 A 
ATOM     49  C   UNL A   1      43.589  25.509  29.291  1.00  0.00     0.074 A 
ATOM     50  C   UNL A   1      44.755  29.495  34.092  1.00  0.00     0.029 A 
ATOM     51  N   UNL A   1      43.868  28.445  32.344  1.00  0.00    -0.354 N 
ATOM     52  N   UNL A   1      43.726  26.354  30.285  1.00  0.00    -0.248 NA
ATOM     53  C   UNL A   1      44.693  24.546  29.166  1.00  0.00     0.031 C 
ATOM     54  C   UNL A   1      45.582  28.418  33.755  1.00  0.00     0.029 A 
ATOM     55  C   UNL A   1      45.020  27.753  32.677  1.00  0.00     0.049 A 
ATOM     56  H   UNL A   1      43.259  28.208  31.607  1.00  0.00     0.167 HD
ATOM     57  C   UNL A   1      44.907  26.001  30.927  1.00  0.00     0.074 A 
ATOM     58  C   UNL A   1      45.438  24.853  30.220  1.00  0.00     0.031 C 
ATOM     59  C   UNL A   1      45.507  26.581  31.996  1.00  0.00     0.034 A 
BRANCH  46  60
ATOM     60  C   UNL A   1      42.604  31.620  34.094  1.00  0.00     0.023 A 
ATOM     61  C   UNL A   1      43.150  32.859  33.703  1.00  0.00     0.012 A 
ATOM     62  C   UNL A   1      42.006  31.501  35.364  1.00  0.00     0.148 A 
ATOM     63  C   UNL A   1      43.139  33.950  34.571  1.00  0.00     0.002 A 
ATOM     64  C   UNL A   1      41.955  32.605  36.206  1.00  0.00     0.091 A 
ATOM     65  F   UNL A   1      41.509  30.310  35.728  1.00  0.00    -0.205 F 
ATOM     66  C   UNL A   1      42.532  33.825  35.818  1.00  0.00     0.022 A 
BRANCH  64  67
ATOM     67  S   UNL A   1      41.124  32.573  37.799  1.00  0.00     0.127 S 
ATOM     68  O   UNL A   1      39.808  32.052  37.434  1.00  0.00    -0.237 OA
ATOM     69  O   UNL A   1      41.958  31.644  38.561  1.00  0.00    -0.237 OA
ATOM     70  O   UNL A   1      41.138  33.945  38.289  1.00  0.00    -0.744 OA
ENDBRANCH  64  67
ENDBRANCH  46  60
BRANCH  47  71
ATOM     71  C   UNL A   1      42.470  24.316  27.262  1.00  0.00     0.023 A 
ATOM     72  C   UNL A   1      43.291  24.464  26.127  1.00  0.00     0.012 A 
ATOM     73  C   UNL A   1      41.692  23.151  27.399  1.00  0.00     0.148 A 
ATOM     74  C   UNL A   1      43.310  23.488  25.130  1.00  0.00     0.002 A 
ATOM     75  C   UNL A   1      41.758  22.157  26.430  1.00  0.00     0.091 A 
ATOM     76  F   UNL A   1      40.911  23.033  28.483  1.00  0.00    -0.205 F 
ATOM     77  C   UNL A   1      42.552  22.330  25.286  1.00  0.00     0.022 A 
BRANCH  75  78
ATOM     78  S   UNL A   1      40.921  20.577  26.611  1.00  0.00     0.127 S 
ATOM     79  O   UNL A   1      41.802  19.685  25.863  1.00  0.00    -0.237 OA
ATOM     80  O   UNL A   1      40.939  20.392  28.062  1.00  0.00    -0.237 OA
ATOM     81  O   UNL A   1      39.591  20.772  26.048  1.00  0.00    -0.744 OA
ENDBRANCH  75  78
ENDBRANCH  47  71
BRANCH  59  82
ATOM     82  C   UNL A   1      46.785  25.965  32.501  1.00  0.00     0.023 A 
ATOM     83  C   UNL A   1      48.027  26.437  32.036  1.00  0.00     0.012 A 
ATOM     84  C   UNL A   1      46.751  24.968  33.496  1.00  0.00     0.148 A 
ATOM     85  C   UNL A   1      49.217  25.904  32.530  1.00  0.00     0.002 A 
ATOM     86  C   UNL A   1      47.940  24.479  34.021  1.00  0.00     0.091 A 
ATOM     87  F   UNL A   1      45.557  24.520  33.913  1.00  0.00    -0.205 F 
ATOM     88  C   UNL A   1      49.173  24.935  33.530  1.00  0.00     0.022 A 
BRANCH  86  89
ATOM     89  S   UNL A   1      47.983  23.304  35.380  1.00  0.00     0.127 S 
ATOM     90  O   UNL A   1      49.420  23.137  35.584  1.00  0.00    -0.237 OA
ATOM     91  O   UNL A   1      47.297  24.038  36.444  1.00  0.00    -0.237 OA
ATOM     92  O   UNL A   1      47.277  22.119  34.911  1.00  0.00    -0.744 OA
ENDBRANCH  86  89
ENDBRANCH  59  82
ENDBRANCH  33  34
ENDBRANCH  25  28
ENDBRANCH  23  24
ENDBRANCH  22  23
ENDBRANCH   1  22
TORSDOF 17
ENDMDL
