MODEL 1
REMARK VINA RESULT:     -14.1      0.000      0.000
REMARK SMILES Cc1ccccc1OC1(C(=O)NCCCNC(=O)c2ccc(-c3c4nc(c(-c5cccc(S(=O)(=O)[O-])c5F)c5ccc([nH]5)c(-c5cccc(S(=O)(=O)[O-])c5F)c5nc(c(-c6cccc(S(=O)(=O)[O-])c6F)c6ccc3[nH]6)C=C5)C=C4)cc2)CCN(C(=O)[C@H]2CCCCO2)CC1
REMARK SMILES IDX 14 1 13 2 12 3 10 4 11 5 9 7 82 8 94 9 83 10 93 11 84 12
REMARK SMILES IDX 85 13 86 14 8 15 7 16 1 17 2 18 3 19 4 20 6 21 5 22 87 23
REMARK SMILES IDX 88 24 92 25 89 26 91 27 90 28 15 29 16 30 17 31 18 33 19 34
REMARK SMILES IDX 20 35 81 36 21 37 80 38 22 39 23 40 24 41 74 42 25 43 79 44
REMARK SMILES IDX 73 45 75 46 26 47 78 48 72 49 71 50 27 52 59 53 39 54 58 55
REMARK SMILES IDX 40 56 43 57 57 58 76 59 41 60 42 61 56 63 77 64 44 65 28 66
REMARK SMILES IDX 29 67 37 68 30 69 32 70 38 71 31 72 33 73 34 74 35 75 36 76
REMARK SMILES IDX 60 77 61 78 69 79 62 80 64 81 70 82 63 83 65 84 66 85 67 86
REMARK SMILES IDX 68 87 45 88 46 89 54 90 47 91 49 92 55 93 48 94 50 95 51 96
REMARK SMILES IDX 52 97 53 98
REMARK H PARENT 12 6 16 32 75 51 43 62
REMARK Flexibility Score: inf
ROOT
ATOM      1  C   UNL A   1      33.277  31.105  26.989  1.00  0.00     0.042 C 
ENDROOT
BRANCH   1   2
ATOM      2  C   UNL A   1      32.609  30.194  25.972  1.00  0.00     0.118 C 
BRANCH   2   3
ATOM      3  N   UNL A   1      33.473  29.796  24.868  1.00  0.00    -0.353 N 
ATOM      4  C   UNL A   1      33.450  28.777  23.952  1.00  0.00     0.264 C 
ATOM      5  O   UNL A   1      34.284  28.885  23.043  1.00  0.00    -0.270 OA
ATOM      6  H   UNL A   1      34.247  30.393  24.755  1.00  0.00     0.163 HD
BRANCH   4   7
ATOM      7  C   UNL A   1      32.474  27.528  24.025  1.00  0.00     0.190 C 
ATOM      8  C   UNL A   1      32.289  27.025  22.600  1.00  0.00     0.080 C 
ATOM      9  C   UNL A   1      32.973  26.587  25.116  1.00  0.00     0.080 C 
ATOM     10  C   UNL A   1      32.830  25.649  22.270  1.00  0.00     0.124 C 
ATOM     11  C   UNL A   1      33.487  25.221  24.686  1.00  0.00     0.124 C 
ATOM     12  N   UNL A   1      33.107  24.732  23.366  1.00  0.00    -0.340 N 
ATOM     13  C   UNL A   1      33.179  23.380  23.001  1.00  0.00     0.251 C 
ATOM     14  O   UNL A   1      33.064  23.039  21.819  1.00  0.00    -0.272 OA
BRANCH   7  15
ATOM     15  O   UNL A   1      31.218  28.135  24.473  1.00  0.00    -0.477 OA
BRANCH  15  16
ATOM     16  C   UNL A   1      30.055  28.450  23.829  1.00  0.00     0.123 A 
ATOM     17  C   UNL A   1      28.584  26.313  23.890  1.00  0.00     0.048 C 
ATOM     18  C   UNL A   1      28.879  27.732  23.557  1.00  0.00    -0.009 A 
ATOM     19  C   UNL A   1      27.825  28.346  22.834  1.00  0.00     0.007 A 
ATOM     20  C   UNL A   1      27.906  29.657  22.391  1.00  0.00     0.001 A 
ATOM     21  C   UNL A   1      30.111  29.776  23.354  1.00  0.00     0.047 A 
ATOM     22  C   UNL A   1      29.057  30.375  22.650  1.00  0.00     0.004 A 
ENDBRANCH  15  16
ENDBRANCH   7  15
BRANCH  13  23
ATOM     23  C   UNL A   1      33.304  22.323  24.120  1.00  0.00     0.207 C 
ATOM     24  C   UNL A   1      32.399  21.138  23.749  1.00  0.00     0.042 C 
ATOM     25  O   UNL A   1      34.674  21.917  24.205  1.00  0.00    -0.368 OA
ATOM     26  C   UNL A   1      32.662  19.906  24.605  1.00  0.00     0.006 C 
ATOM     27  C   UNL A   1      34.901  20.853  25.116  1.00  0.00     0.161 C 
ATOM     28  C   UNL A   1      34.152  19.612  24.663  1.00  0.00     0.029 C 
ENDBRANCH  13  23
ENDBRANCH   4   7
ENDBRANCH   2   3
ENDBRANCH   1   2
BRANCH   1  29
ATOM     29  C   UNL A   1      34.481  30.511  27.698  1.00  0.00     0.118 C 
BRANCH  29  30
ATOM     30  N   UNL A   1      35.454  31.519  28.129  1.00  0.00    -0.352 N 
ATOM     31  C   UNL A   1      36.774  31.330  28.509  1.00  0.00     0.251 C 
ATOM     32  H   UNL A   1      35.128  32.448  28.153  1.00  0.00     0.163 HD
ATOM     33  O   UNL A   1      37.459  32.278  28.884  1.00  0.00    -0.269 OA
BRANCH  31  34
ATOM     34  C   UNL A   1      37.346  29.979  28.346  1.00  0.00     0.039 A 
ATOM     35  C   UNL A   1      37.398  29.165  29.481  1.00  0.00     0.014 A 
ATOM     36  C   UNL A   1      38.154  29.727  27.242  1.00  0.00     0.014 A 
ATOM     37  C   UNL A   1      38.465  28.289  29.629  1.00  0.00     0.010 A 
ATOM     38  C   UNL A   1      39.271  28.945  27.432  1.00  0.00     0.010 A 
ATOM     39  C   UNL A   1      39.459  28.291  28.656  1.00  0.00    -0.014 A 
BRANCH  39  40
ATOM     40  C   UNL A   1      40.739  27.622  28.806  1.00  0.00     0.031 A 
ATOM     41  C   UNL A   1      40.802  26.169  28.605  1.00  0.00     0.074 A 
ATOM     42  C   UNL A   1      41.861  28.351  28.992  1.00  0.00     0.049 A 
ATOM     43  N   UNL A   1      41.761  25.413  29.014  1.00  0.00    -0.248 NA
ATOM     44  C   UNL A   1      39.720  25.445  27.953  1.00  0.00     0.031 C 
ATOM     45  C   UNL A   1      43.239  27.916  28.799  1.00  0.00     0.029 A 
ATOM     46  N   UNL A   1      41.977  29.593  29.622  1.00  0.00    -0.354 N 
ATOM     47  C   UNL A   1      41.576  24.174  28.437  1.00  0.00     0.074 A 
ATOM     48  C   UNL A   1      40.248  24.222  27.874  1.00  0.00     0.031 C 
ATOM     49  C   UNL A   1      44.046  28.707  29.523  1.00  0.00     0.029 A 
ATOM     50  C   UNL A   1      43.193  29.559  30.332  1.00  0.00     0.049 A 
ATOM     51  H   UNL A   1      41.338  30.341  29.578  1.00  0.00     0.167 HD
ATOM     52  C   UNL A   1      42.635  23.320  28.364  1.00  0.00     0.034 A 
ATOM     53  C   UNL A   1      43.289  29.726  31.686  1.00  0.00     0.034 A 
ATOM     54  C   UNL A   1      43.788  23.859  29.106  1.00  0.00     0.049 A 
ATOM     55  C   UNL A   1      43.926  28.534  32.381  1.00  0.00     0.074 A 
ATOM     56  C   UNL A   1      44.911  24.572  28.713  1.00  0.00     0.029 A 
ATOM     57  N   UNL A   1      43.724  23.966  30.491  1.00  0.00    -0.354 N 
ATOM     58  N   UNL A   1      44.210  27.408  31.785  1.00  0.00    -0.248 NA
ATOM     59  C   UNL A   1      44.256  28.498  33.803  1.00  0.00     0.031 C 
ATOM     60  C   UNL A   1      45.461  25.194  29.866  1.00  0.00     0.029 A 
ATOM     61  C   UNL A   1      44.699  24.834  30.964  1.00  0.00     0.049 A 
ATOM     62  H   UNL A   1      43.075  23.491  31.059  1.00  0.00     0.167 HD
ATOM     63  C   UNL A   1      44.614  26.479  32.708  1.00  0.00     0.074 A 
ATOM     64  C   UNL A   1      44.704  27.239  33.945  1.00  0.00     0.031 C 
ATOM     65  C   UNL A   1      44.775  25.157  32.387  1.00  0.00     0.034 A 
BRANCH  52  66
ATOM     66  C   UNL A   1      42.755  22.184  27.354  1.00  0.00     0.023 A 
ATOM     67  C   UNL A   1      41.982  21.025  27.593  1.00  0.00     0.012 A 
ATOM     68  C   UNL A   1      43.625  22.118  26.240  1.00  0.00     0.148 A 
ATOM     69  C   UNL A   1      42.140  19.845  26.856  1.00  0.00     0.002 A 
ATOM     70  C   UNL A   1      43.838  20.921  25.547  1.00  0.00     0.091 A 
ATOM     71  F   UNL A   1      44.189  23.229  25.766  1.00  0.00    -0.205 F 
ATOM     72  C   UNL A   1      43.099  19.779  25.857  1.00  0.00     0.022 A 
BRANCH  70  73
ATOM     73  S   UNL A   1      45.114  20.749  24.284  1.00  0.00     0.127 S 
ATOM     74  O   UNL A   1      44.931  19.363  23.846  1.00  0.00    -0.237 OA
ATOM     75  O   UNL A   1      44.717  21.754  23.299  1.00  0.00    -0.237 OA
ATOM     76  O   UNL A   1      46.385  20.997  24.955  1.00  0.00    -0.744 OA
ENDBRANCH  70  73
ENDBRANCH  52  66
BRANCH  53  77
ATOM     77  C   UNL A   1      42.205  30.589  32.245  1.00  0.00     0.023 A 
ATOM     78  C   UNL A   1      42.138  31.913  31.742  1.00  0.00     0.012 A 
ATOM     79  C   UNL A   1      41.064  30.034  32.843  1.00  0.00     0.148 A 
ATOM     80  C   UNL A   1      40.916  32.579  31.645  1.00  0.00     0.002 A 
ATOM     81  C   UNL A   1      39.851  30.717  32.765  1.00  0.00     0.091 A 
ATOM     82  F   UNL A   1      41.151  28.820  33.401  1.00  0.00    -0.205 F 
ATOM     83  C   UNL A   1      39.764  31.960  32.114  1.00  0.00     0.022 A 
BRANCH  81  84
ATOM     84  S   UNL A   1      38.337  29.972  33.382  1.00  0.00     0.127 S 
ATOM     85  O   UNL A   1      37.322  30.758  32.690  1.00  0.00    -0.237 OA
ATOM     86  O   UNL A   1      38.455  28.587  32.929  1.00  0.00    -0.237 OA
ATOM     87  O   UNL A   1      38.420  30.136  34.826  1.00  0.00    -0.744 OA
ENDBRANCH  81  84
ENDBRANCH  53  77
BRANCH  65  88
ATOM     88  C   UNL A   1      45.014  24.037  33.383  1.00  0.00     0.023 A 
ATOM     89  C   UNL A   1      44.058  23.036  33.636  1.00  0.00     0.012 A 
ATOM     90  C   UNL A   1      46.283  23.874  34.000  1.00  0.00     0.148 A 
ATOM     91  C   UNL A   1      44.311  21.972  34.510  1.00  0.00     0.002 A 
ATOM     92  C   UNL A   1      46.568  22.754  34.778  1.00  0.00     0.091 A 
ATOM     93  F   UNL A   1      47.223  24.820  33.854  1.00  0.00    -0.205 F 
ATOM     94  C   UNL A   1      45.574  21.818  35.065  1.00  0.00     0.022 A 
BRANCH  92  95
ATOM     95  S   UNL A   1      48.252  22.393  35.298  1.00  0.00     0.127 S 
ATOM     96  O   UNL A   1      48.994  22.526  34.046  1.00  0.00    -0.237 OA
ATOM     97  O   UNL A   1      48.515  23.450  36.276  1.00  0.00    -0.237 OA
ATOM     98  O   UNL A   1      48.191  21.055  35.871  1.00  0.00    -0.744 OA
ENDBRANCH  92  95
ENDBRANCH  65  88
ENDBRANCH  39  40
ENDBRANCH  31  34
ENDBRANCH  29  30
ENDBRANCH   1  29
TORSDOF 16
ENDMDL
MODEL 2
REMARK VINA RESULT:     -13.3      2.817      3.926
REMARK SMILES Cc1ccccc1OC1(C(=O)NCCCNC(=O)c2ccc(-c3c4nc(c(-c5cccc(S(=O)(=O)[O-])c5F)c5ccc([nH]5)c(-c5cccc(S(=O)(=O)[O-])c5F)c5nc(c(-c6cccc(S(=O)(=O)[O-])c6F)c6ccc3[nH]6)C=C5)C=C4)cc2)CCN(C(=O)[C@H]2CCCCO2)CC1
REMARK SMILES IDX 14 1 13 2 12 3 10 4 11 5 9 7 82 8 94 9 83 10 93 11 84 12
REMARK SMILES IDX 85 13 86 14 8 15 7 16 1 17 2 18 3 19 4 20 6 21 5 22 87 23
REMARK SMILES IDX 88 24 92 25 89 26 91 27 90 28 15 29 16 30 17 31 18 33 19 34
REMARK SMILES IDX 20 35 81 36 21 37 80 38 22 39 23 40 24 41 74 42 25 43 79 44
REMARK SMILES IDX 73 45 75 46 26 47 78 48 72 49 71 50 27 52 59 53 39 54 58 55
REMARK SMILES IDX 40 56 43 57 57 58 76 59 41 60 42 61 56 63 77 64 44 65 28 66
REMARK SMILES IDX 29 67 37 68 30 69 32 70 38 71 31 72 33 73 34 74 35 75 36 76
REMARK SMILES IDX 60 77 61 78 69 79 62 80 64 81 70 82 63 83 65 84 66 85 67 86
REMARK SMILES IDX 68 87 45 88 46 89 54 90 47 91 49 92 55 93 48 94 50 95 51 96
REMARK SMILES IDX 52 97 53 98
REMARK H PARENT 12 6 16 32 75 51 43 62
REMARK Flexibility Score: inf
ROOT
ATOM      1  C   UNL A   1      34.595  29.558  27.576  1.00  0.00     0.042 C 
ENDROOT
BRANCH   1   2
ATOM      2  C   UNL A   1      33.528  29.526  26.494  1.00  0.00     0.118 C 
BRANCH   2   3
ATOM      3  N   UNL A   1      34.049  29.349  25.145  1.00  0.00    -0.353 N 
ATOM      4  C   UNL A   1      33.717  28.545  24.087  1.00  0.00     0.264 C 
ATOM      5  O   UNL A   1      34.297  28.822  23.029  1.00  0.00    -0.270 OA
ATOM      6  H   UNL A   1      34.812  29.940  24.951  1.00  0.00     0.163 HD
BRANCH   4   7
ATOM      7  C   UNL A   1      32.700  27.329  24.170  1.00  0.00     0.190 C 
ATOM      8  C   UNL A   1      32.456  26.855  22.743  1.00  0.00     0.080 C 
ATOM      9  C   UNL A   1      33.197  26.354  25.232  1.00  0.00     0.080 C 
ATOM     10  C   UNL A   1      32.939  25.467  22.378  1.00  0.00     0.124 C 
ATOM     11  C   UNL A   1      33.650  24.978  24.767  1.00  0.00     0.124 C 
ATOM     12  N   UNL A   1      33.215  24.524  23.452  1.00  0.00    -0.340 N 
ATOM     13  C   UNL A   1      33.229  23.175  23.065  1.00  0.00     0.251 C 
ATOM     14  O   UNL A   1      33.069  22.858  21.882  1.00  0.00    -0.272 OA
BRANCH   7  15
ATOM     15  O   UNL A   1      31.480  27.972  24.663  1.00  0.00    -0.477 OA
BRANCH  15  16
ATOM     16  C   UNL A   1      30.300  28.315  24.063  1.00  0.00     0.123 A 
ATOM     17  C   UNL A   1      28.953  26.114  23.787  1.00  0.00     0.048 C 
ATOM     18  C   UNL A   1      29.167  27.582  23.675  1.00  0.00    -0.009 A 
ATOM     19  C   UNL A   1      28.081  28.238  23.044  1.00  0.00     0.007 A 
ATOM     20  C   UNL A   1      28.087  29.603  22.804  1.00  0.00     0.001 A 
ATOM     21  C   UNL A   1      30.281  29.699  23.795  1.00  0.00     0.047 A 
ATOM     22  C   UNL A   1      29.196  30.337  23.180  1.00  0.00     0.004 A 
ENDBRANCH  15  16
ENDBRANCH   7  15
BRANCH  13  23
ATOM     23  C   UNL A   1      33.350  22.097  24.164  1.00  0.00     0.207 C 
ATOM     24  C   UNL A   1      32.376  20.961  23.814  1.00  0.00     0.042 C 
ATOM     25  O   UNL A   1      34.701  21.628  24.188  1.00  0.00    -0.368 OA
ATOM     26  C   UNL A   1      32.615  19.706  24.642  1.00  0.00     0.006 C 
ATOM     27  C   UNL A   1      34.914  20.541  25.076  1.00  0.00     0.161 C 
ATOM     28  C   UNL A   1      34.091  19.342  24.637  1.00  0.00     0.029 C 
ENDBRANCH  13  23
ENDBRANCH   4   7
ENDBRANCH   2   3
ENDBRANCH   1   2
BRANCH   1  29
ATOM     29  C   UNL A   1      35.238  30.913  27.811  1.00  0.00     0.118 C 
BRANCH  29  30
ATOM     30  N   UNL A   1      34.270  31.964  28.138  1.00  0.00    -0.352 N 
ATOM     31  C   UNL A   1      34.394  32.986  29.068  1.00  0.00     0.251 C 
ATOM     32  H   UNL A   1      33.425  31.942  27.634  1.00  0.00     0.163 HD
ATOM     33  O   UNL A   1      33.473  33.776  29.255  1.00  0.00    -0.269 OA
BRANCH  31  34
ATOM     34  C   UNL A   1      35.700  33.147  29.737  1.00  0.00     0.039 A 
ATOM     35  C   UNL A   1      36.756  33.641  28.968  1.00  0.00     0.014 A 
ATOM     36  C   UNL A   1      35.933  32.447  30.917  1.00  0.00     0.014 A 
ATOM     37  C   UNL A   1      38.041  33.177  29.217  1.00  0.00     0.010 A 
ATOM     38  C   UNL A   1      37.183  31.898  31.098  1.00  0.00     0.010 A 
ATOM     39  C   UNL A   1      38.212  32.207  30.199  1.00  0.00    -0.014 A 
BRANCH  39  40
ATOM     40  C   UNL A   1      39.440  31.456  30.390  1.00  0.00     0.031 A 
ATOM     41  C   UNL A   1      39.540  30.110  29.809  1.00  0.00     0.074 A 
ATOM     42  C   UNL A   1      40.506  32.046  30.973  1.00  0.00     0.049 A 
ATOM     43  N   UNL A   1      40.403  29.222  30.161  1.00  0.00    -0.248 NA
ATOM     44  C   UNL A   1      38.602  29.650  28.794  1.00  0.00     0.031 C 
ATOM     45  C   UNL A   1      41.895  31.607  30.922  1.00  0.00     0.029 A 
ATOM     46  N   UNL A   1      40.500  33.061  31.932  1.00  0.00    -0.354 N 
ATOM     47  C   UNL A   1      40.331  28.199  29.239  1.00  0.00     0.074 A 
ATOM     48  C   UNL A   1      39.135  28.469  28.478  1.00  0.00     0.031 C 
ATOM     49  C   UNL A   1      42.550  32.127  31.973  1.00  0.00     0.029 A 
ATOM     50  C   UNL A   1      41.558  32.771  32.816  1.00  0.00     0.049 A 
ATOM     51  H   UNL A   1      39.882  33.826  31.981  1.00  0.00     0.167 HD
ATOM     52  C   UNL A   1      41.385  27.342  29.128  1.00  0.00     0.034 A 
ATOM     53  C   UNL A   1      41.394  32.558  34.156  1.00  0.00     0.034 A 
ATOM     54  C   UNL A   1      42.374  27.597  30.188  1.00  0.00     0.049 A 
ATOM     55  C   UNL A   1      41.886  31.190  34.598  1.00  0.00     0.074 A 
ATOM     56  C   UNL A   1      43.552  28.328  30.221  1.00  0.00     0.029 A 
ATOM     57  N   UNL A   1      42.047  27.326  31.513  1.00  0.00    -0.354 N 
ATOM     58  N   UNL A   1      42.279  30.255  33.776  1.00  0.00    -0.248 NA
ATOM     59  C   UNL A   1      41.939  30.751  35.990  1.00  0.00     0.031 C 
ATOM     60  C   UNL A   1      43.872  28.584  31.582  1.00  0.00     0.029 A 
ATOM     61  C   UNL A   1      42.914  27.980  32.378  1.00  0.00     0.049 A 
ATOM     62  H   UNL A   1      41.302  26.749  31.798  1.00  0.00     0.167 HD
ATOM     63  C   UNL A   1      42.499  29.090  34.463  1.00  0.00     0.074 A 
ATOM     64  C   UNL A   1      42.352  29.478  35.857  1.00  0.00     0.031 C 
ATOM     65  C   UNL A   1      42.717  27.898  33.823  1.00  0.00     0.034 A 
BRANCH  52  66
ATOM     66  C   UNL A   1      41.695  26.519  27.882  1.00  0.00     0.023 A 
ATOM     67  C   UNL A   1      41.806  27.217  26.659  1.00  0.00     0.012 A 
ATOM     68  C   UNL A   1      41.799  25.110  27.791  1.00  0.00     0.148 A 
ATOM     69  C   UNL A   1      41.897  26.568  25.422  1.00  0.00     0.002 A 
ATOM     70  C   UNL A   1      41.818  24.456  26.555  1.00  0.00     0.091 A 
ATOM     71  F   UNL A   1      41.981  24.382  28.893  1.00  0.00    -0.205 F 
ATOM     72  C   UNL A   1      41.862  25.183  25.366  1.00  0.00     0.022 A 
BRANCH  70  73
ATOM     73  S   UNL A   1      41.708  22.661  26.410  1.00  0.00     0.127 S 
ATOM     74  O   UNL A   1      42.381  22.210  27.630  1.00  0.00    -0.237 OA
ATOM     75  O   UNL A   1      40.264  22.436  26.394  1.00  0.00    -0.237 OA
ATOM     76  O   UNL A   1      42.411  22.310  25.180  1.00  0.00    -0.744 OA
ENDBRANCH  70  73
ENDBRANCH  52  66
BRANCH  53  77
ATOM     77  C   UNL A   1      40.224  33.293  34.724  1.00  0.00     0.023 A 
ATOM     78  C   UNL A   1      38.954  32.694  34.528  1.00  0.00     0.012 A 
ATOM     79  C   UNL A   1      40.380  34.224  35.761  1.00  0.00     0.148 A 
ATOM     80  C   UNL A   1      37.935  32.856  35.468  1.00  0.00     0.002 A 
ATOM     81  C   UNL A   1      39.347  34.400  36.682  1.00  0.00     0.091 A 
ATOM     82  F   UNL A   1      41.551  34.860  35.891  1.00  0.00    -0.205 F 
ATOM     83  C   UNL A   1      38.150  33.672  36.571  1.00  0.00     0.022 A 
BRANCH  81  84
ATOM     84  S   UNL A   1      39.565  35.468  38.111  1.00  0.00     0.127 S 
ATOM     85  O   UNL A   1      38.388  35.134  38.906  1.00  0.00    -0.237 OA
ATOM     86  O   UNL A   1      40.833  35.002  38.668  1.00  0.00    -0.237 OA
ATOM     87  O   UNL A   1      39.616  36.810  37.550  1.00  0.00    -0.744 OA
ENDBRANCH  81  84
ENDBRANCH  53  77
BRANCH  65  88
ATOM     88  C   UNL A   1      42.762  26.538  34.496  1.00  0.00     0.023 A 
ATOM     89  C   UNL A   1      41.677  26.025  35.231  1.00  0.00     0.012 A 
ATOM     90  C   UNL A   1      43.860  25.662  34.288  1.00  0.00     0.148 A 
ATOM     91  C   UNL A   1      41.704  24.744  35.796  1.00  0.00     0.002 A 
ATOM     92  C   UNL A   1      43.834  24.349  34.755  1.00  0.00     0.091 A 
ATOM     93  F   UNL A   1      44.955  26.103  33.650  1.00  0.00    -0.205 F 
ATOM     94  C   UNL A   1      42.773  23.898  35.540  1.00  0.00     0.022 A 
BRANCH  92  95
ATOM     95  S   UNL A   1      45.073  23.156  34.231  1.00  0.00     0.127 S 
ATOM     96  O   UNL A   1      46.309  23.763  34.722  1.00  0.00    -0.237 OA
ATOM     97  O   UNL A   1      44.667  21.943  34.944  1.00  0.00    -0.237 OA
ATOM     98  O   UNL A   1      44.928  23.071  32.784  1.00  0.00    -0.744 OA
ENDBRANCH  92  95
ENDBRANCH  65  88
ENDBRANCH  39  40
ENDBRANCH  31  34
ENDBRANCH  29  30
ENDBRANCH   1  29
TORSDOF 16
ENDMDL
MODEL 3
REMARK VINA RESULT:     -12.9      6.518     11.303
REMARK SMILES Cc1ccccc1OC1(C(=O)NCCCNC(=O)c2ccc(-c3c4nc(c(-c5cccc(S(=O)(=O)[O-])c5F)c5ccc([nH]5)c(-c5cccc(S(=O)(=O)[O-])c5F)c5nc(c(-c6cccc(S(=O)(=O)[O-])c6F)c6ccc3[nH]6)C=C5)C=C4)cc2)CCN(C(=O)[C@H]2CCCCO2)CC1
REMARK SMILES IDX 14 1 13 2 12 3 10 4 11 5 9 7 82 8 94 9 83 10 93 11 84 12
REMARK SMILES IDX 85 13 86 14 8 15 7 16 1 17 2 18 3 19 4 20 6 21 5 22 87 23
REMARK SMILES IDX 88 24 92 25 89 26 91 27 90 28 15 29 16 30 17 31 18 33 19 34
REMARK SMILES IDX 20 35 81 36 21 37 80 38 22 39 23 40 24 41 74 42 25 43 79 44
REMARK SMILES IDX 73 45 75 46 26 47 78 48 72 49 71 50 27 52 59 53 39 54 58 55
REMARK SMILES IDX 40 56 43 57 57 58 76 59 41 60 42 61 56 63 77 64 44 65 28 66
REMARK SMILES IDX 29 67 37 68 30 69 32 70 38 71 31 72 33 73 34 74 35 75 36 76
REMARK SMILES IDX 60 77 61 78 69 79 62 80 64 81 70 82 63 83 65 84 66 85 67 86
REMARK SMILES IDX 68 87 45 88 46 89 54 90 47 91 49 92 55 93 48 94 50 95 51 96
REMARK SMILES IDX 52 97 53 98
REMARK H PARENT 12 6 16 32 75 51 43 62
REMARK Flexibility Score: inf
ROOT
ATOM      1  C   UNL A   1      33.656  30.695  27.190  1.00  0.00     0.042 C 
ENDROOT
BRANCH   1   2
ATOM      2  C   UNL A   1      33.876  29.281  26.677  1.00  0.00     0.118 C 
BRANCH   2   3
ATOM      3  N   UNL A   1      34.299  29.208  25.285  1.00  0.00    -0.353 N 
ATOM      4  C   UNL A   1      33.870  28.507  24.188  1.00  0.00     0.264 C 
ATOM      5  O   UNL A   1      34.386  28.859  23.119  1.00  0.00    -0.270 OA
ATOM      6  H   UNL A   1      35.065  29.793  25.087  1.00  0.00     0.163 HD
BRANCH   4   7
ATOM      7  C   UNL A   1      32.824  27.315  24.240  1.00  0.00     0.190 C 
ATOM      8  C   UNL A   1      32.593  26.863  22.804  1.00  0.00     0.080 C 
ATOM      9  C   UNL A   1      33.279  26.316  25.298  1.00  0.00     0.080 C 
ATOM     10  C   UNL A   1      33.049  25.469  22.429  1.00  0.00     0.124 C 
ATOM     11  C   UNL A   1      33.707  24.935  24.824  1.00  0.00     0.124 C 
ATOM     12  N   UNL A   1      33.284  24.506  23.497  1.00  0.00    -0.340 N 
ATOM     13  C   UNL A   1      33.273  23.163  23.094  1.00  0.00     0.251 C 
ATOM     14  O   UNL A   1      33.125  22.863  21.904  1.00  0.00    -0.272 OA
BRANCH   7  15
ATOM     15  O   UNL A   1      31.611  27.981  24.720  1.00  0.00    -0.477 OA
BRANCH  15  16
ATOM     16  C   UNL A   1      30.430  28.312  24.118  1.00  0.00     0.123 A 
ATOM     17  C   UNL A   1      29.093  26.102  23.864  1.00  0.00     0.048 C 
ATOM     18  C   UNL A   1      29.300  27.569  23.737  1.00  0.00    -0.009 A 
ATOM     19  C   UNL A   1      28.210  28.214  23.100  1.00  0.00     0.007 A 
ATOM     20  C   UNL A   1      28.209  29.576  22.847  1.00  0.00     0.001 A 
ATOM     21  C   UNL A   1      30.403  29.693  23.836  1.00  0.00     0.047 A 
ATOM     22  C   UNL A   1      29.314  30.320  23.216  1.00  0.00     0.004 A 
ENDBRANCH  15  16
ENDBRANCH   7  15
BRANCH  13  23
ATOM     23  C   UNL A   1      33.349  22.069  24.181  1.00  0.00     0.207 C 
ATOM     24  C   UNL A   1      32.356  20.960  23.801  1.00  0.00     0.042 C 
ATOM     25  O   UNL A   1      34.689  21.568  24.223  1.00  0.00    -0.368 OA
ATOM     26  C   UNL A   1      32.551  19.690  24.618  1.00  0.00     0.006 C 
ATOM     27  C   UNL A   1      34.861  20.467  25.102  1.00  0.00     0.161 C 
ATOM     28  C   UNL A   1      34.018  19.293  24.634  1.00  0.00     0.029 C 
ENDBRANCH  13  23
ENDBRANCH   4   7
ENDBRANCH   2   3
ENDBRANCH   1   2
BRANCH   1  29
ATOM     29  C   UNL A   1      34.868  31.346  27.832  1.00  0.00     0.118 C 
BRANCH  29  30
ATOM     30  N   UNL A   1      36.113  30.609  27.599  1.00  0.00    -0.352 N 
ATOM     31  C   UNL A   1      37.345  30.789  28.211  1.00  0.00     0.251 C 
ATOM     32  H   UNL A   1      36.070  29.896  26.922  1.00  0.00     0.163 HD
ATOM     33  O   UNL A   1      38.313  30.110  27.879  1.00  0.00    -0.269 OA
BRANCH  31  34
ATOM     34  C   UNL A   1      37.417  31.743  29.334  1.00  0.00     0.039 A 
ATOM     35  C   UNL A   1      37.897  33.025  29.055  1.00  0.00     0.014 A 
ATOM     36  C   UNL A   1      37.412  31.243  30.633  1.00  0.00     0.014 A 
ATOM     37  C   UNL A   1      38.645  33.686  30.020  1.00  0.00     0.010 A 
ATOM     38  C   UNL A   1      38.244  31.842  31.552  1.00  0.00     0.010 A 
ATOM     39  C   UNL A   1      38.918  33.022  31.211  1.00  0.00    -0.014 A 
BRANCH  39  40
ATOM     40  C   UNL A   1      39.886  33.482  32.191  1.00  0.00     0.031 A 
ATOM     41  C   UNL A   1      39.401  34.214  33.369  1.00  0.00     0.074 A 
ATOM     42  C   UNL A   1      41.183  33.121  32.078  1.00  0.00     0.049 A 
ATOM     43  N   UNL A   1      40.136  34.949  34.129  1.00  0.00    -0.248 NA
ATOM     44  C   UNL A   1      37.994  34.203  33.744  1.00  0.00     0.031 C 
ATOM     45  C   UNL A   1      42.204  33.163  33.116  1.00  0.00     0.029 A 
ATOM     46  N   UNL A   1      41.892  32.848  30.906  1.00  0.00    -0.354 N 
ATOM     47  C   UNL A   1      39.381  35.265  35.240  1.00  0.00     0.074 A 
ATOM     48  C   UNL A   1      38.038  34.863  34.902  1.00  0.00     0.031 C 
ATOM     49  C   UNL A   1      43.412  33.204  32.531  1.00  0.00     0.029 A 
ATOM     50  C   UNL A   1      43.188  33.364  31.104  1.00  0.00     0.049 A 
ATOM     51  H   UNL A   1      41.556  32.388  30.103  1.00  0.00     0.167 HD
ATOM     52  C   UNL A   1      40.021  35.676  36.370  1.00  0.00     0.034 A 
ATOM     53  C   UNL A   1      43.756  34.322  30.312  1.00  0.00     0.034 A 
ATOM     54  C   UNL A   1      41.458  35.867  36.113  1.00  0.00     0.049 A 
ATOM     55  C   UNL A   1      44.152  35.567  31.088  1.00  0.00     0.074 A 
ATOM     56  C   UNL A   1      42.567  35.061  36.318  1.00  0.00     0.029 A 
ATOM     57  N   UNL A   1      41.875  36.896  35.274  1.00  0.00    -0.354 N 
ATOM     58  N   UNL A   1      43.847  35.775  32.339  1.00  0.00    -0.248 NA
ATOM     59  C   UNL A   1      44.884  36.692  30.510  1.00  0.00     0.031 C 
ATOM     60  C   UNL A   1      43.626  35.557  35.510  1.00  0.00     0.029 A 
ATOM     61  C   UNL A   1      43.177  36.683  34.842  1.00  0.00     0.049 A 
ATOM     62  H   UNL A   1      41.321  37.670  35.021  1.00  0.00     0.167 HD
ATOM     63  C   UNL A   1      44.193  37.051  32.701  1.00  0.00     0.074 A 
ATOM     64  C   UNL A   1      44.914  37.553  31.542  1.00  0.00     0.031 C 
ATOM     65  C   UNL A   1      43.800  37.601  33.892  1.00  0.00     0.034 A 
BRANCH  52  66
ATOM     66  C   UNL A   1      39.435  35.572  37.774  1.00  0.00     0.023 A 
ATOM     67  C   UNL A   1      39.422  36.749  38.556  1.00  0.00     0.012 A 
ATOM     68  C   UNL A   1      38.978  34.403  38.426  1.00  0.00     0.148 A 
ATOM     69  C   UNL A   1      39.092  36.751  39.917  1.00  0.00     0.002 A 
ATOM     70  C   UNL A   1      38.715  34.385  39.801  1.00  0.00     0.091 A 
ATOM     71  F   UNL A   1      38.692  33.312  37.716  1.00  0.00    -0.205 F 
ATOM     72  C   UNL A   1      38.776  35.559  40.551  1.00  0.00     0.022 A 
BRANCH  70  73
ATOM     73  S   UNL A   1      38.364  32.860  40.699  1.00  0.00     0.127 S 
ATOM     74  O   UNL A   1      37.081  32.451  40.123  1.00  0.00    -0.237 OA
ATOM     75  O   UNL A   1      39.494  32.011  40.327  1.00  0.00    -0.237 OA
ATOM     76  O   UNL A   1      38.292  33.228  42.108  1.00  0.00    -0.744 OA
ENDBRANCH  70  73
ENDBRANCH  52  66
BRANCH  53  77
ATOM     77  C   UNL A   1      43.252  34.290  28.906  1.00  0.00     0.023 A 
ATOM     78  C   UNL A   1      42.269  35.255  28.572  1.00  0.00     0.012 A 
ATOM     79  C   UNL A   1      43.999  33.700  27.876  1.00  0.00     0.148 A 
ATOM     80  C   UNL A   1      42.185  35.770  27.278  1.00  0.00     0.002 A 
ATOM     81  C   UNL A   1      43.891  34.203  26.580  1.00  0.00     0.091 A 
ATOM     82  F   UNL A   1      44.863  32.723  28.179  1.00  0.00    -0.205 F 
ATOM     83  C   UNL A   1      43.030  35.277  26.292  1.00  0.00     0.022 A 
BRANCH  81  84
ATOM     84  S   UNL A   1      44.942  33.579  25.263  1.00  0.00     0.127 S 
ATOM     85  O   UNL A   1      46.255  34.050  25.691  1.00  0.00    -0.237 OA
ATOM     86  O   UNL A   1      44.749  32.134  25.356  1.00  0.00    -0.237 OA
ATOM     87  O   UNL A   1      44.395  34.178  24.054  1.00  0.00    -0.744 OA
ENDBRANCH  81  84
ENDBRANCH  53  77
BRANCH  65  88
ATOM     88  C   UNL A   1      43.961  39.061  34.277  1.00  0.00     0.023 A 
ATOM     89  C   UNL A   1      44.668  39.464  35.425  1.00  0.00     0.012 A 
ATOM     90  C   UNL A   1      43.520  40.093  33.407  1.00  0.00     0.148 A 
ATOM     91  C   UNL A   1      44.864  40.815  35.739  1.00  0.00     0.002 A 
ATOM     92  C   UNL A   1      43.817  41.430  33.665  1.00  0.00     0.091 A 
ATOM     93  F   UNL A   1      42.786  39.787  32.326  1.00  0.00    -0.205 F 
ATOM     94  C   UNL A   1      44.458  41.797  34.848  1.00  0.00     0.022 A 
BRANCH  92  95
ATOM     95  S   UNL A   1      43.535  42.697  32.420  1.00  0.00     0.127 S 
ATOM     96  O   UNL A   1      42.080  42.673  32.285  1.00  0.00    -0.237 OA
ATOM     97  O   UNL A   1      44.065  43.900  33.066  1.00  0.00    -0.237 OA
ATOM     98  O   UNL A   1      44.297  42.262  31.258  1.00  0.00    -0.744 OA
ENDBRANCH  92  95
ENDBRANCH  65  88
ENDBRANCH  39  40
ENDBRANCH  31  34
ENDBRANCH  29  30
ENDBRANCH   1  29
TORSDOF 16
ENDMDL
