MODEL 1
REMARK VINA RESULT:     -12.5      0.000      0.000
REMARK SMILES C/C(=C/c1cccc(OCC(=O)NCCCNC(=O)c2ccc(-c3c4nc(c(-c5cccc(S(=O)(=O)[O-])c5F)c5ccc([nH]5)c(-c5cccc(S(=O)(=O)[O-])c5F)c5nc(c(-c6cccc(S(=O)(=O)[O-])c6F)c6ccc3[nH]6)C=C5)C=C4)cc2)c1)c1nc2sccc2c(=O)[nH]1
REMARK SMILES IDX 14 1 13 2 11 3 12 4 10 6 9 7 8 8 4 9 5 10 83 11 6 12 7 13
REMARK SMILES IDX 3 14 1 15 2 16 84 17 85 18 93 19 86 20 91 21 87 23 90 24
REMARK SMILES IDX 92 25 88 26 89 27 15 28 16 29 17 30 18 31 19 33 20 34 21 35
REMARK SMILES IDX 82 36 22 37 81 38 23 39 24 40 25 41 75 42 26 43 80 44 74 45
REMARK SMILES IDX 76 46 27 47 79 48 73 49 72 50 28 52 60 53 40 54 59 55 41 56
REMARK SMILES IDX 44 57 58 58 77 59 42 60 43 61 57 63 78 64 45 65 29 66 30 67
REMARK SMILES IDX 38 68 31 69 33 70 39 71 32 72 34 73 35 74 36 75 37 76 61 77
REMARK SMILES IDX 62 78 70 79 63 80 65 81 71 82 64 83 66 84 67 85 68 86 69 87
REMARK SMILES IDX 46 88 47 89 55 90 48 91 50 92 56 93 49 94 51 95 52 96 53 97
REMARK SMILES IDX 54 98
REMARK H PARENT 13 5 93 22 17 32 76 51 44 62
REMARK Flexibility Score: inf
ROOT
ATOM      1  C   UNL A   1      32.146  29.358  24.334  1.00  0.00     0.117 C 
ENDROOT
BRANCH   1   2
ATOM      2  N   UNL A   1      31.202  29.746  23.303  1.00  0.00    -0.353 N 
ATOM      3  C   UNL A   1      30.472  28.929  22.485  1.00  0.00     0.257 C 
ATOM      4  O   UNL A   1      29.516  29.400  21.868  1.00  0.00    -0.271 OA
ATOM      5  H   UNL A   1      31.072  30.714  23.177  1.00  0.00     0.163 HD
BRANCH   3   6
ATOM      6  C   UNL A   1      30.801  27.439  22.391  1.00  0.00     0.329 C 
BRANCH   6   7
ATOM      7  O   UNL A   1      30.061  26.574  23.232  1.00  0.00    -0.484 OA
BRANCH   7   8
ATOM      8  C   UNL A   1      30.701  25.965  24.275  1.00  0.00     0.120 A 
ATOM      9  C   UNL A   1      32.590  25.153  25.573  1.00  0.00    -0.022 A 
ATOM     10  C   UNL A   1      31.711  24.701  26.563  1.00  0.00     0.008 A 
ATOM     11  C   UNL A   1      32.078  25.773  24.419  1.00  0.00     0.054 A 
ATOM     12  C   UNL A   1      30.339  24.890  26.420  1.00  0.00     0.004 A 
ATOM     13  C   UNL A   1      29.840  25.522  25.283  1.00  0.00     0.046 A 
BRANCH   9  14
ATOM     14  C   UNL A   1      34.032  24.945  25.773  1.00  0.00     0.015 C 
ATOM     15  C   UNL A   1      36.202  23.700  25.765  1.00  0.00     0.048 C 
ATOM     16  C   UNL A   1      34.736  23.833  25.489  1.00  0.00    -0.008 C 
BRANCH  16  17
ATOM     17  C   UNL A   1      34.098  22.620  24.905  1.00  0.00     0.137 A 
ATOM     18  N   UNL A   1      34.086  21.489  25.543  1.00  0.00    -0.219 NA
ATOM     19  N   UNL A   1      33.566  22.809  23.649  1.00  0.00    -0.306 N 
ATOM     20  C   UNL A   1      33.425  20.490  24.900  1.00  0.00     0.131 A 
ATOM     21  C   UNL A   1      32.918  21.819  22.943  1.00  0.00     0.259 A 
ATOM     22  H   UNL A   1      33.653  23.697  23.233  1.00  0.00     0.171 HD
ATOM     23  S   UNL A   1      33.211  18.947  25.602  1.00  0.00    -0.124 S 
ATOM     24  C   UNL A   1      32.832  20.564  23.659  1.00  0.00     0.077 A 
ATOM     25  O   UNL A   1      32.450  21.996  21.829  1.00  0.00    -0.269 OA
ATOM     26  C   UNL A   1      32.291  18.394  24.266  1.00  0.00     0.068 A 
ATOM     27  C   UNL A   1      32.188  19.350  23.280  1.00  0.00     0.028 A 
ENDBRANCH  16  17
ENDBRANCH   9  14
ENDBRANCH   7   8
ENDBRANCH   6   7
ENDBRANCH   3   6
ENDBRANCH   1   2
BRANCH   1  28
ATOM     28  C   UNL A   1      31.574  29.320  25.748  1.00  0.00     0.042 C 
BRANCH  28  29
ATOM     29  C   UNL A   1      32.495  29.789  26.871  1.00  0.00     0.118 C 
BRANCH  29  30
ATOM     30  N   UNL A   1      32.570  31.232  27.037  1.00  0.00    -0.352 N 
ATOM     31  C   UNL A   1      33.584  32.016  27.537  1.00  0.00     0.251 C 
ATOM     32  H   UNL A   1      31.770  31.726  26.745  1.00  0.00     0.163 HD
ATOM     33  O   UNL A   1      33.417  33.233  27.603  1.00  0.00    -0.269 OA
BRANCH  31  34
ATOM     34  C   UNL A   1      34.847  31.422  28.033  1.00  0.00     0.039 A 
ATOM     35  C   UNL A   1      35.957  32.262  28.178  1.00  0.00     0.014 A 
ATOM     36  C   UNL A   1      34.962  30.064  28.340  1.00  0.00     0.014 A 
ATOM     37  C   UNL A   1      37.152  31.763  28.705  1.00  0.00     0.010 A 
ATOM     38  C   UNL A   1      36.140  29.576  28.911  1.00  0.00     0.010 A 
ATOM     39  C   UNL A   1      37.241  30.422  29.114  1.00  0.00    -0.014 A 
BRANCH  39  40
ATOM     40  C   UNL A   1      38.449  29.919  29.821  1.00  0.00     0.031 A 
ATOM     41  C   UNL A   1      38.830  30.442  31.177  1.00  0.00     0.074 A 
ATOM     42  C   UNL A   1      39.258  29.044  29.192  1.00  0.00     0.049 A 
ATOM     43  N   UNL A   1      39.861  30.127  31.920  1.00  0.00    -0.248 NA
ATOM     44  C   UNL A   1      37.951  31.460  31.770  1.00  0.00     0.031 C 
ATOM     45  C   UNL A   1      39.042  28.517  27.842  1.00  0.00     0.029 A 
ATOM     46  N   UNL A   1      40.436  28.463  29.590  1.00  0.00    -0.354 N 
ATOM     47  C   UNL A   1      39.773  30.925  33.053  1.00  0.00     0.074 A 
ATOM     48  C   UNL A   1      38.598  31.756  32.890  1.00  0.00     0.031 C 
ATOM     49  C   UNL A   1      40.054  27.694  27.525  1.00  0.00     0.029 A 
ATOM     50  C   UNL A   1      41.001  27.650  28.635  1.00  0.00     0.049 A 
ATOM     51  H   UNL A   1      40.840  28.614  30.475  1.00  0.00     0.167 HD
ATOM     52  C   UNL A   1      40.580  30.947  34.142  1.00  0.00     0.034 A 
ATOM     53  C   UNL A   1      42.152  26.948  28.647  1.00  0.00     0.034 A 
ATOM     54  C   UNL A   1      41.730  30.099  34.319  1.00  0.00     0.049 A 
ATOM     55  C   UNL A   1      43.011  26.963  29.880  1.00  0.00     0.074 A 
ATOM     56  C   UNL A   1      42.555  29.987  35.426  1.00  0.00     0.029 A 
ATOM     57  N   UNL A   1      42.226  29.227  33.363  1.00  0.00    -0.354 N 
ATOM     58  N   UNL A   1      42.815  27.591  31.014  1.00  0.00    -0.248 NA
ATOM     59  C   UNL A   1      44.232  26.143  29.852  1.00  0.00     0.031 C 
ATOM     60  C   UNL A   1      43.559  29.057  35.132  1.00  0.00     0.029 A 
ATOM     61  C   UNL A   1      43.352  28.579  33.848  1.00  0.00     0.049 A 
ATOM     62  H   UNL A   1      41.836  29.086  32.470  1.00  0.00     0.167 HD
ATOM     63  C   UNL A   1      43.866  27.219  31.844  1.00  0.00     0.074 A 
ATOM     64  C   UNL A   1      44.687  26.294  31.090  1.00  0.00     0.031 C 
ATOM     65  C   UNL A   1      44.135  27.620  33.111  1.00  0.00     0.034 A 
BRANCH  52  66
ATOM     66  C   UNL A   1      40.212  31.885  35.262  1.00  0.00     0.023 A 
ATOM     67  C   UNL A   1      40.883  33.120  35.375  1.00  0.00     0.012 A 
ATOM     68  C   UNL A   1      39.174  31.578  36.164  1.00  0.00     0.148 A 
ATOM     69  C   UNL A   1      40.552  34.020  36.387  1.00  0.00     0.002 A 
ATOM     70  C   UNL A   1      38.825  32.497  37.148  1.00  0.00     0.091 A 
ATOM     71  F   UNL A   1      38.561  30.391  36.057  1.00  0.00    -0.205 F 
ATOM     72  C   UNL A   1      39.519  33.714  37.267  1.00  0.00     0.022 A 
BRANCH  70  73
ATOM     73  S   UNL A   1      37.456  32.219  38.279  1.00  0.00     0.127 S 
ATOM     74  O   UNL A   1      37.308  30.767  38.214  1.00  0.00    -0.237 OA
ATOM     75  O   UNL A   1      37.991  32.721  39.547  1.00  0.00    -0.237 OA
ATOM     76  O   UNL A   1      36.342  32.993  37.749  1.00  0.00    -0.744 OA
ENDBRANCH  70  73
ENDBRANCH  52  66
BRANCH  53  77
ATOM     77  C   UNL A   1      42.509  26.101  27.474  1.00  0.00     0.023 A 
ATOM     78  C   UNL A   1      43.321  26.644  26.460  1.00  0.00     0.012 A 
ATOM     79  C   UNL A   1      42.095  24.759  27.381  1.00  0.00     0.148 A 
ATOM     80  C   UNL A   1      43.697  25.871  25.361  1.00  0.00     0.002 A 
ATOM     81  C   UNL A   1      42.516  23.978  26.310  1.00  0.00     0.091 A 
ATOM     82  F   UNL A   1      41.312  24.265  28.351  1.00  0.00    -0.205 F 
ATOM     83  C   UNL A   1      43.305  24.537  25.292  1.00  0.00     0.022 A 
BRANCH  81  84
ATOM     84  S   UNL A   1      42.169  22.219  26.203  1.00  0.00     0.127 S 
ATOM     85  O   UNL A   1      40.714  22.208  26.081  1.00  0.00    -0.237 OA
ATOM     86  O   UNL A   1      42.893  21.839  24.989  1.00  0.00    -0.237 OA
ATOM     87  O   UNL A   1      42.706  21.637  27.427  1.00  0.00    -0.744 OA
ENDBRANCH  81  84
ENDBRANCH  53  77
BRANCH  65  88
ATOM     88  C   UNL A   1      45.356  27.048  33.782  1.00  0.00     0.023 A 
ATOM     89  C   UNL A   1      46.576  27.751  33.721  1.00  0.00     0.012 A 
ATOM     90  C   UNL A   1      45.281  25.858  34.533  1.00  0.00     0.148 A 
ATOM     91  C   UNL A   1      47.709  27.265  34.374  1.00  0.00     0.002 A 
ATOM     92  C   UNL A   1      46.403  25.402  35.217  1.00  0.00     0.091 A 
ATOM     93  F   UNL A   1      44.119  25.192  34.562  1.00  0.00    -0.205 F 
ATOM     94  C   UNL A   1      47.619  26.099  35.130  1.00  0.00     0.022 A 
BRANCH  92  95
ATOM     95  S   UNL A   1      46.354  23.960  36.287  1.00  0.00     0.127 S 
ATOM     96  O   UNL A   1      46.077  22.890  35.332  1.00  0.00    -0.237 OA
ATOM     97  O   UNL A   1      47.705  23.940  36.850  1.00  0.00    -0.237 OA
ATOM     98  O   UNL A   1      45.302  24.223  37.260  1.00  0.00    -0.744 OA
ENDBRANCH  92  95
ENDBRANCH  65  88
ENDBRANCH  39  40
ENDBRANCH  31  34
ENDBRANCH  29  30
ENDBRANCH  28  29
ENDBRANCH   1  28
TORSDOF 17
ENDMDL
MODEL 2
REMARK VINA RESULT:     -12.4      5.073     10.336
REMARK SMILES C/C(=C/c1cccc(OCC(=O)NCCCNC(=O)c2ccc(-c3c4nc(c(-c5cccc(S(=O)(=O)[O-])c5F)c5ccc([nH]5)c(-c5cccc(S(=O)(=O)[O-])c5F)c5nc(c(-c6cccc(S(=O)(=O)[O-])c6F)c6ccc3[nH]6)C=C5)C=C4)cc2)c1)c1nc2sccc2c(=O)[nH]1
REMARK SMILES IDX 14 1 13 2 11 3 12 4 10 6 9 7 8 8 4 9 5 10 83 11 6 12 7 13
REMARK SMILES IDX 3 14 1 15 2 16 84 17 85 18 93 19 86 20 91 21 87 23 90 24
REMARK SMILES IDX 92 25 88 26 89 27 15 28 16 29 17 30 18 31 19 33 20 34 21 35
REMARK SMILES IDX 82 36 22 37 81 38 23 39 24 40 25 41 75 42 26 43 80 44 74 45
REMARK SMILES IDX 76 46 27 47 79 48 73 49 72 50 28 52 60 53 40 54 59 55 41 56
REMARK SMILES IDX 44 57 58 58 77 59 42 60 43 61 57 63 78 64 45 65 29 66 30 67
REMARK SMILES IDX 38 68 31 69 33 70 39 71 32 72 34 73 35 74 36 75 37 76 61 77
REMARK SMILES IDX 62 78 70 79 63 80 65 81 71 82 64 83 66 84 67 85 68 86 69 87
REMARK SMILES IDX 46 88 47 89 55 90 48 91 50 92 56 93 49 94 51 95 52 96 53 97
REMARK SMILES IDX 54 98
REMARK H PARENT 13 5 93 22 17 32 76 51 44 62
REMARK Flexibility Score: inf
ROOT
ATOM      1  C   UNL A   1      35.272  21.237  24.884  1.00  0.00     0.117 C 
ENDROOT
BRANCH   1   2
ATOM      2  N   UNL A   1      34.435  20.101  25.218  1.00  0.00    -0.353 N 
ATOM      3  C   UNL A   1      33.081  20.087  25.411  1.00  0.00     0.257 C 
ATOM      4  O   UNL A   1      32.488  19.008  25.406  1.00  0.00    -0.271 OA
ATOM      5  H   UNL A   1      34.896  19.237  25.318  1.00  0.00     0.163 HD
BRANCH   3   6
ATOM      6  C   UNL A   1      32.310  21.398  25.567  1.00  0.00     0.329 C 
BRANCH   6   7
ATOM      7  O   UNL A   1      31.790  21.969  24.381  1.00  0.00    -0.484 OA
BRANCH   7   8
ATOM      8  C   UNL A   1      32.348  23.124  23.909  1.00  0.00     0.120 A 
ATOM      9  C   UNL A   1      33.356  25.333  24.028  1.00  0.00    -0.022 A 
ATOM     10  C   UNL A   1      33.491  25.343  22.636  1.00  0.00     0.008 A 
ATOM     11  C   UNL A   1      32.767  24.224  24.662  1.00  0.00     0.054 A 
ATOM     12  C   UNL A   1      33.071  24.249  21.884  1.00  0.00     0.004 A 
ATOM     13  C   UNL A   1      32.506  23.146  22.520  1.00  0.00     0.046 A 
BRANCH   9  14
ATOM     14  C   UNL A   1      33.826  26.504  24.783  1.00  0.00     0.015 C 
ATOM     15  C   UNL A   1      33.742  28.816  25.735  1.00  0.00     0.048 C 
ATOM     16  C   UNL A   1      33.163  27.658  24.981  1.00  0.00    -0.008 C 
BRANCH  16  17
ATOM     17  C   UNL A   1      31.800  27.892  24.429  1.00  0.00     0.137 A 
ATOM     18  N   UNL A   1      31.527  28.947  23.722  1.00  0.00    -0.219 NA
ATOM     19  N   UNL A   1      30.880  26.922  24.760  1.00  0.00    -0.306 N 
ATOM     20  C   UNL A   1      30.254  28.993  23.250  1.00  0.00     0.131 A 
ATOM     21  C   UNL A   1      29.569  26.943  24.336  1.00  0.00     0.259 A 
ATOM     22  H   UNL A   1      31.174  26.174  25.330  1.00  0.00     0.171 HD
ATOM     23  S   UNL A   1      29.712  30.247  22.224  1.00  0.00    -0.124 S 
ATOM     24  C   UNL A   1      29.256  28.074  23.490  1.00  0.00     0.077 A 
ATOM     25  O   UNL A   1      28.762  26.077  24.635  1.00  0.00    -0.269 OA
ATOM     26  C   UNL A   1      28.160  29.538  22.067  1.00  0.00     0.068 A 
ATOM     27  C   UNL A   1      28.038  28.392  22.821  1.00  0.00     0.028 A 
ENDBRANCH  16  17
ENDBRANCH   9  14
ENDBRANCH   7   8
ENDBRANCH   6   7
ENDBRANCH   3   6
ENDBRANCH   1   2
BRANCH   1  28
ATOM     28  C   UNL A   1      36.514  21.399  25.755  1.00  0.00     0.042 C 
BRANCH  28  29
ATOM     29  C   UNL A   1      37.859  21.415  25.034  1.00  0.00     0.118 C 
BRANCH  29  30
ATOM     30  N   UNL A   1      38.864  20.526  25.597  1.00  0.00    -0.352 N 
ATOM     31  C   UNL A   1      39.949  20.806  26.395  1.00  0.00     0.251 C 
ATOM     32  H   UNL A   1      38.750  19.575  25.372  1.00  0.00     0.163 HD
ATOM     33  O   UNL A   1      40.686  19.884  26.740  1.00  0.00    -0.269 OA
BRANCH  31  34
ATOM     34  C   UNL A   1      40.267  22.193  26.808  1.00  0.00     0.039 A 
ATOM     35  C   UNL A   1      41.137  22.374  27.888  1.00  0.00     0.014 A 
ATOM     36  C   UNL A   1      39.717  23.306  26.167  1.00  0.00     0.014 A 
ATOM     37  C   UNL A   1      41.520  23.663  28.273  1.00  0.00     0.010 A 
ATOM     38  C   UNL A   1      40.137  24.591  26.521  1.00  0.00     0.010 A 
ATOM     39  C   UNL A   1      41.053  24.782  27.566  1.00  0.00    -0.014 A 
BRANCH  39  40
ATOM     40  C   UNL A   1      41.575  26.143  27.861  1.00  0.00     0.031 A 
ATOM     41  C   UNL A   1      42.991  26.523  27.531  1.00  0.00     0.074 A 
ATOM     42  C   UNL A   1      40.786  27.018  28.515  1.00  0.00     0.049 A 
ATOM     43  N   UNL A   1      43.609  27.656  27.742  1.00  0.00    -0.248 NA
ATOM     44  C   UNL A   1      43.825  25.492  26.896  1.00  0.00     0.031 C 
ATOM     45  C   UNL A   1      39.417  26.748  28.962  1.00  0.00     0.029 A 
ATOM     46  N   UNL A   1      41.026  28.301  28.943  1.00  0.00    -0.354 N 
ATOM     47  C   UNL A   1      44.911  27.471  27.294  1.00  0.00     0.074 A 
ATOM     48  C   UNL A   1      44.999  26.105  26.819  1.00  0.00     0.031 C 
ATOM     49  C   UNL A   1      38.942  27.829  29.601  1.00  0.00     0.029 A 
ATOM     50  C   UNL A   1      39.974  28.860  29.631  1.00  0.00     0.049 A 
ATOM     51  H   UNL A   1      41.872  28.775  28.774  1.00  0.00     0.167 HD
ATOM     52  C   UNL A   1      45.933  28.361  27.256  1.00  0.00     0.034 A 
ATOM     53  C   UNL A   1      39.852  30.066  30.221  1.00  0.00     0.034 A 
ATOM     54  C   UNL A   1      45.836  29.728  27.699  1.00  0.00     0.049 A 
ATOM     55  C   UNL A   1      40.988  31.047  30.135  1.00  0.00     0.074 A 
ATOM     56  C   UNL A   1      46.790  30.728  27.616  1.00  0.00     0.029 A 
ATOM     57  N   UNL A   1      44.727  30.285  28.316  1.00  0.00    -0.354 N 
ATOM     58  N   UNL A   1      42.152  30.910  29.548  1.00  0.00    -0.248 NA
ATOM     59  C   UNL A   1      40.781  32.362  30.759  1.00  0.00     0.031 C 
ATOM     60  C   UNL A   1      46.261  31.887  28.198  1.00  0.00     0.029 A 
ATOM     61  C   UNL A   1      44.974  31.612  28.630  1.00  0.00     0.049 A 
ATOM     62  H   UNL A   1      43.886  29.809  28.503  1.00  0.00     0.167 HD
ATOM     63  C   UNL A   1      42.803  32.129  29.703  1.00  0.00     0.074 A 
ATOM     64  C   UNL A   1      41.895  33.000  30.422  1.00  0.00     0.031 C 
ATOM     65  C   UNL A   1      44.046  32.489  29.299  1.00  0.00     0.034 A 
BRANCH  52  66
ATOM     66  C   UNL A   1      47.236  27.899  26.660  1.00  0.00     0.023 A 
ATOM     67  C   UNL A   1      48.261  27.444  27.514  1.00  0.00     0.012 A 
ATOM     68  C   UNL A   1      47.432  27.861  25.265  1.00  0.00     0.148 A 
ATOM     69  C   UNL A   1      49.472  26.990  26.994  1.00  0.00     0.002 A 
ATOM     70  C   UNL A   1      48.629  27.371  24.752  1.00  0.00     0.091 A 
ATOM     71  F   UNL A   1      46.456  28.318  24.468  1.00  0.00    -0.205 F 
ATOM     72  C   UNL A   1      49.653  26.945  25.615  1.00  0.00     0.022 A 
BRANCH  70  73
ATOM     73  S   UNL A   1      48.921  27.208  22.986  1.00  0.00     0.127 S 
ATOM     74  O   UNL A   1      48.265  25.935  22.695  1.00  0.00    -0.237 OA
ATOM     75  O   UNL A   1      48.238  28.383  22.445  1.00  0.00    -0.237 OA
ATOM     76  O   UNL A   1      50.369  27.225  22.823  1.00  0.00    -0.744 OA
ENDBRANCH  70  73
ENDBRANCH  52  66
BRANCH  53  77
ATOM     77  C   UNL A   1      38.565  30.438  30.872  1.00  0.00     0.023 A 
ATOM     78  C   UNL A   1      38.366  30.118  32.229  1.00  0.00     0.012 A 
ATOM     79  C   UNL A   1      37.565  31.146  30.178  1.00  0.00     0.148 A 
ATOM     80  C   UNL A   1      37.184  30.475  32.877  1.00  0.00     0.002 A 
ATOM     81  C   UNL A   1      36.411  31.545  30.843  1.00  0.00     0.091 A 
ATOM     82  F   UNL A   1      37.769  31.430  28.883  1.00  0.00    -0.205 F 
ATOM     83  C   UNL A   1      36.213  31.198  32.190  1.00  0.00     0.022 A 
BRANCH  81  84
ATOM     84  S   UNL A   1      35.167  32.589  30.076  1.00  0.00     0.127 S 
ATOM     85  O   UNL A   1      34.227  32.791  31.174  1.00  0.00    -0.237 OA
ATOM     86  O   UNL A   1      35.948  33.771  29.707  1.00  0.00    -0.237 OA
ATOM     87  O   UNL A   1      34.661  31.828  28.941  1.00  0.00    -0.744 OA
ENDBRANCH  81  84
ENDBRANCH  53  77
BRANCH  65  88
ATOM     88  C   UNL A   1      44.502  33.892  29.602  1.00  0.00     0.023 A 
ATOM     89  C   UNL A   1      45.055  34.187  30.864  1.00  0.00     0.012 A 
ATOM     90  C   UNL A   1      44.453  34.899  28.617  1.00  0.00     0.148 A 
ATOM     91  C   UNL A   1      45.526  35.468  31.151  1.00  0.00     0.002 A 
ATOM     92  C   UNL A   1      44.965  36.162  28.896  1.00  0.00     0.091 A 
ATOM     93  F   UNL A   1      43.904  34.607  27.430  1.00  0.00    -0.205 F 
ATOM     94  C   UNL A   1      45.493  36.450  30.165  1.00  0.00     0.022 A 
BRANCH  92  95
ATOM     95  S   UNL A   1      45.044  37.459  27.656  1.00  0.00     0.127 S 
ATOM     96  O   UNL A   1      45.752  38.516  28.375  1.00  0.00    -0.237 OA
ATOM     97  O   UNL A   1      45.817  36.826  26.586  1.00  0.00    -0.237 OA
ATOM     98  O   UNL A   1      43.663  37.756  27.302  1.00  0.00    -0.744 OA
ENDBRANCH  92  95
ENDBRANCH  65  88
ENDBRANCH  39  40
ENDBRANCH  31  34
ENDBRANCH  29  30
ENDBRANCH  28  29
ENDBRANCH   1  28
TORSDOF 17
ENDMDL
MODEL 3
REMARK VINA RESULT:     -12.3      2.276      7.919
REMARK SMILES C/C(=C/c1cccc(OCC(=O)NCCCNC(=O)c2ccc(-c3c4nc(c(-c5cccc(S(=O)(=O)[O-])c5F)c5ccc([nH]5)c(-c5cccc(S(=O)(=O)[O-])c5F)c5nc(c(-c6cccc(S(=O)(=O)[O-])c6F)c6ccc3[nH]6)C=C5)C=C4)cc2)c1)c1nc2sccc2c(=O)[nH]1
REMARK SMILES IDX 14 1 13 2 11 3 12 4 10 6 9 7 8 8 4 9 5 10 83 11 6 12 7 13
REMARK SMILES IDX 3 14 1 15 2 16 84 17 85 18 93 19 86 20 91 21 87 23 90 24
REMARK SMILES IDX 92 25 88 26 89 27 15 28 16 29 17 30 18 31 19 33 20 34 21 35
REMARK SMILES IDX 82 36 22 37 81 38 23 39 24 40 25 41 75 42 26 43 80 44 74 45
REMARK SMILES IDX 76 46 27 47 79 48 73 49 72 50 28 52 60 53 40 54 59 55 41 56
REMARK SMILES IDX 44 57 58 58 77 59 42 60 43 61 57 63 78 64 45 65 29 66 30 67
REMARK SMILES IDX 38 68 31 69 33 70 39 71 32 72 34 73 35 74 36 75 37 76 61 77
REMARK SMILES IDX 62 78 70 79 63 80 65 81 71 82 64 83 66 84 67 85 68 86 69 87
REMARK SMILES IDX 46 88 47 89 55 90 48 91 50 92 56 93 49 94 51 95 52 96 53 97
REMARK SMILES IDX 54 98
REMARK H PARENT 13 5 93 22 17 32 76 51 44 62
REMARK Flexibility Score: inf
ROOT
ATOM      1  C   UNL A   1      32.022  30.244  26.149  1.00  0.00     0.117 C 
ENDROOT
BRANCH   1   2
ATOM      2  N   UNL A   1      31.475  30.125  24.811  1.00  0.00    -0.353 N 
ATOM      3  C   UNL A   1      31.406  29.004  24.032  1.00  0.00     0.257 C 
ATOM      4  O   UNL A   1      30.664  29.004  23.049  1.00  0.00    -0.271 OA
ATOM      5  H   UNL A   1      31.109  30.950  24.418  1.00  0.00     0.163 HD
BRANCH   3   6
ATOM      6  C   UNL A   1      32.191  27.749  24.415  1.00  0.00     0.329 C 
BRANCH   6   7
ATOM      7  O   UNL A   1      31.462  26.719  25.056  1.00  0.00    -0.484 OA
BRANCH   7   8
ATOM      8  C   UNL A   1      32.145  25.652  25.568  1.00  0.00     0.120 A 
ATOM      9  C   UNL A   1      34.042  24.175  25.927  1.00  0.00    -0.022 A 
ATOM     10  C   UNL A   1      33.275  23.411  26.814  1.00  0.00     0.008 A 
ATOM     11  C   UNL A   1      33.466  25.289  25.292  1.00  0.00     0.054 A 
ATOM     12  C   UNL A   1      31.958  23.769  27.088  1.00  0.00     0.004 A 
ATOM     13  C   UNL A   1      31.400  24.886  26.470  1.00  0.00     0.046 A 
BRANCH   9  14
ATOM     14  C   UNL A   1      35.433  23.767  25.679  1.00  0.00     0.015 C 
ATOM     15  C   UNL A   1      37.297  22.276  24.929  1.00  0.00     0.048 C 
ATOM     16  C   UNL A   1      35.850  22.622  25.105  1.00  0.00    -0.008 C 
BRANCH  16  17
ATOM     17  C   UNL A   1      34.896  21.583  24.629  1.00  0.00     0.137 A 
ATOM     18  N   UNL A   1      35.048  20.331  24.940  1.00  0.00    -0.219 NA
ATOM     19  N   UNL A   1      33.887  22.065  23.825  1.00  0.00    -0.306 N 
ATOM     20  C   UNL A   1      34.070  19.513  24.470  1.00  0.00     0.131 A 
ATOM     21  C   UNL A   1      32.894  21.271  23.295  1.00  0.00     0.259 A 
ATOM     22  H   UNL A   1      33.874  23.028  23.618  1.00  0.00     0.171 HD
ATOM     23  S   UNL A   1      34.028  17.845  24.840  1.00  0.00    -0.124 S 
ATOM     24  C   UNL A   1      33.001  19.881  23.682  1.00  0.00     0.077 A 
ATOM     25  O   UNL A   1      32.003  21.709  22.584  1.00  0.00    -0.269 OA
ATOM     26  C   UNL A   1      32.559  17.626  23.984  1.00  0.00     0.068 A 
ATOM     27  C   UNL A   1      32.132  18.791  23.385  1.00  0.00     0.028 A 
ENDBRANCH  16  17
ENDBRANCH   9  14
ENDBRANCH   7   8
ENDBRANCH   6   7
ENDBRANCH   3   6
ENDBRANCH   1   2
BRANCH   1  28
ATOM     28  C   UNL A   1      31.700  31.554  26.861  1.00  0.00     0.042 C 
BRANCH  28  29
ATOM     29  C   UNL A   1      32.881  32.466  27.186  1.00  0.00     0.118 C 
BRANCH  29  30
ATOM     30  N   UNL A   1      32.516  33.804  27.623  1.00  0.00    -0.352 N 
ATOM     31  C   UNL A   1      33.104  34.623  28.559  1.00  0.00     0.251 C 
ATOM     32  H   UNL A   1      31.725  34.185  27.179  1.00  0.00     0.163 HD
ATOM     33  O   UNL A   1      32.604  35.724  28.783  1.00  0.00    -0.269 OA
BRANCH  31  34
ATOM     34  C   UNL A   1      34.294  34.189  29.327  1.00  0.00     0.039 A 
ATOM     35  C   UNL A   1      34.087  33.539  30.549  1.00  0.00     0.014 A 
ATOM     36  C   UNL A   1      35.596  34.422  28.878  1.00  0.00     0.014 A 
ATOM     37  C   UNL A   1      35.176  33.051  31.279  1.00  0.00     0.010 A 
ATOM     38  C   UNL A   1      36.681  33.893  29.583  1.00  0.00     0.010 A 
ATOM     39  C   UNL A   1      36.482  33.190  30.781  1.00  0.00    -0.014 A 
BRANCH  39  40
ATOM     40  C   UNL A   1      37.631  32.539  31.464  1.00  0.00     0.031 A 
ATOM     41  C   UNL A   1      38.352  31.378  30.839  1.00  0.00     0.074 A 
ATOM     42  C   UNL A   1      37.972  32.946  32.703  1.00  0.00     0.049 A 
ATOM     43  N   UNL A   1      39.357  30.684  31.309  1.00  0.00    -0.248 NA
ATOM     44  C   UNL A   1      37.874  30.928  29.523  1.00  0.00     0.031 C 
ATOM     45  C   UNL A   1      37.303  34.011  33.454  1.00  0.00     0.029 A 
ATOM     46  N   UNL A   1      38.946  32.498  33.561  1.00  0.00    -0.354 N 
ATOM     47  C   UNL A   1      39.615  29.698  30.365  1.00  0.00     0.074 A 
ATOM     48  C   UNL A   1      38.645  29.871  29.303  1.00  0.00     0.031 C 
ATOM     49  C   UNL A   1      37.884  34.132  34.658  1.00  0.00     0.029 A 
ATOM     50  C   UNL A   1      38.950  33.142  34.776  1.00  0.00     0.049 A 
ATOM     51  H   UNL A   1      39.581  31.783  33.328  1.00  0.00     0.167 HD
ATOM     52  C   UNL A   1      40.587  28.752  30.368  1.00  0.00     0.034 A 
ATOM     53  C   UNL A   1      39.722  32.958  35.866  1.00  0.00     0.034 A 
ATOM     54  C   UNL A   1      41.571  28.600  31.407  1.00  0.00     0.049 A 
ATOM     55  C   UNL A   1      40.814  31.925  35.829  1.00  0.00     0.074 A 
ATOM     56  C   UNL A   1      42.646  27.730  31.454  1.00  0.00     0.029 A 
ATOM     57  N   UNL A   1      41.594  29.326  32.589  1.00  0.00    -0.354 N 
ATOM     58  N   UNL A   1      41.154  31.120  34.852  1.00  0.00    -0.248 NA
ATOM     59  C   UNL A   1      41.653  31.800  37.031  1.00  0.00     0.031 C 
ATOM     60  C   UNL A   1      43.312  27.920  32.670  1.00  0.00     0.029 A 
ATOM     61  C   UNL A   1      42.660  28.917  33.376  1.00  0.00     0.049 A 
ATOM     62  H   UNL A   1      40.951  30.029  32.832  1.00  0.00     0.167 HD
ATOM     63  C   UNL A   1      42.265  30.417  35.306  1.00  0.00     0.074 A 
ATOM     64  C   UNL A   1      42.552  30.905  36.640  1.00  0.00     0.031 C 
ATOM     65  C   UNL A   1      42.972  29.444  34.680  1.00  0.00     0.034 A 
BRANCH  52  66
ATOM     66  C   UNL A   1      40.669  27.838  29.174  1.00  0.00     0.023 A 
ATOM     67  C   UNL A   1      39.816  26.717  29.104  1.00  0.00     0.012 A 
ATOM     68  C   UNL A   1      41.541  28.109  28.101  1.00  0.00     0.148 A 
ATOM     69  C   UNL A   1      39.853  25.862  28.004  1.00  0.00     0.002 A 
ATOM     70  C   UNL A   1      41.545  27.273  26.990  1.00  0.00     0.091 A 
ATOM     71  F   UNL A   1      42.361  29.166  28.192  1.00  0.00    -0.205 F 
ATOM     72  C   UNL A   1      40.709  26.144  26.944  1.00  0.00     0.022 A 
BRANCH  70  73
ATOM     73  S   UNL A   1      42.563  27.600  25.545  1.00  0.00     0.127 S 
ATOM     74  O   UNL A   1      42.233  26.464  24.687  1.00  0.00    -0.237 OA
ATOM     75  O   UNL A   1      42.041  28.886  25.079  1.00  0.00    -0.237 OA
ATOM     76  O   UNL A   1      43.935  27.649  26.031  1.00  0.00    -0.744 OA
ENDBRANCH  70  73
ENDBRANCH  52  66
BRANCH  53  77
ATOM     77  C   UNL A   1      39.539  33.838  37.053  1.00  0.00     0.023 A 
ATOM     78  C   UNL A   1      39.957  35.182  36.982  1.00  0.00     0.012 A 
ATOM     79  C   UNL A   1      38.915  33.374  38.226  1.00  0.00     0.148 A 
ATOM     80  C   UNL A   1      39.776  36.041  38.065  1.00  0.00     0.002 A 
ATOM     81  C   UNL A   1      38.690  34.248  39.284  1.00  0.00     0.091 A 
ATOM     82  F   UNL A   1      38.536  32.089  38.279  1.00  0.00    -0.205 F 
ATOM     83  C   UNL A   1      39.133  35.579  39.210  1.00  0.00     0.022 A 
BRANCH  81  84
ATOM     84  S   UNL A   1      37.756  33.777  40.744  1.00  0.00     0.127 S 
ATOM     85  O   UNL A   1      36.565  33.172  40.156  1.00  0.00    -0.237 OA
ATOM     86  O   UNL A   1      38.668  32.835  41.396  1.00  0.00    -0.237 OA
ATOM     87  O   UNL A   1      37.538  35.011  41.487  1.00  0.00    -0.744 OA
ENDBRANCH  81  84
ENDBRANCH  53  77
BRANCH  65  88
ATOM     88  C   UNL A   1      44.144  28.849  35.415  1.00  0.00     0.023 A 
ATOM     89  C   UNL A   1      45.433  29.386  35.222  1.00  0.00     0.012 A 
ATOM     90  C   UNL A   1      43.962  27.810  36.349  1.00  0.00     0.148 A 
ATOM     91  C   UNL A   1      46.525  28.882  35.926  1.00  0.00     0.002 A 
ATOM     92  C   UNL A   1      45.049  27.341  37.080  1.00  0.00     0.091 A 
ATOM     93  F   UNL A   1      42.735  27.295  36.504  1.00  0.00    -0.205 F 
ATOM     94  C   UNL A   1      46.332  27.869  36.862  1.00  0.00     0.022 A 
BRANCH  92  95
ATOM     95  S   UNL A   1      44.875  26.102  38.369  1.00  0.00     0.127 S 
ATOM     96  O   UNL A   1      44.190  25.025  37.658  1.00  0.00    -0.237 OA
ATOM     97  O   UNL A   1      46.267  25.813  38.717  1.00  0.00    -0.237 OA
ATOM     98  O   UNL A   1      44.111  26.739  39.432  1.00  0.00    -0.744 OA
ENDBRANCH  92  95
ENDBRANCH  65  88
ENDBRANCH  39  40
ENDBRANCH  31  34
ENDBRANCH  29  30
ENDBRANCH  28  29
ENDBRANCH   1  28
TORSDOF 17
ENDMDL
