MODEL 1
REMARK VINA RESULT:     -13.0      0.000      0.000
REMARK SMILES O=C1C[C@@H](C(=O)NCCCNC(=O)c2ccc(-c3c4nc(c(-c5cccc(S(=O)(=O)[O-])c5F)c5ccc([nH]5)c(-c5cccc(S(=O)(=O)[O-])c5F)c5nc(c(-c6cccc(S(=O)(=O)[O-])c6F)c6ccc3[nH]6)C=C5)C=C4)cc2)C2(CC[NH+](Cc3c[nH]nc3-c3ccc(Cl)cc3)CC2)N1
REMARK SMILES IDX 9 1 8 2 7 3 5 4 6 5 4 7 1 8 2 9 3 10 96 11 77 12 78 14 95 15
REMARK SMILES IDX 79 16 94 17 80 18 81 20 82 21 83 22 86 23 84 24 85 25 87 27
REMARK SMILES IDX 88 28 93 29 89 30 92 31 90 32 91 33 10 34 11 35 12 36 13 38
REMARK SMILES IDX 14 39 15 40 76 41 16 42 75 43 17 44 18 45 19 46 69 47 20 48
REMARK SMILES IDX 74 49 68 50 70 51 21 52 73 53 67 54 66 55 22 57 54 58 34 59
REMARK SMILES IDX 53 60 35 61 38 62 52 63 71 64 36 65 37 66 51 68 72 69 39 70
REMARK SMILES IDX 23 71 24 72 32 73 25 74 27 75 33 76 26 77 28 78 29 79 30 80
REMARK SMILES IDX 31 81 55 82 56 83 64 84 57 85 59 86 65 87 58 88 60 89 61 90
REMARK SMILES IDX 62 91 63 92 40 93 41 94 49 95 42 96 44 97 50 98 43 99 45 100
REMARK SMILES IDX 46 101 47 102 48 103
REMARK H PARENT 7 6 96 13 80 19 84 26 11 37 70 56 38 67
REMARK Flexibility Score: inf
ROOT
ATOM      1  C   UNL A   1      37.213  19.750  25.043  1.00  0.00     0.042 C 
ENDROOT
BRANCH   1   2
ATOM      2  C   UNL A   1      36.133  20.831  25.031  1.00  0.00     0.117 C 
BRANCH   2   3
ATOM      3  N   UNL A   1      34.775  20.324  25.168  1.00  0.00    -0.356 N 
ATOM      4  C   UNL A   1      33.603  20.872  25.580  1.00  0.00     0.226 C 
ATOM      5  O   UNL A   1      32.609  20.136  25.523  1.00  0.00    -0.275 OA
ATOM      6  H   UNL A   1      34.687  19.380  24.904  1.00  0.00     0.163 HD
BRANCH   4   7
ATOM      7  C   UNL A   1      33.434  22.284  26.141  1.00  0.00     0.114 C 
ATOM      8  O   UNL A   1      30.285  23.077  27.633  1.00  0.00    -0.275 OA
ATOM      9  C   UNL A   1      31.295  22.963  26.969  1.00  0.00     0.221 C 
ATOM     10  C   UNL A   1      32.587  22.331  27.419  1.00  0.00     0.116 C 
ATOM     11  N   UNL A   1      31.444  23.367  25.661  1.00  0.00    -0.349 N 
ATOM     12  C   UNL A   1      32.826  23.351  25.205  1.00  0.00     0.063 C 
ATOM     13  H   UNL A   1      30.689  23.641  25.091  1.00  0.00     0.164 HD
ATOM     14  C   UNL A   1      32.915  23.006  23.710  1.00  0.00     0.091 C 
ATOM     15  C   UNL A   1      33.393  24.768  25.531  1.00  0.00     0.091 C 
ATOM     16  C   UNL A   1      34.165  23.533  23.023  1.00  0.00     0.264 C 
ATOM     17  C   UNL A   1      34.480  25.303  24.600  1.00  0.00     0.264 C 
ATOM     18  N   UNL A   1      34.331  24.963  23.197  1.00  0.00    -0.331 N 
ATOM     19  H   UNL A   1      35.230  25.213  22.783  1.00  0.00     0.348 HD
BRANCH  18  20
ATOM     20  C   UNL A   1      33.529  25.842  22.327  1.00  0.00     0.303 C 
BRANCH  20  21
ATOM     21  C   UNL A   1      33.482  27.288  22.711  1.00  0.00     0.052 A 
ATOM     22  C   UNL A   1      34.461  28.240  22.478  1.00  0.00     0.115 A 
ATOM     23  C   UNL A   1      32.393  28.059  23.260  1.00  0.00     0.101 A 
ATOM     24  N   UNL A   1      34.017  29.403  23.021  1.00  0.00    -0.285 N 
ATOM     25  N   UNL A   1      32.794  29.309  23.537  1.00  0.00    -0.175 NA
ATOM     26  H   UNL A   1      34.548  30.234  23.031  1.00  0.00     0.189 HD
BRANCH  23  27
ATOM     27  C   UNL A   1      30.994  27.697  23.498  1.00  0.00     0.003 A 
ATOM     28  C   UNL A   1      29.987  28.499  22.939  1.00  0.00     0.012 A 
ATOM     29  C   UNL A   1      30.617  26.605  24.285  1.00  0.00     0.012 A 
ATOM     30  C   UNL A   1      28.636  28.189  23.124  1.00  0.00     0.021 A 
ATOM     31  C   UNL A   1      29.267  26.286  24.466  1.00  0.00     0.021 A 
ATOM     32  C   UNL A   1      28.283  27.074  23.875  1.00  0.00     0.041 A 
ATOM     33  Cl  UNL A   1      26.627  26.659  24.080  1.00  0.00    -0.084 Cl
ENDBRANCH  23  27
ENDBRANCH  20  21
ENDBRANCH  18  20
ENDBRANCH   4   7
ENDBRANCH   2   3
ENDBRANCH   1   2
BRANCH   1  34
ATOM     34  C   UNL A   1      38.632  20.301  25.100  1.00  0.00     0.118 C 
BRANCH  34  35
ATOM     35  N   UNL A   1      39.514  19.424  25.857  1.00  0.00    -0.352 N 
ATOM     36  C   UNL A   1      40.736  19.679  26.426  1.00  0.00     0.251 C 
ATOM     37  H   UNL A   1      39.182  18.505  25.981  1.00  0.00     0.163 HD
ATOM     38  O   UNL A   1      41.460  18.734  26.730  1.00  0.00    -0.269 OA
BRANCH  36  39
ATOM     39  C   UNL A   1      41.176  21.066  26.690  1.00  0.00     0.039 A 
ATOM     40  C   UNL A   1      41.504  21.889  25.609  1.00  0.00     0.014 A 
ATOM     41  C   UNL A   1      41.336  21.536  27.997  1.00  0.00     0.014 A 
ATOM     42  C   UNL A   1      41.965  23.187  25.841  1.00  0.00     0.010 A 
ATOM     43  C   UNL A   1      41.704  22.859  28.222  1.00  0.00     0.010 A 
ATOM     44  C   UNL A   1      42.050  23.691  27.149  1.00  0.00    -0.014 A 
BRANCH  44  45
ATOM     45  C   UNL A   1      42.521  25.076  27.408  1.00  0.00     0.031 A 
ATOM     46  C   UNL A   1      41.606  26.080  28.063  1.00  0.00     0.074 A 
ATOM     47  C   UNL A   1      43.752  25.445  27.003  1.00  0.00     0.049 A 
ATOM     48  N   UNL A   1      41.837  27.333  28.361  1.00  0.00    -0.248 NA
ATOM     49  C   UNL A   1      40.246  25.630  28.405  1.00  0.00     0.031 C 
ATOM     50  C   UNL A   1      44.700  24.586  26.289  1.00  0.00     0.029 A 
ATOM     51  N   UNL A   1      44.412  26.642  27.115  1.00  0.00    -0.354 N 
ATOM     52  C   UNL A   1      40.648  27.828  28.882  1.00  0.00     0.074 A 
ATOM     53  C   UNL A   1      39.685  26.751  28.834  1.00  0.00     0.031 C 
ATOM     54  C   UNL A   1      45.825  25.277  26.046  1.00  0.00     0.029 A 
ATOM     55  C   UNL A   1      45.667  26.636  26.551  1.00  0.00     0.049 A 
ATOM     56  H   UNL A   1      44.025  27.431  27.558  1.00  0.00     0.167 HD
ATOM     57  C   UNL A   1      40.388  29.058  29.381  1.00  0.00     0.034 A 
ATOM     58  C   UNL A   1      46.583  27.618  26.447  1.00  0.00     0.034 A 
ATOM     59  C   UNL A   1      41.363  30.111  29.468  1.00  0.00     0.049 A 
ATOM     60  C   UNL A   1      46.277  28.965  27.044  1.00  0.00     0.074 A 
ATOM     61  C   UNL A   1      41.230  31.359  30.049  1.00  0.00     0.029 A 
ATOM     62  N   UNL A   1      42.646  30.046  28.949  1.00  0.00    -0.354 N 
ATOM     63  N   UNL A   1      45.205  29.360  27.688  1.00  0.00    -0.248 NA
ATOM     64  C   UNL A   1      47.322  29.994  26.935  1.00  0.00     0.031 C 
ATOM     65  C   UNL A   1      42.418  32.065  29.844  1.00  0.00     0.029 A 
ATOM     66  C   UNL A   1      43.309  31.238  29.178  1.00  0.00     0.049 A 
ATOM     67  H   UNL A   1      43.029  29.265  28.486  1.00  0.00     0.167 HD
ATOM     68  C   UNL A   1      45.462  30.664  28.095  1.00  0.00     0.074 A 
ATOM     69  C   UNL A   1      46.801  30.984  27.644  1.00  0.00     0.031 C 
ATOM     70  C   UNL A   1      44.661  31.523  28.770  1.00  0.00     0.034 A 
BRANCH  57  71
ATOM     71  C   UNL A   1      39.002  29.333  29.909  1.00  0.00     0.023 A 
ATOM     72  C   UNL A   1      38.670  28.968  31.230  1.00  0.00     0.012 A 
ATOM     73  C   UNL A   1      38.058  30.024  29.125  1.00  0.00     0.148 A 
ATOM     74  C   UNL A   1      37.409  29.259  31.751  1.00  0.00     0.002 A 
ATOM     75  C   UNL A   1      36.821  30.354  29.668  1.00  0.00     0.091 A 
ATOM     76  F   UNL A   1      38.386  30.346  27.866  1.00  0.00    -0.205 F 
ATOM     77  C   UNL A   1      36.491  29.962  30.975  1.00  0.00     0.022 A 
BRANCH  75  78
ATOM     78  S   UNL A   1      35.602  31.330  28.783  1.00  0.00     0.127 S 
ATOM     79  O   UNL A   1      34.840  31.919  29.883  1.00  0.00    -0.237 OA
ATOM     80  O   UNL A   1      36.443  32.277  28.049  1.00  0.00    -0.237 OA
ATOM     81  O   UNL A   1      34.863  30.395  27.946  1.00  0.00    -0.744 OA
ENDBRANCH  75  78
ENDBRANCH  57  71
BRANCH  58  82
ATOM     82  C   UNL A   1      47.901  27.354  25.802  1.00  0.00     0.023 A 
ATOM     83  C   UNL A   1      48.992  26.946  26.595  1.00  0.00     0.012 A 
ATOM     84  C   UNL A   1      48.083  27.508  24.414  1.00  0.00     0.148 A 
ATOM     85  C   UNL A   1      50.249  26.740  26.026  1.00  0.00     0.002 A 
ATOM     86  C   UNL A   1      49.324  27.246  23.844  1.00  0.00     0.091 A 
ATOM     87  F   UNL A   1      47.036  27.904  23.676  1.00  0.00    -0.205 F 
ATOM     88  C   UNL A   1      50.413  26.883  24.651  1.00  0.00     0.022 A 
BRANCH  86  89
ATOM     89  S   UNL A   1      49.598  27.286  22.070  1.00  0.00     0.127 S 
ATOM     90  O   UNL A   1      48.696  26.236  21.605  1.00  0.00    -0.237 OA
ATOM     91  O   UNL A   1      49.185  28.648  21.731  1.00  0.00    -0.237 OA
ATOM     92  O   UNL A   1      51.019  27.025  21.884  1.00  0.00    -0.744 OA
ENDBRANCH  86  89
ENDBRANCH  58  82
BRANCH  70  93
ATOM     93  C   UNL A   1      45.221  32.878  29.116  1.00  0.00     0.023 A 
ATOM     94  C   UNL A   1      45.991  33.049  30.282  1.00  0.00     0.012 A 
ATOM     95  C   UNL A   1      45.042  33.966  28.238  1.00  0.00     0.148 A 
ATOM     96  C   UNL A   1      46.542  34.292  30.591  1.00  0.00     0.002 A 
ATOM     97  C   UNL A   1      45.640  35.187  28.524  1.00  0.00     0.091 A 
ATOM     98  F   UNL A   1      44.293  33.788  27.141  1.00  0.00    -0.205 F 
ATOM     99  C   UNL A   1      46.378  35.356  29.706  1.00  0.00     0.022 A 
BRANCH  97 100
ATOM    100  S   UNL A   1      45.572  36.581  27.393  1.00  0.00     0.127 S 
ATOM    101  O   UNL A   1      44.149  36.625  27.062  1.00  0.00    -0.237 OA
ATOM    102  O   UNL A   1      46.037  37.684  28.235  1.00  0.00    -0.237 OA
ATOM    103  O   UNL A   1      46.459  36.248  26.287  1.00  0.00    -0.744 OA
ENDBRANCH  97 100
ENDBRANCH  70  93
ENDBRANCH  44  45
ENDBRANCH  36  39
ENDBRANCH  34  35
ENDBRANCH   1  34
TORSDOF 16
ENDMDL
MODEL 2
REMARK VINA RESULT:     -13.0      5.296      8.693
REMARK SMILES O=C1C[C@@H](C(=O)NCCCNC(=O)c2ccc(-c3c4nc(c(-c5cccc(S(=O)(=O)[O-])c5F)c5ccc([nH]5)c(-c5cccc(S(=O)(=O)[O-])c5F)c5nc(c(-c6cccc(S(=O)(=O)[O-])c6F)c6ccc3[nH]6)C=C5)C=C4)cc2)C2(CC[NH+](Cc3c[nH]nc3-c3ccc(Cl)cc3)CC2)N1
REMARK SMILES IDX 9 1 8 2 7 3 5 4 6 5 4 7 1 8 2 9 3 10 96 11 77 12 78 14 95 15
REMARK SMILES IDX 79 16 94 17 80 18 81 20 82 21 83 22 86 23 84 24 85 25 87 27
REMARK SMILES IDX 88 28 93 29 89 30 92 31 90 32 91 33 10 34 11 35 12 36 13 38
REMARK SMILES IDX 14 39 15 40 76 41 16 42 75 43 17 44 18 45 19 46 69 47 20 48
REMARK SMILES IDX 74 49 68 50 70 51 21 52 73 53 67 54 66 55 22 57 54 58 34 59
REMARK SMILES IDX 53 60 35 61 38 62 52 63 71 64 36 65 37 66 51 68 72 69 39 70
REMARK SMILES IDX 23 71 24 72 32 73 25 74 27 75 33 76 26 77 28 78 29 79 30 80
REMARK SMILES IDX 31 81 55 82 56 83 64 84 57 85 59 86 65 87 58 88 60 89 61 90
REMARK SMILES IDX 62 91 63 92 40 93 41 94 49 95 42 96 44 97 50 98 43 99 45 100
REMARK SMILES IDX 46 101 47 102 48 103
REMARK H PARENT 7 6 96 13 80 19 84 26 11 37 70 56 38 67
REMARK Flexibility Score: inf
ROOT
ATOM      1  C   UNL A   1      31.707  29.202  26.202  1.00  0.00     0.042 C 
ENDROOT
BRANCH   1   2
ATOM      2  C   UNL A   1      31.395  30.129  25.028  1.00  0.00     0.117 C 
BRANCH   2   3
ATOM      3  N   UNL A   1      30.737  29.475  23.905  1.00  0.00    -0.356 N 
ATOM      4  C   UNL A   1      31.019  28.376  23.160  1.00  0.00     0.226 C 
ATOM      5  O   UNL A   1      30.190  28.083  22.288  1.00  0.00    -0.275 OA
ATOM      6  H   UNL A   1      29.909  29.928  23.626  1.00  0.00     0.163 HD
BRANCH   4   7
ATOM      7  C   UNL A   1      32.279  27.520  23.285  1.00  0.00     0.114 C 
ATOM      8  O   UNL A   1      33.281  25.664  20.400  1.00  0.00    -0.275 OA
ATOM      9  C   UNL A   1      32.903  26.089  21.473  1.00  0.00     0.221 C 
ATOM     10  C   UNL A   1      33.117  27.484  22.001  1.00  0.00     0.116 C 
ATOM     11  N   UNL A   1      32.180  25.380  22.407  1.00  0.00    -0.349 N 
ATOM     12  C   UNL A   1      32.097  26.044  23.699  1.00  0.00     0.063 C 
ATOM     13  H   UNL A   1      31.762  24.508  22.218  1.00  0.00     0.164 HD
ATOM     14  C   UNL A   1      30.759  25.743  24.394  1.00  0.00     0.091 C 
ATOM     15  C   UNL A   1      33.327  25.536  24.513  1.00  0.00     0.091 C 
ATOM     16  C   UNL A   1      30.806  25.860  25.910  1.00  0.00     0.264 C 
ATOM     17  C   UNL A   1      33.159  25.453  26.030  1.00  0.00     0.264 C 
ATOM     18  N   UNL A   1      31.848  25.041  26.497  1.00  0.00    -0.331 N 
ATOM     19  H   UNL A   1      31.864  25.246  27.496  1.00  0.00     0.348 HD
BRANCH  18  20
ATOM     20  C   UNL A   1      31.562  23.604  26.655  1.00  0.00     0.303 C 
BRANCH  20  21
ATOM     21  C   UNL A   1      32.734  22.726  26.963  1.00  0.00     0.052 A 
ATOM     22  C   UNL A   1      33.377  22.599  28.184  1.00  0.00     0.115 A 
ATOM     23  C   UNL A   1      33.370  21.721  26.148  1.00  0.00     0.101 A 
ATOM     24  N   UNL A   1      34.401  21.726  28.003  1.00  0.00    -0.285 N 
ATOM     25  N   UNL A   1      34.446  21.217  26.773  1.00  0.00    -0.175 NA
ATOM     26  H   UNL A   1      35.047  21.493  28.710  1.00  0.00     0.189 HD
BRANCH  23  27
ATOM     27  C   UNL A   1      33.000  21.182  24.837  1.00  0.00     0.003 A 
ATOM     28  C   UNL A   1      32.834  19.795  24.702  1.00  0.00     0.012 A 
ATOM     29  C   UNL A   1      32.836  21.987  23.706  1.00  0.00     0.012 A 
ATOM     30  C   UNL A   1      32.466  19.231  23.476  1.00  0.00     0.021 A 
ATOM     31  C   UNL A   1      32.459  21.429  22.480  1.00  0.00     0.021 A 
ATOM     32  C   UNL A   1      32.266  20.054  22.373  1.00  0.00     0.041 A 
ATOM     33  Cl  UNL A   1      31.778  19.380  20.869  1.00  0.00    -0.084 Cl
ENDBRANCH  23  27
ENDBRANCH  20  21
ENDBRANCH  18  20
ENDBRANCH   4   7
ENDBRANCH   2   3
ENDBRANCH   1   2
BRANCH   1  34
ATOM     34  C   UNL A   1      32.669  29.803  27.218  1.00  0.00     0.118 C 
BRANCH  34  35
ATOM     35  N   UNL A   1      32.922  31.212  26.947  1.00  0.00    -0.352 N 
ATOM     36  C   UNL A   1      33.879  32.051  27.459  1.00  0.00     0.251 C 
ATOM     37  H   UNL A   1      32.312  31.626  26.295  1.00  0.00     0.163 HD
ATOM     38  O   UNL A   1      33.721  33.266  27.357  1.00  0.00    -0.269 OA
BRANCH  36  39
ATOM     39  C   UNL A   1      35.094  31.512  28.107  1.00  0.00     0.039 A 
ATOM     40  C   UNL A   1      35.070  30.209  28.612  1.00  0.00     0.014 A 
ATOM     41  C   UNL A   1      36.230  32.307  28.284  1.00  0.00     0.014 A 
ATOM     42  C   UNL A   1      36.192  29.699  29.268  1.00  0.00     0.010 A 
ATOM     43  C   UNL A   1      37.379  31.764  28.854  1.00  0.00     0.010 A 
ATOM     44  C   UNL A   1      37.364  30.465  29.378  1.00  0.00    -0.014 A 
BRANCH  44  45
ATOM     45  C   UNL A   1      38.571  29.927  30.056  1.00  0.00     0.031 A 
ATOM     46  C   UNL A   1      38.938  30.398  31.441  1.00  0.00     0.074 A 
ATOM     47  C   UNL A   1      39.366  29.057  29.404  1.00  0.00     0.049 A 
ATOM     48  N   UNL A   1      39.955  30.049  32.187  1.00  0.00    -0.248 NA
ATOM     49  C   UNL A   1      38.067  31.411  32.062  1.00  0.00     0.031 C 
ATOM     50  C   UNL A   1      39.159  28.586  28.032  1.00  0.00     0.029 A 
ATOM     51  N   UNL A   1      40.520  28.427  29.797  1.00  0.00    -0.354 N 
ATOM     52  C   UNL A   1      39.871  30.824  33.337  1.00  0.00     0.074 A 
ATOM     53  C   UNL A   1      38.721  31.686  33.181  1.00  0.00     0.031 C 
ATOM     54  C   UNL A   1      40.139  27.728  27.707  1.00  0.00     0.029 A 
ATOM     55  C   UNL A   1      41.064  27.615  28.829  1.00  0.00     0.049 A 
ATOM     56  H   UNL A   1      40.920  28.544  30.689  1.00  0.00     0.167 HD
ATOM     57  C   UNL A   1      40.662  30.803  34.434  1.00  0.00     0.034 A 
ATOM     58  C   UNL A   1      42.185  26.869  28.842  1.00  0.00     0.034 A 
ATOM     59  C   UNL A   1      41.777  29.911  34.602  1.00  0.00     0.049 A 
ATOM     60  C   UNL A   1      43.024  26.839  30.092  1.00  0.00     0.074 A 
ATOM     61  C   UNL A   1      42.579  29.739  35.715  1.00  0.00     0.029 A 
ATOM     62  N   UNL A   1      42.257  29.053  33.626  1.00  0.00    -0.354 N 
ATOM     63  N   UNL A   1      42.828  27.453  31.234  1.00  0.00    -0.248 NA
ATOM     64  C   UNL A   1      44.220  25.984  30.069  1.00  0.00     0.031 C 
ATOM     65  C   UNL A   1      43.571  28.807  35.398  1.00  0.00     0.029 A 
ATOM     66  C   UNL A   1      43.357  28.363  34.103  1.00  0.00     0.049 A 
ATOM     67  H   UNL A   1      41.871  28.949  32.725  1.00  0.00     0.167 HD
ATOM     68  C   UNL A   1      43.849  27.027  32.076  1.00  0.00     0.074 A 
ATOM     69  C   UNL A   1      44.648  26.086  31.318  1.00  0.00     0.031 C 
ATOM     70  C   UNL A   1      44.109  27.389  33.355  1.00  0.00     0.034 A 
BRANCH  57  71
ATOM     71  C   UNL A   1      40.335  31.746  35.565  1.00  0.00     0.023 A 
ATOM     72  C   UNL A   1      41.106  32.910  35.753  1.00  0.00     0.012 A 
ATOM     73  C   UNL A   1      39.214  31.520  36.389  1.00  0.00     0.148 A 
ATOM     74  C   UNL A   1      40.788  33.819  36.761  1.00  0.00     0.002 A 
ATOM     75  C   UNL A   1      38.875  32.454  37.360  1.00  0.00     0.091 A 
ATOM     76  F   UNL A   1      38.504  30.397  36.206  1.00  0.00    -0.205 F 
ATOM     77  C   UNL A   1      39.666  33.597  37.556  1.00  0.00     0.022 A 
BRANCH  75  78
ATOM     78  S   UNL A   1      37.402  32.304  38.377  1.00  0.00     0.127 S 
ATOM     79  O   UNL A   1      37.835  32.944  39.618  1.00  0.00    -0.237 OA
ATOM     80  O   UNL A   1      36.420  33.070  37.608  1.00  0.00    -0.237 OA
ATOM     81  O   UNL A   1      37.122  30.879  38.478  1.00  0.00    -0.744 OA
ENDBRANCH  75  78
ENDBRANCH  57  71
BRANCH  58  82
ATOM     82  C   UNL A   1      42.555  26.043  27.658  1.00  0.00     0.023 A 
ATOM     83  C   UNL A   1      43.366  26.601  26.650  1.00  0.00     0.012 A 
ATOM     84  C   UNL A   1      42.110  24.714  27.521  1.00  0.00     0.148 A 
ATOM     85  C   UNL A   1      43.688  25.868  25.507  1.00  0.00     0.002 A 
ATOM     86  C   UNL A   1      42.481  23.970  26.407  1.00  0.00     0.091 A 
ATOM     87  F   UNL A   1      41.333  24.202  28.487  1.00  0.00    -0.205 F 
ATOM     88  C   UNL A   1      43.252  24.552  25.389  1.00  0.00     0.022 A 
BRANCH  86  89
ATOM     89  S   UNL A   1      42.067  22.231  26.228  1.00  0.00     0.127 S 
ATOM     90  O   UNL A   1      42.788  21.878  25.008  1.00  0.00    -0.237 OA
ATOM     91  O   UNL A   1      42.620  21.661  27.457  1.00  0.00    -0.237 OA
ATOM     92  O   UNL A   1      40.614  22.177  26.140  1.00  0.00    -0.744 OA
ENDBRANCH  86  89
ENDBRANCH  58  82
BRANCH  70  93
ATOM     93  C   UNL A   1      45.275  26.730  34.046  1.00  0.00     0.023 A 
ATOM     94  C   UNL A   1      46.555  27.314  33.987  1.00  0.00     0.012 A 
ATOM     95  C   UNL A   1      45.079  25.568  34.819  1.00  0.00     0.148 A 
ATOM     96  C   UNL A   1      47.631  26.730  34.654  1.00  0.00     0.002 A 
ATOM     97  C   UNL A   1      46.144  25.022  35.525  1.00  0.00     0.091 A 
ATOM     98  F   UNL A   1      43.857  25.019  34.850  1.00  0.00    -0.205 F 
ATOM     99  C   UNL A   1      47.423  25.593  35.432  1.00  0.00     0.022 A 
BRANCH  97 100
ATOM    100  S   UNL A   1      45.948  23.624  36.635  1.00  0.00     0.127 S 
ATOM    101  O   UNL A   1      47.314  23.440  37.123  1.00  0.00    -0.237 OA
ATOM    102  O   UNL A   1      45.011  24.147  37.629  1.00  0.00    -0.237 OA
ATOM    103  O   UNL A   1      45.425  22.534  35.823  1.00  0.00    -0.744 OA
ENDBRANCH  97 100
ENDBRANCH  70  93
ENDBRANCH  44  45
ENDBRANCH  36  39
ENDBRANCH  34  35
ENDBRANCH   1  34
TORSDOF 16
ENDMDL
MODEL 3
REMARK VINA RESULT:     -12.9      5.084      8.841
REMARK SMILES O=C1C[C@@H](C(=O)NCCCNC(=O)c2ccc(-c3c4nc(c(-c5cccc(S(=O)(=O)[O-])c5F)c5ccc([nH]5)c(-c5cccc(S(=O)(=O)[O-])c5F)c5nc(c(-c6cccc(S(=O)(=O)[O-])c6F)c6ccc3[nH]6)C=C5)C=C4)cc2)C2(CC[NH+](Cc3c[nH]nc3-c3ccc(Cl)cc3)CC2)N1
REMARK SMILES IDX 9 1 8 2 7 3 5 4 6 5 4 7 1 8 2 9 3 10 96 11 77 12 78 14 95 15
REMARK SMILES IDX 79 16 94 17 80 18 81 20 82 21 83 22 86 23 84 24 85 25 87 27
REMARK SMILES IDX 88 28 93 29 89 30 92 31 90 32 91 33 10 34 11 35 12 36 13 38
REMARK SMILES IDX 14 39 15 40 76 41 16 42 75 43 17 44 18 45 19 46 69 47 20 48
REMARK SMILES IDX 74 49 68 50 70 51 21 52 73 53 67 54 66 55 22 57 54 58 34 59
REMARK SMILES IDX 53 60 35 61 38 62 52 63 71 64 36 65 37 66 51 68 72 69 39 70
REMARK SMILES IDX 23 71 24 72 32 73 25 74 27 75 33 76 26 77 28 78 29 79 30 80
REMARK SMILES IDX 31 81 55 82 56 83 64 84 57 85 59 86 65 87 58 88 60 89 61 90
REMARK SMILES IDX 62 91 63 92 40 93 41 94 49 95 42 96 44 97 50 98 43 99 45 100
REMARK SMILES IDX 46 101 47 102 48 103
REMARK H PARENT 7 6 96 13 80 19 84 26 11 37 70 56 38 67
REMARK Flexibility Score: inf
ROOT
ATOM      1  C   UNL A   1      32.253  28.216  26.569  1.00  0.00     0.042 C 
ENDROOT
BRANCH   1   2
ATOM      2  C   UNL A   1      31.438  28.898  25.471  1.00  0.00     0.117 C 
BRANCH   2   3
ATOM      3  N   UNL A   1      30.698  27.981  24.615  1.00  0.00    -0.356 N 
ATOM      4  C   UNL A   1      31.062  27.000  23.749  1.00  0.00     0.226 C 
ATOM      5  O   UNL A   1      30.137  26.379  23.211  1.00  0.00    -0.275 OA
ATOM      6  H   UNL A   1      29.722  28.096  24.678  1.00  0.00     0.163 HD
BRANCH   4   7
ATOM      7  C   UNL A   1      32.499  26.648  23.363  1.00  0.00     0.114 C 
ATOM      8  O   UNL A   1      33.017  25.248  20.116  1.00  0.00    -0.275 OA
ATOM      9  C   UNL A   1      32.909  25.519  21.295  1.00  0.00     0.221 C 
ATOM     10  C   UNL A   1      32.808  26.903  21.882  1.00  0.00     0.116 C 
ATOM     11  N   UNL A   1      32.831  24.606  22.323  1.00  0.00    -0.349 N 
ATOM     12  C   UNL A   1      32.976  25.207  23.641  1.00  0.00     0.063 C 
ATOM     13  H   UNL A   1      32.692  23.642  22.180  1.00  0.00     0.164 HD
ATOM     14  C   UNL A   1      32.140  24.455  24.689  1.00  0.00     0.091 C 
ATOM     15  C   UNL A   1      34.504  25.173  23.953  1.00  0.00     0.091 C 
ATOM     16  C   UNL A   1      32.659  24.592  26.113  1.00  0.00     0.264 C 
ATOM     17  C   UNL A   1      34.902  25.047  25.423  1.00  0.00     0.264 C 
ATOM     18  N   UNL A   1      34.049  24.200  26.235  1.00  0.00    -0.331 N 
ATOM     19  H   UNL A   1      34.335  24.404  27.193  1.00  0.00     0.348 HD
BRANCH  18  20
ATOM     20  C   UNL A   1      34.334  22.756  26.311  1.00  0.00     0.303 C 
BRANCH  20  21
ATOM     21  C   UNL A   1      35.643  22.309  25.739  1.00  0.00     0.052 A 
ATOM     22  C   UNL A   1      36.862  22.959  25.851  1.00  0.00     0.115 A 
ATOM     23  C   UNL A   1      35.987  21.070  25.086  1.00  0.00     0.101 A 
ATOM     24  N   UNL A   1      37.767  22.224  25.156  1.00  0.00    -0.285 N 
ATOM     25  N   UNL A   1      37.256  21.105  24.648  1.00  0.00    -0.175 NA
ATOM     26  H   UNL A   1      38.709  22.491  25.040  1.00  0.00     0.189 HD
BRANCH  23  27
ATOM     27  C   UNL A   1      35.205  19.848  24.888  1.00  0.00     0.003 A 
ATOM     28  C   UNL A   1      35.887  18.632  24.727  1.00  0.00     0.012 A 
ATOM     29  C   UNL A   1      33.809  19.845  24.820  1.00  0.00     0.012 A 
ATOM     30  C   UNL A   1      35.187  17.434  24.549  1.00  0.00     0.021 A 
ATOM     31  C   UNL A   1      33.104  18.648  24.651  1.00  0.00     0.021 A 
ATOM     32  C   UNL A   1      33.796  17.447  24.527  1.00  0.00     0.041 A 
ATOM     33  Cl  UNL A   1      32.922  15.978  24.347  1.00  0.00    -0.084 Cl
ENDBRANCH  23  27
ENDBRANCH  20  21
ENDBRANCH  18  20
ENDBRANCH   4   7
ENDBRANCH   2   3
ENDBRANCH   1   2
BRANCH   1  34
ATOM     34  C   UNL A   1      33.702  28.680  26.635  1.00  0.00     0.118 C 
BRANCH  34  35
ATOM     35  N   UNL A   1      33.793  30.129  26.749  1.00  0.00    -0.352 N 
ATOM     36  C   UNL A   1      34.620  30.902  27.524  1.00  0.00     0.251 C 
ATOM     37  H   UNL A   1      33.164  30.632  26.183  1.00  0.00     0.163 HD
ATOM     38  O   UNL A   1      34.321  32.078  27.724  1.00  0.00    -0.269 OA
BRANCH  36  39
ATOM     39  C   UNL A   1      35.864  30.345  28.097  1.00  0.00     0.039 A 
ATOM     40  C   UNL A   1      37.037  30.385  27.338  1.00  0.00     0.014 A 
ATOM     41  C   UNL A   1      35.865  29.719  29.348  1.00  0.00     0.014 A 
ATOM     42  C   UNL A   1      38.211  29.823  27.845  1.00  0.00     0.010 A 
ATOM     43  C   UNL A   1      37.056  29.244  29.889  1.00  0.00     0.010 A 
ATOM     44  C   UNL A   1      38.235  29.265  29.134  1.00  0.00    -0.014 A 
BRANCH  44  45
ATOM     45  C   UNL A   1      39.482  28.680  29.692  1.00  0.00     0.031 A 
ATOM     46  C   UNL A   1      40.107  29.266  30.933  1.00  0.00     0.074 A 
ATOM     47  C   UNL A   1      40.081  27.659  29.049  1.00  0.00     0.049 A 
ATOM     48  N   UNL A   1      41.194  28.896  31.560  1.00  0.00    -0.248 NA
ATOM     49  C   UNL A   1      39.441  30.433  31.536  1.00  0.00     0.031 C 
ATOM     50  C   UNL A   1      39.615  27.057  27.797  1.00  0.00     0.029 A 
ATOM     51  N   UNL A   1      41.221  26.956  29.348  1.00  0.00    -0.354 N 
ATOM     52  C   UNL A   1      41.365  29.804  32.598  1.00  0.00     0.074 A 
ATOM     53  C   UNL A   1      40.287  30.763  32.502  1.00  0.00     0.031 C 
ATOM     54  C   UNL A   1      40.449  26.065  27.447  1.00  0.00     0.029 A 
ATOM     55  C   UNL A   1      41.528  25.983  28.425  1.00  0.00     0.049 A 
ATOM     56  H   UNL A   1      41.768  27.132  30.147  1.00  0.00     0.167 HD
ATOM     57  C   UNL A   1      42.316  29.824  33.560  1.00  0.00     0.034 A 
ATOM     58  C   UNL A   1      42.565  25.125  28.371  1.00  0.00     0.034 A 
ATOM     59  C   UNL A   1      43.358  28.841  33.677  1.00  0.00     0.049 A 
ATOM     60  C   UNL A   1      43.587  25.149  29.476  1.00  0.00     0.074 A 
ATOM     61  C   UNL A   1      44.310  28.713  34.673  1.00  0.00     0.029 A 
ATOM     62  N   UNL A   1      43.597  27.828  32.763  1.00  0.00    -0.354 N 
ATOM     63  N   UNL A   1      43.632  25.909  30.544  1.00  0.00    -0.248 NA
ATOM     64  C   UNL A   1      44.682  24.171  29.390  1.00  0.00     0.031 C 
ATOM     65  C   UNL A   1      45.150  27.648  34.339  1.00  0.00     0.029 A 
ATOM     66  C   UNL A   1      44.692  27.082  33.160  1.00  0.00     0.049 A 
ATOM     67  H   UNL A   1      43.065  27.664  31.950  1.00  0.00     0.167 HD
ATOM     68  C   UNL A   1      44.732  25.474  31.276  1.00  0.00     0.074 A 
ATOM     69  C   UNL A   1      45.312  24.370  30.539  1.00  0.00     0.031 C 
ATOM     70  C   UNL A   1      45.225  25.952  32.444  1.00  0.00     0.034 A 
BRANCH  57  71
ATOM     71  C   UNL A   1      42.260  30.922  34.592  1.00  0.00     0.023 A 
ATOM     72  C   UNL A   1      41.657  30.680  35.843  1.00  0.00     0.012 A 
ATOM     73  C   UNL A   1      42.877  32.167  34.353  1.00  0.00     0.148 A 
ATOM     74  C   UNL A   1      41.640  31.667  36.828  1.00  0.00     0.002 A 
ATOM     75  C   UNL A   1      42.899  33.128  35.356  1.00  0.00     0.091 A 
ATOM     76  F   UNL A   1      43.429  32.385  33.150  1.00  0.00    -0.205 F 
ATOM     77  C   UNL A   1      42.272  32.886  36.588  1.00  0.00     0.022 A 
BRANCH  75  78
ATOM     78  S   UNL A   1      43.758  34.695  35.179  1.00  0.00     0.127 S 
ATOM     79  O   UNL A   1      45.122  34.252  34.893  1.00  0.00    -0.237 OA
ATOM     80  O   UNL A   1      43.062  35.298  34.041  1.00  0.00    -0.237 OA
ATOM     81  O   UNL A   1      43.585  35.398  36.443  1.00  0.00    -0.744 OA
ENDBRANCH  75  78
ENDBRANCH  57  71
BRANCH  58  82
ATOM     82  C   UNL A   1      42.665  24.132  27.265  1.00  0.00     0.023 A 
ATOM     83  C   UNL A   1      43.363  24.473  26.088  1.00  0.00     0.012 A 
ATOM     84  C   UNL A   1      42.075  22.858  27.366  1.00  0.00     0.148 A 
ATOM     85  C   UNL A   1      43.430  23.581  25.017  1.00  0.00     0.002 A 
ATOM     86  C   UNL A   1      42.195  21.952  26.318  1.00  0.00     0.091 A 
ATOM     87  F   UNL A   1      41.410  22.553  28.489  1.00  0.00    -0.205 F 
ATOM     88  C   UNL A   1      42.854  22.320  25.134  1.00  0.00     0.022 A 
BRANCH  86  89
ATOM     89  S   UNL A   1      41.589  20.265  26.426  1.00  0.00     0.127 S 
ATOM     90  O   UNL A   1      40.152  20.452  26.244  1.00  0.00    -0.237 OA
ATOM     91  O   UNL A   1      42.274  19.626  25.303  1.00  0.00    -0.237 OA
ATOM     92  O   UNL A   1      42.001  19.781  27.736  1.00  0.00    -0.744 OA
ENDBRANCH  86  89
ENDBRANCH  58  82
BRANCH  70  93
ATOM     93  C   UNL A   1      46.422  25.255  33.036  1.00  0.00     0.023 A 
ATOM     94  C   UNL A   1      47.720  25.734  32.777  1.00  0.00     0.012 A 
ATOM     95  C   UNL A   1      46.248  24.165  33.913  1.00  0.00     0.148 A 
ATOM     96  C   UNL A   1      48.831  25.116  33.350  1.00  0.00     0.002 A 
ATOM     97  C   UNL A   1      47.355  23.589  34.524  1.00  0.00     0.091 A 
ATOM     98  F   UNL A   1      45.005  23.714  34.135  1.00  0.00    -0.205 F 
ATOM     99  C   UNL A   1      48.647  24.052  34.232  1.00  0.00     0.022 A 
BRANCH  97 100
ATOM    100  S   UNL A   1      47.208  22.287  35.752  1.00  0.00     0.127 S 
ATOM    101  O   UNL A   1      46.638  21.197  34.962  1.00  0.00    -0.237 OA
ATOM    102  O   UNL A   1      48.600  22.085  36.156  1.00  0.00    -0.237 OA
ATOM    103  O   UNL A   1      46.344  22.815  36.800  1.00  0.00    -0.744 OA
ENDBRANCH  97 100
ENDBRANCH  70  93
ENDBRANCH  44  45
ENDBRANCH  36  39
ENDBRANCH  34  35
ENDBRANCH   1  34
TORSDOF 16
ENDMDL
