MODEL 1
REMARK VINA RESULT:     -13.5      0.000      0.000
REMARK SMILES Cc1c(C(=O)NCCCNC(=O)c2ccc(-c3c4nc(c(-c5cccc(S(=O)(=O)[O-])c5F)c5ccc([nH]5)c(-c5cccc(S(=O)(=O)[O-])c5F)c5nc(c(-c6cccc(S(=O)(=O)[O-])c6F)c6ccc3[nH]6)C=C5)C=C4)cc2)oc2c1/C(=N/NC(=O)C(c1ccccc1)c1ccccc1)CCC2
REMARK SMILES IDX 8 1 7 2 6 3 4 4 5 5 3 7 1 8 2 9 78 10 76 11 77 12 79 13
REMARK SMILES IDX 99 14 80 15 97 16 98 17 81 18 82 19 83 21 84 22 85 23 86 24
REMARK SMILES IDX 90 25 87 26 89 27 88 28 91 29 92 30 96 31 93 32 95 33 94 34
REMARK SMILES IDX 9 35 10 36 11 37 12 39 13 40 14 41 75 42 15 43 74 44 16 45
REMARK SMILES IDX 17 46 18 47 68 48 19 49 73 50 67 51 69 52 20 53 72 54 66 55
REMARK SMILES IDX 65 56 21 58 53 59 33 60 52 61 34 62 37 63 51 64 70 65 35 66
REMARK SMILES IDX 36 67 50 69 71 70 38 71 22 72 23 73 31 74 24 75 26 76 32 77
REMARK SMILES IDX 25 78 27 79 28 80 29 81 30 82 54 83 55 84 63 85 56 86 58 87
REMARK SMILES IDX 64 88 57 89 59 90 60 91 61 92 62 93 39 94 40 95 48 96 41 97
REMARK SMILES IDX 43 98 49 99 42 100 44 101 45 102 46 103 47 104
REMARK H PARENT 6 6 81 20 10 38 69 57 37 68
REMARK Flexibility Score: inf
ROOT
ATOM      1  C   UNL A   1      31.438  30.967  26.522  1.00  0.00     0.042 C 
ENDROOT
BRANCH   1   2
ATOM      2  C   UNL A   1      31.758  30.035  25.335  1.00  0.00     0.118 C 
BRANCH   2   3
ATOM      3  N   UNL A   1      30.802  30.078  24.216  1.00  0.00    -0.349 N 
ATOM      4  C   UNL A   1      30.196  29.037  23.494  1.00  0.00     0.287 C 
ATOM      5  O   UNL A   1      29.221  29.296  22.813  1.00  0.00    -0.266 OA
ATOM      6  H   UNL A   1      30.546  30.984  23.927  1.00  0.00     0.163 HD
BRANCH   4   7
ATOM      7  C   UNL A   1      30.731  27.696  23.661  1.00  0.00     0.195 A 
ATOM      8  C   UNL A   1      30.466  26.970  26.124  1.00  0.00     0.049 C 
ATOM      9  C   UNL A   1      30.927  26.795  24.724  1.00  0.00     0.010 A 
ATOM     10  C   UNL A   1      31.778  25.758  24.191  1.00  0.00     0.043 A 
ATOM     11  O   UNL A   1      31.224  27.159  22.531  1.00  0.00    -0.455 OA
ATOM     12  C   UNL A   1      31.952  26.121  22.868  1.00  0.00     0.114 A 
ATOM     13  C   UNL A   1      32.552  24.601  24.656  1.00  0.00     0.072 C 
ATOM     14  C   UNL A   1      32.874  25.649  21.826  1.00  0.00     0.076 C 
ATOM     15  N   UNL A   1      32.326  23.996  25.782  1.00  0.00    -0.177 NA
ATOM     16  C   UNL A   1      33.657  24.303  23.701  1.00  0.00     0.059 C 
ATOM     17  C   UNL A   1      33.286  24.268  22.229  1.00  0.00     0.014 C 
BRANCH  15  18
ATOM     18  N   UNL A   1      32.963  22.908  26.380  1.00  0.00    -0.246 N 
ATOM     19  C   UNL A   1      33.843  21.858  26.175  1.00  0.00     0.252 C 
ATOM     20  H   UNL A   1      32.671  22.872  27.319  1.00  0.00     0.193 HD
ATOM     21  O   UNL A   1      34.000  21.121  27.171  1.00  0.00    -0.272 OA
BRANCH  19  22
ATOM     22  C   UNL A   1      34.671  21.469  24.885  1.00  0.00     0.140 C 
BRANCH  22  23
ATOM     23  C   UNL A   1      36.179  21.861  25.120  1.00  0.00    -0.031 A 
ATOM     24  C   UNL A   1      37.269  20.990  24.975  1.00  0.00     0.005 A 
ATOM     25  C   UNL A   1      36.488  23.159  25.602  1.00  0.00     0.005 A 
ATOM     26  C   UNL A   1      38.536  21.318  25.499  1.00  0.00     0.000 A 
ATOM     27  C   UNL A   1      37.741  23.488  26.126  1.00  0.00     0.000 A 
ATOM     28  C   UNL A   1      38.758  22.549  26.112  1.00  0.00     0.000 A 
ENDBRANCH  22  23
BRANCH  22  29
ATOM     29  C   UNL A   1      34.175  20.042  24.419  1.00  0.00    -0.031 A 
ATOM     30  C   UNL A   1      32.853  19.938  23.916  1.00  0.00     0.005 A 
ATOM     31  C   UNL A   1      34.849  18.825  24.626  1.00  0.00     0.005 A 
ATOM     32  C   UNL A   1      32.159  18.724  23.900  1.00  0.00     0.000 A 
ATOM     33  C   UNL A   1      34.157  17.598  24.592  1.00  0.00     0.000 A 
ATOM     34  C   UNL A   1      32.799  17.557  24.285  1.00  0.00     0.000 A 
ENDBRANCH  22  29
ENDBRANCH  19  22
ENDBRANCH  15  18
ENDBRANCH   4   7
ENDBRANCH   2   3
ENDBRANCH   1   2
BRANCH   1  35
ATOM     35  C   UNL A   1      32.645  31.756  27.005  1.00  0.00     0.118 C 
BRANCH  35  36
ATOM     36  N   UNL A   1      32.306  33.153  27.295  1.00  0.00    -0.352 N 
ATOM     37  C   UNL A   1      32.904  34.028  28.176  1.00  0.00     0.251 C 
ATOM     38  H   UNL A   1      31.543  33.517  26.790  1.00  0.00     0.163 HD
ATOM     39  O   UNL A   1      32.313  35.040  28.539  1.00  0.00    -0.269 OA
BRANCH  37  40
ATOM     40  C   UNL A   1      34.248  33.722  28.694  1.00  0.00     0.039 A 
ATOM     41  C   UNL A   1      34.399  32.954  29.851  1.00  0.00     0.014 A 
ATOM     42  C   UNL A   1      35.359  34.156  27.977  1.00  0.00     0.014 A 
ATOM     43  C   UNL A   1      35.674  32.532  30.217  1.00  0.00     0.010 A 
ATOM     44  C   UNL A   1      36.597  33.626  28.257  1.00  0.00     0.010 A 
ATOM     45  C   UNL A   1      36.769  32.836  29.392  1.00  0.00    -0.014 A 
BRANCH  45  46
ATOM     46  C   UNL A   1      38.059  32.183  29.619  1.00  0.00     0.031 A 
ATOM     47  C   UNL A   1      38.123  30.774  29.141  1.00  0.00     0.074 A 
ATOM     48  C   UNL A   1      39.171  32.843  30.010  1.00  0.00     0.049 A 
ATOM     49  N   UNL A   1      38.228  29.703  29.860  1.00  0.00    -0.248 NA
ATOM     50  C   UNL A   1      37.886  30.506  27.713  1.00  0.00     0.031 C 
ATOM     51  C   UNL A   1      39.318  34.291  30.208  1.00  0.00     0.029 A 
ATOM     52  N   UNL A   1      40.450  32.387  30.163  1.00  0.00    -0.354 N 
ATOM     53  C   UNL A   1      38.343  28.654  28.949  1.00  0.00     0.074 A 
ATOM     54  C   UNL A   1      37.894  29.172  27.686  1.00  0.00     0.031 C 
ATOM     55  C   UNL A   1      40.626  34.619  30.177  1.00  0.00     0.029 A 
ATOM     56  C   UNL A   1      41.408  33.399  30.147  1.00  0.00     0.049 A 
ATOM     57  H   UNL A   1      40.673  31.435  30.274  1.00  0.00     0.167 HD
ATOM     58  C   UNL A   1      39.085  27.551  29.248  1.00  0.00     0.034 A 
ATOM     59  C   UNL A   1      42.752  33.255  30.081  1.00  0.00     0.034 A 
ATOM     60  C   UNL A   1      39.407  27.519  30.654  1.00  0.00     0.049 A 
ATOM     61  C   UNL A   1      43.069  31.894  30.555  1.00  0.00     0.074 A 
ATOM     62  C   UNL A   1      38.719  27.412  31.842  1.00  0.00     0.029 A 
ATOM     63  N   UNL A   1      40.656  28.003  30.952  1.00  0.00    -0.354 N 
ATOM     64  N   UNL A   1      42.903  31.509  31.789  1.00  0.00    -0.248 NA
ATOM     65  C   UNL A   1      43.285  30.828  29.590  1.00  0.00     0.031 C 
ATOM     66  C   UNL A   1      39.493  28.134  32.799  1.00  0.00     0.029 A 
ATOM     67  C   UNL A   1      40.645  28.614  32.173  1.00  0.00     0.049 A 
ATOM     68  H   UNL A   1      41.445  27.922  30.369  1.00  0.00     0.167 HD
ATOM     69  C   UNL A   1      42.512  30.187  31.675  1.00  0.00     0.074 A 
ATOM     70  C   UNL A   1      42.964  29.777  30.350  1.00  0.00     0.031 C 
ATOM     71  C   UNL A   1      41.578  29.666  32.523  1.00  0.00     0.034 A 
BRANCH  58  72
ATOM     72  C   UNL A   1      39.933  26.754  28.264  1.00  0.00     0.023 A 
ATOM     73  C   UNL A   1      39.950  25.346  28.433  1.00  0.00     0.012 A 
ATOM     74  C   UNL A   1      40.929  27.296  27.417  1.00  0.00     0.148 A 
ATOM     75  C   UNL A   1      40.945  24.541  27.867  1.00  0.00     0.002 A 
ATOM     76  C   UNL A   1      41.872  26.481  26.796  1.00  0.00     0.091 A 
ATOM     77  F   UNL A   1      41.067  28.616  27.300  1.00  0.00    -0.205 F 
ATOM     78  C   UNL A   1      41.907  25.109  27.045  1.00  0.00     0.022 A 
BRANCH  76  79
ATOM     79  S   UNL A   1      43.117  27.157  25.686  1.00  0.00     0.127 S 
ATOM     80  O   UNL A   1      43.876  28.017  26.590  1.00  0.00    -0.237 OA
ATOM     81  O   UNL A   1      43.813  25.948  25.248  1.00  0.00    -0.237 OA
ATOM     82  O   UNL A   1      42.375  27.834  24.630  1.00  0.00    -0.744 OA
ENDBRANCH  76  79
ENDBRANCH  58  72
BRANCH  59  83
ATOM     83  C   UNL A   1      43.795  34.142  29.524  1.00  0.00     0.023 A 
ATOM     84  C   UNL A   1      44.527  34.981  30.390  1.00  0.00     0.012 A 
ATOM     85  C   UNL A   1      44.277  33.956  28.211  1.00  0.00     0.148 A 
ATOM     86  C   UNL A   1      45.729  35.568  29.982  1.00  0.00     0.002 A 
ATOM     87  C   UNL A   1      45.472  34.545  27.807  1.00  0.00     0.091 A 
ATOM     88  F   UNL A   1      43.613  33.129  27.392  1.00  0.00    -0.205 F 
ATOM     89  C   UNL A   1      46.208  35.340  28.696  1.00  0.00     0.022 A 
BRANCH  87  90
ATOM     90  S   UNL A   1      46.175  34.266  26.177  1.00  0.00     0.127 S 
ATOM     91  O   UNL A   1      45.173  34.882  25.305  1.00  0.00    -0.237 OA
ATOM     92  O   UNL A   1      47.438  34.993  26.268  1.00  0.00    -0.237 OA
ATOM     93  O   UNL A   1      46.283  32.820  26.038  1.00  0.00    -0.744 OA
ENDBRANCH  87  90
ENDBRANCH  59  83
BRANCH  71  94
ATOM     94  C   UNL A   1      41.351  30.380  33.829  1.00  0.00     0.023 A 
ATOM     95  C   UNL A   1      42.216  30.252  34.934  1.00  0.00     0.012 A 
ATOM     96  C   UNL A   1      40.282  31.288  33.905  1.00  0.00     0.148 A 
ATOM     97  C   UNL A   1      41.996  30.985  36.103  1.00  0.00     0.002 A 
ATOM     98  C   UNL A   1      40.096  32.052  35.048  1.00  0.00     0.091 A 
ATOM     99  F   UNL A   1      39.464  31.396  32.847  1.00  0.00    -0.205 F 
ATOM    100  C   UNL A   1      40.943  31.895  36.156  1.00  0.00     0.022 A 
BRANCH  98 101
ATOM    101  S   UNL A   1      38.834  33.324  35.116  1.00  0.00     0.127 S 
ATOM    102  O   UNL A   1      39.186  34.167  33.974  1.00  0.00    -0.237 OA
ATOM    103  O   UNL A   1      37.599  32.557  34.951  1.00  0.00    -0.237 OA
ATOM    104  O   UNL A   1      38.971  33.947  36.427  1.00  0.00    -0.744 OA
ENDBRANCH  98 101
ENDBRANCH  71  94
ENDBRANCH  45  46
ENDBRANCH  37  40
ENDBRANCH  35  36
ENDBRANCH   1  35
TORSDOF 17
ENDMDL
MODEL 2
REMARK VINA RESULT:     -13.5      3.283      7.248
REMARK SMILES Cc1c(C(=O)NCCCNC(=O)c2ccc(-c3c4nc(c(-c5cccc(S(=O)(=O)[O-])c5F)c5ccc([nH]5)c(-c5cccc(S(=O)(=O)[O-])c5F)c5nc(c(-c6cccc(S(=O)(=O)[O-])c6F)c6ccc3[nH]6)C=C5)C=C4)cc2)oc2c1/C(=N/NC(=O)C(c1ccccc1)c1ccccc1)CCC2
REMARK SMILES IDX 8 1 7 2 6 3 4 4 5 5 3 7 1 8 2 9 78 10 76 11 77 12 79 13
REMARK SMILES IDX 99 14 80 15 97 16 98 17 81 18 82 19 83 21 84 22 85 23 86 24
REMARK SMILES IDX 90 25 87 26 89 27 88 28 91 29 92 30 96 31 93 32 95 33 94 34
REMARK SMILES IDX 9 35 10 36 11 37 12 39 13 40 14 41 75 42 15 43 74 44 16 45
REMARK SMILES IDX 17 46 18 47 68 48 19 49 73 50 67 51 69 52 20 53 72 54 66 55
REMARK SMILES IDX 65 56 21 58 53 59 33 60 52 61 34 62 37 63 51 64 70 65 35 66
REMARK SMILES IDX 36 67 50 69 71 70 38 71 22 72 23 73 31 74 24 75 26 76 32 77
REMARK SMILES IDX 25 78 27 79 28 80 29 81 30 82 54 83 55 84 63 85 56 86 58 87
REMARK SMILES IDX 64 88 57 89 59 90 60 91 61 92 62 93 39 94 40 95 48 96 41 97
REMARK SMILES IDX 43 98 49 99 42 100 44 101 45 102 46 103 47 104
REMARK H PARENT 6 6 81 20 10 38 69 57 37 68
REMARK Flexibility Score: inf
ROOT
ATOM      1  C   UNL A   1      33.784  28.992  27.585  1.00  0.00     0.042 C 
ENDROOT
BRANCH   1   2
ATOM      2  C   UNL A   1      33.139  28.432  26.301  1.00  0.00     0.118 C 
BRANCH   2   3
ATOM      3  N   UNL A   1      32.200  29.335  25.614  1.00  0.00    -0.349 N 
ATOM      4  C   UNL A   1      31.259  29.074  24.605  1.00  0.00     0.287 C 
ATOM      5  O   UNL A   1      30.392  29.903  24.395  1.00  0.00    -0.266 OA
ATOM      6  H   UNL A   1      32.240  30.273  25.910  1.00  0.00     0.163 HD
BRANCH   4   7
ATOM      7  C   UNL A   1      31.336  27.796  23.920  1.00  0.00     0.195 A 
ATOM      8  C   UNL A   1      30.540  25.923  25.509  1.00  0.00     0.049 C 
ATOM      9  C   UNL A   1      31.108  26.445  24.240  1.00  0.00     0.010 A 
ATOM     10  C   UNL A   1      31.669  25.694  23.142  1.00  0.00     0.043 A 
ATOM     11  O   UNL A   1      31.789  27.879  22.656  1.00  0.00    -0.455 OA
ATOM     12  C   UNL A   1      32.117  26.669  22.270  1.00  0.00     0.114 A 
ATOM     13  C   UNL A   1      31.988  24.305  22.786  1.00  0.00     0.072 C 
ATOM     14  C   UNL A   1      32.983  26.613  21.084  1.00  0.00     0.076 C 
ATOM     15  N   UNL A   1      31.442  23.278  23.362  1.00  0.00    -0.177 NA
ATOM     16  C   UNL A   1      33.067  24.272  21.760  1.00  0.00     0.059 C 
ATOM     17  C   UNL A   1      32.901  25.208  20.576  1.00  0.00     0.014 C 
BRANCH  15  18
ATOM     18  N   UNL A   1      31.635  21.910  23.164  1.00  0.00    -0.246 N 
ATOM     19  C   UNL A   1      32.226  20.765  23.672  1.00  0.00     0.252 C 
ATOM     20  H   UNL A   1      31.164  21.660  22.337  1.00  0.00     0.193 HD
ATOM     21  O   UNL A   1      32.073  19.751  22.958  1.00  0.00    -0.272 OA
BRANCH  19  22
ATOM     22  C   UNL A   1      33.046  20.556  25.008  1.00  0.00     0.140 C 
BRANCH  22  23
ATOM     23  C   UNL A   1      33.494  19.048  25.091  1.00  0.00    -0.031 A 
ATOM     24  C   UNL A   1      34.643  18.516  24.487  1.00  0.00     0.005 A 
ATOM     25  C   UNL A   1      32.650  18.112  25.741  1.00  0.00     0.005 A 
ATOM     26  C   UNL A   1      34.808  17.123  24.342  1.00  0.00     0.000 A 
ATOM     27  C   UNL A   1      32.808  16.731  25.597  1.00  0.00     0.000 A 
ATOM     28  C   UNL A   1      33.868  16.234  24.859  1.00  0.00     0.000 A 
ENDBRANCH  22  23
BRANCH  22  29
ATOM     29  C   UNL A   1      34.018  21.794  25.162  1.00  0.00    -0.031 A 
ATOM     30  C   UNL A   1      33.679  22.781  26.121  1.00  0.00     0.005 A 
ATOM     31  C   UNL A   1      35.093  22.110  24.311  1.00  0.00     0.005 A 
ATOM     32  C   UNL A   1      34.171  24.087  26.047  1.00  0.00     0.000 A 
ATOM     33  C   UNL A   1      35.605  23.421  24.248  1.00  0.00     0.000 A 
ATOM     34  C   UNL A   1      35.102  24.421  25.076  1.00  0.00     0.000 A 
ENDBRANCH  22  29
ENDBRANCH  19  22
ENDBRANCH  15  18
ENDBRANCH   4   7
ENDBRANCH   2   3
ENDBRANCH   1   2
BRANCH   1  35
ATOM     35  C   UNL A   1      34.718  30.163  27.324  1.00  0.00     0.118 C 
BRANCH  35  36
ATOM     36  N   UNL A   1      34.411  31.312  28.183  1.00  0.00    -0.352 N 
ATOM     37  C   UNL A   1      34.969  31.669  29.391  1.00  0.00     0.251 C 
ATOM     38  H   UNL A   1      33.704  31.912  27.849  1.00  0.00     0.163 HD
ATOM     39  O   UNL A   1      34.390  32.458  30.131  1.00  0.00    -0.269 OA
BRANCH  37  40
ATOM     40  C   UNL A   1      36.255  31.074  29.792  1.00  0.00     0.039 A 
ATOM     41  C   UNL A   1      36.330  29.722  30.137  1.00  0.00     0.014 A 
ATOM     42  C   UNL A   1      37.400  31.866  29.762  1.00  0.00     0.014 A 
ATOM     43  C   UNL A   1      37.581  29.148  30.340  1.00  0.00     0.010 A 
ATOM     44  C   UNL A   1      38.638  31.270  29.823  1.00  0.00     0.010 A 
ATOM     45  C   UNL A   1      38.738  29.917  30.140  1.00  0.00    -0.014 A 
BRANCH  45  46
ATOM     46  C   UNL A   1      40.049  29.267  30.091  1.00  0.00     0.031 A 
ATOM     47  C   UNL A   1      40.665  29.031  31.427  1.00  0.00     0.074 A 
ATOM     48  C   UNL A   1      40.568  28.716  28.972  1.00  0.00     0.049 A 
ATOM     49  N   UNL A   1      41.722  29.593  31.916  1.00  0.00    -0.248 NA
ATOM     50  C   UNL A   1      39.938  28.195  32.396  1.00  0.00     0.031 C 
ATOM     51  C   UNL A   1      39.919  28.601  27.659  1.00  0.00     0.029 A 
ATOM     52  N   UNL A   1      41.718  27.999  28.803  1.00  0.00    -0.354 N 
ATOM     53  C   UNL A   1      41.938  28.972  33.146  1.00  0.00     0.074 A 
ATOM     54  C   UNL A   1      40.705  28.314  33.481  1.00  0.00     0.031 C 
ATOM     55  C   UNL A   1      40.538  27.647  26.933  1.00  0.00     0.029 A 
ATOM     56  C   UNL A   1      41.726  27.221  27.647  1.00  0.00     0.049 A 
ATOM     57  H   UNL A   1      42.471  28.029  29.438  1.00  0.00     0.167 HD
ATOM     58  C   UNL A   1      43.202  28.798  33.625  1.00  0.00     0.034 A 
ATOM     59  C   UNL A   1      42.624  26.269  27.305  1.00  0.00     0.034 A 
ATOM     60  C   UNL A   1      44.145  29.593  32.877  1.00  0.00     0.049 A 
ATOM     61  C   UNL A   1      43.859  26.540  28.065  1.00  0.00     0.074 A 
ATOM     62  C   UNL A   1      44.382  30.932  32.659  1.00  0.00     0.029 A 
ATOM     63  N   UNL A   1      44.804  28.900  31.895  1.00  0.00    -0.354 N 
ATOM     64  N   UNL A   1      44.612  27.584  27.860  1.00  0.00    -0.248 NA
ATOM     65  C   UNL A   1      44.121  25.812  29.297  1.00  0.00     0.031 C 
ATOM     66  C   UNL A   1      44.942  31.013  31.349  1.00  0.00     0.029 A 
ATOM     67  C   UNL A   1      45.068  29.721  30.835  1.00  0.00     0.049 A 
ATOM     68  H   UNL A   1      45.050  27.948  31.945  1.00  0.00     0.167 HD
ATOM     69  C   UNL A   1      45.076  27.912  29.122  1.00  0.00     0.074 A 
ATOM     70  C   UNL A   1      44.920  26.693  29.906  1.00  0.00     0.031 C 
ATOM     71  C   UNL A   1      45.224  29.219  29.485  1.00  0.00     0.034 A 
BRANCH  58  72
ATOM     72  C   UNL A   1      43.695  27.594  34.419  1.00  0.00     0.023 A 
ATOM     73  C   UNL A   1      44.391  27.868  35.623  1.00  0.00     0.012 A 
ATOM     74  C   UNL A   1      43.799  26.274  33.921  1.00  0.00     0.148 A 
ATOM     75  C   UNL A   1      45.207  26.916  36.244  1.00  0.00     0.002 A 
ATOM     76  C   UNL A   1      44.552  25.307  34.584  1.00  0.00     0.091 A 
ATOM     77  F   UNL A   1      43.283  25.959  32.733  1.00  0.00    -0.205 F 
ATOM     78  C   UNL A   1      45.287  25.632  35.725  1.00  0.00     0.022 A 
BRANCH  76  79
ATOM     79  S   UNL A   1      44.657  23.616  33.980  1.00  0.00     0.127 S 
ATOM     80  O   UNL A   1      45.838  23.128  34.685  1.00  0.00    -0.237 OA
ATOM     81  O   UNL A   1      43.385  23.058  34.438  1.00  0.00    -0.237 OA
ATOM     82  O   UNL A   1      44.773  23.723  32.531  1.00  0.00    -0.744 OA
ENDBRANCH  76  79
ENDBRANCH  58  72
BRANCH  59  83
ATOM     83  C   UNL A   1      42.481  25.057  26.471  1.00  0.00     0.023 A 
ATOM     84  C   UNL A   1      43.441  24.783  25.475  1.00  0.00     0.012 A 
ATOM     85  C   UNL A   1      41.588  24.028  26.837  1.00  0.00     0.148 A 
ATOM     86  C   UNL A   1      43.549  23.509  24.906  1.00  0.00     0.002 A 
ATOM     87  C   UNL A   1      41.696  22.762  26.267  1.00  0.00     0.091 A 
ATOM     88  F   UNL A   1      40.698  24.263  27.811  1.00  0.00    -0.205 F 
ATOM     89  C   UNL A   1      42.686  22.496  25.311  1.00  0.00     0.022 A 
BRANCH  87  90
ATOM     90  S   UNL A   1      40.644  21.393  26.765  1.00  0.00     0.127 S 
ATOM     91  O   UNL A   1      39.329  21.837  26.302  1.00  0.00    -0.237 OA
ATOM     92  O   UNL A   1      41.218  20.285  26.008  1.00  0.00    -0.237 OA
ATOM     93  O   UNL A   1      40.772  21.307  28.214  1.00  0.00    -0.744 OA
ENDBRANCH  87  90
ENDBRANCH  59  83
BRANCH  71  94
ATOM     94  C   UNL A   1      45.336  30.239  28.382  1.00  0.00     0.023 A 
ATOM     95  C   UNL A   1      44.217  30.768  27.710  1.00  0.00     0.012 A 
ATOM     96  C   UNL A   1      46.611  30.751  28.086  1.00  0.00     0.148 A 
ATOM     97  C   UNL A   1      44.370  31.759  26.737  1.00  0.00     0.002 A 
ATOM     98  C   UNL A   1      46.754  31.771  27.157  1.00  0.00     0.091 A 
ATOM     99  F   UNL A   1      47.669  30.234  28.732  1.00  0.00    -0.205 F 
ATOM    100  C   UNL A   1      45.638  32.270  26.469  1.00  0.00     0.022 A 
BRANCH  98 101
ATOM    101  S   UNL A   1      48.346  32.545  26.871  1.00  0.00     0.127 S 
ATOM    102  O   UNL A   1      49.174  31.407  26.476  1.00  0.00    -0.237 OA
ATOM    103  O   UNL A   1      48.052  33.490  25.792  1.00  0.00    -0.237 OA
ATOM    104  O   UNL A   1      48.706  33.183  28.132  1.00  0.00    -0.744 OA
ENDBRANCH  98 101
ENDBRANCH  71  94
ENDBRANCH  45  46
ENDBRANCH  37  40
ENDBRANCH  35  36
ENDBRANCH   1  35
TORSDOF 17
ENDMDL
MODEL 3
REMARK VINA RESULT:     -13.4      3.454      6.976
REMARK SMILES Cc1c(C(=O)NCCCNC(=O)c2ccc(-c3c4nc(c(-c5cccc(S(=O)(=O)[O-])c5F)c5ccc([nH]5)c(-c5cccc(S(=O)(=O)[O-])c5F)c5nc(c(-c6cccc(S(=O)(=O)[O-])c6F)c6ccc3[nH]6)C=C5)C=C4)cc2)oc2c1/C(=N/NC(=O)C(c1ccccc1)c1ccccc1)CCC2
REMARK SMILES IDX 8 1 7 2 6 3 4 4 5 5 3 7 1 8 2 9 78 10 76 11 77 12 79 13
REMARK SMILES IDX 99 14 80 15 97 16 98 17 81 18 82 19 83 21 84 22 85 23 86 24
REMARK SMILES IDX 90 25 87 26 89 27 88 28 91 29 92 30 96 31 93 32 95 33 94 34
REMARK SMILES IDX 9 35 10 36 11 37 12 39 13 40 14 41 75 42 15 43 74 44 16 45
REMARK SMILES IDX 17 46 18 47 68 48 19 49 73 50 67 51 69 52 20 53 72 54 66 55
REMARK SMILES IDX 65 56 21 58 53 59 33 60 52 61 34 62 37 63 51 64 70 65 35 66
REMARK SMILES IDX 36 67 50 69 71 70 38 71 22 72 23 73 31 74 24 75 26 76 32 77
REMARK SMILES IDX 25 78 27 79 28 80 29 81 30 82 54 83 55 84 63 85 56 86 58 87
REMARK SMILES IDX 64 88 57 89 59 90 60 91 61 92 62 93 39 94 40 95 48 96 41 97
REMARK SMILES IDX 43 98 49 99 42 100 44 101 45 102 46 103 47 104
REMARK H PARENT 6 6 81 20 10 38 69 57 37 68
REMARK Flexibility Score: inf
ROOT
ATOM      1  C   UNL A   1      33.412  30.533  27.208  1.00  0.00     0.042 C 
ENDROOT
BRANCH   1   2
ATOM      2  C   UNL A   1      33.340  29.733  25.891  1.00  0.00     0.118 C 
BRANCH   2   3
ATOM      3  N   UNL A   1      32.230  30.088  24.991  1.00  0.00    -0.349 N 
ATOM      4  C   UNL A   1      31.257  29.278  24.381  1.00  0.00     0.287 C 
ATOM      5  O   UNL A   1      30.267  29.813  23.919  1.00  0.00    -0.266 OA
ATOM      6  H   UNL A   1      32.158  31.047  24.782  1.00  0.00     0.163 HD
BRANCH   4   7
ATOM      7  C   UNL A   1      31.462  27.840  24.403  1.00  0.00     0.195 A 
ATOM      8  C   UNL A   1      31.153  26.968  26.813  1.00  0.00     0.049 C 
ATOM      9  C   UNL A   1      31.488  26.822  25.374  1.00  0.00     0.010 A 
ATOM     10  C   UNL A   1      32.038  25.669  24.701  1.00  0.00     0.043 A 
ATOM     11  O   UNL A   1      31.755  27.311  23.201  1.00  0.00    -0.455 OA
ATOM     12  C   UNL A   1      32.227  26.103  23.402  1.00  0.00     0.114 A 
ATOM     13  C   UNL A   1      32.533  24.323  25.017  1.00  0.00     0.072 C 
ATOM     14  C   UNL A   1      32.956  25.529  22.264  1.00  0.00     0.076 C 
ATOM     15  N   UNL A   1      32.224  23.686  26.105  1.00  0.00    -0.177 NA
ATOM     16  C   UNL A   1      33.485  23.866  23.966  1.00  0.00     0.059 C 
ATOM     17  C   UNL A   1      33.044  24.058  22.526  1.00  0.00     0.014 C 
BRANCH  15  18
ATOM     18  N   UNL A   1      32.609  22.427  26.568  1.00  0.00    -0.246 N 
ATOM     19  C   UNL A   1      33.316  21.276  26.262  1.00  0.00     0.252 C 
ATOM     20  H   UNL A   1      32.228  22.312  27.468  1.00  0.00     0.193 HD
ATOM     21  O   UNL A   1      33.253  20.389  27.140  1.00  0.00    -0.272 OA
BRANCH  19  22
ATOM     22  C   UNL A   1      34.186  20.930  24.987  1.00  0.00     0.140 C 
BRANCH  22  23
ATOM     23  C   UNL A   1      35.701  21.195  25.327  1.00  0.00    -0.031 A 
ATOM     24  C   UNL A   1      36.206  22.382  25.879  1.00  0.00     0.005 A 
ATOM     25  C   UNL A   1      36.668  20.218  24.978  1.00  0.00     0.005 A 
ATOM     26  C   UNL A   1      37.588  22.661  25.862  1.00  0.00     0.000 A 
ATOM     27  C   UNL A   1      38.038  20.491  24.955  1.00  0.00     0.000 A 
ATOM     28  C   UNL A   1      38.498  21.733  25.360  1.00  0.00     0.000 A 
ENDBRANCH  22  23
BRANCH  22  29
ATOM     29  C   UNL A   1      33.621  19.582  24.383  1.00  0.00    -0.031 A 
ATOM     30  C   UNL A   1      34.392  18.407  24.567  1.00  0.00     0.005 A 
ATOM     31  C   UNL A   1      32.518  19.463  23.518  1.00  0.00     0.005 A 
ATOM     32  C   UNL A   1      34.253  17.291  23.736  1.00  0.00     0.000 A 
ATOM     33  C   UNL A   1      32.365  18.332  22.693  1.00  0.00     0.000 A 
ATOM     34  C   UNL A   1      33.267  17.273  22.763  1.00  0.00     0.000 A 
ENDBRANCH  22  29
ENDBRANCH  19  22
ENDBRANCH  15  18
ENDBRANCH   4   7
ENDBRANCH   2   3
ENDBRANCH   1   2
BRANCH   1  35
ATOM     35  C   UNL A   1      34.834  30.753  27.698  1.00  0.00     0.118 C 
BRANCH  35  36
ATOM     36  N   UNL A   1      34.873  31.555  28.925  1.00  0.00    -0.352 N 
ATOM     37  C   UNL A   1      35.764  31.494  29.976  1.00  0.00     0.251 C 
ATOM     38  H   UNL A   1      34.162  32.231  29.012  1.00  0.00     0.163 HD
ATOM     39  O   UNL A   1      35.477  31.995  31.058  1.00  0.00    -0.269 OA
BRANCH  37  40
ATOM     40  C   UNL A   1      37.049  30.802  29.789  1.00  0.00     0.039 A 
ATOM     41  C   UNL A   1      38.240  31.530  29.728  1.00  0.00     0.014 A 
ATOM     42  C   UNL A   1      37.062  29.411  29.738  1.00  0.00     0.014 A 
ATOM     43  C   UNL A   1      39.451  30.843  29.729  1.00  0.00     0.010 A 
ATOM     44  C   UNL A   1      38.253  28.738  29.881  1.00  0.00     0.010 A 
ATOM     45  C   UNL A   1      39.454  29.444  29.849  1.00  0.00    -0.014 A 
BRANCH  45  46
ATOM     46  C   UNL A   1      40.707  28.736  30.116  1.00  0.00     0.031 A 
ATOM     47  C   UNL A   1      41.083  28.682  31.557  1.00  0.00     0.074 A 
ATOM     48  C   UNL A   1      41.358  27.995  29.192  1.00  0.00     0.049 A 
ATOM     49  N   UNL A   1      42.085  29.264  32.130  1.00  0.00    -0.248 NA
ATOM     50  C   UNL A   1      40.154  28.038  32.499  1.00  0.00     0.031 C 
ATOM     51  C   UNL A   1      40.921  27.709  27.819  1.00  0.00     0.029 A 
ATOM     52  N   UNL A   1      42.467  27.210  29.325  1.00  0.00    -0.354 N 
ATOM     53  C   UNL A   1      42.058  28.831  33.455  1.00  0.00     0.074 A 
ATOM     54  C   UNL A   1      40.744  28.288  33.670  1.00  0.00     0.031 C 
ATOM     55  C   UNL A   1      41.580  26.627  27.354  1.00  0.00     0.029 A 
ATOM     56  C   UNL A   1      42.606  26.264  28.312  1.00  0.00     0.049 A 
ATOM     57  H   UNL A   1      43.109  27.304  30.067  1.00  0.00     0.167 HD
ATOM     58  C   UNL A   1      43.213  28.676  34.161  1.00  0.00     0.034 A 
ATOM     59  C   UNL A   1      43.478  25.230  28.268  1.00  0.00     0.034 A 
ATOM     60  C   UNL A   1      44.317  29.303  33.475  1.00  0.00     0.049 A 
ATOM     61  C   UNL A   1      44.592  25.560  29.178  1.00  0.00     0.074 A 
ATOM     62  C   UNL A   1      44.679  30.580  33.109  1.00  0.00     0.029 A 
ATOM     63  N   UNL A   1      45.075  28.437  32.729  1.00  0.00    -0.354 N 
ATOM     64  N   UNL A   1      45.438  26.524  28.953  1.00  0.00    -0.248 NA
ATOM     65  C   UNL A   1      44.602  25.020  30.528  1.00  0.00     0.031 C 
ATOM     66  C   UNL A   1      45.445  30.433  31.914  1.00  0.00     0.029 A 
ATOM     67  C   UNL A   1      45.562  29.073  31.622  1.00  0.00     0.049 A 
ATOM     68  H   UNL A   1      45.243  27.495  32.957  1.00  0.00     0.167 HD
ATOM     69  C   UNL A   1      45.717  27.022  30.214  1.00  0.00     0.074 A 
ATOM     70  C   UNL A   1      45.352  25.948  31.129  1.00  0.00     0.031 C 
ATOM     71  C   UNL A   1      45.896  28.362  30.404  1.00  0.00     0.034 A 
BRANCH  58  72
ATOM     72  C   UNL A   1      43.488  27.588  35.192  1.00  0.00     0.023 A 
ATOM     73  C   UNL A   1      43.884  28.021  36.483  1.00  0.00     0.012 A 
ATOM     74  C   UNL A   1      43.687  26.218  34.902  1.00  0.00     0.148 A 
ATOM     75  C   UNL A   1      44.516  27.166  37.393  1.00  0.00     0.002 A 
ATOM     76  C   UNL A   1      44.249  25.353  35.838  1.00  0.00     0.091 A 
ATOM     77  F   UNL A   1      43.463  25.750  33.674  1.00  0.00    -0.205 F 
ATOM     78  C   UNL A   1      44.698  25.829  37.071  1.00  0.00     0.022 A 
BRANCH  76  79
ATOM     79  S   UNL A   1      44.469  23.602  35.491  1.00  0.00     0.127 S 
ATOM     80  O   UNL A   1      45.442  23.641  34.404  1.00  0.00    -0.237 OA
ATOM     81  O   UNL A   1      44.984  23.109  36.768  1.00  0.00    -0.237 OA
ATOM     82  O   UNL A   1      43.144  23.100  35.149  1.00  0.00    -0.744 OA
ENDBRANCH  76  79
ENDBRANCH  58  72
BRANCH  59  83
ATOM     83  C   UNL A   1      43.386  23.912  27.605  1.00  0.00     0.023 A 
ATOM     84  C   UNL A   1      42.194  23.165  27.709  1.00  0.00     0.012 A 
ATOM     85  C   UNL A   1      44.336  23.520  26.639  1.00  0.00     0.148 A 
ATOM     86  C   UNL A   1      41.930  22.101  26.840  1.00  0.00     0.002 A 
ATOM     87  C   UNL A   1      44.072  22.459  25.778  1.00  0.00     0.091 A 
ATOM     88  F   UNL A   1      45.454  24.247  26.503  1.00  0.00    -0.205 F 
ATOM     89  C   UNL A   1      42.862  21.757  25.866  1.00  0.00     0.022 A 
BRANCH  87  90
ATOM     90  S   UNL A   1      45.208  21.979  24.470  1.00  0.00     0.127 S 
ATOM     91  O   UNL A   1      44.475  20.894  23.816  1.00  0.00    -0.237 OA
ATOM     92  O   UNL A   1      45.305  23.210  23.692  1.00  0.00    -0.237 OA
ATOM     93  O   UNL A   1      46.428  21.556  25.146  1.00  0.00    -0.744 OA
ENDBRANCH  87  90
ENDBRANCH  59  83
BRANCH  71  94
ATOM     94  C   UNL A   1      46.254  29.193  29.200  1.00  0.00     0.023 A 
ATOM     95  C   UNL A   1      47.526  29.160  28.594  1.00  0.00     0.012 A 
ATOM     96  C   UNL A   1      45.237  29.957  28.603  1.00  0.00     0.148 A 
ATOM     97  C   UNL A   1      47.788  29.902  27.441  1.00  0.00     0.002 A 
ATOM     98  C   UNL A   1      45.486  30.652  27.428  1.00  0.00     0.091 A 
ATOM     99  F   UNL A   1      44.032  29.983  29.193  1.00  0.00    -0.205 F 
ATOM    100  C   UNL A   1      46.764  30.639  26.849  1.00  0.00     0.022 A 
BRANCH  98 101
ATOM    101  S   UNL A   1      44.170  31.511  26.564  1.00  0.00     0.127 S 
ATOM    102  O   UNL A   1      43.225  30.429  26.291  1.00  0.00    -0.237 OA
ATOM    103  O   UNL A   1      43.715  32.482  27.561  1.00  0.00    -0.237 OA
ATOM    104  O   UNL A   1      44.795  32.115  25.394  1.00  0.00    -0.744 OA
ENDBRANCH  98 101
ENDBRANCH  71  94
ENDBRANCH  45  46
ENDBRANCH  37  40
ENDBRANCH  35  36
ENDBRANCH   1  35
TORSDOF 17
ENDMDL
