MODEL 1
REMARK VINA RESULT:     -11.5      0.000      0.000
REMARK SMILES O=C(NCCCNC(=O)[C@@H](CCO)NC(=O)c1c(F)ccc([N+](=O)[O-])c1F)c1ccc(-c2c3nc(c(-c4cccc(S(=O)(=O)[O-])c4F)c4ccc([nH]4)c(-c4cccc(S(=O)(=O)[O-])c4F)c4nc(c(-c5cccc(S(=O)(=O)[O-])c5F)c5ccc2[nH]5)C=C4)C=C3)cc1
REMARK SMILES IDX 5 1 4 2 3 3 1 4 2 5 28 7 29 8 90 9 30 10 89 11 31 12 32 13
REMARK SMILES IDX 33 14 83 15 34 16 88 17 82 18 84 19 35 20 87 21 81 22 80 23
REMARK SMILES IDX 36 25 68 26 48 27 67 28 49 29 52 30 66 31 85 32 50 33 51 34
REMARK SMILES IDX 65 36 86 37 53 38 37 39 38 40 46 41 39 42 41 43 47 44 40 45
REMARK SMILES IDX 42 46 43 47 44 48 45 49 69 50 70 51 78 52 71 53 73 54 79 55
REMARK SMILES IDX 72 56 74 57 75 58 76 59 77 60 54 61 55 62 63 63 56 64 58 65
REMARK SMILES IDX 64 66 57 67 59 68 60 69 61 70 62 71 6 72 7 73 8 74 9 76
REMARK SMILES IDX 10 77 11 78 12 79 13 80 14 82 15 83 16 85 17 86 18 87 26 88
REMARK SMILES IDX 19 89 20 90 22 91 27 92 21 93 23 94 24 95 25 96
REMARK H PARENT 3 6 84 24 52 35 7 75 13 81 14 84
REMARK Flexibility Score: inf
ROOT
ATOM      1  C   UNL A   1      37.616  19.939  24.898  1.00  0.00     0.042 C 
ENDROOT
BRANCH   1   2
ATOM      2  C   UNL A   1      38.725  20.497  25.780  1.00  0.00     0.118 C 
BRANCH   2   3
ATOM      3  N   UNL A   1      39.813  19.554  25.959  1.00  0.00    -0.352 N 
ATOM      4  O   UNL A   1      41.931  18.828  26.031  1.00  0.00    -0.269 OA
ATOM      5  C   UNL A   1      41.157  19.774  26.149  1.00  0.00     0.251 C 
ATOM      6  H   UNL A   1      39.547  18.606  25.943  1.00  0.00     0.163 HD
BRANCH   5   7
ATOM      7  C   UNL A   1      41.679  21.124  26.472  1.00  0.00     0.039 A 
ATOM      8  C   UNL A   1      41.816  22.112  25.494  1.00  0.00     0.014 A 
ATOM      9  C   UNL A   1      41.969  21.430  27.805  1.00  0.00     0.014 A 
ATOM     10  C   UNL A   1      42.362  23.353  25.819  1.00  0.00     0.010 A 
ATOM     11  C   UNL A   1      42.428  22.707  28.146  1.00  0.00     0.010 A 
ATOM     12  C   UNL A   1      42.650  23.672  27.153  1.00  0.00    -0.014 A 
BRANCH  12  13
ATOM     13  C   UNL A   1      43.096  25.042  27.520  1.00  0.00     0.031 A 
ATOM     14  C   UNL A   1      42.147  26.020  28.152  1.00  0.00     0.074 A 
ATOM     15  C   UNL A   1      44.352  25.421  27.214  1.00  0.00     0.049 A 
ATOM     16  N   UNL A   1      42.335  27.282  28.439  1.00  0.00    -0.248 NA
ATOM     17  C   UNL A   1      40.806  25.521  28.494  1.00  0.00     0.031 C 
ATOM     18  C   UNL A   1      45.354  24.571  26.564  1.00  0.00     0.029 A 
ATOM     19  N   UNL A   1      44.995  26.624  27.376  1.00  0.00    -0.354 N 
ATOM     20  C   UNL A   1      41.126  27.743  28.946  1.00  0.00     0.074 A 
ATOM     21  C   UNL A   1      40.209  26.624  28.926  1.00  0.00     0.031 C 
ATOM     22  C   UNL A   1      46.477  25.276  26.378  1.00  0.00     0.029 A 
ATOM     23  C   UNL A   1      46.259  26.643  26.836  1.00  0.00     0.049 A 
ATOM     24  H   UNL A   1      44.589  27.395  27.835  1.00  0.00     0.167 HD
ATOM     25  C   UNL A   1      40.812  28.984  29.392  1.00  0.00     0.034 A 
ATOM     26  C   UNL A   1      47.136  27.654  26.685  1.00  0.00     0.034 A 
ATOM     27  C   UNL A   1      41.741  30.082  29.433  1.00  0.00     0.049 A 
ATOM     28  C   UNL A   1      46.772  29.016  27.199  1.00  0.00     0.074 A 
ATOM     29  C   UNL A   1      41.542  31.358  29.932  1.00  0.00     0.029 A 
ATOM     30  N   UNL A   1      43.039  30.042  28.946  1.00  0.00    -0.354 N 
ATOM     31  N   UNL A   1      45.665  29.402  27.784  1.00  0.00    -0.248 NA
ATOM     32  C   UNL A   1      47.782  30.073  27.062  1.00  0.00     0.031 C 
ATOM     33  C   UNL A   1      42.711  32.097  29.721  1.00  0.00     0.029 A 
ATOM     34  C   UNL A   1      43.650  31.272  29.122  1.00  0.00     0.049 A 
ATOM     35  H   UNL A   1      43.463  29.254  28.535  1.00  0.00     0.167 HD
ATOM     36  C   UNL A   1      45.856  30.738  28.118  1.00  0.00     0.074 A 
ATOM     37  C   UNL A   1      47.191  31.089  27.677  1.00  0.00     0.031 C 
ATOM     38  C   UNL A   1      45.000  31.592  28.729  1.00  0.00     0.034 A 
BRANCH  25  39
ATOM     39  C   UNL A   1      39.409  29.213  29.892  1.00  0.00     0.023 A 
ATOM     40  C   UNL A   1      39.052  28.802  31.193  1.00  0.00     0.012 A 
ATOM     41  C   UNL A   1      38.455  29.875  29.094  1.00  0.00     0.148 A 
ATOM     42  C   UNL A   1      37.758  29.006  31.674  1.00  0.00     0.002 A 
ATOM     43  C   UNL A   1      37.179  30.113  29.596  1.00  0.00     0.091 A 
ATOM     44  F   UNL A   1      38.802  30.242  27.851  1.00  0.00    -0.205 F 
ATOM     45  C   UNL A   1      36.826  29.668  30.880  1.00  0.00     0.022 A 
BRANCH  43  46
ATOM     46  S   UNL A   1      35.940  31.031  28.675  1.00  0.00     0.127 S 
ATOM     47  O   UNL A   1      36.696  32.214  28.263  1.00  0.00    -0.237 OA
ATOM     48  O   UNL A   1      35.613  30.108  27.587  1.00  0.00    -0.237 OA
ATOM     49  O   UNL A   1      34.849  31.272  29.609  1.00  0.00    -0.744 OA
ENDBRANCH  43  46
ENDBRANCH  25  39
BRANCH  26  50
ATOM     50  C   UNL A   1      48.454  27.385  26.045  1.00  0.00     0.023 A 
ATOM     51  C   UNL A   1      49.504  26.855  26.818  1.00  0.00     0.012 A 
ATOM     52  C   UNL A   1      48.639  27.565  24.659  1.00  0.00     0.148 A 
ATOM     53  C   UNL A   1      50.722  26.523  26.225  1.00  0.00     0.002 A 
ATOM     54  C   UNL A   1      49.834  27.177  24.066  1.00  0.00     0.091 A 
ATOM     55  F   UNL A   1      47.626  28.075  23.945  1.00  0.00    -0.205 F 
ATOM     56  C   UNL A   1      50.882  26.669  24.849  1.00  0.00     0.022 A 
BRANCH  54  57
ATOM     57  S   UNL A   1      50.080  27.193  22.286  1.00  0.00     0.127 S 
ATOM     58  O   UNL A   1      49.940  28.615  21.980  1.00  0.00    -0.237 OA
ATOM     59  O   UNL A   1      51.441  26.668  22.169  1.00  0.00    -0.237 OA
ATOM     60  O   UNL A   1      49.049  26.325  21.736  1.00  0.00    -0.744 OA
ENDBRANCH  54  57
ENDBRANCH  26  50
BRANCH  38  61
ATOM     61  C   UNL A   1      45.486  32.989  29.012  1.00  0.00     0.023 A 
ATOM     62  C   UNL A   1      46.202  33.262  30.192  1.00  0.00     0.012 A 
ATOM     63  C   UNL A   1      45.318  34.005  28.050  1.00  0.00     0.148 A 
ATOM     64  C   UNL A   1      46.728  34.533  30.421  1.00  0.00     0.002 A 
ATOM     65  C   UNL A   1      45.887  35.254  28.262  1.00  0.00     0.091 A 
ATOM     66  F   UNL A   1      44.615  33.727  26.943  1.00  0.00    -0.205 F 
ATOM     67  C   UNL A   1      46.584  35.523  29.451  1.00  0.00     0.022 A 
BRANCH  65  68
ATOM     68  S   UNL A   1      45.836  36.558  27.027  1.00  0.00     0.127 S 
ATOM     69  O   UNL A   1      44.401  36.817  26.925  1.00  0.00    -0.237 OA
ATOM     70  O   UNL A   1      46.604  37.624  27.672  1.00  0.00    -0.237 OA
ATOM     71  O   UNL A   1      46.457  36.004  25.831  1.00  0.00    -0.744 OA
ENDBRANCH  65  68
ENDBRANCH  38  61
ENDBRANCH  12  13
ENDBRANCH   5   7
ENDBRANCH   2   3
ENDBRANCH   1   2
BRANCH   1  72
ATOM     72  C   UNL A   1      36.422  20.877  24.731  1.00  0.00     0.117 C 
BRANCH  72  73
ATOM     73  N   UNL A   1      35.654  20.975  25.960  1.00  0.00    -0.354 N 
ATOM     74  C   UNL A   1      34.324  20.997  26.218  1.00  0.00     0.242 C 
ATOM     75  H   UNL A   1      36.213  21.041  26.768  1.00  0.00     0.163 HD
ATOM     76  O   UNL A   1      34.002  21.284  27.380  1.00  0.00    -0.273 OA
BRANCH  74  77
ATOM     77  C   UNL A   1      33.212  20.778  25.167  1.00  0.00     0.173 C 
BRANCH  77  78
ATOM     78  C   UNL A   1      33.228  19.401  24.482  1.00  0.00     0.063 C 
BRANCH  78  79
ATOM     79  C   UNL A   1      32.810  18.170  25.272  1.00  0.00     0.158 C 
BRANCH  79  80
ATOM     80  O   UNL A   1      32.610  18.439  26.648  1.00  0.00    -0.396 OA
ATOM     81  H   UNL A   1      32.600  17.605  27.142  1.00  0.00     0.210 HD
ENDBRANCH  79  80
ENDBRANCH  78  79
ENDBRANCH  77  78
BRANCH  77  82
ATOM     82  N   UNL A   1      31.874  21.228  25.555  1.00  0.00    -0.340 N 
ATOM     83  C   UNL A   1      31.321  22.485  25.568  1.00  0.00     0.258 C 
ATOM     84  H   UNL A   1      31.270  20.510  25.856  1.00  0.00     0.164 HD
ATOM     85  O   UNL A   1      30.183  22.650  25.997  1.00  0.00    -0.269 OA
BRANCH  83  86
ATOM     86  C   UNL A   1      32.046  23.654  25.048  1.00  0.00     0.118 A 
ATOM     87  C   UNL A   1      32.644  24.569  25.914  1.00  0.00     0.139 A 
ATOM     88  C   UNL A   1      32.243  23.786  23.671  1.00  0.00     0.216 A 
ATOM     89  F   UNL A   1      32.585  24.403  27.240  1.00  0.00    -0.206 F 
ATOM     90  C   UNL A   1      33.347  25.668  25.428  1.00  0.00     0.047 A 
ATOM     91  C   UNL A   1      32.994  24.858  23.178  1.00  0.00     0.305 A 
ATOM     92  F   UNL A   1      31.692  22.888  22.842  1.00  0.00    -0.198 F 
ATOM     93  C   UNL A   1      33.524  25.820  24.055  1.00  0.00     0.092 A 
BRANCH  91  94
ATOM     94  N   UNL A   1      33.268  24.985  21.745  1.00  0.00     0.065 N 
ATOM     95  O   UNL A   1      33.369  23.960  21.064  1.00  0.00    -0.258 OA
ATOM     96  O   UNL A   1      33.415  26.133  21.299  1.00  0.00    -0.258 OA
ENDBRANCH  91  94
ENDBRANCH  83  86
ENDBRANCH  77  82
ENDBRANCH  74  77
ENDBRANCH  72  73
ENDBRANCH   1  72
TORSDOF 19
ENDMDL
MODEL 2
REMARK VINA RESULT:     -11.5      5.366     10.070
REMARK SMILES O=C(NCCCNC(=O)[C@@H](CCO)NC(=O)c1c(F)ccc([N+](=O)[O-])c1F)c1ccc(-c2c3nc(c(-c4cccc(S(=O)(=O)[O-])c4F)c4ccc([nH]4)c(-c4cccc(S(=O)(=O)[O-])c4F)c4nc(c(-c5cccc(S(=O)(=O)[O-])c5F)c5ccc2[nH]5)C=C4)C=C3)cc1
REMARK SMILES IDX 5 1 4 2 3 3 1 4 2 5 28 7 29 8 90 9 30 10 89 11 31 12 32 13
REMARK SMILES IDX 33 14 83 15 34 16 88 17 82 18 84 19 35 20 87 21 81 22 80 23
REMARK SMILES IDX 36 25 68 26 48 27 67 28 49 29 52 30 66 31 85 32 50 33 51 34
REMARK SMILES IDX 65 36 86 37 53 38 37 39 38 40 46 41 39 42 41 43 47 44 40 45
REMARK SMILES IDX 42 46 43 47 44 48 45 49 69 50 70 51 78 52 71 53 73 54 79 55
REMARK SMILES IDX 72 56 74 57 75 58 76 59 77 60 54 61 55 62 63 63 56 64 58 65
REMARK SMILES IDX 64 66 57 67 59 68 60 69 61 70 62 71 6 72 7 73 8 74 9 76
REMARK SMILES IDX 10 77 11 78 12 79 13 80 14 82 15 83 16 85 17 86 18 87 26 88
REMARK SMILES IDX 19 89 20 90 22 91 27 92 21 93 23 94 24 95 25 96
REMARK H PARENT 3 6 84 24 52 35 7 75 13 81 14 84
REMARK Flexibility Score: inf
ROOT
ATOM      1  C   UNL A   1      31.879  28.269  25.933  1.00  0.00     0.042 C 
ENDROOT
BRANCH   1   2
ATOM      2  C   UNL A   1      32.887  29.326  25.501  1.00  0.00     0.118 C 
BRANCH   2   3
ATOM      3  N   UNL A   1      32.492  30.662  25.908  1.00  0.00    -0.352 N 
ATOM      4  O   UNL A   1      32.367  32.474  27.218  1.00  0.00    -0.269 OA
ATOM      5  C   UNL A   1      33.011  31.485  26.879  1.00  0.00     0.251 C 
ATOM      6  H   UNL A   1      31.732  31.039  25.408  1.00  0.00     0.163 HD
BRANCH   5   7
ATOM      7  C   UNL A   1      34.312  31.188  27.526  1.00  0.00     0.039 A 
ATOM      8  C   UNL A   1      35.278  32.179  27.722  1.00  0.00     0.014 A 
ATOM      9  C   UNL A   1      34.540  29.899  28.015  1.00  0.00     0.014 A 
ATOM     10  C   UNL A   1      36.512  31.857  28.282  1.00  0.00     0.010 A 
ATOM     11  C   UNL A   1      35.743  29.598  28.663  1.00  0.00     0.010 A 
ATOM     12  C   UNL A   1      36.749  30.570  28.783  1.00  0.00    -0.014 A 
BRANCH  12  13
ATOM     13  C   UNL A   1      38.009  30.264  29.509  1.00  0.00     0.031 A 
ATOM     14  C   UNL A   1      39.028  29.325  28.927  1.00  0.00     0.074 A 
ATOM     15  C   UNL A   1      38.197  30.788  30.736  1.00  0.00     0.049 A 
ATOM     16  N   UNL A   1      40.127  28.866  29.466  1.00  0.00    -0.248 NA
ATOM     17  C   UNL A   1      38.773  28.826  27.567  1.00  0.00     0.031 C 
ATOM     18  C   UNL A   1      37.259  31.682  31.422  1.00  0.00     0.029 A 
ATOM     19  N   UNL A   1      39.217  30.624  31.640  1.00  0.00    -0.354 N 
ATOM     20  C   UNL A   1      40.670  27.985  28.538  1.00  0.00     0.074 A 
ATOM     21  C   UNL A   1      39.776  27.974  27.400  1.00  0.00     0.031 C 
ATOM     22  C   UNL A   1      37.743  31.982  32.635  1.00  0.00     0.029 A 
ATOM     23  C   UNL A   1      38.990  31.256  32.839  1.00  0.00     0.049 A 
ATOM     24  H   UNL A   1      40.032  30.105  31.446  1.00  0.00     0.167 HD
ATOM     25  C   UNL A   1      41.810  27.259  28.625  1.00  0.00     0.034 A 
ATOM     26  C   UNL A   1      39.682  31.225  33.994  1.00  0.00     0.034 A 
ATOM     27  C   UNL A   1      42.705  27.299  29.751  1.00  0.00     0.049 A 
ATOM     28  C   UNL A   1      40.950  30.424  34.063  1.00  0.00     0.074 A 
ATOM     29  C   UNL A   1      43.921  26.655  29.907  1.00  0.00     0.029 A 
ATOM     30  N   UNL A   1      42.478  28.011  30.920  1.00  0.00    -0.354 N 
ATOM     31  N   UNL A   1      41.508  29.691  33.131  1.00  0.00    -0.248 NA
ATOM     32  C   UNL A   1      41.698  30.466  35.326  1.00  0.00     0.031 C 
ATOM     33  C   UNL A   1      44.415  26.957  31.181  1.00  0.00     0.029 A 
ATOM     34  C   UNL A   1      43.524  27.815  31.806  1.00  0.00     0.049 A 
ATOM     35  H   UNL A   1      41.689  28.573  31.094  1.00  0.00     0.167 HD
ATOM     36  C   UNL A   1      42.691  29.213  33.680  1.00  0.00     0.074 A 
ATOM     37  C   UNL A   1      42.772  29.748  35.024  1.00  0.00     0.031 C 
ATOM     38  C   UNL A   1      43.620  28.401  33.121  1.00  0.00     0.034 A 
BRANCH  25  39
ATOM     39  C   UNL A   1      42.165  26.371  27.460  1.00  0.00     0.023 A 
ATOM     40  C   UNL A   1      42.863  26.907  26.358  1.00  0.00     0.012 A 
ATOM     41  C   UNL A   1      41.848  24.998  27.472  1.00  0.00     0.148 A 
ATOM     42  C   UNL A   1      43.200  26.102  25.270  1.00  0.00     0.002 A 
ATOM     43  C   UNL A   1      42.227  24.192  26.403  1.00  0.00     0.091 A 
ATOM     44  F   UNL A   1      41.167  24.506  28.517  1.00  0.00    -0.205 F 
ATOM     45  C   UNL A   1      42.890  24.745  25.296  1.00  0.00     0.022 A 
BRANCH  43  46
ATOM     46  S   UNL A   1      41.941  22.419  26.388  1.00  0.00     0.127 S 
ATOM     47  O   UNL A   1      42.624  22.021  25.157  1.00  0.00    -0.237 OA
ATOM     48  O   UNL A   1      42.605  21.986  27.619  1.00  0.00    -0.237 OA
ATOM     49  O   UNL A   1      40.495  22.250  26.392  1.00  0.00    -0.744 OA
ENDBRANCH  43  46
ENDBRANCH  25  39
BRANCH  26  50
ATOM     50  C   UNL A   1      39.190  32.014  35.158  1.00  0.00     0.023 A 
ATOM     51  C   UNL A   1      38.363  31.396  36.114  1.00  0.00     0.012 A 
ATOM     52  C   UNL A   1      39.613  33.342  35.367  1.00  0.00     0.148 A 
ATOM     53  C   UNL A   1      37.953  32.091  37.252  1.00  0.00     0.002 A 
ATOM     54  C   UNL A   1      39.249  34.009  36.530  1.00  0.00     0.091 A 
ATOM     55  F   UNL A   1      40.397  33.911  34.440  1.00  0.00    -0.205 F 
ATOM     56  C   UNL A   1      38.407  33.391  37.467  1.00  0.00     0.022 A 
BRANCH  54  57
ATOM     57  S   UNL A   1      39.900  35.627  36.962  1.00  0.00     0.127 S 
ATOM     58  O   UNL A   1      39.196  35.907  38.211  1.00  0.00    -0.237 OA
ATOM     59  O   UNL A   1      41.328  35.344  37.108  1.00  0.00    -0.237 OA
ATOM     60  O   UNL A   1      39.569  36.498  35.843  1.00  0.00    -0.744 OA
ENDBRANCH  54  57
ENDBRANCH  26  50
BRANCH  38  61
ATOM     61  C   UNL A   1      44.843  28.070  33.933  1.00  0.00     0.023 A 
ATOM     62  C   UNL A   1      45.957  28.929  33.914  1.00  0.00     0.012 A 
ATOM     63  C   UNL A   1      44.839  26.956  34.797  1.00  0.00     0.148 A 
ATOM     64  C   UNL A   1      47.060  28.674  34.729  1.00  0.00     0.002 A 
ATOM     65  C   UNL A   1      45.920  26.736  35.641  1.00  0.00     0.091 A 
ATOM     66  F   UNL A   1      43.775  26.140  34.783  1.00  0.00    -0.205 F 
ATOM     67  C   UNL A   1      47.036  27.588  35.602  1.00  0.00     0.022 A 
BRANCH  65  68
ATOM     68  S   UNL A   1      45.934  25.422  36.866  1.00  0.00     0.127 S 
ATOM     69  O   UNL A   1      44.739  25.732  37.650  1.00  0.00    -0.237 OA
ATOM     70  O   UNL A   1      45.824  24.223  36.035  1.00  0.00    -0.237 OA
ATOM     71  O   UNL A   1      47.197  25.550  37.580  1.00  0.00    -0.744 OA
ENDBRANCH  65  68
ENDBRANCH  38  61
ENDBRANCH  12  13
ENDBRANCH   5   7
ENDBRANCH   2   3
ENDBRANCH   1   2
BRANCH   1  72
ATOM     72  C   UNL A   1      32.508  27.037  26.581  1.00  0.00     0.117 C 
BRANCH  72  73
ATOM     73  N   UNL A   1      31.500  26.042  26.906  1.00  0.00    -0.354 N 
ATOM     74  C   UNL A   1      31.432  24.702  26.718  1.00  0.00     0.242 C 
ATOM     75  H   UNL A   1      30.706  26.417  27.352  1.00  0.00     0.163 HD
ATOM     76  O   UNL A   1      30.333  24.177  26.948  1.00  0.00    -0.273 OA
BRANCH  74  77
ATOM     77  C   UNL A   1      32.579  23.823  26.168  1.00  0.00     0.173 C 
BRANCH  77  78
ATOM     78  C   UNL A   1      33.360  23.035  27.233  1.00  0.00     0.063 C 
BRANCH  78  79
ATOM     79  C   UNL A   1      33.740  21.587  26.961  1.00  0.00     0.158 C 
BRANCH  79  80
ATOM     80  O   UNL A   1      35.140  21.378  26.943  1.00  0.00    -0.396 OA
ATOM     81  H   UNL A   1      35.536  21.771  27.737  1.00  0.00     0.210 HD
ENDBRANCH  79  80
ENDBRANCH  78  79
ENDBRANCH  77  78
BRANCH  77  82
ATOM     82  N   UNL A   1      32.263  23.042  24.970  1.00  0.00    -0.340 N 
ATOM     83  C   UNL A   1      32.026  23.440  23.678  1.00  0.00     0.258 C 
ATOM     84  H   UNL A   1      32.212  22.069  25.116  1.00  0.00     0.164 HD
ATOM     85  O   UNL A   1      31.712  22.614  22.829  1.00  0.00    -0.269 OA
BRANCH  83  86
ATOM     86  C   UNL A   1      32.170  24.845  23.265  1.00  0.00     0.118 A 
ATOM     87  C   UNL A   1      33.394  25.336  22.810  1.00  0.00     0.139 A 
ATOM     88  C   UNL A   1      31.041  25.667  23.212  1.00  0.00     0.216 A 
ATOM     89  F   UNL A   1      34.466  24.542  22.726  1.00  0.00    -0.206 F 
ATOM     90  C   UNL A   1      33.532  26.660  22.400  1.00  0.00     0.047 A 
ATOM     91  C   UNL A   1      31.162  26.982  22.751  1.00  0.00     0.305 A 
ATOM     92  F   UNL A   1      29.859  25.183  23.622  1.00  0.00    -0.198 F 
ATOM     93  C   UNL A   1      32.416  27.491  22.371  1.00  0.00     0.092 A 
BRANCH  91  94
ATOM     94  N   UNL A   1      29.984  27.843  22.626  1.00  0.00     0.065 N 
ATOM     95  O   UNL A   1      29.943  28.669  21.709  1.00  0.00    -0.258 OA
ATOM     96  O   UNL A   1      29.096  27.709  23.482  1.00  0.00    -0.258 OA
ENDBRANCH  91  94
ENDBRANCH  83  86
ENDBRANCH  77  82
ENDBRANCH  74  77
ENDBRANCH  72  73
ENDBRANCH   1  72
TORSDOF 19
ENDMDL
MODEL 3
REMARK VINA RESULT:     -11.4      5.369     10.147
REMARK SMILES O=C(NCCCNC(=O)[C@@H](CCO)NC(=O)c1c(F)ccc([N+](=O)[O-])c1F)c1ccc(-c2c3nc(c(-c4cccc(S(=O)(=O)[O-])c4F)c4ccc([nH]4)c(-c4cccc(S(=O)(=O)[O-])c4F)c4nc(c(-c5cccc(S(=O)(=O)[O-])c5F)c5ccc2[nH]5)C=C4)C=C3)cc1
REMARK SMILES IDX 5 1 4 2 3 3 1 4 2 5 28 7 29 8 90 9 30 10 89 11 31 12 32 13
REMARK SMILES IDX 33 14 83 15 34 16 88 17 82 18 84 19 35 20 87 21 81 22 80 23
REMARK SMILES IDX 36 25 68 26 48 27 67 28 49 29 52 30 66 31 85 32 50 33 51 34
REMARK SMILES IDX 65 36 86 37 53 38 37 39 38 40 46 41 39 42 41 43 47 44 40 45
REMARK SMILES IDX 42 46 43 47 44 48 45 49 69 50 70 51 78 52 71 53 73 54 79 55
REMARK SMILES IDX 72 56 74 57 75 58 76 59 77 60 54 61 55 62 63 63 56 64 58 65
REMARK SMILES IDX 64 66 57 67 59 68 60 69 61 70 62 71 6 72 7 73 8 74 9 76
REMARK SMILES IDX 10 77 11 78 12 79 13 80 14 82 15 83 16 85 17 86 18 87 26 88
REMARK SMILES IDX 19 89 20 90 22 91 27 92 21 93 23 94 24 95 25 96
REMARK H PARENT 3 6 84 24 52 35 7 75 13 81 14 84
REMARK Flexibility Score: inf
ROOT
ATOM      1  C   UNL A   1      32.743  27.976  25.571  1.00  0.00     0.042 C 
ENDROOT
BRANCH   1   2
ATOM      2  C   UNL A   1      33.366  29.270  25.064  1.00  0.00     0.118 C 
BRANCH   2   3
ATOM      3  N   UNL A   1      32.781  30.444  25.685  1.00  0.00    -0.352 N 
ATOM      4  O   UNL A   1      32.365  31.942  27.298  1.00  0.00    -0.269 OA
ATOM      5  C   UNL A   1      33.148  31.124  26.822  1.00  0.00     0.251 C 
ATOM      6  H   UNL A   1      31.996  30.811  25.218  1.00  0.00     0.163 HD
BRANCH   5   7
ATOM      7  C   UNL A   1      34.453  30.874  27.482  1.00  0.00     0.039 A 
ATOM      8  C   UNL A   1      35.396  31.891  27.655  1.00  0.00     0.014 A 
ATOM      9  C   UNL A   1      34.707  29.604  28.007  1.00  0.00     0.014 A 
ATOM     10  C   UNL A   1      36.634  31.611  28.229  1.00  0.00     0.010 A 
ATOM     11  C   UNL A   1      35.913  29.348  28.669  1.00  0.00     0.010 A 
ATOM     12  C   UNL A   1      36.897  30.344  28.765  1.00  0.00    -0.014 A 
BRANCH  12  13
ATOM     13  C   UNL A   1      38.159  30.085  29.505  1.00  0.00     0.031 A 
ATOM     14  C   UNL A   1      39.207  29.164  28.948  1.00  0.00     0.074 A 
ATOM     15  C   UNL A   1      38.325  30.638  30.723  1.00  0.00     0.049 A 
ATOM     16  N   UNL A   1      40.314  28.745  29.502  1.00  0.00    -0.248 NA
ATOM     17  C   UNL A   1      38.974  28.632  27.596  1.00  0.00     0.031 C 
ATOM     18  C   UNL A   1      37.360  31.520  31.386  1.00  0.00     0.029 A 
ATOM     19  N   UNL A   1      39.344  30.518  31.636  1.00  0.00    -0.354 N 
ATOM     20  C   UNL A   1      40.886  27.861  28.595  1.00  0.00     0.074 A 
ATOM     21  C   UNL A   1      40.001  27.804  27.451  1.00  0.00     0.031 C 
ATOM     22  C   UNL A   1      37.827  31.855  32.595  1.00  0.00     0.029 A 
ATOM     23  C   UNL A   1      39.092  31.167  32.822  1.00  0.00     0.049 A 
ATOM     24  H   UNL A   1      40.173  30.018  31.457  1.00  0.00     0.167 HD
ATOM     25  C   UNL A   1      42.045  27.167  28.703  1.00  0.00     0.034 A 
ATOM     26  C   UNL A   1      39.777  31.176  33.981  1.00  0.00     0.034 A 
ATOM     27  C   UNL A   1      42.931  27.253  29.833  1.00  0.00     0.049 A 
ATOM     28  C   UNL A   1      41.065  30.411  34.073  1.00  0.00     0.074 A 
ATOM     29  C   UNL A   1      44.162  26.645  30.009  1.00  0.00     0.029 A 
ATOM     30  N   UNL A   1      42.678  27.980  30.987  1.00  0.00    -0.354 N 
ATOM     31  N   UNL A   1      41.648  29.676  33.159  1.00  0.00    -0.248 NA
ATOM     32  C   UNL A   1      41.804  30.498  35.339  1.00  0.00     0.031 C 
ATOM     33  C   UNL A   1      44.640  26.984  31.279  1.00  0.00     0.029 A 
ATOM     34  C   UNL A   1      43.722  27.830  31.882  1.00  0.00     0.049 A 
ATOM     35  H   UNL A   1      41.873  28.525  31.145  1.00  0.00     0.167 HD
ATOM     36  C   UNL A   1      42.840  29.240  33.724  1.00  0.00     0.074 A 
ATOM     37  C   UNL A   1      42.898  29.803  35.058  1.00  0.00     0.031 C 
ATOM     38  C   UNL A   1      43.794  28.443  33.186  1.00  0.00     0.034 A 
BRANCH  25  39
ATOM     39  C   UNL A   1      42.431  26.267  27.556  1.00  0.00     0.023 A 
ATOM     40  C   UNL A   1      43.247  26.764  26.519  1.00  0.00     0.012 A 
ATOM     41  C   UNL A   1      42.025  24.918  27.526  1.00  0.00     0.148 A 
ATOM     42  C   UNL A   1      43.615  25.947  25.450  1.00  0.00     0.002 A 
ATOM     43  C   UNL A   1      42.432  24.098  26.479  1.00  0.00     0.091 A 
ATOM     44  F   UNL A   1      41.232  24.465  28.508  1.00  0.00    -0.205 F 
ATOM     45  C   UNL A   1      43.215  24.614  25.434  1.00  0.00     0.022 A 
BRANCH  43  46
ATOM     46  S   UNL A   1      42.032  22.347  26.418  1.00  0.00     0.127 S 
ATOM     47  O   UNL A   1      42.569  21.879  27.696  1.00  0.00    -0.237 OA
ATOM     48  O   UNL A   1      40.570  22.364  26.342  1.00  0.00    -0.237 OA
ATOM     49  O   UNL A   1      42.692  21.831  25.228  1.00  0.00    -0.744 OA
ENDBRANCH  43  46
ENDBRANCH  25  39
BRANCH  26  50
ATOM     50  C   UNL A   1      39.256  31.974  35.127  1.00  0.00     0.023 A 
ATOM     51  C   UNL A   1      38.382  31.372  36.050  1.00  0.00     0.012 A 
ATOM     52  C   UNL A   1      39.697  33.294  35.353  1.00  0.00     0.148 A 
ATOM     53  C   UNL A   1      37.943  32.074  37.173  1.00  0.00     0.002 A 
ATOM     54  C   UNL A   1      39.301  33.967  36.503  1.00  0.00     0.091 A 
ATOM     55  F   UNL A   1      40.526  33.848  34.457  1.00  0.00    -0.205 F 
ATOM     56  C   UNL A   1      38.413  33.365  37.406  1.00  0.00     0.022 A 
BRANCH  54  57
ATOM     57  S   UNL A   1      39.966  35.572  36.961  1.00  0.00     0.127 S 
ATOM     58  O   UNL A   1      39.577  36.393  35.816  1.00  0.00    -0.237 OA
ATOM     59  O   UNL A   1      39.238  35.854  38.198  1.00  0.00    -0.237 OA
ATOM     60  O   UNL A   1      41.398  35.372  37.136  1.00  0.00    -0.744 OA
ENDBRANCH  54  57
ENDBRANCH  26  50
BRANCH  38  61
ATOM     61  C   UNL A   1      45.020  28.160  34.012  1.00  0.00     0.023 A 
ATOM     62  C   UNL A   1      46.114  29.045  33.978  1.00  0.00     0.012 A 
ATOM     63  C   UNL A   1      45.038  27.067  34.902  1.00  0.00     0.148 A 
ATOM     64  C   UNL A   1      47.218  28.836  34.804  1.00  0.00     0.002 A 
ATOM     65  C   UNL A   1      46.119  26.893  35.757  1.00  0.00     0.091 A 
ATOM     66  F   UNL A   1      43.994  26.226  34.902  1.00  0.00    -0.205 F 
ATOM     67  C   UNL A   1      47.215  27.770  35.702  1.00  0.00     0.022 A 
BRANCH  65  68
ATOM     68  S   UNL A   1      46.157  25.609  37.013  1.00  0.00     0.127 S 
ATOM     69  O   UNL A   1      45.886  24.409  36.221  1.00  0.00    -0.237 OA
ATOM     70  O   UNL A   1      47.527  25.711  37.517  1.00  0.00    -0.237 OA
ATOM     71  O   UNL A   1      45.128  25.962  37.981  1.00  0.00    -0.744 OA
ENDBRANCH  65  68
ENDBRANCH  38  61
ENDBRANCH  12  13
ENDBRANCH   5   7
ENDBRANCH   2   3
ENDBRANCH   1   2
BRANCH   1  72
ATOM     72  C   UNL A   1      33.598  26.735  25.324  1.00  0.00     0.117 C 
BRANCH  72  73
ATOM     73  N   UNL A   1      33.811  26.517  23.904  1.00  0.00    -0.354 N 
ATOM     74  C   UNL A   1      33.157  25.779  22.975  1.00  0.00     0.242 C 
ATOM     75  H   UNL A   1      34.590  27.001  23.544  1.00  0.00     0.163 HD
ATOM     76  O   UNL A   1      33.722  25.663  21.878  1.00  0.00    -0.273 OA
BRANCH  74  77
ATOM     77  C   UNL A   1      31.830  25.023  23.215  1.00  0.00     0.173 C 
BRANCH  77  78
ATOM     78  C   UNL A   1      30.559  25.872  23.041  1.00  0.00     0.063 C 
BRANCH  78  79
ATOM     79  C   UNL A   1      29.589  26.010  24.205  1.00  0.00     0.158 C 
BRANCH  79  80
ATOM     80  O   UNL A   1      28.239  26.108  23.790  1.00  0.00    -0.396 OA
ATOM     81  H   UNL A   1      27.667  26.198  24.568  1.00  0.00     0.210 HD
ENDBRANCH  79  80
ENDBRANCH  78  79
ENDBRANCH  77  78
BRANCH  77  82
ATOM     82  N   UNL A   1      31.738  23.693  22.611  1.00  0.00    -0.340 N 
ATOM     83  C   UNL A   1      32.336  22.507  22.960  1.00  0.00     0.258 C 
ATOM     84  H   UNL A   1      31.150  23.640  21.822  1.00  0.00     0.164 HD
ATOM     85  O   UNL A   1      32.170  21.508  22.268  1.00  0.00    -0.269 OA
BRANCH  83  86
ATOM     86  C   UNL A   1      33.157  22.385  24.174  1.00  0.00     0.118 A 
ATOM     87  C   UNL A   1      32.595  21.970  25.382  1.00  0.00     0.139 A 
ATOM     88  C   UNL A   1      34.540  22.570  24.092  1.00  0.00     0.216 A 
ATOM     89  F   UNL A   1      31.296  21.661  25.466  1.00  0.00    -0.206 F 
ATOM     90  C   UNL A   1      33.370  21.836  26.530  1.00  0.00     0.047 A 
ATOM     91  C   UNL A   1      35.333  22.384  25.230  1.00  0.00     0.305 A 
ATOM     92  F   UNL A   1      35.083  22.940  22.924  1.00  0.00    -0.198 F 
ATOM     93  C   UNL A   1      34.745  22.045  26.461  1.00  0.00     0.092 A 
BRANCH  91  94
ATOM     94  N   UNL A   1      36.790  22.510  25.156  1.00  0.00     0.065 N 
ATOM     95  O   UNL A   1      37.408  21.822  24.336  1.00  0.00    -0.258 OA
ATOM     96  O   UNL A   1      37.329  23.290  25.956  1.00  0.00    -0.258 OA
ENDBRANCH  91  94
ENDBRANCH  83  86
ENDBRANCH  77  82
ENDBRANCH  74  77
ENDBRANCH  72  73
ENDBRANCH   1  72
TORSDOF 19
ENDMDL
