MODEL 1
REMARK VINA RESULT:     -13.3      0.000      0.000
REMARK SMILES Cc1cccc2nc([C@@H]3CCCC[C@@H]3C(=O)NCCCNC(=O)c3ccc(-c4c5nc(c(-c6cccc(S(=O)(=O)[O-])c6F)c6ccc([nH]6)c(-c6cccc(S(=O)(=O)[O-])c6F)c6nc(c(-c7cccc(S(=O)(=O)[O-])c7F)c7ccc4[nH]7)C=C6)C=C5)cc3)oc12
REMARK SMILES IDX 20 1 19 2 18 3 17 4 15 5 16 6 14 8 9 9 10 10 11 11 13 12
REMARK SMILES IDX 12 13 8 14 1 15 2 16 3 17 88 18 4 19 6 20 87 21 5 22 7 23
REMARK SMILES IDX 21 24 22 25 23 27 24 28 25 29 86 30 26 31 85 32 27 33 28 34
REMARK SMILES IDX 29 35 79 36 30 37 84 38 78 39 80 40 31 41 83 42 77 43 76 44
REMARK SMILES IDX 32 46 64 47 44 48 63 49 45 50 48 51 62 52 81 53 46 54 47 55
REMARK SMILES IDX 61 57 82 58 49 59 33 60 34 61 42 62 35 63 37 64 43 65 36 66
REMARK SMILES IDX 38 67 39 68 40 69 41 70 65 71 66 72 74 73 67 74 69 75 75 76
REMARK SMILES IDX 68 77 70 78 71 79 72 80 73 81 50 82 51 83 59 84 52 85 54 86
REMARK SMILES IDX 60 87 53 88 55 89 56 90 57 91 58 92
REMARK H PARENT 17 7 21 26 80 45 48 56
REMARK Flexibility Score: inf
ROOT
ATOM      1  C   UNL A   1      32.539  32.326  27.232  1.00  0.00     0.118 C 
ENDROOT
BRANCH   1   2
ATOM      2  C   UNL A   1      31.440  31.657  26.448  1.00  0.00     0.042 C 
BRANCH   2   3
ATOM      3  C   UNL A   1      31.944  30.347  25.854  1.00  0.00     0.117 C 
BRANCH   3   4
ATOM      4  N   UNL A   1      31.504  29.170  26.572  1.00  0.00    -0.356 N 
ATOM      5  C   UNL A   1      31.716  27.840  26.443  1.00  0.00     0.223 C 
ATOM      6  O   UNL A   1      31.021  27.139  27.187  1.00  0.00    -0.275 OA
ATOM      7  H   UNL A   1      30.916  29.387  27.331  1.00  0.00     0.163 HD
BRANCH   5   8
ATOM      8  C   UNL A   1      32.652  27.150  25.433  1.00  0.00     0.091 C 
ATOM      9  C   UNL A   1      31.955  26.636  24.146  1.00  0.00     0.088 C 
ATOM     10  C   UNL A   1      31.237  25.297  24.357  1.00  0.00     0.014 C 
ATOM     11  C   UNL A   1      32.213  24.228  24.840  1.00  0.00     0.001 C 
ATOM     12  C   UNL A   1      33.611  26.052  25.907  1.00  0.00     0.014 C 
ATOM     13  C   UNL A   1      32.931  24.687  26.097  1.00  0.00     0.001 C 
BRANCH   9  14
ATOM     14  C   UNL A   1      31.065  27.602  23.445  1.00  0.00     0.199 A 
ATOM     15  C   UNL A   1      26.727  28.098  23.705  1.00  0.00     0.048 C 
ATOM     16  C   UNL A   1      27.797  28.833  22.966  1.00  0.00    -0.006 A 
ATOM     17  C   UNL A   1      27.498  29.939  22.147  1.00  0.00     0.007 A 
ATOM     18  C   UNL A   1      29.153  28.506  23.023  1.00  0.00     0.157 A 
ATOM     19  C   UNL A   1      28.494  30.643  21.457  1.00  0.00     0.003 A 
ATOM     20  C   UNL A   1      30.171  29.201  22.390  1.00  0.00     0.110 A 
ATOM     21  O   UNL A   1      29.724  27.468  23.703  1.00  0.00    -0.440 OA
ATOM     22  C   UNL A   1      29.846  30.290  21.575  1.00  0.00     0.032 A 
ATOM     23  N   UNL A   1      31.384  28.662  22.731  1.00  0.00    -0.213 NA
ENDBRANCH   9  14
ENDBRANCH   5   8
ENDBRANCH   3   4
ENDBRANCH   2   3
ENDBRANCH   1   2
BRANCH   1  24
ATOM     24  N   UNL A   1      32.238  33.737  27.535  1.00  0.00    -0.352 N 
ATOM     25  C   UNL A   1      32.903  34.565  28.418  1.00  0.00     0.251 C 
ATOM     26  H   UNL A   1      31.478  34.135  27.053  1.00  0.00     0.163 HD
ATOM     27  O   UNL A   1      32.450  35.655  28.753  1.00  0.00    -0.269 OA
BRANCH  25  28
ATOM     28  C   UNL A   1      34.190  34.086  28.925  1.00  0.00     0.039 A 
ATOM     29  C   UNL A   1      34.331  33.504  30.186  1.00  0.00     0.014 A 
ATOM     30  C   UNL A   1      35.239  34.121  28.012  1.00  0.00     0.014 A 
ATOM     31  C   UNL A   1      35.543  32.903  30.495  1.00  0.00     0.010 A 
ATOM     32  C   UNL A   1      36.307  33.308  28.210  1.00  0.00     0.010 A 
ATOM     33  C   UNL A   1      36.512  32.812  29.490  1.00  0.00    -0.014 A 
BRANCH  33  34
ATOM     34  C   UNL A   1      37.824  32.256  29.722  1.00  0.00     0.031 A 
ATOM     35  C   UNL A   1      38.041  30.875  29.230  1.00  0.00     0.074 A 
ATOM     36  C   UNL A   1      38.826  33.086  30.077  1.00  0.00     0.049 A 
ATOM     37  N   UNL A   1      38.284  29.820  29.935  1.00  0.00    -0.248 NA
ATOM     38  C   UNL A   1      37.856  30.608  27.795  1.00  0.00     0.031 C 
ATOM     39  C   UNL A   1      38.812  34.553  30.210  1.00  0.00     0.029 A 
ATOM     40  N   UNL A   1      40.135  32.791  30.213  1.00  0.00    -0.354 N 
ATOM     41  C   UNL A   1      38.477  28.791  29.018  1.00  0.00     0.074 A 
ATOM     42  C   UNL A   1      38.020  29.286  27.743  1.00  0.00     0.031 C 
ATOM     43  C   UNL A   1      40.079  35.018  30.134  1.00  0.00     0.029 A 
ATOM     44  C   UNL A   1      40.983  33.886  30.126  1.00  0.00     0.049 A 
ATOM     45  H   UNL A   1      40.463  31.874  30.362  1.00  0.00     0.167 HD
ATOM     46  C   UNL A   1      39.196  27.675  29.319  1.00  0.00     0.034 A 
ATOM     47  C   UNL A   1      42.324  33.819  29.961  1.00  0.00     0.034 A 
ATOM     48  C   UNL A   1      39.505  27.590  30.721  1.00  0.00     0.049 A 
ATOM     49  C   UNL A   1      42.724  32.461  30.427  1.00  0.00     0.074 A 
ATOM     50  C   UNL A   1      38.742  27.510  31.870  1.00  0.00     0.029 A 
ATOM     51  N   UNL A   1      40.736  28.061  31.123  1.00  0.00    -0.354 N 
ATOM     52  N   UNL A   1      42.544  32.036  31.650  1.00  0.00    -0.248 NA
ATOM     53  C   UNL A   1      42.870  31.419  29.421  1.00  0.00     0.031 C 
ATOM     54  C   UNL A   1      39.371  28.407  32.786  1.00  0.00     0.029 A 
ATOM     55  C   UNL A   1      40.514  28.924  32.170  1.00  0.00     0.049 A 
ATOM     56  H   UNL A   1      41.608  27.824  30.734  1.00  0.00     0.167 HD
ATOM     57  C   UNL A   1      42.124  30.717  31.512  1.00  0.00     0.074 A 
ATOM     58  C   UNL A   1      42.432  30.368  30.123  1.00  0.00     0.031 C 
ATOM     59  C   UNL A   1      41.293  30.122  32.422  1.00  0.00     0.034 A 
BRANCH  46  60
ATOM     60  C   UNL A   1      39.855  26.800  28.295  1.00  0.00     0.023 A 
ATOM     61  C   UNL A   1      39.476  25.447  28.212  1.00  0.00     0.012 A 
ATOM     62  C   UNL A   1      40.967  27.215  27.528  1.00  0.00     0.148 A 
ATOM     63  C   UNL A   1      40.161  24.551  27.382  1.00  0.00     0.002 A 
ATOM     64  C   UNL A   1      41.592  26.343  26.645  1.00  0.00     0.091 A 
ATOM     65  F   UNL A   1      41.496  28.427  27.740  1.00  0.00    -0.205 F 
ATOM     66  C   UNL A   1      41.204  25.004  26.581  1.00  0.00     0.022 A 
BRANCH  64  67
ATOM     67  S   UNL A   1      42.897  26.899  25.544  1.00  0.00     0.127 S 
ATOM     68  O   UNL A   1      43.907  27.360  26.491  1.00  0.00    -0.237 OA
ATOM     69  O   UNL A   1      43.232  25.667  24.828  1.00  0.00    -0.237 OA
ATOM     70  O   UNL A   1      42.281  27.923  24.708  1.00  0.00    -0.744 OA
ENDBRANCH  64  67
ENDBRANCH  46  60
BRANCH  47  71
ATOM     71  C   UNL A   1      43.184  34.679  29.105  1.00  0.00     0.023 A 
ATOM     72  C   UNL A   1      43.341  34.351  27.745  1.00  0.00     0.012 A 
ATOM     73  C   UNL A   1      43.636  35.952  29.531  1.00  0.00     0.148 A 
ATOM     74  C   UNL A   1      43.884  35.269  26.835  1.00  0.00     0.002 A 
ATOM     75  C   UNL A   1      44.196  36.852  28.628  1.00  0.00     0.091 A 
ATOM     76  F   UNL A   1      43.428  36.330  30.799  1.00  0.00    -0.205 F 
ATOM     77  C   UNL A   1      44.305  36.521  27.274  1.00  0.00     0.022 A 
BRANCH  75  78
ATOM     78  S   UNL A   1      44.765  38.479  29.142  1.00  0.00     0.127 S 
ATOM     79  O   UNL A   1      45.349  39.006  27.907  1.00  0.00    -0.237 OA
ATOM     80  O   UNL A   1      43.520  39.119  29.554  1.00  0.00    -0.237 OA
ATOM     81  O   UNL A   1      45.739  38.230  30.199  1.00  0.00    -0.744 OA
ENDBRANCH  75  78
ENDBRANCH  47  71
BRANCH  59  82
ATOM     82  C   UNL A   1      40.926  30.892  33.676  1.00  0.00     0.023 A 
ATOM     83  C   UNL A   1      41.865  31.122  34.706  1.00  0.00     0.012 A 
ATOM     84  C   UNL A   1      39.708  31.588  33.718  1.00  0.00     0.148 A 
ATOM     85  C   UNL A   1      41.599  32.011  35.752  1.00  0.00     0.002 A 
ATOM     86  C   UNL A   1      39.458  32.498  34.741  1.00  0.00     0.091 A 
ATOM     87  F   UNL A   1      38.832  31.383  32.723  1.00  0.00    -0.205 F 
ATOM     88  C   UNL A   1      40.399  32.711  35.763  1.00  0.00     0.022 A 
BRANCH  86  89
ATOM     89  S   UNL A   1      37.982  33.520  34.766  1.00  0.00     0.127 S 
ATOM     90  O   UNL A   1      38.171  34.299  35.989  1.00  0.00    -0.237 OA
ATOM     91  O   UNL A   1      38.114  34.288  33.526  1.00  0.00    -0.237 OA
ATOM     92  O   UNL A   1      36.852  32.600  34.783  1.00  0.00    -0.744 OA
ENDBRANCH  86  89
ENDBRANCH  59  82
ENDBRANCH  33  34
ENDBRANCH  25  28
ENDBRANCH   1  24
TORSDOF 14
ENDMDL
MODEL 2
REMARK VINA RESULT:     -13.3      5.191     10.599
REMARK SMILES Cc1cccc2nc([C@@H]3CCCC[C@@H]3C(=O)NCCCNC(=O)c3ccc(-c4c5nc(c(-c6cccc(S(=O)(=O)[O-])c6F)c6ccc([nH]6)c(-c6cccc(S(=O)(=O)[O-])c6F)c6nc(c(-c7cccc(S(=O)(=O)[O-])c7F)c7ccc4[nH]7)C=C6)C=C5)cc3)oc12
REMARK SMILES IDX 20 1 19 2 18 3 17 4 15 5 16 6 14 8 9 9 10 10 11 11 13 12
REMARK SMILES IDX 12 13 8 14 1 15 2 16 3 17 88 18 4 19 6 20 87 21 5 22 7 23
REMARK SMILES IDX 21 24 22 25 23 27 24 28 25 29 86 30 26 31 85 32 27 33 28 34
REMARK SMILES IDX 29 35 79 36 30 37 84 38 78 39 80 40 31 41 83 42 77 43 76 44
REMARK SMILES IDX 32 46 64 47 44 48 63 49 45 50 48 51 62 52 81 53 46 54 47 55
REMARK SMILES IDX 61 57 82 58 49 59 33 60 34 61 42 62 35 63 37 64 43 65 36 66
REMARK SMILES IDX 38 67 39 68 40 69 41 70 65 71 66 72 74 73 67 74 69 75 75 76
REMARK SMILES IDX 68 77 70 78 71 79 72 80 73 81 50 82 51 83 59 84 52 85 54 86
REMARK SMILES IDX 60 87 53 88 55 89 56 90 57 91 58 92
REMARK H PARENT 17 7 21 26 80 45 48 56
REMARK Flexibility Score: inf
ROOT
ATOM      1  C   UNL A   1      38.923  20.301  25.524  1.00  0.00     0.118 C 
ENDROOT
BRANCH   1   2
ATOM      2  C   UNL A   1      37.570  19.872  25.015  1.00  0.00     0.042 C 
BRANCH   2   3
ATOM      3  C   UNL A   1      36.553  20.986  25.232  1.00  0.00     0.117 C 
BRANCH   3   4
ATOM      4  N   UNL A   1      36.339  21.820  24.070  1.00  0.00    -0.356 N 
ATOM      5  C   UNL A   1      35.522  22.858  23.778  1.00  0.00     0.223 C 
ATOM      6  O   UNL A   1      35.542  23.206  22.592  1.00  0.00    -0.275 OA
ATOM      7  H   UNL A   1      36.924  21.576  23.316  1.00  0.00     0.163 HD
BRANCH   5   8
ATOM      8  C   UNL A   1      34.549  23.563  24.742  1.00  0.00     0.091 C 
ATOM      9  C   UNL A   1      33.094  23.027  24.704  1.00  0.00     0.088 C 
ATOM     10  C   UNL A   1      32.289  23.585  23.524  1.00  0.00     0.014 C 
ATOM     11  C   UNL A   1      32.244  25.109  23.570  1.00  0.00     0.001 C 
ATOM     12  C   UNL A   1      34.476  25.095  24.769  1.00  0.00     0.014 C 
ATOM     13  C   UNL A   1      33.647  25.687  23.618  1.00  0.00     0.001 C 
BRANCH   9  14
ATOM     14  C   UNL A   1      32.931  21.550  24.798  1.00  0.00     0.199 A 
ATOM     15  C   UNL A   1      32.300  18.604  21.628  1.00  0.00     0.048 C 
ATOM     16  C   UNL A   1      32.476  18.492  23.107  1.00  0.00    -0.006 A 
ATOM     17  C   UNL A   1      32.464  17.242  23.755  1.00  0.00     0.007 A 
ATOM     18  C   UNL A   1      32.671  19.582  23.956  1.00  0.00     0.157 A 
ATOM     19  C   UNL A   1      32.639  17.123  25.140  1.00  0.00     0.003 A 
ATOM     20  C   UNL A   1      32.889  19.503  25.322  1.00  0.00     0.110 A 
ATOM     21  O   UNL A   1      32.692  20.903  23.612  1.00  0.00    -0.440 OA
ATOM     22  C   UNL A   1      32.862  18.251  25.943  1.00  0.00     0.032 A 
ATOM     23  N   UNL A   1      33.129  20.753  25.828  1.00  0.00    -0.213 NA
ENDBRANCH   9  14
ENDBRANCH   5   8
ENDBRANCH   3   4
ENDBRANCH   2   3
ENDBRANCH   1   2
BRANCH   1  24
ATOM     24  N   UNL A   1      39.868  19.175  25.631  1.00  0.00    -0.352 N 
ATOM     25  C   UNL A   1      41.205  19.232  25.975  1.00  0.00     0.251 C 
ATOM     26  H   UNL A   1      39.506  18.280  25.438  1.00  0.00     0.163 HD
ATOM     27  O   UNL A   1      41.953  18.270  25.834  1.00  0.00    -0.269 OA
BRANCH  25  28
ATOM     28  C   UNL A   1      41.685  20.497  26.534  1.00  0.00     0.039 A 
ATOM     29  C   UNL A   1      42.426  21.414  25.787  1.00  0.00     0.014 A 
ATOM     30  C   UNL A   1      41.235  20.788  27.818  1.00  0.00     0.014 A 
ATOM     31  C   UNL A   1      42.664  22.665  26.341  1.00  0.00     0.010 A 
ATOM     32  C   UNL A   1      41.232  22.080  28.232  1.00  0.00     0.010 A 
ATOM     33  C   UNL A   1      42.052  22.976  27.559  1.00  0.00    -0.014 A 
BRANCH  33  34
ATOM     34  C   UNL A   1      42.275  24.226  28.245  1.00  0.00     0.031 A 
ATOM     35  C   UNL A   1      41.208  25.245  28.107  1.00  0.00     0.074 A 
ATOM     36  C   UNL A   1      43.245  24.287  29.181  1.00  0.00     0.049 A 
ATOM     37  N   UNL A   1      41.294  26.399  27.533  1.00  0.00    -0.248 NA
ATOM     38  C   UNL A   1      39.851  24.899  28.558  1.00  0.00     0.031 C 
ATOM     39  C   UNL A   1      44.114  23.211  29.688  1.00  0.00     0.029 A 
ATOM     40  N   UNL A   1      43.526  25.309  30.015  1.00  0.00    -0.354 N 
ATOM     41  C   UNL A   1      40.057  27.006  27.723  1.00  0.00     0.074 A 
ATOM     42  C   UNL A   1      39.160  25.978  28.186  1.00  0.00     0.031 C 
ATOM     43  C   UNL A   1      44.608  23.569  30.894  1.00  0.00     0.029 A 
ATOM     44  C   UNL A   1      44.234  24.944  31.152  1.00  0.00     0.049 A 
ATOM     45  H   UNL A   1      43.251  26.237  29.834  1.00  0.00     0.167 HD
ATOM     46  C   UNL A   1      39.899  28.359  27.693  1.00  0.00     0.034 A 
ATOM     47  C   UNL A   1      44.396  25.720  32.249  1.00  0.00     0.034 A 
ATOM     48  C   UNL A   1      41.077  29.032  27.215  1.00  0.00     0.049 A 
ATOM     49  C   UNL A   1      44.168  27.121  31.794  1.00  0.00     0.074 A 
ATOM     50  C   UNL A   1      41.786  29.004  26.030  1.00  0.00     0.029 A 
ATOM     51  N   UNL A   1      41.955  29.511  28.163  1.00  0.00    -0.354 N 
ATOM     52  N   UNL A   1      44.902  27.714  30.888  1.00  0.00    -0.248 NA
ATOM     53  C   UNL A   1      42.840  27.684  31.984  1.00  0.00     0.031 C 
ATOM     54  C   UNL A   1      43.156  28.971  26.428  1.00  0.00     0.029 A 
ATOM     55  C   UNL A   1      43.204  29.052  27.822  1.00  0.00     0.049 A 
ATOM     56  H   UNL A   1      41.728  30.075  28.937  1.00  0.00     0.167 HD
ATOM     57  C   UNL A   1      43.998  28.426  30.106  1.00  0.00     0.074 A 
ATOM     58  C   UNL A   1      42.758  28.441  30.885  1.00  0.00     0.031 C 
ATOM     59  C   UNL A   1      44.227  28.674  28.780  1.00  0.00     0.034 A 
BRANCH  46  60
ATOM     60  C   UNL A   1      38.769  29.086  28.357  1.00  0.00     0.023 A 
ATOM     61  C   UNL A   1      37.858  29.803  27.559  1.00  0.00     0.012 A 
ATOM     62  C   UNL A   1      38.672  29.244  29.759  1.00  0.00     0.148 A 
ATOM     63  C   UNL A   1      36.878  30.622  28.131  1.00  0.00     0.002 A 
ATOM     64  C   UNL A   1      37.648  29.991  30.325  1.00  0.00     0.091 A 
ATOM     65  F   UNL A   1      39.645  28.762  30.542  1.00  0.00    -0.205 F 
ATOM     66  C   UNL A   1      36.758  30.698  29.515  1.00  0.00     0.022 A 
BRANCH  64  67
ATOM     67  S   UNL A   1      37.413  30.064  32.104  1.00  0.00     0.127 S 
ATOM     68  O   UNL A   1      37.267  28.651  32.441  1.00  0.00    -0.237 OA
ATOM     69  O   UNL A   1      38.662  30.682  32.548  1.00  0.00    -0.237 OA
ATOM     70  O   UNL A   1      36.234  30.899  32.299  1.00  0.00    -0.744 OA
ENDBRANCH  64  67
ENDBRANCH  46  60
BRANCH  47  71
ATOM     71  C   UNL A   1      44.357  25.305  33.676  1.00  0.00     0.023 A 
ATOM     72  C   UNL A   1      43.152  25.434  34.394  1.00  0.00     0.012 A 
ATOM     73  C   UNL A   1      45.396  24.545  34.267  1.00  0.00     0.148 A 
ATOM     74  C   UNL A   1      42.971  24.796  35.629  1.00  0.00     0.002 A 
ATOM     75  C   UNL A   1      45.219  23.931  35.505  1.00  0.00     0.091 A 
ATOM     76  F   UNL A   1      46.525  24.331  33.578  1.00  0.00    -0.205 F 
ATOM     77  C   UNL A   1      44.000  24.040  36.181  1.00  0.00     0.022 A 
BRANCH  75  78
ATOM     78  S   UNL A   1      46.519  22.951  36.270  1.00  0.00     0.127 S 
ATOM     79  O   UNL A   1      45.927  22.612  37.565  1.00  0.00    -0.237 OA
ATOM     80  O   UNL A   1      46.641  21.832  35.340  1.00  0.00    -0.237 OA
ATOM     81  O   UNL A   1      47.671  23.840  36.358  1.00  0.00    -0.744 OA
ENDBRANCH  75  78
ENDBRANCH  47  71
BRANCH  59  82
ATOM     82  C   UNL A   1      45.561  28.265  28.188  1.00  0.00     0.023 A 
ATOM     83  C   UNL A   1      46.739  29.007  28.431  1.00  0.00     0.012 A 
ATOM     84  C   UNL A   1      45.682  27.006  27.582  1.00  0.00     0.148 A 
ATOM     85  C   UNL A   1      47.999  28.516  28.075  1.00  0.00     0.002 A 
ATOM     86  C   UNL A   1      46.940  26.502  27.258  1.00  0.00     0.091 A 
ATOM     87  F   UNL A   1      44.563  26.296  27.377  1.00  0.00    -0.205 F 
ATOM     88  C   UNL A   1      48.101  27.256  27.499  1.00  0.00     0.022 A 
BRANCH  86  89
ATOM     89  S   UNL A   1      47.164  24.842  26.614  1.00  0.00     0.127 S 
ATOM     90  O   UNL A   1      46.929  25.034  25.184  1.00  0.00    -0.237 OA
ATOM     91  O   UNL A   1      48.556  24.556  26.971  1.00  0.00    -0.237 OA
ATOM     92  O   UNL A   1      46.187  24.006  27.299  1.00  0.00    -0.744 OA
ENDBRANCH  86  89
ENDBRANCH  59  82
ENDBRANCH  33  34
ENDBRANCH  25  28
ENDBRANCH   1  24
TORSDOF 14
ENDMDL
MODEL 3
REMARK VINA RESULT:     -12.8      5.009     10.227
REMARK SMILES Cc1cccc2nc([C@@H]3CCCC[C@@H]3C(=O)NCCCNC(=O)c3ccc(-c4c5nc(c(-c6cccc(S(=O)(=O)[O-])c6F)c6ccc([nH]6)c(-c6cccc(S(=O)(=O)[O-])c6F)c6nc(c(-c7cccc(S(=O)(=O)[O-])c7F)c7ccc4[nH]7)C=C6)C=C5)cc3)oc12
REMARK SMILES IDX 20 1 19 2 18 3 17 4 15 5 16 6 14 8 9 9 10 10 11 11 13 12
REMARK SMILES IDX 12 13 8 14 1 15 2 16 3 17 88 18 4 19 6 20 87 21 5 22 7 23
REMARK SMILES IDX 21 24 22 25 23 27 24 28 25 29 86 30 26 31 85 32 27 33 28 34
REMARK SMILES IDX 29 35 79 36 30 37 84 38 78 39 80 40 31 41 83 42 77 43 76 44
REMARK SMILES IDX 32 46 64 47 44 48 63 49 45 50 48 51 62 52 81 53 46 54 47 55
REMARK SMILES IDX 61 57 82 58 49 59 33 60 34 61 42 62 35 63 37 64 43 65 36 66
REMARK SMILES IDX 38 67 39 68 40 69 41 70 65 71 66 72 74 73 67 74 69 75 75 76
REMARK SMILES IDX 68 77 70 78 71 79 72 80 73 81 50 82 51 83 59 84 52 85 54 86
REMARK SMILES IDX 60 87 53 88 55 89 56 90 57 91 58 92
REMARK H PARENT 17 7 21 26 80 45 48 56
REMARK Flexibility Score: inf
ROOT
ATOM      1  C   UNL A   1      38.955  20.269  25.777  1.00  0.00     0.118 C 
ENDROOT
BRANCH   1   2
ATOM      2  C   UNL A   1      37.818  19.960  24.837  1.00  0.00     0.042 C 
BRANCH   2   3
ATOM      3  C   UNL A   1      36.645  20.893  25.112  1.00  0.00     0.117 C 
BRANCH   3   4
ATOM      4  N   UNL A   1      36.334  21.783  24.014  1.00  0.00    -0.356 N 
ATOM      5  C   UNL A   1      35.495  22.831  23.844  1.00  0.00     0.223 C 
ATOM      6  O   UNL A   1      35.417  23.237  22.680  1.00  0.00    -0.275 OA
ATOM      7  H   UNL A   1      36.855  21.581  23.204  1.00  0.00     0.163 HD
BRANCH   5   8
ATOM      8  C   UNL A   1      34.604  23.481  24.920  1.00  0.00     0.091 C 
ATOM      9  C   UNL A   1      33.146  22.954  24.962  1.00  0.00     0.088 C 
ATOM     10  C   UNL A   1      32.258  23.585  23.882  1.00  0.00     0.014 C 
ATOM     11  C   UNL A   1      32.230  25.103  24.021  1.00  0.00     0.001 C 
ATOM     12  C   UNL A   1      34.546  25.009  25.042  1.00  0.00     0.014 C 
ATOM     13  C   UNL A   1      33.637  25.671  23.995  1.00  0.00     0.001 C 
BRANCH   9  14
ATOM     14  C   UNL A   1      32.978  21.475  24.981  1.00  0.00     0.199 A 
ATOM     15  C   UNL A   1      32.318  18.697  21.668  1.00  0.00     0.048 C 
ATOM     16  C   UNL A   1      32.503  18.508  23.138  1.00  0.00    -0.006 A 
ATOM     17  C   UNL A   1      32.489  17.227  23.722  1.00  0.00     0.007 A 
ATOM     18  C   UNL A   1      32.706  19.553  24.041  1.00  0.00     0.157 A 
ATOM     19  C   UNL A   1      32.672  17.037  25.098  1.00  0.00     0.003 A 
ATOM     20  C   UNL A   1      32.932  19.404  25.400  1.00  0.00     0.110 A 
ATOM     21  O   UNL A   1      32.730  20.890  23.765  1.00  0.00    -0.440 OA
ATOM     22  C   UNL A   1      32.904  18.121  25.956  1.00  0.00     0.032 A 
ATOM     23  N   UNL A   1      33.180  20.626  25.968  1.00  0.00    -0.213 NA
ENDBRANCH   9  14
ENDBRANCH   5   8
ENDBRANCH   3   4
ENDBRANCH   2   3
ENDBRANCH   1   2
BRANCH   1  24
ATOM     24  N   UNL A   1      39.967  19.197  25.811  1.00  0.00    -0.352 N 
ATOM     25  C   UNL A   1      41.320  19.328  26.055  1.00  0.00     0.251 C 
ATOM     26  H   UNL A   1      39.641  18.284  25.642  1.00  0.00     0.163 HD
ATOM     27  O   UNL A   1      42.108  18.409  25.856  1.00  0.00    -0.269 OA
BRANCH  25  28
ATOM     28  C   UNL A   1      41.770  20.618  26.581  1.00  0.00     0.039 A 
ATOM     29  C   UNL A   1      42.431  21.561  25.792  1.00  0.00     0.014 A 
ATOM     30  C   UNL A   1      41.372  20.900  27.883  1.00  0.00     0.014 A 
ATOM     31  C   UNL A   1      42.639  22.827  26.324  1.00  0.00     0.010 A 
ATOM     32  C   UNL A   1      41.331  22.195  28.289  1.00  0.00     0.010 A 
ATOM     33  C   UNL A   1      42.075  23.120  27.570  1.00  0.00    -0.014 A 
BRANCH  33  34
ATOM     34  C   UNL A   1      42.276  24.385  28.236  1.00  0.00     0.031 A 
ATOM     35  C   UNL A   1      41.195  25.386  28.073  1.00  0.00     0.074 A 
ATOM     36  C   UNL A   1      43.237  24.476  29.177  1.00  0.00     0.049 A 
ATOM     37  N   UNL A   1      41.269  26.531  27.479  1.00  0.00    -0.248 NA
ATOM     38  C   UNL A   1      39.839  25.029  28.519  1.00  0.00     0.031 C 
ATOM     39  C   UNL A   1      44.118  23.422  29.709  1.00  0.00     0.029 A 
ATOM     40  N   UNL A   1      43.498  25.516  29.996  1.00  0.00    -0.354 N 
ATOM     41  C   UNL A   1      40.022  27.124  27.649  1.00  0.00     0.074 A 
ATOM     42  C   UNL A   1      39.136  26.091  28.124  1.00  0.00     0.031 C 
ATOM     43  C   UNL A   1      44.597  23.807  30.912  1.00  0.00     0.029 A 
ATOM     44  C   UNL A   1      44.203  25.181  31.144  1.00  0.00     0.049 A 
ATOM     45  H   UNL A   1      43.211  26.437  29.796  1.00  0.00     0.167 HD
ATOM     46  C   UNL A   1      39.846  28.473  27.594  1.00  0.00     0.034 A 
ATOM     47  C   UNL A   1      44.345  25.978  32.228  1.00  0.00     0.034 A 
ATOM     48  C   UNL A   1      41.017  29.155  27.113  1.00  0.00     0.049 A 
ATOM     49  C   UNL A   1      44.101  27.368  31.747  1.00  0.00     0.074 A 
ATOM     50  C   UNL A   1      41.735  29.117  25.934  1.00  0.00     0.029 A 
ATOM     51  N   UNL A   1      41.881  29.663  28.059  1.00  0.00    -0.354 N 
ATOM     52  N   UNL A   1      44.833  27.955  30.837  1.00  0.00    -0.248 NA
ATOM     53  C   UNL A   1      42.763  27.915  31.918  1.00  0.00     0.031 C 
ATOM     54  C   UNL A   1      43.103  29.109  26.342  1.00  0.00     0.029 A 
ATOM     55  C   UNL A   1      43.140  29.216  27.735  1.00  0.00     0.049 A 
ATOM     56  H   UNL A   1      41.641  30.237  28.822  1.00  0.00     0.167 HD
ATOM     57  C   UNL A   1      43.925  28.641  30.036  1.00  0.00     0.074 A 
ATOM     58  C   UNL A   1      42.679  28.651  30.805  1.00  0.00     0.031 C 
ATOM     59  C   UNL A   1      44.161  28.869  28.707  1.00  0.00     0.034 A 
BRANCH  46  60
ATOM     60  C   UNL A   1      38.701  29.196  28.238  1.00  0.00     0.023 A 
ATOM     61  C   UNL A   1      37.805  29.915  27.423  1.00  0.00     0.012 A 
ATOM     62  C   UNL A   1      38.574  29.347  29.637  1.00  0.00     0.148 A 
ATOM     63  C   UNL A   1      36.812  30.729  27.979  1.00  0.00     0.002 A 
ATOM     64  C   UNL A   1      37.536  30.090  30.185  1.00  0.00     0.091 A 
ATOM     65  F   UNL A   1      39.530  28.863  30.440  1.00  0.00    -0.205 F 
ATOM     66  C   UNL A   1      36.662  30.799  29.360  1.00  0.00     0.022 A 
BRANCH  64  67
ATOM     67  S   UNL A   1      37.263  30.155  31.959  1.00  0.00     0.127 S 
ATOM     68  O   UNL A   1      38.377  30.988  32.400  1.00  0.00    -0.237 OA
ATOM     69  O   UNL A   1      35.946  30.787  32.038  1.00  0.00    -0.237 OA
ATOM     70  O   UNL A   1      37.282  28.765  32.399  1.00  0.00    -0.744 OA
ENDBRANCH  64  67
ENDBRANCH  46  60
BRANCH  47  71
ATOM     71  C   UNL A   1      44.301  25.587  33.661  1.00  0.00     0.023 A 
ATOM     72  C   UNL A   1      45.453  25.040  34.259  1.00  0.00     0.012 A 
ATOM     73  C   UNL A   1      43.242  25.981  34.516  1.00  0.00     0.148 A 
ATOM     74  C   UNL A   1      45.568  24.931  35.652  1.00  0.00     0.002 A 
ATOM     75  C   UNL A   1      43.352  25.850  35.899  1.00  0.00     0.091 A 
ATOM     76  F   UNL A   1      42.166  26.581  33.992  1.00  0.00    -0.205 F 
ATOM     77  C   UNL A   1      44.521  25.341  36.472  1.00  0.00     0.022 A 
BRANCH  75  78
ATOM     78  S   UNL A   1      42.026  26.355  37.005  1.00  0.00     0.127 S 
ATOM     79  O   UNL A   1      42.612  26.101  38.323  1.00  0.00    -0.237 OA
ATOM     80  O   UNL A   1      41.870  27.766  36.666  1.00  0.00    -0.237 OA
ATOM     81  O   UNL A   1      40.900  25.489  36.679  1.00  0.00    -0.744 OA
ENDBRANCH  75  78
ENDBRANCH  47  71
BRANCH  59  82
ATOM     82  C   UNL A   1      45.505  28.469  28.132  1.00  0.00     0.023 A 
ATOM     83  C   UNL A   1      45.679  27.256  27.429  1.00  0.00     0.012 A 
ATOM     84  C   UNL A   1      46.540  29.416  28.091  1.00  0.00     0.148 A 
ATOM     85  C   UNL A   1      46.849  26.987  26.712  1.00  0.00     0.002 A 
ATOM     86  C   UNL A   1      47.690  29.163  27.349  1.00  0.00     0.091 A 
ATOM     87  F   UNL A   1      46.357  30.575  28.740  1.00  0.00    -0.205 F 
ATOM     88  C   UNL A   1      47.852  27.948  26.661  1.00  0.00     0.022 A 
BRANCH  86  89
ATOM     89  S   UNL A   1      48.980  30.393  27.143  1.00  0.00     0.127 S 
ATOM     90  O   UNL A   1      49.912  29.712  26.246  1.00  0.00    -0.237 OA
ATOM     91  O   UNL A   1      48.252  31.509  26.535  1.00  0.00    -0.237 OA
ATOM     92  O   UNL A   1      49.494  30.670  28.479  1.00  0.00    -0.744 OA
ENDBRANCH  86  89
ENDBRANCH  59  82
ENDBRANCH  33  34
ENDBRANCH  25  28
ENDBRANCH   1  24
TORSDOF 14
ENDMDL
