MODEL 1
REMARK VINA RESULT:     -11.8      0.000      0.000
REMARK SMILES CCC[C@H](Cc1ccn(-c2ccccc2)n1)C(=O)NCCCNC(=O)c1ccc(-c2c3nc(c(-c4cccc(S(=O)(=O)[O-])c4F)c4ccc([nH]4)c(-c4cccc(S(=O)(=O)[O-])c4F)c4nc(c(-c5cccc(S(=O)(=O)[O-])c5F)c5ccc2[nH]5)C=C4)C=C3)cc1
REMARK SMILES IDX 21 1 20 2 19 3 17 4 18 5 4 7 3 8 2 9 1 10 5 11 6 12 7 13
REMARK SMILES IDX 16 14 8 15 9 16 10 17 11 18 15 19 12 20 14 21 13 22 22 23
REMARK SMILES IDX 23 24 24 25 25 27 26 28 27 29 88 30 28 31 87 32 29 33 30 34
REMARK SMILES IDX 31 35 81 36 32 37 86 38 80 39 82 40 33 41 85 42 79 43 78 44
REMARK SMILES IDX 34 46 66 47 46 48 65 49 47 50 50 51 64 52 83 53 48 54 49 55
REMARK SMILES IDX 63 57 84 58 51 59 35 60 36 61 44 62 37 63 39 64 45 65 38 66
REMARK SMILES IDX 40 67 41 68 42 69 43 70 67 71 68 72 76 73 69 74 71 75 77 76
REMARK SMILES IDX 70 77 72 78 73 79 74 80 75 81 52 82 53 83 61 84 54 85 56 86
REMARK SMILES IDX 62 87 55 88 57 89 58 90 59 91 60 92
REMARK H PARENT 19 6 23 26 82 45 50 56
REMARK Flexibility Score: inf
ROOT
ATOM      1  C   UNL A   1      37.918  19.715  24.944  1.00  0.00     0.042 C 
ENDROOT
BRANCH   1   2
ATOM      2  C   UNL A   1      36.773  20.699  25.042  1.00  0.00     0.117 C 
BRANCH   2   3
ATOM      3  N   UNL A   1      37.240  21.971  25.530  1.00  0.00    -0.356 N 
ATOM      4  C   UNL A   1      36.581  23.154  25.593  1.00  0.00     0.223 C 
ATOM      5  O   UNL A   1      37.219  24.148  25.945  1.00  0.00    -0.275 OA
ATOM      6  H   UNL A   1      38.167  21.984  25.863  1.00  0.00     0.163 HD
BRANCH   4   7
ATOM      7  C   UNL A   1      35.072  23.253  25.368  1.00  0.00     0.084 C 
BRANCH   7   8
ATOM      8  C   UNL A   1      34.764  24.116  24.127  1.00  0.00     0.013 C 
BRANCH   8   9
ATOM      9  C   UNL A   1      34.042  23.394  22.982  1.00  0.00    -0.003 C 
ATOM     10  C   UNL A   1      33.421  22.081  23.427  1.00  0.00     0.004 C 
ENDBRANCH   8   9
ENDBRANCH   7   8
BRANCH   7  11
ATOM     11  C   UNL A   1      34.224  23.491  26.656  1.00  0.00     0.071 C 
BRANCH  11  12
ATOM     12  C   UNL A   1      32.803  23.988  26.520  1.00  0.00     0.064 A 
ATOM     13  C   UNL A   1      31.600  23.245  26.501  1.00  0.00     0.046 A 
ATOM     14  N   UNL A   1      32.530  25.302  26.424  1.00  0.00    -0.173 NA
ATOM     15  C   UNL A   1      30.652  24.120  26.035  1.00  0.00     0.115 A 
ATOM     16  N   UNL A   1      31.260  25.348  25.938  1.00  0.00    -0.241 N 
BRANCH  16  17
ATOM     17  C   UNL A   1      30.798  26.438  25.160  1.00  0.00     0.065 A 
ATOM     18  C   UNL A   1      31.501  27.643  25.123  1.00  0.00     0.028 A 
ATOM     19  C   UNL A   1      29.677  26.246  24.334  1.00  0.00     0.028 A 
ATOM     20  C   UNL A   1      31.041  28.680  24.301  1.00  0.00     0.002 A 
ATOM     21  C   UNL A   1      29.264  27.265  23.476  1.00  0.00     0.002 A 
ATOM     22  C   UNL A   1      29.935  28.486  23.470  1.00  0.00     0.000 A 
ENDBRANCH  16  17
ENDBRANCH  11  12
ENDBRANCH   7  11
ENDBRANCH   4   7
ENDBRANCH   2   3
ENDBRANCH   1   2
BRANCH   1  23
ATOM     23  C   UNL A   1      39.110  20.172  25.721  1.00  0.00     0.118 C 
BRANCH  23  24
ATOM     24  N   UNL A   1      40.149  19.132  25.901  1.00  0.00    -0.352 N 
ATOM     25  C   UNL A   1      41.522  19.307  26.078  1.00  0.00     0.251 C 
ATOM     26  H   UNL A   1      39.830  18.201  25.895  1.00  0.00     0.163 HD
ATOM     27  O   UNL A   1      42.306  18.385  26.066  1.00  0.00    -0.269 OA
BRANCH  25  28
ATOM     28  C   UNL A   1      41.964  20.677  26.369  1.00  0.00     0.039 A 
ATOM     29  C   UNL A   1      42.225  21.686  25.434  1.00  0.00     0.014 A 
ATOM     30  C   UNL A   1      41.972  20.963  27.708  1.00  0.00     0.014 A 
ATOM     31  C   UNL A   1      42.477  22.967  25.937  1.00  0.00     0.010 A 
ATOM     32  C   UNL A   1      41.531  22.201  27.955  1.00  0.00     0.010 A 
ATOM     33  C   UNL A   1      42.190  23.178  27.278  1.00  0.00    -0.014 A 
BRANCH  33  34
ATOM     34  C   UNL A   1      42.389  24.343  28.103  1.00  0.00     0.031 A 
ATOM     35  C   UNL A   1      41.262  25.293  28.008  1.00  0.00     0.074 A 
ATOM     36  C   UNL A   1      43.291  24.295  29.119  1.00  0.00     0.049 A 
ATOM     37  N   UNL A   1      41.189  26.327  27.237  1.00  0.00    -0.248 NA
ATOM     38  C   UNL A   1      39.962  24.897  28.584  1.00  0.00     0.031 C 
ATOM     39  C   UNL A   1      44.132  23.168  29.582  1.00  0.00     0.029 A 
ATOM     40  N   UNL A   1      43.554  25.226  30.064  1.00  0.00    -0.354 N 
ATOM     41  C   UNL A   1      39.946  26.880  27.523  1.00  0.00     0.074 A 
ATOM     42  C   UNL A   1      39.151  25.797  28.022  1.00  0.00     0.031 C 
ATOM     43  C   UNL A   1      44.594  23.413  30.831  1.00  0.00     0.029 A 
ATOM     44  C   UNL A   1      44.254  24.776  31.179  1.00  0.00     0.049 A 
ATOM     45  H   UNL A   1      43.267  26.163  29.969  1.00  0.00     0.167 HD
ATOM     46  C   UNL A   1      39.810  28.224  27.713  1.00  0.00     0.034 A 
ATOM     47  C   UNL A   1      44.494  25.486  32.310  1.00  0.00     0.034 A 
ATOM     48  C   UNL A   1      41.043  28.897  27.353  1.00  0.00     0.049 A 
ATOM     49  C   UNL A   1      44.247  26.909  31.963  1.00  0.00     0.074 A 
ATOM     50  C   UNL A   1      41.808  28.987  26.209  1.00  0.00     0.029 A 
ATOM     51  N   UNL A   1      41.874  29.213  28.404  1.00  0.00    -0.354 N 
ATOM     52  N   UNL A   1      44.948  27.567  31.079  1.00  0.00    -0.248 NA
ATOM     53  C   UNL A   1      42.916  27.433  32.223  1.00  0.00     0.031 C 
ATOM     54  C   UNL A   1      43.158  28.914  26.667  1.00  0.00     0.029 A 
ATOM     55  C   UNL A   1      43.160  28.892  28.065  1.00  0.00     0.049 A 
ATOM     56  H   UNL A   1      41.590  29.606  29.261  1.00  0.00     0.167 HD
ATOM     57  C   UNL A   1      44.004  28.283  30.351  1.00  0.00     0.074 A 
ATOM     58  C   UNL A   1      42.789  28.245  31.168  1.00  0.00     0.031 C 
ATOM     59  C   UNL A   1      44.195  28.548  29.024  1.00  0.00     0.034 A 
BRANCH  46  60
ATOM     60  C   UNL A   1      38.792  28.912  28.605  1.00  0.00     0.023 A 
ATOM     61  C   UNL A   1      37.954  29.860  27.973  1.00  0.00     0.012 A 
ATOM     62  C   UNL A   1      38.754  28.882  30.019  1.00  0.00     0.148 A 
ATOM     63  C   UNL A   1      37.186  30.774  28.702  1.00  0.00     0.002 A 
ATOM     64  C   UNL A   1      37.938  29.748  30.741  1.00  0.00     0.091 A 
ATOM     65  F   UNL A   1      39.584  28.100  30.707  1.00  0.00    -0.205 F 
ATOM     66  C   UNL A   1      37.178  30.719  30.089  1.00  0.00     0.022 A 
BRANCH  64  67
ATOM     67  S   UNL A   1      37.855  29.698  32.538  1.00  0.00     0.127 S 
ATOM     68  O   UNL A   1      37.464  28.311  32.772  1.00  0.00    -0.237 OA
ATOM     69  O   UNL A   1      39.233  30.025  32.906  1.00  0.00    -0.237 OA
ATOM     70  O   UNL A   1      36.879  30.709  32.921  1.00  0.00    -0.744 OA
ENDBRANCH  64  67
ENDBRANCH  46  60
BRANCH  47  71
ATOM     71  C   UNL A   1      44.612  25.036  33.719  1.00  0.00     0.023 A 
ATOM     72  C   UNL A   1      43.447  24.715  34.447  1.00  0.00     0.012 A 
ATOM     73  C   UNL A   1      45.858  24.629  34.247  1.00  0.00     0.148 A 
ATOM     74  C   UNL A   1      43.517  23.978  35.637  1.00  0.00     0.002 A 
ATOM     75  C   UNL A   1      45.921  23.893  35.429  1.00  0.00     0.091 A 
ATOM     76  F   UNL A   1      46.967  24.884  33.539  1.00  0.00    -0.205 F 
ATOM     77  C   UNL A   1      44.751  23.555  36.120  1.00  0.00     0.022 A 
BRANCH  75  78
ATOM     78  S   UNL A   1      47.471  23.269  36.098  1.00  0.00     0.127 S 
ATOM     79  O   UNL A   1      48.202  24.509  36.366  1.00  0.00    -0.237 OA
ATOM     80  O   UNL A   1      47.018  22.557  37.290  1.00  0.00    -0.237 OA
ATOM     81  O   UNL A   1      48.050  22.443  35.048  1.00  0.00    -0.744 OA
ENDBRANCH  75  78
ENDBRANCH  47  71
BRANCH  59  82
ATOM     82  C   UNL A   1      45.563  28.289  28.436  1.00  0.00     0.023 A 
ATOM     83  C   UNL A   1      46.692  29.092  28.705  1.00  0.00     0.012 A 
ATOM     84  C   UNL A   1      45.744  27.067  27.772  1.00  0.00     0.148 A 
ATOM     85  C   UNL A   1      47.974  28.679  28.320  1.00  0.00     0.002 A 
ATOM     86  C   UNL A   1      47.020  26.634  27.442  1.00  0.00     0.091 A 
ATOM     87  F   UNL A   1      44.659  26.321  27.524  1.00  0.00    -0.205 F 
ATOM     88  C   UNL A   1      48.140  27.441  27.705  1.00  0.00     0.022 A 
BRANCH  86  89
ATOM     89  S   UNL A   1      47.303  24.988  26.791  1.00  0.00     0.127 S 
ATOM     90  O   UNL A   1      46.626  24.151  27.779  1.00  0.00    -0.237 OA
ATOM     91  O   UNL A   1      46.644  25.051  25.486  1.00  0.00    -0.237 OA
ATOM     92  O   UNL A   1      48.750  24.826  26.720  1.00  0.00    -0.744 OA
ENDBRANCH  86  89
ENDBRANCH  59  82
ENDBRANCH  33  34
ENDBRANCH  25  28
ENDBRANCH  23  24
ENDBRANCH   1  23
TORSDOF 18
ENDMDL
MODEL 2
REMARK VINA RESULT:     -11.4      3.233      7.578
REMARK SMILES CCC[C@H](Cc1ccn(-c2ccccc2)n1)C(=O)NCCCNC(=O)c1ccc(-c2c3nc(c(-c4cccc(S(=O)(=O)[O-])c4F)c4ccc([nH]4)c(-c4cccc(S(=O)(=O)[O-])c4F)c4nc(c(-c5cccc(S(=O)(=O)[O-])c5F)c5ccc2[nH]5)C=C4)C=C3)cc1
REMARK SMILES IDX 21 1 20 2 19 3 17 4 18 5 4 7 3 8 2 9 1 10 5 11 6 12 7 13
REMARK SMILES IDX 16 14 8 15 9 16 10 17 11 18 15 19 12 20 14 21 13 22 22 23
REMARK SMILES IDX 23 24 24 25 25 27 26 28 27 29 88 30 28 31 87 32 29 33 30 34
REMARK SMILES IDX 31 35 81 36 32 37 86 38 80 39 82 40 33 41 85 42 79 43 78 44
REMARK SMILES IDX 34 46 66 47 46 48 65 49 47 50 50 51 64 52 83 53 48 54 49 55
REMARK SMILES IDX 63 57 84 58 51 59 35 60 36 61 44 62 37 63 39 64 45 65 38 66
REMARK SMILES IDX 40 67 41 68 42 69 43 70 67 71 68 72 76 73 69 74 71 75 77 76
REMARK SMILES IDX 70 77 72 78 73 79 74 80 75 81 52 82 53 83 61 84 54 85 56 86
REMARK SMILES IDX 62 87 55 88 57 89 58 90 59 91 60 92
REMARK H PARENT 19 6 23 26 82 45 50 56
REMARK Flexibility Score: inf
ROOT
ATOM      1  C   UNL A   1      33.686  29.314  27.020  1.00  0.00     0.042 C 
ENDROOT
BRANCH   1   2
ATOM      2  C   UNL A   1      32.740  29.610  25.877  1.00  0.00     0.117 C 
BRANCH   2   3
ATOM      3  N   UNL A   1      33.445  29.604  24.622  1.00  0.00    -0.356 N 
ATOM      4  C   UNL A   1      33.755  28.554  23.823  1.00  0.00     0.223 C 
ATOM      5  O   UNL A   1      34.469  28.769  22.842  1.00  0.00    -0.275 OA
ATOM      6  H   UNL A   1      33.745  30.485  24.299  1.00  0.00     0.163 HD
BRANCH   4   7
ATOM      7  C   UNL A   1      33.144  27.168  24.034  1.00  0.00     0.084 C 
BRANCH   7   8
ATOM      8  C   UNL A   1      34.036  26.318  24.963  1.00  0.00     0.013 C 
BRANCH   8   9
ATOM      9  C   UNL A   1      33.301  25.567  26.081  1.00  0.00    -0.003 C 
ATOM     10  C   UNL A   1      31.898  26.103  26.313  1.00  0.00     0.004 C 
ENDBRANCH   8   9
ENDBRANCH   7   8
BRANCH   7  11
ATOM     11  C   UNL A   1      32.569  26.494  22.750  1.00  0.00     0.071 C 
BRANCH  11  12
ATOM     12  C   UNL A   1      32.020  25.088  22.840  1.00  0.00     0.064 A 
ATOM     13  C   UNL A   1      30.704  24.666  23.136  1.00  0.00     0.046 A 
ATOM     14  N   UNL A   1      32.799  24.018  22.597  1.00  0.00    -0.173 NA
ATOM     15  C   UNL A   1      30.815  23.326  23.411  1.00  0.00     0.115 A 
ATOM     16  N   UNL A   1      32.114  22.973  23.135  1.00  0.00    -0.241 N 
BRANCH  16  17
ATOM     17  C   UNL A   1      32.775  21.817  23.620  1.00  0.00     0.065 A 
ATOM     18  C   UNL A   1      33.869  21.924  24.481  1.00  0.00     0.028 A 
ATOM     19  C   UNL A   1      32.238  20.557  23.310  1.00  0.00     0.028 A 
ATOM     20  C   UNL A   1      34.463  20.759  24.982  1.00  0.00     0.002 A 
ATOM     21  C   UNL A   1      32.803  19.407  23.862  1.00  0.00     0.002 A 
ATOM     22  C   UNL A   1      33.922  19.506  24.684  1.00  0.00     0.000 A 
ENDBRANCH  16  17
ENDBRANCH  11  12
ENDBRANCH   7  11
ENDBRANCH   4   7
ENDBRANCH   2   3
ENDBRANCH   1   2
BRANCH   1  23
ATOM     23  C   UNL A   1      34.963  30.079  26.894  1.00  0.00     0.118 C 
BRANCH  23  24
ATOM     24  N   UNL A   1      34.922  31.428  27.505  1.00  0.00    -0.352 N 
ATOM     25  C   UNL A   1      35.532  31.859  28.684  1.00  0.00     0.251 C 
ATOM     26  H   UNL A   1      34.398  32.105  27.019  1.00  0.00     0.163 HD
ATOM     27  O   UNL A   1      35.313  32.943  29.176  1.00  0.00    -0.269 OA
BRANCH  25  28
ATOM     28  C   UNL A   1      36.533  30.951  29.260  1.00  0.00     0.039 A 
ATOM     29  C   UNL A   1      36.298  29.674  29.784  1.00  0.00     0.014 A 
ATOM     30  C   UNL A   1      37.815  31.409  29.116  1.00  0.00     0.014 A 
ATOM     31  C   UNL A   1      37.420  28.915  30.132  1.00  0.00     0.010 A 
ATOM     32  C   UNL A   1      38.665  30.421  28.815  1.00  0.00     0.010 A 
ATOM     33  C   UNL A   1      38.650  29.380  29.689  1.00  0.00    -0.014 A 
BRANCH  33  34
ATOM     34  C   UNL A   1      39.979  28.874  29.923  1.00  0.00     0.031 A 
ATOM     35  C   UNL A   1      40.377  28.986  31.341  1.00  0.00     0.074 A 
ATOM     36  C   UNL A   1      40.545  28.038  29.013  1.00  0.00     0.049 A 
ATOM     37  N   UNL A   1      41.062  29.941  31.877  1.00  0.00    -0.248 NA
ATOM     38  C   UNL A   1      39.692  28.128  32.329  1.00  0.00     0.031 C 
ATOM     39  C   UNL A   1      39.981  27.487  27.760  1.00  0.00     0.029 A 
ATOM     40  N   UNL A   1      41.721  27.376  29.086  1.00  0.00    -0.354 N 
ATOM     41  C   UNL A   1      41.165  29.579  33.215  1.00  0.00     0.074 A 
ATOM     42  C   UNL A   1      40.038  28.730  33.470  1.00  0.00     0.031 C 
ATOM     43  C   UNL A   1      40.704  26.416  27.354  1.00  0.00     0.029 A 
ATOM     44  C   UNL A   1      41.880  26.323  28.191  1.00  0.00     0.049 A 
ATOM     45  H   UNL A   1      42.421  27.625  29.733  1.00  0.00     0.167 HD
ATOM     46  C   UNL A   1      42.359  29.668  33.869  1.00  0.00     0.034 A 
ATOM     47  C   UNL A   1      42.902  25.430  28.184  1.00  0.00     0.034 A 
ATOM     48  C   UNL A   1      43.321  30.366  33.040  1.00  0.00     0.049 A 
ATOM     49  C   UNL A   1      43.982  26.033  29.007  1.00  0.00     0.074 A 
ATOM     50  C   UNL A   1      43.383  31.613  32.454  1.00  0.00     0.029 A 
ATOM     51  N   UNL A   1      44.193  29.563  32.339  1.00  0.00    -0.354 N 
ATOM     52  N   UNL A   1      44.593  27.144  28.692  1.00  0.00    -0.248 NA
ATOM     53  C   UNL A   1      44.019  25.676  30.416  1.00  0.00     0.031 C 
ATOM     54  C   UNL A   1      43.944  31.382  31.163  1.00  0.00     0.029 A 
ATOM     55  C   UNL A   1      44.298  30.033  31.058  1.00  0.00     0.049 A 
ATOM     56  H   UNL A   1      44.664  28.777  32.701  1.00  0.00     0.167 HD
ATOM     57  C   UNL A   1      44.682  27.843  29.891  1.00  0.00     0.074 A 
ATOM     58  C   UNL A   1      44.412  26.847  30.930  1.00  0.00     0.031 C 
ATOM     59  C   UNL A   1      44.636  29.209  29.912  1.00  0.00     0.034 A 
BRANCH  46  60
ATOM     60  C   UNL A   1      42.827  28.790  35.017  1.00  0.00     0.023 A 
ATOM     61  C   UNL A   1      43.386  29.466  36.126  1.00  0.00     0.012 A 
ATOM     62  C   UNL A   1      42.982  27.384  34.994  1.00  0.00     0.148 A 
ATOM     63  C   UNL A   1      44.120  28.796  37.110  1.00  0.00     0.002 A 
ATOM     64  C   UNL A   1      43.656  26.712  36.009  1.00  0.00     0.091 A 
ATOM     65  F   UNL A   1      42.586  26.672  33.940  1.00  0.00    -0.205 F 
ATOM     66  C   UNL A   1      44.256  27.417  37.052  1.00  0.00     0.022 A 
BRANCH  64  67
ATOM     67  S   UNL A   1      43.831  24.920  36.008  1.00  0.00     0.127 S 
ATOM     68  O   UNL A   1      44.794  24.722  34.929  1.00  0.00    -0.237 OA
ATOM     69  O   UNL A   1      44.347  24.674  37.355  1.00  0.00    -0.237 OA
ATOM     70  O   UNL A   1      42.494  24.389  35.775  1.00  0.00    -0.744 OA
ENDBRANCH  64  67
ENDBRANCH  46  60
BRANCH  47  71
ATOM     71  C   UNL A   1      42.922  23.997  27.801  1.00  0.00     0.023 A 
ATOM     72  C   UNL A   1      41.840  23.166  28.158  1.00  0.00     0.012 A 
ATOM     73  C   UNL A   1      43.837  23.519  26.836  1.00  0.00     0.148 A 
ATOM     74  C   UNL A   1      41.650  21.920  27.544  1.00  0.00     0.002 A 
ATOM     75  C   UNL A   1      43.641  22.281  26.226  1.00  0.00     0.091 A 
ATOM     76  F   UNL A   1      44.841  24.319  26.453  1.00  0.00    -0.205 F 
ATOM     77  C   UNL A   1      42.542  21.484  26.569  1.00  0.00     0.022 A 
BRANCH  75  78
ATOM     78  S   UNL A   1      44.720  21.661  24.925  1.00  0.00     0.127 S 
ATOM     79  O   UNL A   1      44.605  22.715  23.916  1.00  0.00    -0.237 OA
ATOM     80  O   UNL A   1      46.010  21.606  25.607  1.00  0.00    -0.237 OA
ATOM     81  O   UNL A   1      44.159  20.378  24.525  1.00  0.00    -0.744 OA
ENDBRANCH  75  78
ENDBRANCH  47  71
BRANCH  59  82
ATOM     82  C   UNL A   1      44.759  29.946  28.598  1.00  0.00     0.023 A 
ATOM     83  C   UNL A   1      43.656  30.265  27.777  1.00  0.00     0.012 A 
ATOM     84  C   UNL A   1      46.005  30.520  28.310  1.00  0.00     0.148 A 
ATOM     85  C   UNL A   1      43.798  31.140  26.693  1.00  0.00     0.002 A 
ATOM     86  C   UNL A   1      46.132  31.429  27.270  1.00  0.00     0.091 A 
ATOM     87  F   UNL A   1      47.040  30.202  29.101  1.00  0.00    -0.205 F 
ATOM     88  C   UNL A   1      45.033  31.737  26.451  1.00  0.00     0.022 A 
BRANCH  86  89
ATOM     89  S   UNL A   1      47.655  32.340  27.013  1.00  0.00     0.127 S 
ATOM     90  O   UNL A   1      47.274  33.277  25.958  1.00  0.00    -0.237 OA
ATOM     91  O   UNL A   1      47.879  32.950  28.324  1.00  0.00    -0.237 OA
ATOM     92  O   UNL A   1      48.657  31.350  26.638  1.00  0.00    -0.744 OA
ENDBRANCH  86  89
ENDBRANCH  59  82
ENDBRANCH  33  34
ENDBRANCH  25  28
ENDBRANCH  23  24
ENDBRANCH   1  23
TORSDOF 18
ENDMDL
MODEL 3
REMARK VINA RESULT:     -11.4      3.383      7.442
REMARK SMILES CCC[C@H](Cc1ccn(-c2ccccc2)n1)C(=O)NCCCNC(=O)c1ccc(-c2c3nc(c(-c4cccc(S(=O)(=O)[O-])c4F)c4ccc([nH]4)c(-c4cccc(S(=O)(=O)[O-])c4F)c4nc(c(-c5cccc(S(=O)(=O)[O-])c5F)c5ccc2[nH]5)C=C4)C=C3)cc1
REMARK SMILES IDX 21 1 20 2 19 3 17 4 18 5 4 7 3 8 2 9 1 10 5 11 6 12 7 13
REMARK SMILES IDX 16 14 8 15 9 16 10 17 11 18 15 19 12 20 14 21 13 22 22 23
REMARK SMILES IDX 23 24 24 25 25 27 26 28 27 29 88 30 28 31 87 32 29 33 30 34
REMARK SMILES IDX 31 35 81 36 32 37 86 38 80 39 82 40 33 41 85 42 79 43 78 44
REMARK SMILES IDX 34 46 66 47 46 48 65 49 47 50 50 51 64 52 83 53 48 54 49 55
REMARK SMILES IDX 63 57 84 58 51 59 35 60 36 61 44 62 37 63 39 64 45 65 38 66
REMARK SMILES IDX 40 67 41 68 42 69 43 70 67 71 68 72 76 73 69 74 71 75 77 76
REMARK SMILES IDX 70 77 72 78 73 79 74 80 75 81 52 82 53 83 61 84 54 85 56 86
REMARK SMILES IDX 62 87 55 88 57 89 58 90 59 91 60 92
REMARK H PARENT 19 6 23 26 82 45 50 56
REMARK Flexibility Score: inf
ROOT
ATOM      1  C   UNL A   1      34.487  29.122  26.114  1.00  0.00     0.042 C 
ENDROOT
BRANCH   1   2
ATOM      2  C   UNL A   1      33.299  29.225  25.183  1.00  0.00     0.117 C 
BRANCH   2   3
ATOM      3  N   UNL A   1      33.718  29.099  23.812  1.00  0.00    -0.356 N 
ATOM      4  C   UNL A   1      33.692  28.007  23.009  1.00  0.00     0.223 C 
ATOM      5  O   UNL A   1      34.211  28.102  21.895  1.00  0.00    -0.275 OA
ATOM      6  H   UNL A   1      34.074  29.920  23.399  1.00  0.00     0.163 HD
BRANCH   4   7
ATOM      7  C   UNL A   1      32.937  26.735  23.396  1.00  0.00     0.084 C 
BRANCH   7   8
ATOM      8  C   UNL A   1      33.905  25.537  23.484  1.00  0.00     0.013 C 
BRANCH   8   9
ATOM      9  C   UNL A   1      34.239  25.060  24.904  1.00  0.00    -0.003 C 
ATOM     10  C   UNL A   1      33.223  25.536  25.928  1.00  0.00     0.004 C 
ENDBRANCH   8   9
ENDBRANCH   7   8
BRANCH   7  11
ATOM     11  C   UNL A   1      31.574  26.526  22.668  1.00  0.00     0.071 C 
BRANCH  11  12
ATOM     12  C   UNL A   1      30.381  27.353  23.090  1.00  0.00     0.064 A 
ATOM     13  C   UNL A   1      29.112  26.918  23.538  1.00  0.00     0.046 A 
ATOM     14  N   UNL A   1      30.433  28.698  23.104  1.00  0.00    -0.173 NA
ATOM     15  C   UNL A   1      28.313  28.031  23.472  1.00  0.00     0.115 A 
ATOM     16  N   UNL A   1      29.130  29.086  23.145  1.00  0.00    -0.241 N 
BRANCH  16  17
ATOM     17  C   UNL A   1      28.703  30.324  22.604  1.00  0.00     0.065 A 
ATOM     18  C   UNL A   1      28.808  31.505  23.340  1.00  0.00     0.028 A 
ATOM     19  C   UNL A   1      28.276  30.359  21.265  1.00  0.00     0.028 A 
ATOM     20  C   UNL A   1      28.425  32.716  22.752  1.00  0.00     0.002 A 
ATOM     21  C   UNL A   1      27.953  31.579  20.672  1.00  0.00     0.002 A 
ATOM     22  C   UNL A   1      28.012  32.754  21.417  1.00  0.00     0.000 A 
ENDBRANCH  16  17
ENDBRANCH  11  12
ENDBRANCH   7  11
ENDBRANCH   4   7
ENDBRANCH   2   3
ENDBRANCH   1   2
BRANCH   1  23
ATOM     23  C   UNL A   1      34.188  29.699  27.459  1.00  0.00     0.118 C 
BRANCH  23  24
ATOM     24  N   UNL A   1      34.452  31.153  27.565  1.00  0.00    -0.352 N 
ATOM     25  C   UNL A   1      35.389  31.803  28.369  1.00  0.00     0.251 C 
ATOM     26  H   UNL A   1      33.896  31.734  26.997  1.00  0.00     0.163 HD
ATOM     27  O   UNL A   1      35.423  33.006  28.495  1.00  0.00    -0.269 OA
BRANCH  25  28
ATOM     28  C   UNL A   1      36.402  30.945  28.999  1.00  0.00     0.039 A 
ATOM     29  C   UNL A   1      36.179  29.716  29.631  1.00  0.00     0.014 A 
ATOM     30  C   UNL A   1      37.681  31.389  28.793  1.00  0.00     0.014 A 
ATOM     31  C   UNL A   1      37.308  28.987  30.018  1.00  0.00     0.010 A 
ATOM     32  C   UNL A   1      38.525  30.379  28.558  1.00  0.00     0.010 A 
ATOM     33  C   UNL A   1      38.528  29.414  29.515  1.00  0.00    -0.014 A 
BRANCH  33  34
ATOM     34  C   UNL A   1      39.863  28.928  29.764  1.00  0.00     0.031 A 
ATOM     35  C   UNL A   1      40.238  29.035  31.189  1.00  0.00     0.074 A 
ATOM     36  C   UNL A   1      40.455  28.108  28.856  1.00  0.00     0.049 A 
ATOM     37  N   UNL A   1      40.899  29.996  31.742  1.00  0.00    -0.248 NA
ATOM     38  C   UNL A   1      39.554  28.158  32.160  1.00  0.00     0.031 C 
ATOM     39  C   UNL A   1      39.919  27.559  27.590  1.00  0.00     0.029 A 
ATOM     40  N   UNL A   1      41.641  27.466  28.941  1.00  0.00    -0.354 N 
ATOM     41  C   UNL A   1      40.989  29.626  33.079  1.00  0.00     0.074 A 
ATOM     42  C   UNL A   1      39.873  28.756  33.310  1.00  0.00     0.031 C 
ATOM     43  C   UNL A   1      40.666  26.503  27.187  1.00  0.00     0.029 A 
ATOM     44  C   UNL A   1      41.831  26.423  28.040  1.00  0.00     0.049 A 
ATOM     45  H   UNL A   1      42.328  27.721  29.600  1.00  0.00     0.167 HD
ATOM     46  C   UNL A   1      42.172  29.729  33.750  1.00  0.00     0.034 A 
ATOM     47  C   UNL A   1      42.868  25.548  28.040  1.00  0.00     0.034 A 
ATOM     48  C   UNL A   1      43.134  30.450  32.941  1.00  0.00     0.049 A 
ATOM     49  C   UNL A   1      43.926  26.162  28.884  1.00  0.00     0.074 A 
ATOM     50  C   UNL A   1      43.183  31.702  32.366  1.00  0.00     0.029 A 
ATOM     51  N   UNL A   1      44.029  29.667  32.247  1.00  0.00    -0.354 N 
ATOM     52  N   UNL A   1      44.522  27.285  28.586  1.00  0.00    -0.248 NA
ATOM     53  C   UNL A   1      43.949  25.794  30.291  1.00  0.00     0.031 C 
ATOM     54  C   UNL A   1      43.767  31.491  31.081  1.00  0.00     0.029 A 
ATOM     55  C   UNL A   1      44.145  30.149  30.971  1.00  0.00     0.049 A 
ATOM     56  H   UNL A   1      44.508  28.887  32.609  1.00  0.00     0.167 HD
ATOM     57  C   UNL A   1      44.582  27.975  29.792  1.00  0.00     0.074 A 
ATOM     58  C   UNL A   1      44.314  26.966  30.819  1.00  0.00     0.031 C 
ATOM     59  C   UNL A   1      44.513  29.340  29.823  1.00  0.00     0.034 A 
BRANCH  46  60
ATOM     60  C   UNL A   1      42.638  28.850  34.898  1.00  0.00     0.023 A 
ATOM     61  C   UNL A   1      43.127  29.527  36.039  1.00  0.00     0.012 A 
ATOM     62  C   UNL A   1      42.857  27.453  34.854  1.00  0.00     0.148 A 
ATOM     63  C   UNL A   1      43.855  28.871  37.037  1.00  0.00     0.002 A 
ATOM     64  C   UNL A   1      43.524  26.791  35.880  1.00  0.00     0.091 A 
ATOM     65  F   UNL A   1      42.531  26.745  33.774  1.00  0.00    -0.205 F 
ATOM     66  C   UNL A   1      44.054  27.500  36.958  1.00  0.00     0.022 A 
BRANCH  64  67
ATOM     67  S   UNL A   1      43.779  25.009  35.853  1.00  0.00     0.127 S 
ATOM     68  O   UNL A   1      42.414  24.523  35.672  1.00  0.00    -0.237 OA
ATOM     69  O   UNL A   1      44.653  24.854  34.690  1.00  0.00    -0.237 OA
ATOM     70  O   UNL A   1      44.411  24.677  37.123  1.00  0.00    -0.744 OA
ENDBRANCH  64  67
ENDBRANCH  46  60
BRANCH  47  71
ATOM     71  C   UNL A   1      42.917  24.118  27.647  1.00  0.00     0.023 A 
ATOM     72  C   UNL A   1      41.829  23.274  27.950  1.00  0.00     0.012 A 
ATOM     73  C   UNL A   1      43.876  23.656  26.717  1.00  0.00     0.148 A 
ATOM     74  C   UNL A   1      41.676  22.032  27.319  1.00  0.00     0.002 A 
ATOM     75  C   UNL A   1      43.718  22.422  26.089  1.00  0.00     0.091 A 
ATOM     76  F   UNL A   1      44.888  24.469  26.384  1.00  0.00    -0.205 F 
ATOM     77  C   UNL A   1      42.613  21.613  26.379  1.00  0.00     0.022 A 
BRANCH  75  78
ATOM     78  S   UNL A   1      44.857  21.824  24.830  1.00  0.00     0.127 S 
ATOM     79  O   UNL A   1      44.825  22.917  23.856  1.00  0.00    -0.237 OA
ATOM     80  O   UNL A   1      46.103  21.711  25.582  1.00  0.00    -0.237 OA
ATOM     81  O   UNL A   1      44.291  20.571  24.349  1.00  0.00    -0.744 OA
ENDBRANCH  75  78
ENDBRANCH  47  71
BRANCH  59  82
ATOM     82  C   UNL A   1      44.643  30.090  28.518  1.00  0.00     0.023 A 
ATOM     83  C   UNL A   1      43.545  30.398  27.684  1.00  0.00     0.012 A 
ATOM     84  C   UNL A   1      45.883  30.685  28.251  1.00  0.00     0.148 A 
ATOM     85  C   UNL A   1      43.689  31.285  26.609  1.00  0.00     0.002 A 
ATOM     86  C   UNL A   1      46.010  31.605  27.220  1.00  0.00     0.091 A 
ATOM     87  F   UNL A   1      46.912  30.377  29.054  1.00  0.00    -0.205 F 
ATOM     88  C   UNL A   1      44.918  31.903  26.389  1.00  0.00     0.022 A 
BRANCH  86  89
ATOM     89  S   UNL A   1      47.522  32.542  26.992  1.00  0.00     0.127 S 
ATOM     90  O   UNL A   1      48.483  31.492  26.664  1.00  0.00    -0.237 OA
ATOM     91  O   UNL A   1      47.175  33.426  25.878  1.00  0.00    -0.237 OA
ATOM     92  O   UNL A   1      47.759  33.236  28.251  1.00  0.00    -0.744 OA
ENDBRANCH  86  89
ENDBRANCH  59  82
ENDBRANCH  33  34
ENDBRANCH  25  28
ENDBRANCH  23  24
ENDBRANCH   1  23
TORSDOF 18
ENDMDL
