MODEL 1
REMARK VINA RESULT:     -11.8      0.000      0.000
REMARK SMILES O=C(NCCCNC(=O)C1CCN(C(=O)COc2ccc(Cl)cc2Cl)CC1)c1ccc(-c2c3nc(c(-c4cccc(S(=O)(=O)[O-])c4F)c4ccc([nH]4)c(-c4cccc(S(=O)(=O)[O-])c4F)c4nc(c(-c5cccc(S(=O)(=O)[O-])c5F)c5ccc2[nH]5)C=C4)C=C3)cc1
REMARK SMILES IDX 5 1 4 2 3 3 1 4 2 5 28 7 29 8 90 9 30 10 89 11 31 12 32 13
REMARK SMILES IDX 33 14 83 15 34 16 88 17 82 18 84 19 35 20 87 21 81 22 80 23
REMARK SMILES IDX 36 25 68 26 48 27 67 28 49 29 52 30 66 31 85 32 50 33 51 34
REMARK SMILES IDX 65 36 86 37 53 38 37 39 38 40 46 41 39 42 41 43 47 44 40 45
REMARK SMILES IDX 42 46 43 47 44 48 45 49 69 50 70 51 78 52 71 53 73 54 79 55
REMARK SMILES IDX 72 56 74 57 75 58 76 59 77 60 54 61 55 62 63 63 56 64 58 65
REMARK SMILES IDX 64 66 57 67 59 68 60 69 61 70 62 71 6 72 7 73 8 74 9 76
REMARK SMILES IDX 10 77 11 78 27 79 12 80 26 81 13 82 14 83 15 84 16 85 17 86
REMARK SMILES IDX 18 87 19 88 24 89 20 90 23 91 25 92 21 93 22 94
REMARK H PARENT 3 6 84 24 52 35 7 75
REMARK Flexibility Score: inf
ROOT
ATOM      1  C   UNL A   1      31.327  32.177  26.889  1.00  0.00     0.042 C 
ENDROOT
BRANCH   1   2
ATOM      2  C   UNL A   1      32.681  32.776  27.225  1.00  0.00     0.118 C 
BRANCH   2   3
ATOM      3  N   UNL A   1      32.561  34.152  27.698  1.00  0.00    -0.352 N 
ATOM      4  O   UNL A   1      32.705  35.836  29.182  1.00  0.00    -0.269 OA
ATOM      5  C   UNL A   1      33.148  34.768  28.779  1.00  0.00     0.251 C 
ATOM      6  H   UNL A   1      31.969  34.727  27.162  1.00  0.00     0.163 HD
BRANCH   5   7
ATOM      7  C   UNL A   1      34.302  34.126  29.444  1.00  0.00     0.039 A 
ATOM      8  C   UNL A   1      34.090  33.094  30.357  1.00  0.00     0.014 A 
ATOM      9  C   UNL A   1      35.604  34.539  29.144  1.00  0.00     0.014 A 
ATOM     10  C   UNL A   1      35.147  32.609  31.108  1.00  0.00     0.010 A 
ATOM     11  C   UNL A   1      36.685  33.946  29.803  1.00  0.00     0.010 A 
ATOM     12  C   UNL A   1      36.461  32.996  30.811  1.00  0.00    -0.014 A 
BRANCH  12  13
ATOM     13  C   UNL A   1      37.569  32.289  31.500  1.00  0.00     0.031 A 
ATOM     14  C   UNL A   1      38.344  31.194  30.830  1.00  0.00     0.074 A 
ATOM     15  C   UNL A   1      37.887  32.692  32.748  1.00  0.00     0.049 A 
ATOM     16  N   UNL A   1      39.374  30.528  31.284  1.00  0.00    -0.248 NA
ATOM     17  C   UNL A   1      37.911  30.779  29.485  1.00  0.00     0.031 C 
ATOM     18  C   UNL A   1      37.165  33.719  33.507  1.00  0.00     0.029 A 
ATOM     19  N   UNL A   1      38.899  32.314  33.588  1.00  0.00    -0.354 N 
ATOM     20  C   UNL A   1      39.688  29.591  30.308  1.00  0.00     0.074 A 
ATOM     21  C   UNL A   1      38.736  29.770  29.233  1.00  0.00     0.031 C 
ATOM     22  C   UNL A   1      37.786  33.925  34.675  1.00  0.00     0.029 A 
ATOM     23  C   UNL A   1      38.904  32.998  34.782  1.00  0.00     0.049 A 
ATOM     24  H   UNL A   1      39.558  31.618  33.361  1.00  0.00     0.167 HD
ATOM     25  C   UNL A   1      40.686  28.676  30.308  1.00  0.00     0.034 A 
ATOM     26  C   UNL A   1      39.707  32.883  35.854  1.00  0.00     0.034 A 
ATOM     27  C   UNL A   1      41.649  28.536  31.371  1.00  0.00     0.049 A 
ATOM     28  C   UNL A   1      40.823  31.883  35.806  1.00  0.00     0.074 A 
ATOM     29  C   UNL A   1      42.731  27.676  31.442  1.00  0.00     0.029 A 
ATOM     30  N   UNL A   1      41.644  29.268  32.548  1.00  0.00    -0.354 N 
ATOM     31  N   UNL A   1      41.172  31.088  34.824  1.00  0.00    -0.248 NA
ATOM     32  C   UNL A   1      41.668  31.777  37.001  1.00  0.00     0.031 C 
ATOM     33  C   UNL A   1      43.369  27.877  32.671  1.00  0.00     0.029 A 
ATOM     34  C   UNL A   1      42.698  28.876  33.357  1.00  0.00     0.049 A 
ATOM     35  H   UNL A   1      40.987  29.965  32.777  1.00  0.00     0.167 HD
ATOM     36  C   UNL A   1      42.286  30.396  35.276  1.00  0.00     0.074 A 
ATOM     37  C   UNL A   1      42.576  30.895  36.606  1.00  0.00     0.031 C 
ATOM     38  C   UNL A   1      42.991  29.416  34.659  1.00  0.00     0.034 A 
BRANCH  25  39
ATOM     39  C   UNL A   1      40.822  27.776  29.108  1.00  0.00     0.023 A 
ATOM     40  C   UNL A   1      40.016  26.625  29.008  1.00  0.00     0.012 A 
ATOM     41  C   UNL A   1      41.683  28.111  28.044  1.00  0.00     0.148 A 
ATOM     42  C   UNL A   1      40.079  25.809  27.878  1.00  0.00     0.002 A 
ATOM     43  C   UNL A   1      41.713  27.314  26.905  1.00  0.00     0.091 A 
ATOM     44  F   UNL A   1      42.458  29.199  28.167  1.00  0.00    -0.205 F 
ATOM     45  C   UNL A   1      40.918  26.159  26.824  1.00  0.00     0.022 A 
BRANCH  43  46
ATOM     46  S   UNL A   1      42.706  27.719  25.462  1.00  0.00     0.127 S 
ATOM     47  O   UNL A   1      42.596  26.492  24.676  1.00  0.00    -0.237 OA
ATOM     48  O   UNL A   1      41.986  28.865  24.905  1.00  0.00    -0.237 OA
ATOM     49  O   UNL A   1      44.038  28.023  25.964  1.00  0.00    -0.744 OA
ENDBRANCH  43  46
ENDBRANCH  25  39
BRANCH  26  50
ATOM     50  C   UNL A   1      39.492  33.761  37.039  1.00  0.00     0.023 A 
ATOM     51  C   UNL A   1      39.870  35.114  36.979  1.00  0.00     0.012 A 
ATOM     52  C   UNL A   1      38.865  33.272  38.201  1.00  0.00     0.148 A 
ATOM     53  C   UNL A   1      39.649  35.960  38.067  1.00  0.00     0.002 A 
ATOM     54  C   UNL A   1      38.589  34.135  39.255  1.00  0.00     0.091 A 
ATOM     55  F   UNL A   1      38.529  31.975  38.249  1.00  0.00    -0.205 F 
ATOM     56  C   UNL A   1      38.996  35.476  39.198  1.00  0.00     0.022 A 
BRANCH  54  57
ATOM     57  S   UNL A   1      37.611  33.619  40.670  1.00  0.00     0.127 S 
ATOM     58  O   UNL A   1      38.497  32.651  41.309  1.00  0.00    -0.237 OA
ATOM     59  O   UNL A   1      37.439  34.875  41.402  1.00  0.00    -0.237 OA
ATOM     60  O   UNL A   1      36.376  33.086  40.109  1.00  0.00    -0.744 OA
ENDBRANCH  54  57
ENDBRANCH  26  50
BRANCH  38  61
ATOM     61  C   UNL A   1      44.151  28.831  35.417  1.00  0.00     0.023 A 
ATOM     62  C   UNL A   1      45.442  29.366  35.235  1.00  0.00     0.012 A 
ATOM     63  C   UNL A   1      43.957  27.785  36.339  1.00  0.00     0.148 A 
ATOM     64  C   UNL A   1      46.528  28.845  35.933  1.00  0.00     0.002 A 
ATOM     65  C   UNL A   1      45.038  27.302  37.066  1.00  0.00     0.091 A 
ATOM     66  F   UNL A   1      42.725  27.274  36.479  1.00  0.00    -0.205 F 
ATOM     67  C   UNL A   1      46.325  27.822  36.857  1.00  0.00     0.022 A 
BRANCH  65  68
ATOM     68  S   UNL A   1      44.851  26.048  38.338  1.00  0.00     0.127 S 
ATOM     69  O   UNL A   1      46.229  25.874  38.790  1.00  0.00    -0.237 OA
ATOM     70  O   UNL A   1      43.971  26.711  39.303  1.00  0.00    -0.237 OA
ATOM     71  O   UNL A   1      44.256  24.896  37.676  1.00  0.00    -0.744 OA
ENDBRANCH  65  68
ENDBRANCH  38  61
ENDBRANCH  12  13
ENDBRANCH   5   7
ENDBRANCH   2   3
ENDBRANCH   1   2
BRANCH   1  72
ATOM     72  C   UNL A   1      31.451  31.022  25.919  1.00  0.00     0.117 C 
BRANCH  72  73
ATOM     73  N   UNL A   1      32.571  30.153  26.245  1.00  0.00    -0.356 N 
ATOM     74  C   UNL A   1      33.348  29.278  25.571  1.00  0.00     0.223 C 
ATOM     75  H   UNL A   1      32.827  30.220  27.193  1.00  0.00     0.163 HD
ATOM     76  O   UNL A   1      34.242  28.751  26.246  1.00  0.00    -0.275 OA
BRANCH  74  77
ATOM     77  C   UNL A   1      33.179  28.873  24.102  1.00  0.00     0.082 C 
ATOM     78  C   UNL A   1      31.666  28.689  23.819  1.00  0.00     0.035 C 
ATOM     79  C   UNL A   1      33.884  27.623  23.584  1.00  0.00     0.035 C 
ATOM     80  C   UNL A   1      31.129  27.404  24.465  1.00  0.00     0.120 C 
ATOM     81  C   UNL A   1      33.370  26.391  24.325  1.00  0.00     0.120 C 
ATOM     82  N   UNL A   1      31.942  26.247  24.078  1.00  0.00    -0.340 N 
ATOM     83  C   UNL A   1      31.345  25.126  23.526  1.00  0.00     0.260 C 
ATOM     84  O   UNL A   1      30.119  25.008  23.453  1.00  0.00    -0.271 OA
BRANCH  83  85
ATOM     85  C   UNL A   1      32.247  24.010  22.968  1.00  0.00     0.329 C 
BRANCH  85  86
ATOM     86  O   UNL A   1      32.726  22.976  23.812  1.00  0.00    -0.482 OA
BRANCH  86  87
ATOM     87  C   UNL A   1      34.020  23.029  24.249  1.00  0.00     0.138 A 
ATOM     88  C   UNL A   1      35.128  23.058  23.398  1.00  0.00     0.049 A 
ATOM     89  C   UNL A   1      34.223  23.176  25.631  1.00  0.00     0.084 A 
ATOM     90  C   UNL A   1      36.414  23.219  23.918  1.00  0.00     0.024 A 
ATOM     91  C   UNL A   1      35.510  23.322  26.154  1.00  0.00     0.045 A 
ATOM     92  Cl  UNL A   1      32.893  23.175  26.736  1.00  0.00    -0.080 Cl
ATOM     93  C   UNL A   1      36.600  23.345  25.291  1.00  0.00     0.042 A 
ATOM     94  Cl  UNL A   1      38.189  23.539  25.920  1.00  0.00    -0.084 Cl
ENDBRANCH  86  87
ENDBRANCH  85  86
ENDBRANCH  83  85
ENDBRANCH  74  77
ENDBRANCH  72  73
ENDBRANCH   1  72
TORSDOF 16
ENDMDL
MODEL 2
REMARK VINA RESULT:     -11.7      1.977      7.855
REMARK SMILES O=C(NCCCNC(=O)C1CCN(C(=O)COc2ccc(Cl)cc2Cl)CC1)c1ccc(-c2c3nc(c(-c4cccc(S(=O)(=O)[O-])c4F)c4ccc([nH]4)c(-c4cccc(S(=O)(=O)[O-])c4F)c4nc(c(-c5cccc(S(=O)(=O)[O-])c5F)c5ccc2[nH]5)C=C4)C=C3)cc1
REMARK SMILES IDX 5 1 4 2 3 3 1 4 2 5 28 7 29 8 90 9 30 10 89 11 31 12 32 13
REMARK SMILES IDX 33 14 83 15 34 16 88 17 82 18 84 19 35 20 87 21 81 22 80 23
REMARK SMILES IDX 36 25 68 26 48 27 67 28 49 29 52 30 66 31 85 32 50 33 51 34
REMARK SMILES IDX 65 36 86 37 53 38 37 39 38 40 46 41 39 42 41 43 47 44 40 45
REMARK SMILES IDX 42 46 43 47 44 48 45 49 69 50 70 51 78 52 71 53 73 54 79 55
REMARK SMILES IDX 72 56 74 57 75 58 76 59 77 60 54 61 55 62 63 63 56 64 58 65
REMARK SMILES IDX 64 66 57 67 59 68 60 69 61 70 62 71 6 72 7 73 8 74 9 76
REMARK SMILES IDX 10 77 11 78 27 79 12 80 26 81 13 82 14 83 15 84 16 85 17 86
REMARK SMILES IDX 18 87 19 88 24 89 20 90 23 91 25 92 21 93 22 94
REMARK H PARENT 3 6 84 24 52 35 7 75
REMARK Flexibility Score: inf
ROOT
ATOM      1  C   UNL A   1      31.397  31.818  26.562  1.00  0.00     0.042 C 
ENDROOT
BRANCH   1   2
ATOM      2  C   UNL A   1      32.724  32.485  26.872  1.00  0.00     0.118 C 
BRANCH   2   3
ATOM      3  N   UNL A   1      32.540  33.810  27.457  1.00  0.00    -0.352 N 
ATOM      4  O   UNL A   1      32.646  35.382  29.061  1.00  0.00    -0.269 OA
ATOM      5  C   UNL A   1      33.136  34.379  28.558  1.00  0.00     0.251 C 
ATOM      6  H   UNL A   1      31.889  34.384  26.993  1.00  0.00     0.163 HD
BRANCH   5   7
ATOM      7  C   UNL A   1      34.358  33.767  29.123  1.00  0.00     0.039 A 
ATOM      8  C   UNL A   1      34.249  32.704  30.018  1.00  0.00     0.014 A 
ATOM      9  C   UNL A   1      35.618  34.238  28.744  1.00  0.00     0.014 A 
ATOM     10  C   UNL A   1      35.374  32.242  30.680  1.00  0.00     0.010 A 
ATOM     11  C   UNL A   1      36.764  33.671  29.309  1.00  0.00     0.010 A 
ATOM     12  C   UNL A   1      36.648  32.688  30.304  1.00  0.00    -0.014 A 
BRANCH  12  13
ATOM     13  C   UNL A   1      37.828  32.007  30.893  1.00  0.00     0.031 A 
ATOM     14  C   UNL A   1      38.310  32.321  32.278  1.00  0.00     0.074 A 
ATOM     15  C   UNL A   1      38.437  31.059  30.151  1.00  0.00     0.049 A 
ATOM     16  N   UNL A   1      39.289  31.766  32.946  1.00  0.00    -0.248 NA
ATOM     17  C   UNL A   1      37.622  33.397  33.010  1.00  0.00     0.031 C 
ATOM     18  C   UNL A   1      38.075  30.710  28.773  1.00  0.00     0.029 A 
ATOM     19  N   UNL A   1      39.465  30.204  30.446  1.00  0.00    -0.354 N 
ATOM     20  C   UNL A   1      39.364  32.447  34.154  1.00  0.00     0.074 A 
ATOM     21  C   UNL A   1      38.333  33.462  34.129  1.00  0.00     0.031 C 
ATOM     22  C   UNL A   1      38.829  29.682  28.362  1.00  0.00     0.029 A 
ATOM     23  C   UNL A   1      39.777  29.347  29.415  1.00  0.00     0.049 A 
ATOM     24  H   UNL A   1      39.937  30.204  31.310  1.00  0.00     0.167 HD
ATOM     25  C   UNL A   1      40.209  32.234  35.190  1.00  0.00     0.034 A 
ATOM     26  C   UNL A   1      40.733  28.406  29.318  1.00  0.00     0.034 A 
ATOM     27  C   UNL A   1      41.206  31.195  35.214  1.00  0.00     0.049 A 
ATOM     28  C   UNL A   1      41.629  28.174  30.497  1.00  0.00     0.074 A 
ATOM     29  C   UNL A   1      42.076  30.862  36.238  1.00  0.00     0.029 A 
ATOM     30  N   UNL A   1      41.472  30.325  34.168  1.00  0.00    -0.354 N 
ATOM     31  N   UNL A   1      41.605  28.752  31.673  1.00  0.00    -0.248 NA
ATOM     32  C   UNL A   1      42.668  27.149  30.346  1.00  0.00     0.031 C 
ATOM     33  C   UNL A   1      42.878  29.801  35.802  1.00  0.00     0.029 A 
ATOM     34  C   UNL A   1      42.496  29.460  34.515  1.00  0.00     0.049 A 
ATOM     35  H   UNL A   1      41.001  30.322  33.303  1.00  0.00     0.167 HD
ATOM     36  C   UNL A   1      42.617  28.151  32.409  1.00  0.00     0.074 A 
ATOM     37  C   UNL A   1      43.207  27.138  31.557  1.00  0.00     0.031 C 
ATOM     38  C   UNL A   1      43.039  28.431  33.667  1.00  0.00     0.034 A 
BRANCH  25  39
ATOM     39  C   UNL A   1      40.074  33.113  36.406  1.00  0.00     0.023 A 
ATOM     40  C   UNL A   1      40.687  34.381  36.419  1.00  0.00     0.012 A 
ATOM     41  C   UNL A   1      39.276  32.720  37.499  1.00  0.00     0.148 A 
ATOM     42  C   UNL A   1      40.526  35.237  37.509  1.00  0.00     0.002 A 
ATOM     43  C   UNL A   1      39.088  33.594  38.564  1.00  0.00     0.091 A 
ATOM     44  F   UNL A   1      38.717  31.501  37.477  1.00  0.00    -0.205 F 
ATOM     45  C   UNL A   1      39.719  34.849  38.574  1.00  0.00     0.022 A 
BRANCH  43  46
ATOM     46  S   UNL A   1      38.008  33.217  39.951  1.00  0.00     0.127 S 
ATOM     47  O   UNL A   1      38.153  34.418  40.772  1.00  0.00    -0.237 OA
ATOM     48  O   UNL A   1      36.706  33.079  39.298  1.00  0.00    -0.237 OA
ATOM     49  O   UNL A   1      38.526  31.991  40.542  1.00  0.00    -0.744 OA
ENDBRANCH  43  46
ENDBRANCH  25  39
BRANCH  26  50
ATOM     50  C   UNL A   1      40.858  27.604  28.069  1.00  0.00     0.023 A 
ATOM     51  C   UNL A   1      41.598  28.112  26.986  1.00  0.00     0.012 A 
ATOM     52  C   UNL A   1      40.293  26.317  27.972  1.00  0.00     0.148 A 
ATOM     53  C   UNL A   1      41.753  27.362  25.819  1.00  0.00     0.002 A 
ATOM     54  C   UNL A   1      40.507  25.550  26.833  1.00  0.00     0.091 A 
ATOM     55  F   UNL A   1      39.574  25.855  29.006  1.00  0.00    -0.205 F 
ATOM     56  C   UNL A   1      41.221  26.077  25.747  1.00  0.00     0.022 A 
BRANCH  54  57
ATOM     57  S   UNL A   1      39.989  23.833  26.738  1.00  0.00     0.127 S 
ATOM     58  O   UNL A   1      40.921  23.293  25.752  1.00  0.00    -0.237 OA
ATOM     59  O   UNL A   1      40.204  23.368  28.109  1.00  0.00    -0.237 OA
ATOM     60  O   UNL A   1      38.588  23.876  26.340  1.00  0.00    -0.744 OA
ENDBRANCH  54  57
ENDBRANCH  26  50
BRANCH  38  61
ATOM     61  C   UNL A   1      44.187  27.617  34.197  1.00  0.00     0.023 A 
ATOM     62  C   UNL A   1      45.506  28.087  34.033  1.00  0.00     0.012 A 
ATOM     63  C   UNL A   1      43.960  26.415  34.893  1.00  0.00     0.148 A 
ATOM     64  C   UNL A   1      46.584  27.353  34.524  1.00  0.00     0.002 A 
ATOM     65  C   UNL A   1      45.036  25.713  35.420  1.00  0.00     0.091 A 
ATOM     66  F   UNL A   1      42.699  25.974  35.016  1.00  0.00    -0.205 F 
ATOM     67  C   UNL A   1      46.349  26.174  35.227  1.00  0.00     0.022 A 
BRANCH  65  68
ATOM     68  S   UNL A   1      44.819  24.233  36.414  1.00  0.00     0.127 S 
ATOM     69  O   UNL A   1      44.241  23.306  35.445  1.00  0.00    -0.237 OA
ATOM     70  O   UNL A   1      46.192  23.921  36.814  1.00  0.00    -0.237 OA
ATOM     71  O   UNL A   1      43.945  24.618  37.514  1.00  0.00    -0.744 OA
ENDBRANCH  65  68
ENDBRANCH  38  61
ENDBRANCH  12  13
ENDBRANCH   5   7
ENDBRANCH   2   3
ENDBRANCH   1   2
BRANCH   1  72
ATOM     72  C   UNL A   1      31.545  30.320  26.408  1.00  0.00     0.117 C 
BRANCH  72  73
ATOM     73  N   UNL A   1      31.236  29.877  25.057  1.00  0.00    -0.356 N 
ATOM     74  C   UNL A   1      31.919  29.302  24.045  1.00  0.00     0.223 C 
ATOM     75  H   UNL A   1      30.293  30.035  24.823  1.00  0.00     0.163 HD
ATOM     76  O   UNL A   1      31.244  29.056  23.037  1.00  0.00    -0.275 OA
BRANCH  74  77
ATOM     77  C   UNL A   1      33.420  28.987  24.038  1.00  0.00     0.082 C 
ATOM     78  C   UNL A   1      33.756  28.248  22.718  1.00  0.00     0.035 C 
ATOM     79  C   UNL A   1      34.018  28.162  25.174  1.00  0.00     0.035 C 
ATOM     80  C   UNL A   1      33.227  26.806  22.734  1.00  0.00     0.120 C 
ATOM     81  C   UNL A   1      33.390  26.770  25.192  1.00  0.00     0.120 C 
ATOM     82  N   UNL A   1      33.685  26.098  23.934  1.00  0.00    -0.340 N 
ATOM     83  C   UNL A   1      34.339  24.883  23.822  1.00  0.00     0.260 C 
ATOM     84  O   UNL A   1      34.453  24.300  22.740  1.00  0.00    -0.271 OA
BRANCH  83  85
ATOM     85  C   UNL A   1      34.961  24.261  25.086  1.00  0.00     0.329 C 
BRANCH  85  86
ATOM     86  O   UNL A   1      34.220  23.356  25.887  1.00  0.00    -0.482 OA
BRANCH  86  87
ATOM     87  C   UNL A   1      33.914  22.124  25.379  1.00  0.00     0.138 A 
ATOM     88  C   UNL A   1      34.836  21.081  25.260  1.00  0.00     0.049 A 
ATOM     89  C   UNL A   1      32.567  21.876  25.069  1.00  0.00     0.084 A 
ATOM     90  C   UNL A   1      34.423  19.818  24.830  1.00  0.00     0.024 A 
ATOM     91  C   UNL A   1      32.154  20.618  24.624  1.00  0.00     0.045 A 
ATOM     92  Cl  UNL A   1      31.371  23.116  25.219  1.00  0.00    -0.080 Cl
ATOM     93  C   UNL A   1      33.087  19.594  24.509  1.00  0.00     0.042 A 
ATOM     94  Cl  UNL A   1      32.591  18.036  23.977  1.00  0.00    -0.084 Cl
ENDBRANCH  86  87
ENDBRANCH  85  86
ENDBRANCH  83  85
ENDBRANCH  74  77
ENDBRANCH  72  73
ENDBRANCH   1  72
TORSDOF 16
ENDMDL
MODEL 3
REMARK VINA RESULT:     -11.7      6.364      9.957
REMARK SMILES O=C(NCCCNC(=O)C1CCN(C(=O)COc2ccc(Cl)cc2Cl)CC1)c1ccc(-c2c3nc(c(-c4cccc(S(=O)(=O)[O-])c4F)c4ccc([nH]4)c(-c4cccc(S(=O)(=O)[O-])c4F)c4nc(c(-c5cccc(S(=O)(=O)[O-])c5F)c5ccc2[nH]5)C=C4)C=C3)cc1
REMARK SMILES IDX 5 1 4 2 3 3 1 4 2 5 28 7 29 8 90 9 30 10 89 11 31 12 32 13
REMARK SMILES IDX 33 14 83 15 34 16 88 17 82 18 84 19 35 20 87 21 81 22 80 23
REMARK SMILES IDX 36 25 68 26 48 27 67 28 49 29 52 30 66 31 85 32 50 33 51 34
REMARK SMILES IDX 65 36 86 37 53 38 37 39 38 40 46 41 39 42 41 43 47 44 40 45
REMARK SMILES IDX 42 46 43 47 44 48 45 49 69 50 70 51 78 52 71 53 73 54 79 55
REMARK SMILES IDX 72 56 74 57 75 58 76 59 77 60 54 61 55 62 63 63 56 64 58 65
REMARK SMILES IDX 64 66 57 67 59 68 60 69 61 70 62 71 6 72 7 73 8 74 9 76
REMARK SMILES IDX 10 77 11 78 27 79 12 80 26 81 13 82 14 83 15 84 16 85 17 86
REMARK SMILES IDX 18 87 19 88 24 89 20 90 23 91 25 92 21 93 22 94
REMARK H PARENT 3 6 84 24 52 35 7 75
REMARK Flexibility Score: inf
ROOT
ATOM      1  C   UNL A   1      37.897  19.491  25.001  1.00  0.00     0.042 C 
ENDROOT
BRANCH   1   2
ATOM      2  C   UNL A   1      39.047  20.121  25.765  1.00  0.00     0.118 C 
BRANCH   2   3
ATOM      3  N   UNL A   1      40.183  19.210  25.879  1.00  0.00    -0.352 N 
ATOM      4  O   UNL A   1      42.348  18.607  25.821  1.00  0.00    -0.269 OA
ATOM      5  C   UNL A   1      41.522  19.484  26.035  1.00  0.00     0.251 C 
ATOM      6  H   UNL A   1      39.956  18.253  25.838  1.00  0.00     0.163 HD
BRANCH   5   7
ATOM      7  C   UNL A   1      41.944  20.838  26.452  1.00  0.00     0.039 A 
ATOM      8  C   UNL A   1      42.063  21.850  25.501  1.00  0.00     0.014 A 
ATOM      9  C   UNL A   1      42.202  21.109  27.799  1.00  0.00     0.014 A 
ATOM     10  C   UNL A   1      42.621  23.067  25.855  1.00  0.00     0.010 A 
ATOM     11  C   UNL A   1      42.631  22.385  28.176  1.00  0.00     0.010 A 
ATOM     12  C   UNL A   1      42.870  23.365  27.202  1.00  0.00    -0.014 A 
BRANCH  12  13
ATOM     13  C   UNL A   1      43.265  24.753  27.547  1.00  0.00     0.031 A 
ATOM     14  C   UNL A   1      44.646  25.272  27.278  1.00  0.00     0.074 A 
ATOM     15  C   UNL A   1      42.322  25.556  28.083  1.00  0.00     0.049 A 
ATOM     16  N   UNL A   1      45.117  26.477  27.471  1.00  0.00    -0.248 NA
ATOM     17  C   UNL A   1      45.633  24.325  26.732  1.00  0.00     0.031 C 
ATOM     18  C   UNL A   1      40.959  25.135  28.428  1.00  0.00     0.029 A 
ATOM     19  N   UNL A   1      42.347  26.885  28.411  1.00  0.00    -0.354 N 
ATOM     20  C   UNL A   1      46.458  26.428  27.114  1.00  0.00     0.074 A 
ATOM     21  C   UNL A   1      46.731  25.070  26.693  1.00  0.00     0.031 C 
ATOM     22  C   UNL A   1      40.266  26.193  28.867  1.00  0.00     0.029 A 
ATOM     23  C   UNL A   1      41.151  27.349  28.906  1.00  0.00     0.049 A 
ATOM     24  H   UNL A   1      43.144  27.452  28.304  1.00  0.00     0.167 HD
ATOM     25  C   UNL A   1      47.371  27.428  27.126  1.00  0.00     0.034 A 
ATOM     26  C   UNL A   1      40.804  28.566  29.361  1.00  0.00     0.034 A 
ATOM     27  C   UNL A   1      47.073  28.783  27.511  1.00  0.00     0.049 A 
ATOM     28  C   UNL A   1      41.830  29.659  29.328  1.00  0.00     0.074 A 
ATOM     29  C   UNL A   1      47.915  29.883  27.507  1.00  0.00     0.029 A 
ATOM     30  N   UNL A   1      45.844  29.225  27.976  1.00  0.00    -0.354 N 
ATOM     31  N   UNL A   1      43.060  29.618  28.876  1.00  0.00    -0.248 NA
ATOM     32  C   UNL A   1      41.418  30.969  29.846  1.00  0.00     0.031 C 
ATOM     33  C   UNL A   1      47.197  30.984  27.985  1.00  0.00     0.029 A 
ATOM     34  C   UNL A   1      45.903  30.577  28.269  1.00  0.00     0.049 A 
ATOM     35  H   UNL A   1      45.044  28.660  28.082  1.00  0.00     0.167 HD
ATOM     36  C   UNL A   1      43.566  30.899  29.042  1.00  0.00     0.074 A 
ATOM     37  C   UNL A   1      42.495  31.701  29.600  1.00  0.00     0.031 C 
ATOM     38  C   UNL A   1      44.813  31.365  28.783  1.00  0.00     0.034 A 
BRANCH  25  39
ATOM     39  C   UNL A   1      48.773  27.113  26.672  1.00  0.00     0.023 A 
ATOM     40  C   UNL A   1      49.644  26.422  27.537  1.00  0.00     0.012 A 
ATOM     41  C   UNL A   1      49.199  27.426  25.366  1.00  0.00     0.148 A 
ATOM     42  C   UNL A   1      50.926  26.066  27.118  1.00  0.00     0.002 A 
ATOM     43  C   UNL A   1      50.464  27.034  24.943  1.00  0.00     0.091 A 
ATOM     44  F   UNL A   1      48.363  28.102  24.565  1.00  0.00    -0.205 F 
ATOM     45  C   UNL A   1      51.331  26.361  25.819  1.00  0.00     0.022 A 
BRANCH  43  46
ATOM     46  S   UNL A   1      51.053  27.303  23.265  1.00  0.00     0.127 S 
ATOM     47  O   UNL A   1      49.993  26.675  22.478  1.00  0.00    -0.237 OA
ATOM     48  O   UNL A   1      51.090  28.763  23.183  1.00  0.00    -0.237 OA
ATOM     49  O   UNL A   1      52.355  26.655  23.188  1.00  0.00    -0.744 OA
ENDBRANCH  43  46
ENDBRANCH  25  39
BRANCH  26  50
ATOM     50  C   UNL A   1      39.418  28.808  29.851  1.00  0.00     0.023 A 
ATOM     51  C   UNL A   1      39.089  28.505  31.185  1.00  0.00     0.012 A 
ATOM     52  C   UNL A   1      38.443  29.388  29.016  1.00  0.00     0.148 A 
ATOM     53  C   UNL A   1      37.804  28.753  31.671  1.00  0.00     0.002 A 
ATOM     54  C   UNL A   1      37.187  29.692  29.526  1.00  0.00     0.091 A 
ATOM     55  F   UNL A   1      38.768  29.653  27.742  1.00  0.00    -0.205 F 
ATOM     56  C   UNL A   1      36.858  29.360  30.849  1.00  0.00     0.022 A 
BRANCH  54  57
ATOM     57  S   UNL A   1      35.977  30.617  28.573  1.00  0.00     0.127 S 
ATOM     58  O   UNL A   1      35.330  29.559  27.803  1.00  0.00    -0.237 OA
ATOM     59  O   UNL A   1      35.147  31.213  29.621  1.00  0.00    -0.237 OA
ATOM     60  O   UNL A   1      36.752  31.586  27.808  1.00  0.00    -0.744 OA
ENDBRANCH  54  57
ENDBRANCH  26  50
BRANCH  38  61
ATOM     61  C   UNL A   1      45.077  32.813  29.091  1.00  0.00     0.023 A 
ATOM     62  C   UNL A   1      45.577  33.175  30.358  1.00  0.00     0.012 A 
ATOM     63  C   UNL A   1      44.873  33.807  28.115  1.00  0.00     0.148 A 
ATOM     64  C   UNL A   1      45.836  34.510  30.660  1.00  0.00     0.002 A 
ATOM     65  C   UNL A   1      45.178  35.130  28.409  1.00  0.00     0.091 A 
ATOM     66  F   UNL A   1      44.373  33.444  26.924  1.00  0.00    -0.205 F 
ATOM     67  C   UNL A   1      45.649  35.485  29.683  1.00  0.00     0.022 A 
BRANCH  65  68
ATOM     68  S   UNL A   1      45.051  36.436  27.183  1.00  0.00     0.127 S 
ATOM     69  O   UNL A   1      45.477  37.605  27.947  1.00  0.00    -0.237 OA
ATOM     70  O   UNL A   1      46.000  35.997  26.158  1.00  0.00    -0.237 OA
ATOM     71  O   UNL A   1      43.659  36.441  26.750  1.00  0.00    -0.744 OA
ENDBRANCH  65  68
ENDBRANCH  38  61
ENDBRANCH  12  13
ENDBRANCH   5   7
ENDBRANCH   2   3
ENDBRANCH   1   2
BRANCH   1  72
ATOM     72  C   UNL A   1      36.667  20.374  25.012  1.00  0.00     0.117 C 
BRANCH  72  73
ATOM     73  N   UNL A   1      36.765  21.457  24.047  1.00  0.00    -0.356 N 
ATOM     74  C   UNL A   1      36.253  22.701  23.930  1.00  0.00     0.223 C 
ATOM     75  H   UNL A   1      37.350  21.226  23.290  1.00  0.00     0.163 HD
ATOM     76  O   UNL A   1      36.627  23.324  22.928  1.00  0.00    -0.275 OA
BRANCH  74  77
ATOM     77  C   UNL A   1      35.247  23.352  24.886  1.00  0.00     0.082 C 
ATOM     78  C   UNL A   1      34.015  22.418  25.006  1.00  0.00     0.035 C 
ATOM     79  C   UNL A   1      34.717  24.749  24.578  1.00  0.00     0.035 C 
ATOM     80  C   UNL A   1      33.161  22.452  23.730  1.00  0.00     0.120 C 
ATOM     81  C   UNL A   1      33.953  24.737  23.257  1.00  0.00     0.120 C 
ATOM     82  N   UNL A   1      32.818  23.831  23.371  1.00  0.00    -0.340 N 
ATOM     83  C   UNL A   1      31.496  24.191  23.164  1.00  0.00     0.260 C 
ATOM     84  O   UNL A   1      30.586  23.358  23.153  1.00  0.00    -0.271 OA
BRANCH  83  85
ATOM     85  C   UNL A   1      31.160  25.681  22.967  1.00  0.00     0.329 C 
BRANCH  85  86
ATOM     86  O   UNL A   1      30.358  26.372  23.910  1.00  0.00    -0.482 OA
BRANCH  86  87
ATOM     87  C   UNL A   1      30.888  27.451  24.560  1.00  0.00     0.138 A 
ATOM     88  C   UNL A   1      30.781  28.766  24.100  1.00  0.00     0.049 A 
ATOM     89  C   UNL A   1      31.471  27.220  25.817  1.00  0.00     0.084 A 
ATOM     90  C   UNL A   1      31.257  29.827  24.874  1.00  0.00     0.024 A 
ATOM     91  C   UNL A   1      31.961  28.277  26.586  1.00  0.00     0.045 A 
ATOM     92  Cl  UNL A   1      31.610  25.619  26.457  1.00  0.00    -0.080 Cl
ATOM     93  C   UNL A   1      31.849  29.579  26.108  1.00  0.00     0.042 A 
ATOM     94  Cl  UNL A   1      32.434  30.893  27.051  1.00  0.00    -0.084 Cl
ENDBRANCH  86  87
ENDBRANCH  85  86
ENDBRANCH  83  85
ENDBRANCH  74  77
ENDBRANCH  72  73
ENDBRANCH   1  72
TORSDOF 16
ENDMDL
