MODEL 1
REMARK VINA RESULT:     -12.1      0.000      0.000
REMARK SMILES Cc1nccc(CNC(=O)N2CC[C@@H](C(=O)NCCCNC(=O)c3ccc(-c4c5nc(c(-c6cccc(S(=O)(=O)[O-])c6F)c6ccc([nH]6)c(-c6cccc(S(=O)(=O)[O-])c6F)c6nc(c(-c7cccc(S(=O)(=O)[O-])c7F)c7ccc4[nH]7)C=C6)C=C5)cc3)[C@H]2C)n1
REMARK SMILES IDX 19 1 18 2 17 3 15 4 16 5 14 7 11 8 12 9 87 10 13 11 88 12
REMARK SMILES IDX 9 13 8 14 10 16 7 17 6 18 1 19 2 20 3 21 89 22 4 23 5 24
REMARK SMILES IDX 20 25 21 26 22 27 23 29 24 30 25 31 86 32 26 33 85 34 27 35
REMARK SMILES IDX 28 36 29 37 79 38 30 39 84 40 78 41 80 42 31 43 83 44 77 45
REMARK SMILES IDX 76 46 32 48 64 49 44 50 63 51 45 52 48 53 62 54 81 55 46 56
REMARK SMILES IDX 47 57 61 59 82 60 49 61 33 62 34 63 42 64 35 65 37 66 43 67
REMARK SMILES IDX 36 68 38 69 39 70 40 71 41 72 65 73 66 74 74 75 67 76 69 77
REMARK SMILES IDX 75 78 68 79 70 80 71 81 72 82 73 83 50 84 51 85 59 86 52 87
REMARK SMILES IDX 54 88 60 89 53 90 55 91 56 92 57 93 58 94
REMARK H PARENT 17 6 8 15 21 28 80 47 48 58
REMARK Flexibility Score: inf
ROOT
ATOM      1  C   UNL A   1      33.566  28.356  25.045  1.00  0.00     0.042 C 
ENDROOT
BRANCH   1   2
ATOM      2  C   UNL A   1      32.585  27.238  24.694  1.00  0.00     0.117 C 
BRANCH   2   3
ATOM      3  N   UNL A   1      33.073  26.349  23.649  1.00  0.00    -0.356 N 
ATOM      4  C   UNL A   1      33.810  25.211  23.672  1.00  0.00     0.225 C 
ATOM      5  O   UNL A   1      34.019  24.671  22.579  1.00  0.00    -0.275 OA
ATOM      6  H   UNL A   1      32.814  26.630  22.741  1.00  0.00     0.163 HD
BRANCH   4   7
ATOM      7  C   UNL A   1      34.377  24.576  24.932  1.00  0.00     0.102 C 
ATOM      8  N   UNL A   1      34.155  22.384  25.872  1.00  0.00    -0.321 N 
ATOM      9  C   UNL A   1      35.573  22.643  25.693  1.00  0.00     0.122 C 
ATOM     10  C   UNL A   1      33.450  23.676  25.779  1.00  0.00     0.096 C 
ATOM     11  C   UNL A   1      35.671  23.792  24.715  1.00  0.00     0.037 C 
ATOM     12  C   UNL A   1      31.986  23.688  25.369  1.00  0.00     0.032 C 
BRANCH   8  13
ATOM     13  C   UNL A   1      33.860  21.451  26.845  1.00  0.00     0.317 C 
ATOM     14  N   UNL A   1      33.167  20.344  26.503  1.00  0.00    -0.332 N 
ATOM     15  H   UNL A   1      32.880  19.783  27.259  1.00  0.00     0.165 HD
ATOM     16  O   UNL A   1      34.288  21.542  27.995  1.00  0.00    -0.249 OA
BRANCH  14  17
ATOM     17  C   UNL A   1      32.780  19.857  25.198  1.00  0.00     0.174 C 
BRANCH  17  18
ATOM     18  C   UNL A   1      33.175  18.434  24.905  1.00  0.00     0.063 A 
ATOM     19  C   UNL A   1      32.007  15.147  26.052  1.00  0.00     0.089 C 
ATOM     20  C   UNL A   1      32.741  16.199  25.279  1.00  0.00     0.125 A 
ATOM     21  N   UNL A   1      33.526  15.806  24.256  1.00  0.00    -0.242 NA
ATOM     22  N   UNL A   1      32.530  17.485  25.613  1.00  0.00    -0.236 NA
ATOM     23  C   UNL A   1      34.154  16.781  23.576  1.00  0.00     0.115 A 
ATOM     24  C   UNL A   1      34.019  18.120  23.859  1.00  0.00     0.046 A 
ENDBRANCH  17  18
ENDBRANCH  14  17
ENDBRANCH   8  13
ENDBRANCH   4   7
ENDBRANCH   2   3
ENDBRANCH   1   2
BRANCH   1  25
ATOM     25  C   UNL A   1      33.647  28.712  26.524  1.00  0.00     0.118 C 
BRANCH  25  26
ATOM     26  N   UNL A   1      33.718  30.146  26.757  1.00  0.00    -0.352 N 
ATOM     27  C   UNL A   1      34.612  30.880  27.503  1.00  0.00     0.251 C 
ATOM     28  H   UNL A   1      33.017  30.673  26.311  1.00  0.00     0.163 HD
ATOM     29  O   UNL A   1      34.370  32.064  27.723  1.00  0.00    -0.269 OA
BRANCH  27  30
ATOM     30  C   UNL A   1      35.845  30.265  28.058  1.00  0.00     0.039 A 
ATOM     31  C   UNL A   1      37.005  30.261  27.276  1.00  0.00     0.014 A 
ATOM     32  C   UNL A   1      35.862  29.649  29.312  1.00  0.00     0.014 A 
ATOM     33  C   UNL A   1      38.185  29.691  27.773  1.00  0.00     0.010 A 
ATOM     34  C   UNL A   1      37.058  29.167  29.841  1.00  0.00     0.010 A 
ATOM     35  C   UNL A   1      38.231  29.164  29.073  1.00  0.00    -0.014 A 
BRANCH  35  36
ATOM     36  C   UNL A   1      39.484  28.586  29.635  1.00  0.00     0.031 A 
ATOM     37  C   UNL A   1      40.131  29.205  30.850  1.00  0.00     0.074 A 
ATOM     38  C   UNL A   1      40.088  27.552  29.014  1.00  0.00     0.049 A 
ATOM     39  N   UNL A   1      41.256  28.888  31.438  1.00  0.00    -0.248 NA
ATOM     40  C   UNL A   1      39.438  30.348  31.468  1.00  0.00     0.031 C 
ATOM     41  C   UNL A   1      39.615  26.907  27.788  1.00  0.00     0.029 A 
ATOM     42  N   UNL A   1      41.247  26.879  29.315  1.00  0.00    -0.354 N 
ATOM     43  C   UNL A   1      41.423  29.810  32.467  1.00  0.00     0.074 A 
ATOM     44  C   UNL A   1      40.304  30.722  32.398  1.00  0.00     0.031 C 
ATOM     45  C   UNL A   1      40.472  25.934  27.443  1.00  0.00     0.029 A 
ATOM     46  C   UNL A   1      41.573  25.902  28.402  1.00  0.00     0.049 A 
ATOM     47  H   UNL A   1      41.795  27.078  30.110  1.00  0.00     0.167 HD
ATOM     48  C   UNL A   1      42.398  29.874  33.405  1.00  0.00     0.034 A 
ATOM     49  C   UNL A   1      42.638  25.079  28.336  1.00  0.00     0.034 A 
ATOM     50  C   UNL A   1      43.480  28.933  33.513  1.00  0.00     0.049 A 
ATOM     51  C   UNL A   1      43.680  25.136  29.421  1.00  0.00     0.074 A 
ATOM     52  C   UNL A   1      44.467  28.864  34.480  1.00  0.00     0.029 A 
ATOM     53  N   UNL A   1      43.716  27.893  32.627  1.00  0.00    -0.354 N 
ATOM     54  N   UNL A   1      43.735  25.919  30.471  1.00  0.00    -0.248 NA
ATOM     55  C   UNL A   1      44.786  24.171  29.336  1.00  0.00     0.031 C 
ATOM     56  C   UNL A   1      45.308  27.790  34.172  1.00  0.00     0.029 A 
ATOM     57  C   UNL A   1      44.832  27.178  33.024  1.00  0.00     0.049 A 
ATOM     58  H   UNL A   1      43.170  27.693  31.833  1.00  0.00     0.167 HD
ATOM     59  C   UNL A   1      44.856  25.518  31.187  1.00  0.00     0.074 A 
ATOM     60  C   UNL A   1      45.440  24.407  30.465  1.00  0.00     0.031 C 
ATOM     61  C   UNL A   1      45.368  26.036  32.331  1.00  0.00     0.034 A 
BRANCH  48  62
ATOM     62  C   UNL A   1      42.301  30.962  34.445  1.00  0.00     0.023 A 
ATOM     63  C   UNL A   1      41.659  30.690  35.671  1.00  0.00     0.012 A 
ATOM     64  C   UNL A   1      42.900  32.221  34.243  1.00  0.00     0.148 A 
ATOM     65  C   UNL A   1      41.585  31.662  36.666  1.00  0.00     0.002 A 
ATOM     66  C   UNL A   1      42.859  33.171  35.258  1.00  0.00     0.091 A 
ATOM     67  F   UNL A   1      43.490  32.468  33.065  1.00  0.00    -0.205 F 
ATOM     68  C   UNL A   1      42.194  32.898  36.464  1.00  0.00     0.022 A 
BRANCH  66  69
ATOM     69  S   UNL A   1      43.678  34.765  35.129  1.00  0.00     0.127 S 
ATOM     70  O   UNL A   1      42.863  35.434  34.117  1.00  0.00    -0.237 OA
ATOM     71  O   UNL A   1      43.527  35.299  36.483  1.00  0.00    -0.237 OA
ATOM     72  O   UNL A   1      45.051  34.481  34.739  1.00  0.00    -0.744 OA
ENDBRANCH  66  69
ENDBRANCH  48  62
BRANCH  49  73
ATOM     73  C   UNL A   1      42.742  24.083  27.231  1.00  0.00     0.023 A 
ATOM     74  C   UNL A   1      43.487  24.399  26.080  1.00  0.00     0.012 A 
ATOM     75  C   UNL A   1      42.129  22.819  27.326  1.00  0.00     0.148 A 
ATOM     76  C   UNL A   1      43.593  23.489  25.026  1.00  0.00     0.002 A 
ATOM     77  C   UNL A   1      42.286  21.895  26.300  1.00  0.00     0.091 A 
ATOM     78  F   UNL A   1      41.411  22.541  28.423  1.00  0.00    -0.205 F 
ATOM     79  C   UNL A   1      43.003  22.234  25.142  1.00  0.00     0.022 A 
BRANCH  77  80
ATOM     80  S   UNL A   1      41.686  20.208  26.433  1.00  0.00     0.127 S 
ATOM     81  O   UNL A   1      42.185  19.814  27.746  1.00  0.00    -0.237 OA
ATOM     82  O   UNL A   1      40.238  20.393  26.348  1.00  0.00    -0.237 OA
ATOM     83  O   UNL A   1      42.262  19.503  25.293  1.00  0.00    -0.744 OA
ENDBRANCH  77  80
ENDBRANCH  49  73
BRANCH  61  84
ATOM     84  C   UNL A   1      46.601  25.388  32.904  1.00  0.00     0.023 A 
ATOM     85  C   UNL A   1      47.874  25.873  32.547  1.00  0.00     0.012 A 
ATOM     86  C   UNL A   1      46.495  24.351  33.852  1.00  0.00     0.148 A 
ATOM     87  C   UNL A   1      49.025  25.317  33.104  1.00  0.00     0.002 A 
ATOM     88  C   UNL A   1      47.645  23.833  34.437  1.00  0.00     0.091 A 
ATOM     89  F   UNL A   1      45.275  23.890  34.162  1.00  0.00    -0.205 F 
ATOM     90  C   UNL A   1      48.910  24.307  34.057  1.00  0.00     0.022 A 
BRANCH  88  91
ATOM     91  S   UNL A   1      47.587  22.596  35.739  1.00  0.00     0.127 S 
ATOM     92  O   UNL A   1      47.266  21.385  34.986  1.00  0.00    -0.237 OA
ATOM     93  O   UNL A   1      48.949  22.641  36.272  1.00  0.00    -0.237 OA
ATOM     94  O   UNL A   1      46.561  23.046  36.672  1.00  0.00    -0.744 OA
ENDBRANCH  88  91
ENDBRANCH  61  84
ENDBRANCH  35  36
ENDBRANCH  27  30
ENDBRANCH  25  26
ENDBRANCH   1  25
TORSDOF 16
ENDMDL
MODEL 2
REMARK VINA RESULT:     -11.8      4.646      9.926
REMARK SMILES Cc1nccc(CNC(=O)N2CC[C@@H](C(=O)NCCCNC(=O)c3ccc(-c4c5nc(c(-c6cccc(S(=O)(=O)[O-])c6F)c6ccc([nH]6)c(-c6cccc(S(=O)(=O)[O-])c6F)c6nc(c(-c7cccc(S(=O)(=O)[O-])c7F)c7ccc4[nH]7)C=C6)C=C5)cc3)[C@H]2C)n1
REMARK SMILES IDX 19 1 18 2 17 3 15 4 16 5 14 7 11 8 12 9 87 10 13 11 88 12
REMARK SMILES IDX 9 13 8 14 10 16 7 17 6 18 1 19 2 20 3 21 89 22 4 23 5 24
REMARK SMILES IDX 20 25 21 26 22 27 23 29 24 30 25 31 86 32 26 33 85 34 27 35
REMARK SMILES IDX 28 36 29 37 79 38 30 39 84 40 78 41 80 42 31 43 83 44 77 45
REMARK SMILES IDX 76 46 32 48 64 49 44 50 63 51 45 52 48 53 62 54 81 55 46 56
REMARK SMILES IDX 47 57 61 59 82 60 49 61 33 62 34 63 42 64 35 65 37 66 43 67
REMARK SMILES IDX 36 68 38 69 39 70 40 71 41 72 65 73 66 74 74 75 67 76 69 77
REMARK SMILES IDX 75 78 68 79 70 80 71 81 72 82 73 83 50 84 51 85 59 86 52 87
REMARK SMILES IDX 54 88 60 89 53 90 55 91 56 92 57 93 58 94
REMARK H PARENT 17 6 8 15 21 28 80 47 48 58
REMARK Flexibility Score: inf
ROOT
ATOM      1  C   UNL A   1      35.177  23.111  26.390  1.00  0.00     0.042 C 
ENDROOT
BRANCH   1   2
ATOM      2  C   UNL A   1      33.946  23.907  25.960  1.00  0.00     0.117 C 
BRANCH   2   3
ATOM      3  N   UNL A   1      32.759  23.607  26.748  1.00  0.00    -0.356 N 
ATOM      4  C   UNL A   1      31.430  23.705  26.493  1.00  0.00     0.225 C 
ATOM      5  O   UNL A   1      30.670  23.320  27.389  1.00  0.00    -0.275 OA
ATOM      6  H   UNL A   1      32.961  23.262  27.648  1.00  0.00     0.163 HD
BRANCH   4   7
ATOM      7  C   UNL A   1      30.838  24.245  25.200  1.00  0.00     0.102 C 
ATOM      8  N   UNL A   1      31.518  26.010  23.730  1.00  0.00    -0.321 N 
ATOM      9  C   UNL A   1      31.428  24.793  22.942  1.00  0.00     0.122 C 
ATOM     10  C   UNL A   1      30.799  25.776  24.997  1.00  0.00     0.096 C 
ATOM     11  C   UNL A   1      31.447  23.649  23.932  1.00  0.00     0.037 C 
ATOM     12  C   UNL A   1      31.171  26.602  26.218  1.00  0.00     0.032 C 
BRANCH   8  13
ATOM     13  C   UNL A   1      31.374  27.175  23.005  1.00  0.00     0.317 C 
ATOM     14  N   UNL A   1      32.286  28.159  23.157  1.00  0.00    -0.332 N 
ATOM     15  H   UNL A   1      32.061  29.007  22.712  1.00  0.00     0.165 HD
ATOM     16  O   UNL A   1      30.499  27.315  22.151  1.00  0.00    -0.249 OA
BRANCH  14  17
ATOM     17  C   UNL A   1      33.541  28.158  23.874  1.00  0.00     0.174 C 
BRANCH  17  18
ATOM     18  C   UNL A   1      33.549  28.961  25.148  1.00  0.00     0.063 A 
ATOM     19  C   UNL A   1      31.398  31.587  26.552  1.00  0.00     0.089 C 
ATOM     20  C   UNL A   1      32.471  30.548  26.431  1.00  0.00     0.125 A 
ATOM     21  N   UNL A   1      33.212  30.268  27.521  1.00  0.00    -0.242 NA
ATOM     22  N   UNL A   1      32.597  29.910  25.253  1.00  0.00    -0.236 NA
ATOM     23  C   UNL A   1      34.153  29.318  27.376  1.00  0.00     0.115 A 
ATOM     24  C   UNL A   1      34.371  28.629  26.206  1.00  0.00     0.046 A 
ENDBRANCH  17  18
ENDBRANCH  14  17
ENDBRANCH   8  13
ENDBRANCH   4   7
ENDBRANCH   2   3
ENDBRANCH   1   2
BRANCH   1  25
ATOM     25  C   UNL A   1      36.476  23.486  25.689  1.00  0.00     0.118 C 
BRANCH  25  26
ATOM     26  N   UNL A   1      37.551  22.542  25.948  1.00  0.00    -0.352 N 
ATOM     27  C   UNL A   1      38.837  22.762  26.388  1.00  0.00     0.251 C 
ATOM     28  H   UNL A   1      37.324  21.599  25.783  1.00  0.00     0.163 HD
ATOM     29  O   UNL A   1      39.643  21.836  26.351  1.00  0.00    -0.269 OA
BRANCH  27  30
ATOM     30  C   UNL A   1      39.268  24.093  26.884  1.00  0.00     0.039 A 
ATOM     31  C   UNL A   1      38.968  24.450  28.204  1.00  0.00     0.014 A 
ATOM     32  C   UNL A   1      39.915  25.015  26.057  1.00  0.00     0.014 A 
ATOM     33  C   UNL A   1      39.364  25.697  28.702  1.00  0.00     0.010 A 
ATOM     34  C   UNL A   1      40.390  26.217  26.581  1.00  0.00     0.010 A 
ATOM     35  C   UNL A   1      40.105  26.583  27.904  1.00  0.00    -0.014 A 
BRANCH  35  36
ATOM     36  C   UNL A   1      40.568  27.901  28.425  1.00  0.00     0.031 A 
ATOM     37  C   UNL A   1      42.041  28.174  28.605  1.00  0.00     0.074 A 
ATOM     38  C   UNL A   1      39.667  28.828  28.809  1.00  0.00     0.049 A 
ATOM     39  N   UNL A   1      42.629  29.228  29.109  1.00  0.00    -0.248 NA
ATOM     40  C   UNL A   1      42.974  27.113  28.190  1.00  0.00     0.031 C 
ATOM     41  C   UNL A   1      38.213  28.666  28.764  1.00  0.00     0.029 A 
ATOM     42  N   UNL A   1      39.843  30.081  29.342  1.00  0.00    -0.354 N 
ATOM     43  C   UNL A   1      43.991  28.944  29.107  1.00  0.00     0.074 A 
ATOM     44  C   UNL A   1      44.139  27.603  28.587  1.00  0.00     0.031 C 
ATOM     45  C   UNL A   1      37.631  29.775  29.245  1.00  0.00     0.029 A 
ATOM     46  C   UNL A   1      38.665  30.716  29.664  1.00  0.00     0.049 A 
ATOM     47  H   UNL A   1      40.730  30.488  29.482  1.00  0.00     0.167 HD
ATOM     48  C   UNL A   1      45.028  29.736  29.470  1.00  0.00     0.034 A 
ATOM     49  C   UNL A   1      38.440  31.916  30.237  1.00  0.00     0.034 A 
ATOM     50  C   UNL A   1      44.889  31.091  29.930  1.00  0.00     0.049 A 
ATOM     51  C   UNL A   1      39.610  32.797  30.582  1.00  0.00     0.074 A 
ATOM     52  C   UNL A   1      45.884  32.001  30.240  1.00  0.00     0.029 A 
ATOM     53  N   UNL A   1      43.680  31.734  30.144  1.00  0.00    -0.354 N 
ATOM     54  N   UNL A   1      40.891  32.565  30.428  1.00  0.00    -0.248 NA
ATOM     55  C   UNL A   1      39.305  34.122  31.143  1.00  0.00     0.031 C 
ATOM     56  C   UNL A   1      45.276  33.191  30.653  1.00  0.00     0.029 A 
ATOM     57  C   UNL A   1      43.903  33.028  30.581  1.00  0.00     0.049 A 
ATOM     58  H   UNL A   1      42.793  31.330  30.005  1.00  0.00     0.167 HD
ATOM     59  C   UNL A   1      41.540  33.724  30.838  1.00  0.00     0.074 A 
ATOM     60  C   UNL A   1      40.512  34.666  31.225  1.00  0.00     0.031 C 
ATOM     61  C   UNL A   1      42.871  33.978  30.904  1.00  0.00     0.034 A 
BRANCH  48  62
ATOM     62  C   UNL A   1      46.422  29.183  29.314  1.00  0.00     0.023 A 
ATOM     63  C   UNL A   1      46.978  28.408  30.354  1.00  0.00     0.012 A 
ATOM     64  C   UNL A   1      47.153  29.366  28.124  1.00  0.00     0.148 A 
ATOM     65  C   UNL A   1      48.249  27.853  30.227  1.00  0.00     0.002 A 
ATOM     66  C   UNL A   1      48.403  28.772  27.987  1.00  0.00     0.091 A 
ATOM     67  F   UNL A   1      46.616  30.120  27.154  1.00  0.00    -0.205 F 
ATOM     68  C   UNL A   1      48.957  28.026  29.040  1.00  0.00     0.022 A 
BRANCH  66  69
ATOM     69  S   UNL A   1      49.363  28.869  26.471  1.00  0.00     0.127 S 
ATOM     70  O   UNL A   1      48.381  28.448  25.474  1.00  0.00    -0.237 OA
ATOM     71  O   UNL A   1      49.713  30.289  26.419  1.00  0.00    -0.237 OA
ATOM     72  O   UNL A   1      50.493  27.971  26.653  1.00  0.00    -0.744 OA
ENDBRANCH  66  69
ENDBRANCH  48  62
BRANCH  49  73
ATOM     73  C   UNL A   1      37.042  32.381  30.463  1.00  0.00     0.023 A 
ATOM     74  C   UNL A   1      36.452  32.217  31.731  1.00  0.00     0.012 A 
ATOM     75  C   UNL A   1      36.305  33.008  29.440  1.00  0.00     0.148 A 
ATOM     76  C   UNL A   1      35.141  32.635  31.967  1.00  0.00     0.002 A 
ATOM     77  C   UNL A   1      35.021  33.475  29.698  1.00  0.00     0.091 A 
ATOM     78  F   UNL A   1      36.876  33.143  28.235  1.00  0.00    -0.205 F 
ATOM     79  C   UNL A   1      34.431  33.274  30.955  1.00  0.00     0.022 A 
BRANCH  77  80
ATOM     80  S   UNL A   1      34.096  34.439  28.499  1.00  0.00     0.127 S 
ATOM     81  O   UNL A   1      34.149  33.583  27.319  1.00  0.00    -0.237 OA
ATOM     82  O   UNL A   1      32.783  34.537  29.137  1.00  0.00    -0.237 OA
ATOM     83  O   UNL A   1      34.804  35.710  28.399  1.00  0.00    -0.744 OA
ENDBRANCH  77  80
ENDBRANCH  49  73
BRANCH  61  84
ATOM     84  C   UNL A   1      43.301  35.341  31.379  1.00  0.00     0.023 A 
ATOM     85  C   UNL A   1      43.620  36.340  30.438  1.00  0.00     0.012 A 
ATOM     86  C   UNL A   1      43.314  35.654  32.752  1.00  0.00     0.148 A 
ATOM     87  C   UNL A   1      43.973  37.621  30.858  1.00  0.00     0.002 A 
ATOM     88  C   UNL A   1      43.623  36.946  33.162  1.00  0.00     0.091 A 
ATOM     89  F   UNL A   1      43.027  34.683  33.633  1.00  0.00    -0.205 F 
ATOM     90  C   UNL A   1      43.963  37.927  32.218  1.00  0.00     0.022 A 
BRANCH  88  91
ATOM     91  S   UNL A   1      43.543  37.453  34.883  1.00  0.00     0.127 S 
ATOM     92  O   UNL A   1      43.828  38.884  34.786  1.00  0.00    -0.237 OA
ATOM     93  O   UNL A   1      42.161  37.129  35.241  1.00  0.00    -0.237 OA
ATOM     94  O   UNL A   1      44.547  36.660  35.581  1.00  0.00    -0.744 OA
ENDBRANCH  88  91
ENDBRANCH  61  84
ENDBRANCH  35  36
ENDBRANCH  27  30
ENDBRANCH  25  26
ENDBRANCH   1  25
TORSDOF 16
ENDMDL
MODEL 3
REMARK VINA RESULT:     -11.7      4.485      9.960
REMARK SMILES Cc1nccc(CNC(=O)N2CC[C@@H](C(=O)NCCCNC(=O)c3ccc(-c4c5nc(c(-c6cccc(S(=O)(=O)[O-])c6F)c6ccc([nH]6)c(-c6cccc(S(=O)(=O)[O-])c6F)c6nc(c(-c7cccc(S(=O)(=O)[O-])c7F)c7ccc4[nH]7)C=C6)C=C5)cc3)[C@H]2C)n1
REMARK SMILES IDX 19 1 18 2 17 3 15 4 16 5 14 7 11 8 12 9 87 10 13 11 88 12
REMARK SMILES IDX 9 13 8 14 10 16 7 17 6 18 1 19 2 20 3 21 89 22 4 23 5 24
REMARK SMILES IDX 20 25 21 26 22 27 23 29 24 30 25 31 86 32 26 33 85 34 27 35
REMARK SMILES IDX 28 36 29 37 79 38 30 39 84 40 78 41 80 42 31 43 83 44 77 45
REMARK SMILES IDX 76 46 32 48 64 49 44 50 63 51 45 52 48 53 62 54 81 55 46 56
REMARK SMILES IDX 47 57 61 59 82 60 49 61 33 62 34 63 42 64 35 65 37 66 43 67
REMARK SMILES IDX 36 68 38 69 39 70 40 71 41 72 65 73 66 74 74 75 67 76 69 77
REMARK SMILES IDX 75 78 68 79 70 80 71 81 72 82 73 83 50 84 51 85 59 86 52 87
REMARK SMILES IDX 54 88 60 89 53 90 55 91 56 92 57 93 58 94
REMARK H PARENT 17 6 8 15 21 28 80 47 48 58
REMARK Flexibility Score: inf
ROOT
ATOM      1  C   UNL A   1      36.668  23.398  24.618  1.00  0.00     0.042 C 
ENDROOT
BRANCH   1   2
ATOM      2  C   UNL A   1      35.357  22.827  24.080  1.00  0.00     0.117 C 
BRANCH   2   3
ATOM      3  N   UNL A   1      35.195  21.403  24.344  1.00  0.00    -0.356 N 
ATOM      4  C   UNL A   1      34.126  20.641  24.681  1.00  0.00     0.225 C 
ATOM      5  O   UNL A   1      34.332  19.427  24.795  1.00  0.00    -0.275 OA
ATOM      6  H   UNL A   1      36.032  20.891  24.261  1.00  0.00     0.163 HD
BRANCH   4   7
ATOM      7  C   UNL A   1      32.723  21.179  24.916  1.00  0.00     0.102 C 
ATOM      8  N   UNL A   1      31.921  23.261  25.790  1.00  0.00    -0.321 N 
ATOM      9  C   UNL A   1      31.337  23.085  24.472  1.00  0.00     0.122 C 
ATOM     10  C   UNL A   1      32.445  21.952  26.225  1.00  0.00     0.096 C 
ATOM     11  C   UNL A   1      32.179  22.039  23.775  1.00  0.00     0.037 C 
ATOM     12  C   UNL A   1      33.567  21.912  27.251  1.00  0.00     0.032 C 
BRANCH   8  13
ATOM     13  C   UNL A   1      31.201  24.082  26.633  1.00  0.00     0.317 C 
ATOM     14  N   UNL A   1      31.590  25.366  26.788  1.00  0.00    -0.332 N 
ATOM     15  H   UNL A   1      31.115  25.862  27.493  1.00  0.00     0.165 HD
ATOM     16  O   UNL A   1      30.157  23.718  27.174  1.00  0.00    -0.249 OA
BRANCH  14  17
ATOM     17  C   UNL A   1      32.599  26.121  26.080  1.00  0.00     0.174 C 
BRANCH  17  18
ATOM     18  C   UNL A   1      32.109  27.393  25.438  1.00  0.00     0.063 A 
ATOM     19  C   UNL A   1      29.554  28.194  22.925  1.00  0.00     0.089 C 
ATOM     20  C   UNL A   1      30.604  28.359  23.981  1.00  0.00     0.125 A 
ATOM     21  N   UNL A   1      30.876  29.604  24.419  1.00  0.00    -0.242 NA
ATOM     22  N   UNL A   1      31.178  27.247  24.474  1.00  0.00    -0.236 NA
ATOM     23  C   UNL A   1      31.812  29.709  25.379  1.00  0.00     0.115 A 
ATOM     24  C   UNL A   1      32.469  28.633  25.928  1.00  0.00     0.046 A 
ENDBRANCH  17  18
ENDBRANCH  14  17
ENDBRANCH   8  13
ENDBRANCH   4   7
ENDBRANCH   2   3
ENDBRANCH   1   2
BRANCH   1  25
ATOM     25  C   UNL A   1      37.011  23.010  26.051  1.00  0.00     0.118 C 
BRANCH  25  26
ATOM     26  N   UNL A   1      38.202  22.182  26.143  1.00  0.00    -0.352 N 
ATOM     27  C   UNL A   1      39.508  22.534  26.396  1.00  0.00     0.251 C 
ATOM     28  H   UNL A   1      38.051  21.220  26.003  1.00  0.00     0.163 HD
ATOM     29  O   UNL A   1      40.391  21.695  26.234  1.00  0.00    -0.269 OA
BRANCH  27  30
ATOM     30  C   UNL A   1      39.869  23.905  26.839  1.00  0.00     0.039 A 
ATOM     31  C   UNL A   1      40.006  24.156  28.208  1.00  0.00     0.014 A 
ATOM     32  C   UNL A   1      40.023  24.956  25.931  1.00  0.00     0.014 A 
ATOM     33  C   UNL A   1      40.348  25.438  28.657  1.00  0.00     0.010 A 
ATOM     34  C   UNL A   1      40.455  26.207  26.373  1.00  0.00     0.010 A 
ATOM     35  C   UNL A   1      40.604  26.471  27.742  1.00  0.00    -0.014 A 
BRANCH  35  36
ATOM     36  C   UNL A   1      41.005  27.833  28.195  1.00  0.00     0.031 A 
ATOM     37  C   UNL A   1      42.461  28.228  28.225  1.00  0.00     0.074 A 
ATOM     38  C   UNL A   1      40.072  28.692  28.653  1.00  0.00     0.049 A 
ATOM     39  N   UNL A   1      43.006  29.338  28.653  1.00  0.00    -0.248 NA
ATOM     40  C   UNL A   1      43.434  27.237  27.737  1.00  0.00     0.031 C 
ATOM     41  C   UNL A   1      38.639  28.412  28.753  1.00  0.00     0.029 A 
ATOM     42  N   UNL A   1      40.194  29.968  29.147  1.00  0.00    -0.354 N 
ATOM     43  C   UNL A   1      44.380  29.165  28.522  1.00  0.00     0.074 A 
ATOM     44  C   UNL A   1      44.588  27.829  28.010  1.00  0.00     0.031 C 
ATOM     45  C   UNL A   1      38.016  29.482  29.273  1.00  0.00     0.029 A 
ATOM     46  C   UNL A   1      39.005  30.513  29.573  1.00  0.00     0.049 A 
ATOM     47  H   UNL A   1      41.054  30.448  29.193  1.00  0.00     0.167 HD
ATOM     48  C   UNL A   1      45.379  30.046  28.770  1.00  0.00     0.034 A 
ATOM     49  C   UNL A   1      38.738  31.703  30.148  1.00  0.00     0.034 A 
ATOM     50  C   UNL A   1      45.172  31.395  29.222  1.00  0.00     0.049 A 
ATOM     51  C   UNL A   1      39.859  32.683  30.364  1.00  0.00     0.074 A 
ATOM     52  C   UNL A   1      46.115  32.390  29.418  1.00  0.00     0.029 A 
ATOM     53  N   UNL A   1      43.941  31.943  29.543  1.00  0.00    -0.354 N 
ATOM     54  N   UNL A   1      41.134  32.552  30.088  1.00  0.00    -0.248 NA
ATOM     55  C   UNL A   1      39.501  33.992  30.932  1.00  0.00     0.031 C 
ATOM     56  C   UNL A   1      45.453  33.536  29.871  1.00  0.00     0.029 A 
ATOM     57  C   UNL A   1      44.097  33.261  29.938  1.00  0.00     0.049 A 
ATOM     58  H   UNL A   1      43.081  31.466  29.498  1.00  0.00     0.167 HD
ATOM     59  C   UNL A   1      41.721  33.768  30.415  1.00  0.00     0.074 A 
ATOM     60  C   UNL A   1      40.661  34.633  30.888  1.00  0.00     0.031 C 
ATOM     61  C   UNL A   1      43.026  34.131  30.347  1.00  0.00     0.034 A 
BRANCH  48  62
ATOM     62  C   UNL A   1      46.792  29.604  28.486  1.00  0.00     0.023 A 
ATOM     63  C   UNL A   1      47.363  29.885  27.227  1.00  0.00     0.012 A 
ATOM     64  C   UNL A   1      47.575  28.978  29.476  1.00  0.00     0.148 A 
ATOM     65  C   UNL A   1      48.679  29.522  26.946  1.00  0.00     0.002 A 
ATOM     66  C   UNL A   1      48.900  28.658  29.202  1.00  0.00     0.091 A 
ATOM     67  F   UNL A   1      47.009  28.703  30.659  1.00  0.00    -0.205 F 
ATOM     68  C   UNL A   1      49.450  28.918  27.936  1.00  0.00     0.022 A 
BRANCH  66  69
ATOM     69  S   UNL A   1      50.002  27.950  30.432  1.00  0.00     0.127 S 
ATOM     70  O   UNL A   1      49.384  26.646  30.665  1.00  0.00    -0.237 OA
ATOM     71  O   UNL A   1      51.276  27.900  29.713  1.00  0.00    -0.237 OA
ATOM     72  O   UNL A   1      49.980  28.863  31.565  1.00  0.00    -0.744 OA
ENDBRANCH  66  69
ENDBRANCH  48  62
BRANCH  49  73
ATOM     73  C   UNL A   1      37.335  32.059  30.504  1.00  0.00     0.023 A 
ATOM     74  C   UNL A   1      36.859  31.793  31.802  1.00  0.00     0.012 A 
ATOM     75  C   UNL A   1      36.479  32.681  29.574  1.00  0.00     0.148 A 
ATOM     76  C   UNL A   1      35.546  32.107  32.159  1.00  0.00     0.002 A 
ATOM     77  C   UNL A   1      35.192  33.045  29.953  1.00  0.00     0.091 A 
ATOM     78  F   UNL A   1      36.944  32.913  28.339  1.00  0.00    -0.205 F 
ATOM     79  C   UNL A   1      34.718  32.743  31.239  1.00  0.00     0.022 A 
BRANCH  77  80
ATOM     80  S   UNL A   1      34.114  33.999  28.880  1.00  0.00     0.127 S 
ATOM     81  O   UNL A   1      33.675  32.990  27.922  1.00  0.00    -0.237 OA
ATOM     82  O   UNL A   1      33.086  34.458  29.814  1.00  0.00    -0.237 OA
ATOM     83  O   UNL A   1      34.951  35.067  28.345  1.00  0.00    -0.744 OA
ENDBRANCH  77  80
ENDBRANCH  49  73
BRANCH  61  84
ATOM     84  C   UNL A   1      43.386  35.535  30.756  1.00  0.00     0.023 A 
ATOM     85  C   UNL A   1      43.772  35.798  32.084  1.00  0.00     0.012 A 
ATOM     86  C   UNL A   1      43.416  36.576  29.807  1.00  0.00     0.148 A 
ATOM     87  C   UNL A   1      44.155  37.082  32.470  1.00  0.00     0.002 A 
ATOM     88  C   UNL A   1      43.842  37.843  30.188  1.00  0.00     0.091 A 
ATOM     89  F   UNL A   1      43.025  36.309  28.552  1.00  0.00    -0.205 F 
ATOM     90  C   UNL A   1      44.201  38.100  31.520  1.00  0.00     0.022 A 
BRANCH  88  91
ATOM     91  S   UNL A   1      44.022  39.190  29.012  1.00  0.00     0.127 S 
ATOM     92  O   UNL A   1      44.353  40.310  29.891  1.00  0.00    -0.237 OA
ATOM     93  O   UNL A   1      45.127  38.725  28.173  1.00  0.00    -0.237 OA
ATOM     94  O   UNL A   1      42.743  39.291  28.321  1.00  0.00    -0.744 OA
ENDBRANCH  88  91
ENDBRANCH  61  84
ENDBRANCH  35  36
ENDBRANCH  27  30
ENDBRANCH  25  26
ENDBRANCH   1  25
TORSDOF 16
ENDMDL
