MODEL 1
REMARK VINA RESULT:     -13.3      0.000      0.000
REMARK SMILES O=C(NCCCNC(=O)c1cc(NC(=O)c2ccccc2Cl)ccc1N1CCC[C@H](C[NH+]2CCCC2)C1)c1ccc(-c2c3nc(c(-c4cccc(S(=O)(=O)[O-])c4F)c4ccc([nH]4)c(-c4cccc(S(=O)(=O)[O-])c4F)c4nc(c(-c5cccc(S(=O)(=O)[O-])c5F)c5ccc2[nH]5)C=C4)C=C3)cc1
REMARK SMILES IDX 5 1 4 2 3 3 1 4 2 5 38 7 39 8 100 9 40 10 99 11 41 12 42 13
REMARK SMILES IDX 43 14 93 15 44 16 98 17 92 18 94 19 45 20 97 21 91 22 90 23
REMARK SMILES IDX 46 25 78 26 58 27 77 28 59 29 62 30 76 31 95 32 60 33 61 34
REMARK SMILES IDX 75 36 96 37 63 38 47 39 48 40 56 41 49 42 51 43 57 44 50 45
REMARK SMILES IDX 52 46 53 47 54 48 55 49 79 50 80 51 88 52 81 53 83 54 89 55
REMARK SMILES IDX 82 56 84 57 85 58 86 59 87 60 64 61 65 62 73 63 66 64 68 65
REMARK SMILES IDX 74 66 67 67 69 68 70 69 71 70 72 71 6 72 7 73 8 74 9 76
REMARK SMILES IDX 10 77 11 78 25 79 12 80 24 81 23 82 26 83 27 84 37 85 28 86
REMARK SMILES IDX 30 87 29 88 31 89 32 90 33 91 36 92 34 94 35 95 13 96 14 97
REMARK SMILES IDX 15 99 16 100 17 101 21 102 18 103 20 104 22 105 19 106
REMARK H PARENT 3 6 94 24 62 35 7 75 32 93 13 98
REMARK Flexibility Score: inf
ROOT
ATOM      1  C   UNL A   1      32.267  28.388  27.472  1.00  0.00     0.042 C 
ENDROOT
BRANCH   1   2
ATOM      2  C   UNL A   1      33.065  29.334  26.593  1.00  0.00     0.118 C 
BRANCH   2   3
ATOM      3  N   UNL A   1      32.878  30.747  26.922  1.00  0.00    -0.352 N 
ATOM      4  O   UNL A   1      33.230  32.759  27.862  1.00  0.00    -0.269 OA
ATOM      5  C   UNL A   1      33.676  31.649  27.598  1.00  0.00     0.251 C 
ATOM      6  H   UNL A   1      32.027  31.125  26.604  1.00  0.00     0.163 HD
BRANCH   5   7
ATOM      7  C   UNL A   1      35.036  31.265  28.043  1.00  0.00     0.039 A 
ATOM      8  C   UNL A   1      35.296  29.974  28.480  1.00  0.00     0.014 A 
ATOM      9  C   UNL A   1      36.072  32.207  28.039  1.00  0.00     0.014 A 
ATOM     10  C   UNL A   1      36.464  29.704  29.174  1.00  0.00     0.010 A 
ATOM     11  C   UNL A   1      37.324  31.874  28.579  1.00  0.00     0.010 A 
ATOM     12  C   UNL A   1      37.513  30.638  29.210  1.00  0.00    -0.014 A 
BRANCH  12  13
ATOM     13  C   UNL A   1      38.788  30.223  29.861  1.00  0.00     0.031 A 
ATOM     14  C   UNL A   1      39.147  30.646  31.261  1.00  0.00     0.074 A 
ATOM     15  C   UNL A   1      39.589  29.368  29.192  1.00  0.00     0.049 A 
ATOM     16  N   UNL A   1      40.161  30.260  31.993  1.00  0.00    -0.248 NA
ATOM     17  C   UNL A   1      38.279  31.632  31.923  1.00  0.00     0.031 C 
ATOM     18  C   UNL A   1      39.381  28.936  27.805  1.00  0.00     0.029 A 
ATOM     19  N   UNL A   1      40.702  28.671  29.585  1.00  0.00    -0.354 N 
ATOM     20  C   UNL A   1      40.081  30.983  33.178  1.00  0.00     0.074 A 
ATOM     21  C   UNL A   1      38.920  31.840  33.067  1.00  0.00     0.031 C 
ATOM     22  C   UNL A   1      40.272  27.986  27.496  1.00  0.00     0.029 A 
ATOM     23  C   UNL A   1      41.170  27.798  28.628  1.00  0.00     0.049 A 
ATOM     24  H   UNL A   1      41.127  28.784  30.466  1.00  0.00     0.167 HD
ATOM     25  C   UNL A   1      40.889  30.926  34.264  1.00  0.00     0.034 A 
ATOM     26  C   UNL A   1      42.208  26.941  28.648  1.00  0.00     0.034 A 
ATOM     27  C   UNL A   1      42.014  30.037  34.389  1.00  0.00     0.049 A 
ATOM     28  C   UNL A   1      43.034  26.844  29.895  1.00  0.00     0.074 A 
ATOM     29  C   UNL A   1      42.878  29.886  35.461  1.00  0.00     0.029 A 
ATOM     30  N   UNL A   1      42.430  29.140  33.416  1.00  0.00    -0.354 N 
ATOM     31  N   UNL A   1      42.878  27.472  31.035  1.00  0.00    -0.248 NA
ATOM     32  C   UNL A   1      44.166  25.910  29.867  1.00  0.00     0.031 C 
ATOM     33  C   UNL A   1      43.816  28.900  35.135  1.00  0.00     0.029 A 
ATOM     34  C   UNL A   1      43.532  28.429  33.864  1.00  0.00     0.049 A 
ATOM     35  H   UNL A   1      42.005  29.025  32.536  1.00  0.00     0.167 HD
ATOM     36  C   UNL A   1      43.896  27.014  31.861  1.00  0.00     0.074 A 
ATOM     37  C   UNL A   1      44.626  26.014  31.106  1.00  0.00     0.031 C 
ATOM     38  C   UNL A   1      44.221  27.413  33.114  1.00  0.00     0.034 A 
BRANCH  25  39
ATOM     39  C   UNL A   1      40.560  31.815  35.437  1.00  0.00     0.023 A 
ATOM     40  C   UNL A   1      41.371  32.936  35.702  1.00  0.00     0.012 A 
ATOM     41  C   UNL A   1      39.409  31.592  36.222  1.00  0.00     0.148 A 
ATOM     42  C   UNL A   1      41.054  33.812  36.741  1.00  0.00     0.002 A 
ATOM     43  C   UNL A   1      39.081  32.491  37.232  1.00  0.00     0.091 A 
ATOM     44  F   UNL A   1      38.660  30.510  35.967  1.00  0.00    -0.205 F 
ATOM     45  C   UNL A   1      39.906  33.596  37.498  1.00  0.00     0.022 A 
BRANCH  43  46
ATOM     46  S   UNL A   1      37.585  32.341  38.217  1.00  0.00     0.127 S 
ATOM     47  O   UNL A   1      36.614  33.054  37.388  1.00  0.00    -0.237 OA
ATOM     48  O   UNL A   1      37.394  30.891  38.270  1.00  0.00    -0.237 OA
ATOM     49  O   UNL A   1      37.886  32.961  39.500  1.00  0.00    -0.744 OA
ENDBRANCH  43  46
ENDBRANCH  25  39
BRANCH  26  50
ATOM     50  C   UNL A   1      42.488  26.094  27.454  1.00  0.00     0.023 A 
ATOM     51  C   UNL A   1      43.277  26.601  26.404  1.00  0.00     0.012 A 
ATOM     52  C   UNL A   1      42.035  24.762  27.389  1.00  0.00     0.148 A 
ATOM     53  C   UNL A   1      43.593  25.801  25.304  1.00  0.00     0.002 A 
ATOM     54  C   UNL A   1      42.415  23.951  26.327  1.00  0.00     0.091 A 
ATOM     55  F   UNL A   1      41.262  24.300  28.383  1.00  0.00    -0.205 F 
ATOM     56  C   UNL A   1      43.178  24.472  25.274  1.00  0.00     0.022 A 
BRANCH  54  57
ATOM     57  S   UNL A   1      42.066  22.188  26.334  1.00  0.00     0.127 S 
ATOM     58  O   UNL A   1      42.529  21.793  27.660  1.00  0.00    -0.237 OA
ATOM     59  O   UNL A   1      40.613  22.155  26.151  1.00  0.00    -0.237 OA
ATOM     60  O   UNL A   1      42.814  21.655  25.202  1.00  0.00    -0.744 OA
ENDBRANCH  54  57
ENDBRANCH  26  50
BRANCH  38  61
ATOM     61  C   UNL A   1      45.428  26.767  33.739  1.00  0.00     0.023 A 
ATOM     62  C   UNL A   1      46.687  27.387  33.604  1.00  0.00     0.012 A 
ATOM     63  C   UNL A   1      45.317  25.577  34.480  1.00  0.00     0.148 A 
ATOM     64  C   UNL A   1      47.824  26.809  34.165  1.00  0.00     0.002 A 
ATOM     65  C   UNL A   1      46.448  25.029  35.072  1.00  0.00     0.091 A 
ATOM     66  F   UNL A   1      44.114  24.990  34.575  1.00  0.00    -0.205 F 
ATOM     67  C   UNL A   1      47.703  25.636  34.907  1.00  0.00     0.022 A 
BRANCH  65  68
ATOM     68  S   UNL A   1      46.363  23.564  36.108  1.00  0.00     0.127 S 
ATOM     69  O   UNL A   1      45.772  22.588  35.197  1.00  0.00    -0.237 OA
ATOM     70  O   UNL A   1      47.770  23.324  36.432  1.00  0.00    -0.237 OA
ATOM     71  O   UNL A   1      45.542  23.940  37.252  1.00  0.00    -0.744 OA
ENDBRANCH  65  68
ENDBRANCH  38  61
ENDBRANCH  12  13
ENDBRANCH   5   7
ENDBRANCH   2   3
ENDBRANCH   1   2
BRANCH   1  72
ATOM     72  C   UNL A   1      32.000  27.050  26.819  1.00  0.00     0.118 C 
BRANCH  72  73
ATOM     73  N   UNL A   1      30.650  26.874  26.321  1.00  0.00    -0.352 N 
ATOM     74  C   UNL A   1      30.175  25.845  25.544  1.00  0.00     0.253 C 
ATOM     75  H   UNL A   1      30.000  27.570  26.566  1.00  0.00     0.163 HD
ATOM     76  O   UNL A   1      28.969  25.751  25.325  1.00  0.00    -0.269 OA
BRANCH  74  77
ATOM     77  C   UNL A   1      31.121  24.924  24.871  1.00  0.00     0.065 A 
ATOM     78  C   UNL A   1      31.147  23.645  25.454  1.00  0.00     0.042 A 
ATOM     79  C   UNL A   1      31.867  25.222  23.713  1.00  0.00     0.050 A 
ATOM     80  C   UNL A   1      31.806  22.588  24.844  1.00  0.00     0.042 A 
ATOM     81  C   UNL A   1      32.580  24.149  23.148  1.00  0.00     0.029 A 
ATOM     82  C   UNL A   1      32.548  22.858  23.695  1.00  0.00     0.028 A 
BRANCH  79  83
ATOM     83  N   UNL A   1      31.991  26.480  23.138  1.00  0.00    -0.370 N 
ATOM     84  C   UNL A   1      33.177  27.307  23.403  1.00  0.00     0.116 C 
ATOM     85  C   UNL A   1      31.124  26.846  22.015  1.00  0.00     0.126 C 
ATOM     86  C   UNL A   1      32.839  28.794  23.395  1.00  0.00     0.022 C 
ATOM     87  C   UNL A   1      30.670  28.306  22.172  1.00  0.00     0.064 C 
ATOM     88  C   UNL A   1      31.936  29.175  22.224  1.00  0.00     0.013 C 
BRANCH  87  89
ATOM     89  C   UNL A   1      29.723  28.409  23.400  1.00  0.00     0.267 C 
BRANCH  89  90
ATOM     90  N   UNL A   1      28.693  29.448  23.458  1.00  0.00    -0.335 N 
ATOM     91  C   UNL A   1      27.708  29.401  22.383  1.00  0.00     0.262 C 
ATOM     92  C   UNL A   1      29.168  30.823  23.577  1.00  0.00     0.262 C 
ATOM     93  H   UNL A   1      28.246  29.195  24.339  1.00  0.00     0.348 HD
ATOM     94  C   UNL A   1      28.121  30.493  21.418  1.00  0.00     0.067 C 
ATOM     95  C   UNL A   1      28.742  31.553  22.308  1.00  0.00     0.067 C 
ENDBRANCH  89  90
ENDBRANCH  87  89
ENDBRANCH  79  83
BRANCH  80  96
ATOM     96  N   UNL A   1      31.773  21.258  25.305  1.00  0.00    -0.322 N 
ATOM     97  C   UNL A   1      32.775  20.366  25.625  1.00  0.00     0.257 C 
ATOM     98  H   UNL A   1      30.864  20.898  25.422  1.00  0.00     0.170 HD
ATOM     99  O   UNL A   1      32.501  19.187  25.845  1.00  0.00    -0.269 OA
BRANCH  97 100
ATOM    100  C   UNL A   1      34.186  20.782  25.716  1.00  0.00     0.058 A 
ATOM    101  C   UNL A   1      35.078  20.214  24.793  1.00  0.00     0.015 A 
ATOM    102  C   UNL A   1      34.641  21.727  26.644  1.00  0.00     0.053 A 
ATOM    103  C   UNL A   1      36.402  20.647  24.750  1.00  0.00     0.001 A 
ATOM    104  C   UNL A   1      35.969  22.161  26.587  1.00  0.00     0.021 A 
ATOM    105  Cl  UNL A   1      33.623  22.407  27.862  1.00  0.00    -0.083 Cl
ATOM    106  C   UNL A   1      36.843  21.632  25.634  1.00  0.00     0.002 A 
ENDBRANCH  97 100
ENDBRANCH  80  96
ENDBRANCH  74  77
ENDBRANCH  72  73
ENDBRANCH   1  72
TORSDOF 18
ENDMDL
MODEL 2
REMARK VINA RESULT:     -13.2      1.333      2.019
REMARK SMILES O=C(NCCCNC(=O)c1cc(NC(=O)c2ccccc2Cl)ccc1N1CCC[C@H](C[NH+]2CCCC2)C1)c1ccc(-c2c3nc(c(-c4cccc(S(=O)(=O)[O-])c4F)c4ccc([nH]4)c(-c4cccc(S(=O)(=O)[O-])c4F)c4nc(c(-c5cccc(S(=O)(=O)[O-])c5F)c5ccc2[nH]5)C=C4)C=C3)cc1
REMARK SMILES IDX 5 1 4 2 3 3 1 4 2 5 38 7 39 8 100 9 40 10 99 11 41 12 42 13
REMARK SMILES IDX 43 14 93 15 44 16 98 17 92 18 94 19 45 20 97 21 91 22 90 23
REMARK SMILES IDX 46 25 78 26 58 27 77 28 59 29 62 30 76 31 95 32 60 33 61 34
REMARK SMILES IDX 75 36 96 37 63 38 47 39 48 40 56 41 49 42 51 43 57 44 50 45
REMARK SMILES IDX 52 46 53 47 54 48 55 49 79 50 80 51 88 52 81 53 83 54 89 55
REMARK SMILES IDX 82 56 84 57 85 58 86 59 87 60 64 61 65 62 73 63 66 64 68 65
REMARK SMILES IDX 74 66 67 67 69 68 70 69 71 70 72 71 6 72 7 73 8 74 9 76
REMARK SMILES IDX 10 77 11 78 25 79 12 80 24 81 23 82 26 83 27 84 37 85 28 86
REMARK SMILES IDX 30 87 29 88 31 89 32 90 33 91 36 92 34 94 35 95 13 96 14 97
REMARK SMILES IDX 15 99 16 100 17 101 21 102 18 103 20 104 22 105 19 106
REMARK H PARENT 3 6 94 24 62 35 7 75 32 93 13 98
REMARK Flexibility Score: inf
ROOT
ATOM      1  C   UNL A   1      31.990  29.180  27.108  1.00  0.00     0.042 C 
ENDROOT
BRANCH   1   2
ATOM      2  C   UNL A   1      32.904  30.164  26.401  1.00  0.00     0.118 C 
BRANCH   2   3
ATOM      3  N   UNL A   1      32.733  31.549  26.836  1.00  0.00    -0.352 N 
ATOM      4  O   UNL A   1      33.089  33.471  27.947  1.00  0.00    -0.269 OA
ATOM      5  C   UNL A   1      33.522  32.376  27.611  1.00  0.00     0.251 C 
ATOM      6  H   UNL A   1      31.902  31.971  26.520  1.00  0.00     0.163 HD
BRANCH   5   7
ATOM      7  C   UNL A   1      34.858  31.927  28.072  1.00  0.00     0.039 A 
ATOM      8  C   UNL A   1      35.037  30.643  28.567  1.00  0.00     0.014 A 
ATOM      9  C   UNL A   1      35.951  32.800  28.024  1.00  0.00     0.014 A 
ATOM     10  C   UNL A   1      36.188  30.332  29.271  1.00  0.00     0.010 A 
ATOM     11  C   UNL A   1      37.181  32.414  28.578  1.00  0.00     0.010 A 
ATOM     12  C   UNL A   1      37.294  31.198  29.264  1.00  0.00    -0.014 A 
BRANCH  12  13
ATOM     13  C   UNL A   1      38.543  30.733  29.931  1.00  0.00     0.031 A 
ATOM     14  C   UNL A   1      38.890  31.126  31.343  1.00  0.00     0.074 A 
ATOM     15  C   UNL A   1      39.327  29.859  29.266  1.00  0.00     0.049 A 
ATOM     16  N   UNL A   1      39.878  30.698  32.088  1.00  0.00    -0.248 NA
ATOM     17  C   UNL A   1      38.044  32.133  32.002  1.00  0.00     0.031 C 
ATOM     18  C   UNL A   1      39.130  29.452  27.870  1.00  0.00     0.029 A 
ATOM     19  N   UNL A   1      40.409  29.120  29.670  1.00  0.00    -0.354 N 
ATOM     20  C   UNL A   1      39.800  31.409  33.280  1.00  0.00     0.074 A 
ATOM     21  C   UNL A   1      38.671  32.305  33.160  1.00  0.00     0.031 C 
ATOM     22  C   UNL A   1      39.993  28.476  27.565  1.00  0.00     0.029 A 
ATOM     23  C   UNL A   1      40.864  28.244  28.710  1.00  0.00     0.049 A 
ATOM     24  H   UNL A   1      40.821  29.209  30.559  1.00  0.00     0.167 HD
ATOM     25  C   UNL A   1      40.586  31.311  34.380  1.00  0.00     0.034 A 
ATOM     26  C   UNL A   1      41.873  27.353  28.737  1.00  0.00     0.034 A 
ATOM     27  C   UNL A   1      41.679  30.384  34.513  1.00  0.00     0.049 A 
ATOM     28  C   UNL A   1      42.673  27.213  29.997  1.00  0.00     0.074 A 
ATOM     29  C   UNL A   1      42.518  30.191  35.598  1.00  0.00     0.029 A 
ATOM     30  N   UNL A   1      42.083  29.485  33.536  1.00  0.00    -0.354 N 
ATOM     31  N   UNL A   1      42.517  27.832  31.142  1.00  0.00    -0.248 NA
ATOM     32  C   UNL A   1      43.774  26.243  29.977  1.00  0.00     0.031 C 
ATOM     33  C   UNL A   1      43.429  29.178  35.276  1.00  0.00     0.029 A 
ATOM     34  C   UNL A   1      43.152  28.733  33.994  1.00  0.00     0.049 A 
ATOM     35  H   UNL A   1      41.670  29.395  32.648  1.00  0.00     0.167 HD
ATOM     36  C   UNL A   1      43.504  27.331  31.980  1.00  0.00     0.074 A 
ATOM     37  C   UNL A   1      44.215  26.316  31.226  1.00  0.00     0.031 C 
ATOM     38  C   UNL A   1      43.821  27.703  33.243  1.00  0.00     0.034 A 
BRANCH  25  39
ATOM     39  C   UNL A   1      40.266  32.197  35.558  1.00  0.00     0.023 A 
ATOM     40  C   UNL A   1      40.972  33.405  35.726  1.00  0.00     0.012 A 
ATOM     41  C   UNL A   1      39.218  31.879  36.446  1.00  0.00     0.148 A 
ATOM     42  C   UNL A   1      40.654  34.274  36.770  1.00  0.00     0.002 A 
ATOM     43  C   UNL A   1      38.883  32.769  37.462  1.00  0.00     0.091 A 
ATOM     44  F   UNL A   1      38.570  30.717  36.282  1.00  0.00    -0.205 F 
ATOM     45  C   UNL A   1      39.605  33.962  37.629  1.00  0.00     0.022 A 
BRANCH  43  46
ATOM     46  S   UNL A   1      37.502  32.493  38.579  1.00  0.00     0.127 S 
ATOM     47  O   UNL A   1      37.850  33.369  39.698  1.00  0.00    -0.237 OA
ATOM     48  O   UNL A   1      36.363  32.947  37.780  1.00  0.00    -0.237 OA
ATOM     49  O   UNL A   1      37.505  31.068  38.876  1.00  0.00    -0.744 OA
ENDBRANCH  43  46
ENDBRANCH  25  39
BRANCH  26  50
ATOM     50  C   UNL A   1      42.146  26.512  27.538  1.00  0.00     0.023 A 
ATOM     51  C   UNL A   1      42.921  27.027  26.482  1.00  0.00     0.012 A 
ATOM     52  C   UNL A   1      41.701  25.177  27.473  1.00  0.00     0.148 A 
ATOM     53  C   UNL A   1      43.230  26.233  25.376  1.00  0.00     0.002 A 
ATOM     54  C   UNL A   1      42.075  24.371  26.405  1.00  0.00     0.091 A 
ATOM     55  F   UNL A   1      40.942  24.707  28.473  1.00  0.00    -0.205 F 
ATOM     56  C   UNL A   1      42.824  24.901  25.345  1.00  0.00     0.022 A 
BRANCH  54  57
ATOM     57  S   UNL A   1      41.738  22.607  26.410  1.00  0.00     0.127 S 
ATOM     58  O   UNL A   1      40.279  22.577  26.391  1.00  0.00    -0.237 OA
ATOM     59  O   UNL A   1      42.381  22.161  25.172  1.00  0.00    -0.237 OA
ATOM     60  O   UNL A   1      42.380  22.107  27.620  1.00  0.00    -0.744 OA
ENDBRANCH  54  57
ENDBRANCH  26  50
BRANCH  38  61
ATOM     61  C   UNL A   1      44.994  27.010  33.881  1.00  0.00     0.023 A 
ATOM     62  C   UNL A   1      46.264  27.619  33.829  1.00  0.00     0.012 A 
ATOM     63  C   UNL A   1      44.839  25.784  34.554  1.00  0.00     0.148 A 
ATOM     64  C   UNL A   1      47.371  26.998  34.404  1.00  0.00     0.002 A 
ATOM     65  C   UNL A   1      45.940  25.191  35.161  1.00  0.00     0.091 A 
ATOM     66  F   UNL A   1      43.627  25.209  34.570  1.00  0.00    -0.205 F 
ATOM     67  C   UNL A   1      47.207  25.790  35.078  1.00  0.00     0.022 A 
BRANCH  65  68
ATOM     68  S   UNL A   1      45.796  23.676  36.115  1.00  0.00     0.127 S 
ATOM     69  O   UNL A   1      45.396  22.715  35.090  1.00  0.00    -0.237 OA
ATOM     70  O   UNL A   1      47.156  23.494  36.624  1.00  0.00    -0.237 OA
ATOM     71  O   UNL A   1      44.804  23.954  37.145  1.00  0.00    -0.744 OA
ENDBRANCH  65  68
ENDBRANCH  38  61
ENDBRANCH  12  13
ENDBRANCH   5   7
ENDBRANCH   2   3
ENDBRANCH   1   2
BRANCH   1  72
ATOM     72  C   UNL A   1      32.434  27.742  26.963  1.00  0.00     0.118 C 
BRANCH  72  73
ATOM     73  N   UNL A   1      31.360  26.768  26.981  1.00  0.00    -0.352 N 
ATOM     74  C   UNL A   1      30.995  25.908  25.973  1.00  0.00     0.253 C 
ATOM     75  H   UNL A   1      30.831  26.716  27.810  1.00  0.00     0.163 HD
ATOM     76  O   UNL A   1      30.160  25.032  26.190  1.00  0.00    -0.269 OA
BRANCH  74  77
ATOM     77  C   UNL A   1      31.512  26.111  24.600  1.00  0.00     0.065 A 
ATOM     78  C   UNL A   1      32.729  25.447  24.370  1.00  0.00     0.042 A 
ATOM     79  C   UNL A   1      30.847  26.810  23.572  1.00  0.00     0.050 A 
ATOM     80  C   UNL A   1      33.264  25.343  23.094  1.00  0.00     0.042 A 
ATOM     81  C   UNL A   1      31.442  26.743  22.299  1.00  0.00     0.029 A 
ATOM     82  C   UNL A   1      32.621  26.022  22.060  1.00  0.00     0.028 A 
BRANCH  79  83
ATOM     83  N   UNL A   1      29.706  27.585  23.734  1.00  0.00    -0.370 N 
ATOM     84  C   UNL A   1      28.376  26.960  23.742  1.00  0.00     0.116 C 
ATOM     85  C   UNL A   1      29.834  28.957  24.232  1.00  0.00     0.126 C 
ATOM     86  C   UNL A   1      27.315  27.887  23.158  1.00  0.00     0.022 C 
ATOM     87  C   UNL A   1      28.865  29.873  23.466  1.00  0.00     0.064 C 
ATOM     88  C   UNL A   1      27.448  29.316  23.677  1.00  0.00     0.013 C 
BRANCH  87  89
ATOM     89  C   UNL A   1      29.340  29.984  21.990  1.00  0.00     0.267 C 
BRANCH  89  90
ATOM     90  N   UNL A   1      29.433  31.292  21.338  1.00  0.00    -0.335 N 
ATOM     91  C   UNL A   1      29.373  32.437  22.240  1.00  0.00     0.262 C 
ATOM     92  C   UNL A   1      28.505  31.534  20.238  1.00  0.00     0.262 C 
ATOM     93  H   UNL A   1      30.371  31.219  20.945  1.00  0.00     0.348 HD
ATOM     94  C   UNL A   1      27.962  32.972  22.110  1.00  0.00     0.067 C 
ATOM     95  C   UNL A   1      27.589  32.674  20.669  1.00  0.00     0.067 C 
ENDBRANCH  89  90
ENDBRANCH  87  89
ENDBRANCH  79  83
BRANCH  80  96
ATOM     96  N   UNL A   1      34.411  24.593  22.772  1.00  0.00    -0.322 N 
ATOM     97  C   UNL A   1      34.835  23.339  23.162  1.00  0.00     0.257 C 
ATOM     98  H   UNL A   1      35.025  25.048  22.151  1.00  0.00     0.170 HD
ATOM     99  O   UNL A   1      35.970  22.959  22.879  1.00  0.00    -0.269 OA
BRANCH  97 100
ATOM    100  C   UNL A   1      33.961  22.423  23.915  1.00  0.00     0.058 A 
ATOM    101  C   UNL A   1      32.983  21.731  23.183  1.00  0.00     0.015 A 
ATOM    102  C   UNL A   1      34.097  22.201  25.291  1.00  0.00     0.053 A 
ATOM    103  C   UNL A   1      32.198  20.765  23.811  1.00  0.00     0.001 A 
ATOM    104  C   UNL A   1      33.310  21.225  25.910  1.00  0.00     0.021 A 
ATOM    105  Cl  UNL A   1      35.218  23.074  26.272  1.00  0.00    -0.083 Cl
ATOM    106  C   UNL A   1      32.373  20.500  25.169  1.00  0.00     0.002 A 
ENDBRANCH  97 100
ENDBRANCH  80  96
ENDBRANCH  74  77
ENDBRANCH  72  73
ENDBRANCH   1  72
TORSDOF 18
ENDMDL
MODEL 3
REMARK VINA RESULT:     -13.2      4.843     10.371
REMARK SMILES O=C(NCCCNC(=O)c1cc(NC(=O)c2ccccc2Cl)ccc1N1CCC[C@H](C[NH+]2CCCC2)C1)c1ccc(-c2c3nc(c(-c4cccc(S(=O)(=O)[O-])c4F)c4ccc([nH]4)c(-c4cccc(S(=O)(=O)[O-])c4F)c4nc(c(-c5cccc(S(=O)(=O)[O-])c5F)c5ccc2[nH]5)C=C4)C=C3)cc1
REMARK SMILES IDX 5 1 4 2 3 3 1 4 2 5 38 7 39 8 100 9 40 10 99 11 41 12 42 13
REMARK SMILES IDX 43 14 93 15 44 16 98 17 92 18 94 19 45 20 97 21 91 22 90 23
REMARK SMILES IDX 46 25 78 26 58 27 77 28 59 29 62 30 76 31 95 32 60 33 61 34
REMARK SMILES IDX 75 36 96 37 63 38 47 39 48 40 56 41 49 42 51 43 57 44 50 45
REMARK SMILES IDX 52 46 53 47 54 48 55 49 79 50 80 51 88 52 81 53 83 54 89 55
REMARK SMILES IDX 82 56 84 57 85 58 86 59 87 60 64 61 65 62 73 63 66 64 68 65
REMARK SMILES IDX 74 66 67 67 69 68 70 69 71 70 72 71 6 72 7 73 8 74 9 76
REMARK SMILES IDX 10 77 11 78 25 79 12 80 24 81 23 82 26 83 27 84 37 85 28 86
REMARK SMILES IDX 30 87 29 88 31 89 32 90 33 91 36 92 34 94 35 95 13 96 14 97
REMARK SMILES IDX 15 99 16 100 17 101 21 102 18 103 20 104 22 105 19 106
REMARK H PARENT 3 6 94 24 62 35 7 75 32 93 13 98
REMARK Flexibility Score: inf
ROOT
ATOM      1  C   UNL A   1      36.731  22.981  23.796  1.00  0.00     0.042 C 
ENDROOT
BRANCH   1   2
ATOM      2  C   UNL A   1      36.943  22.644  25.261  1.00  0.00     0.118 C 
BRANCH   2   3
ATOM      3  N   UNL A   1      37.903  21.565  25.488  1.00  0.00    -0.352 N 
ATOM      4  O   UNL A   1      39.824  20.529  26.029  1.00  0.00    -0.269 OA
ATOM      5  C   UNL A   1      39.151  21.551  26.079  1.00  0.00     0.251 C 
ATOM      6  H   UNL A   1      37.607  20.686  25.159  1.00  0.00     0.163 HD
BRANCH   5   7
ATOM      7  C   UNL A   1      39.692  22.771  26.724  1.00  0.00     0.039 A 
ATOM      8  C   UNL A   1      39.226  24.026  26.361  1.00  0.00     0.014 A 
ATOM      9  C   UNL A   1      40.691  22.669  27.700  1.00  0.00     0.014 A 
ATOM     10  C   UNL A   1      39.935  25.157  26.730  1.00  0.00     0.010 A 
ATOM     11  C   UNL A   1      41.289  23.829  28.215  1.00  0.00     0.010 A 
ATOM     12  C   UNL A   1      40.960  25.085  27.688  1.00  0.00    -0.014 A 
BRANCH  12  13
ATOM     13  C   UNL A   1      41.584  26.363  28.133  1.00  0.00     0.031 A 
ATOM     14  C   UNL A   1      42.979  26.757  27.725  1.00  0.00     0.074 A 
ATOM     15  C   UNL A   1      40.825  27.221  28.847  1.00  0.00     0.049 A 
ATOM     16  N   UNL A   1      43.600  27.890  27.936  1.00  0.00    -0.248 NA
ATOM     17  C   UNL A   1      43.790  25.762  27.007  1.00  0.00     0.031 C 
ATOM     18  C   UNL A   1      39.482  26.927  29.357  1.00  0.00     0.029 A 
ATOM     19  N   UNL A   1      41.040  28.520  29.229  1.00  0.00    -0.354 N 
ATOM     20  C   UNL A   1      44.881  27.732  27.421  1.00  0.00     0.074 A 
ATOM     21  C   UNL A   1      44.955  26.388  26.890  1.00  0.00     0.031 C 
ATOM     22  C   UNL A   1      38.959  28.033  29.898  1.00  0.00     0.029 A 
ATOM     23  C   UNL A   1      39.957  29.095  29.854  1.00  0.00     0.049 A 
ATOM     24  H   UNL A   1      41.888  28.996  29.073  1.00  0.00     0.167 HD
ATOM     25  C   UNL A   1      45.896  28.628  27.378  1.00  0.00     0.034 A 
ATOM     26  C   UNL A   1      39.777  30.335  30.346  1.00  0.00     0.034 A 
ATOM     27  C   UNL A   1      45.802  29.981  27.863  1.00  0.00     0.049 A 
ATOM     28  C   UNL A   1      40.891  31.328  30.211  1.00  0.00     0.074 A 
ATOM     29  C   UNL A   1      46.767  30.974  27.840  1.00  0.00     0.029 A 
ATOM     30  N   UNL A   1      44.675  30.537  28.452  1.00  0.00    -0.354 N 
ATOM     31  N   UNL A   1      42.059  31.179  29.634  1.00  0.00    -0.248 NA
ATOM     32  C   UNL A   1      40.660  32.663  30.776  1.00  0.00     0.031 C 
ATOM     33  C   UNL A   1      46.224  32.128  28.416  1.00  0.00     0.029 A 
ATOM     34  C   UNL A   1      44.918  31.858  28.790  1.00  0.00     0.049 A 
ATOM     35  H   UNL A   1      43.827  30.062  28.607  1.00  0.00     0.167 HD
ATOM     36  C   UNL A   1      42.706  32.400  29.771  1.00  0.00     0.074 A 
ATOM     37  C   UNL A   1      41.777  33.292  30.435  1.00  0.00     0.031 C 
ATOM     38  C   UNL A   1      43.969  32.740  29.415  1.00  0.00     0.034 A 
BRANCH  25  39
ATOM     39  C   UNL A   1      47.191  28.199  26.736  1.00  0.00     0.023 A 
ATOM     40  C   UNL A   1      48.285  27.853  27.554  1.00  0.00     0.012 A 
ATOM     41  C   UNL A   1      47.302  28.059  25.337  1.00  0.00     0.148 A 
ATOM     42  C   UNL A   1      49.475  27.391  26.990  1.00  0.00     0.002 A 
ATOM     43  C   UNL A   1      48.479  27.563  24.786  1.00  0.00     0.091 A 
ATOM     44  F   UNL A   1      46.257  28.411  24.574  1.00  0.00    -0.205 F 
ATOM     45  C   UNL A   1      49.568  27.237  25.610  1.00  0.00     0.022 A 
BRANCH  43  46
ATOM     46  S   UNL A   1      48.675  27.260  23.025  1.00  0.00     0.127 S 
ATOM     47  O   UNL A   1      50.095  27.555  22.832  1.00  0.00    -0.237 OA
ATOM     48  O   UNL A   1      48.326  25.843  22.915  1.00  0.00    -0.237 OA
ATOM     49  O   UNL A   1      47.752  28.166  22.357  1.00  0.00    -0.744 OA
ENDBRANCH  43  46
ENDBRANCH  25  39
BRANCH  26  50
ATOM     50  C   UNL A   1      38.476  30.697  30.977  1.00  0.00     0.023 A 
ATOM     51  C   UNL A   1      38.290  30.504  32.359  1.00  0.00     0.012 A 
ATOM     52  C   UNL A   1      37.449  31.300  30.224  1.00  0.00     0.148 A 
ATOM     53  C   UNL A   1      37.096  30.889  32.973  1.00  0.00     0.002 A 
ATOM     54  C   UNL A   1      36.296  31.746  30.856  1.00  0.00     0.091 A 
ATOM     55  F   UNL A   1      37.630  31.453  28.904  1.00  0.00    -0.205 F 
ATOM     56  C   UNL A   1      36.108  31.526  32.228  1.00  0.00     0.022 A 
BRANCH  54  57
ATOM     57  S   UNL A   1      35.080  32.736  29.979  1.00  0.00     0.127 S 
ATOM     58  O   UNL A   1      34.144  33.080  31.044  1.00  0.00    -0.237 OA
ATOM     59  O   UNL A   1      35.885  33.852  29.479  1.00  0.00    -0.237 OA
ATOM     60  O   UNL A   1      34.573  31.860  28.929  1.00  0.00    -0.744 OA
ENDBRANCH  54  57
ENDBRANCH  26  50
BRANCH  38  61
ATOM     61  C   UNL A   1      44.414  34.138  29.750  1.00  0.00     0.023 A 
ATOM     62  C   UNL A   1      45.045  34.381  30.987  1.00  0.00     0.012 A 
ATOM     63  C   UNL A   1      44.240  35.196  28.840  1.00  0.00     0.148 A 
ATOM     64  C   UNL A   1      45.461  35.667  31.328  1.00  0.00     0.002 A 
ATOM     65  C   UNL A   1      44.696  36.467  29.169  1.00  0.00     0.091 A 
ATOM     66  F   UNL A   1      43.615  34.949  27.679  1.00  0.00    -0.205 F 
ATOM     67  C   UNL A   1      45.296  36.706  30.416  1.00  0.00     0.022 A 
BRANCH  65  68
ATOM     68  S   UNL A   1      44.592  37.841  28.018  1.00  0.00     0.127 S 
ATOM     69  O   UNL A   1      45.404  37.360  26.904  1.00  0.00    -0.237 OA
ATOM     70  O   UNL A   1      43.156  37.912  27.740  1.00  0.00    -0.237 OA
ATOM     71  O   UNL A   1      45.119  38.994  28.735  1.00  0.00    -0.744 OA
ENDBRANCH  65  68
ENDBRANCH  38  61
ENDBRANCH  12  13
ENDBRANCH   5   7
ENDBRANCH   2   3
ENDBRANCH   1   2
BRANCH   1  72
ATOM     72  C   UNL A   1      35.369  23.570  23.511  1.00  0.00     0.118 C 
BRANCH  72  73
ATOM     73  N   UNL A   1      34.479  22.710  22.755  1.00  0.00    -0.352 N 
ATOM     74  C   UNL A   1      33.138  22.898  22.519  1.00  0.00     0.253 C 
ATOM     75  H   UNL A   1      34.880  21.899  22.368  1.00  0.00     0.163 HD
ATOM     76  O   UNL A   1      32.548  22.161  21.732  1.00  0.00    -0.269 OA
BRANCH  74  77
ATOM     77  C   UNL A   1      32.379  23.903  23.299  1.00  0.00     0.065 A 
ATOM     78  C   UNL A   1      32.029  25.033  22.540  1.00  0.00     0.042 A 
ATOM     79  C   UNL A   1      31.952  23.749  24.633  1.00  0.00     0.050 A 
ATOM     80  C   UNL A   1      31.144  25.983  23.028  1.00  0.00     0.042 A 
ATOM     81  C   UNL A   1      31.106  24.757  25.128  1.00  0.00     0.029 A 
ATOM     82  C   UNL A   1      30.704  25.849  24.344  1.00  0.00     0.028 A 
BRANCH  79  83
ATOM     83  N   UNL A   1      32.342  22.727  25.489  1.00  0.00    -0.370 N 
ATOM     84  C   UNL A   1      33.368  22.964  26.514  1.00  0.00     0.116 C 
ATOM     85  C   UNL A   1      31.509  21.527  25.604  1.00  0.00     0.126 C 
ATOM     86  C   UNL A   1      34.194  21.712  26.785  1.00  0.00     0.022 C 
ATOM     87  C   UNL A   1      32.408  20.283  25.684  1.00  0.00     0.064 C 
ATOM     88  C   UNL A   1      33.325  20.462  26.904  1.00  0.00     0.013 C 
BRANCH  87  89
ATOM     89  C   UNL A   1      33.123  20.091  24.318  1.00  0.00     0.267 C 
BRANCH  89  90
ATOM     90  N   UNL A   1      33.407  18.746  23.813  1.00  0.00    -0.335 N 
ATOM     91  C   UNL A   1      32.296  17.806  23.902  1.00  0.00     0.262 C 
ATOM     92  C   UNL A   1      34.597  18.091  24.348  1.00  0.00     0.262 C 
ATOM     93  H   UNL A   1      33.587  18.967  22.833  1.00  0.00     0.348 HD
ATOM     94  C   UNL A   1      32.606  16.935  25.101  1.00  0.00     0.067 C 
ATOM     95  C   UNL A   1      34.122  16.865  25.120  1.00  0.00     0.067 C 
ENDBRANCH  89  90
ENDBRANCH  87  89
ENDBRANCH  79  83
BRANCH  80  96
ATOM     96  N   UNL A   1      30.655  27.072  22.282  1.00  0.00    -0.322 N 
ATOM     97  C   UNL A   1      30.707  28.434  22.493  1.00  0.00     0.257 C 
ATOM     98  H   UNL A   1      30.189  26.812  21.454  1.00  0.00     0.170 HD
ATOM     99  O   UNL A   1      30.052  29.192  21.779  1.00  0.00    -0.269 OA
BRANCH  97 100
ATOM    100  C   UNL A   1      31.537  29.024  23.558  1.00  0.00     0.058 A 
ATOM    101  C   UNL A   1      30.862  29.638  24.624  1.00  0.00     0.015 A 
ATOM    102  C   UNL A   1      32.936  28.959  23.556  1.00  0.00     0.053 A 
ATOM    103  C   UNL A   1      31.580  30.116  25.720  1.00  0.00     0.001 A 
ATOM    104  C   UNL A   1      33.647  29.433  24.663  1.00  0.00     0.021 A 
ATOM    105  Cl  UNL A   1      33.839  28.295  22.243  1.00  0.00    -0.083 Cl
ATOM    106  C   UNL A   1      32.969  29.998  25.747  1.00  0.00     0.002 A 
ENDBRANCH  97 100
ENDBRANCH  80  96
ENDBRANCH  74  77
ENDBRANCH  72  73
ENDBRANCH   1  72
TORSDOF 18
ENDMDL
