MODEL 1
REMARK VINA RESULT:     -11.5      0.000      0.000
REMARK SMILES C[C@H](CC(=O)NCCCNC(=O)c1ccc(-c2c3nc(c(-c4cccc(S(=O)(=O)[O-])c4F)c4ccc([nH]4)c(-c4cccc(S(=O)(=O)[O-])c4F)c4nc(c(-c5cccc(S(=O)(=O)[O-])c5F)c5ccc2[nH]5)C=C4)C=C3)cc1)NC(=O)[C@@H]1Cc2ccccc2O1
REMARK SMILES IDX 8 1 7 2 6 3 4 4 5 5 3 7 2 8 1 9 76 10 77 11 78 13 79 14
REMARK SMILES IDX 80 15 87 16 81 17 86 18 82 19 85 20 83 21 84 22 9 23 10 24
REMARK SMILES IDX 11 25 12 27 13 28 14 29 75 30 15 31 74 32 16 33 17 34 18 35
REMARK SMILES IDX 68 36 19 37 73 38 67 39 69 40 20 41 72 42 66 43 65 44 21 46
REMARK SMILES IDX 53 47 33 48 52 49 34 50 37 51 51 52 70 53 35 54 36 55 50 57
REMARK SMILES IDX 71 58 38 59 22 60 23 61 31 62 24 63 26 64 32 65 25 66 27 67
REMARK SMILES IDX 28 68 29 69 30 70 54 71 55 72 63 73 56 74 58 75 64 76 57 77
REMARK SMILES IDX 59 78 60 79 61 80 62 81 39 82 40 83 48 84 41 85 43 86 49 87
REMARK SMILES IDX 42 88 44 89 45 90 46 91 47 92
REMARK H PARENT 6 6 76 12 10 26 69 45 37 56
REMARK Flexibility Score: inf
ROOT
ATOM      1  C   UNL A   1      35.536  22.361  25.871  1.00  0.00     0.042 C 
ENDROOT
BRANCH   1   2
ATOM      2  C   UNL A   1      35.535  21.009  25.164  1.00  0.00     0.117 C 
BRANCH   2   3
ATOM      3  N   UNL A   1      34.330  20.245  25.441  1.00  0.00    -0.356 N 
ATOM      4  C   UNL A   1      33.087  20.328  24.901  1.00  0.00     0.222 C 
ATOM      5  O   UNL A   1      32.208  19.590  25.352  1.00  0.00    -0.275 OA
ATOM      6  H   UNL A   1      34.431  19.555  26.136  1.00  0.00     0.163 HD
BRANCH   4   7
ATOM      7  C   UNL A   1      32.779  21.267  23.751  1.00  0.00     0.124 C 
BRANCH   7   8
ATOM      8  C   UNL A   1      32.289  22.684  24.103  1.00  0.00     0.088 C 
ATOM      9  C   UNL A   1      31.147  23.109  23.176  1.00  0.00     0.031 C 
BRANCH   8  10
ATOM     10  N   UNL A   1      31.876  22.832  25.486  1.00  0.00    -0.350 N 
ATOM     11  C   UNL A   1      31.792  23.933  26.290  1.00  0.00     0.261 C 
ATOM     12  H   UNL A   1      31.610  21.990  25.921  1.00  0.00     0.163 HD
ATOM     13  O   UNL A   1      31.492  23.694  27.464  1.00  0.00    -0.271 OA
BRANCH  11  14
ATOM     14  C   UNL A   1      32.010  25.365  25.757  1.00  0.00     0.266 C 
ATOM     15  C   UNL A   1      33.458  25.876  25.693  1.00  0.00     0.095 C 
ATOM     16  O   UNL A   1      31.244  26.264  26.601  1.00  0.00    -0.480 OA
ATOM     17  C   UNL A   1      33.309  27.229  26.269  1.00  0.00    -0.002 A 
ATOM     18  C   UNL A   1      32.035  27.361  26.788  1.00  0.00     0.123 A 
ATOM     19  C   UNL A   1      34.221  28.269  26.352  1.00  0.00     0.008 A 
ATOM     20  C   UNL A   1      31.619  28.513  27.423  1.00  0.00     0.047 A 
ATOM     21  C   UNL A   1      33.814  29.456  26.971  1.00  0.00     0.001 A 
ATOM     22  C   UNL A   1      32.521  29.575  27.508  1.00  0.00     0.004 A 
ENDBRANCH  11  14
ENDBRANCH   8  10
ENDBRANCH   7   8
ENDBRANCH   4   7
ENDBRANCH   2   3
ENDBRANCH   1   2
BRANCH   1  23
ATOM     23  C   UNL A   1      36.855  23.118  25.834  1.00  0.00     0.118 C 
BRANCH  23  24
ATOM     24  N   UNL A   1      37.988  22.238  26.066  1.00  0.00    -0.352 N 
ATOM     25  C   UNL A   1      39.298  22.531  26.366  1.00  0.00     0.251 C 
ATOM     26  H   UNL A   1      37.786  21.277  25.998  1.00  0.00     0.163 HD
ATOM     27  O   UNL A   1      40.135  21.635  26.262  1.00  0.00    -0.269 OA
BRANCH  25  28
ATOM     28  C   UNL A   1      39.725  23.888  26.800  1.00  0.00     0.039 A 
ATOM     29  C   UNL A   1      39.736  24.180  28.170  1.00  0.00     0.014 A 
ATOM     30  C   UNL A   1      40.038  24.900  25.889  1.00  0.00     0.014 A 
ATOM     31  C   UNL A   1      40.094  25.457  28.618  1.00  0.00     0.010 A 
ATOM     32  C   UNL A   1      40.486  26.143  26.340  1.00  0.00     0.010 A 
ATOM     33  C   UNL A   1      40.499  26.448  27.708  1.00  0.00    -0.014 A 
BRANCH  33  34
ATOM     34  C   UNL A   1      40.915  27.803  28.168  1.00  0.00     0.031 A 
ATOM     35  C   UNL A   1      42.372  28.195  28.182  1.00  0.00     0.074 A 
ATOM     36  C   UNL A   1      39.990  28.666  28.636  1.00  0.00     0.049 A 
ATOM     37  N   UNL A   1      42.926  29.310  28.586  1.00  0.00    -0.248 NA
ATOM     38  C   UNL A   1      43.338  27.194  27.699  1.00  0.00     0.031 C 
ATOM     39  C   UNL A   1      38.556  28.394  28.745  1.00  0.00     0.029 A 
ATOM     40  N   UNL A   1      40.122  29.941  29.129  1.00  0.00    -0.354 N 
ATOM     41  C   UNL A   1      44.298  29.131  28.445  1.00  0.00     0.074 A 
ATOM     42  C   UNL A   1      44.497  27.788  27.950  1.00  0.00     0.031 C 
ATOM     43  C   UNL A   1      37.941  29.470  29.258  1.00  0.00     0.029 A 
ATOM     44  C   UNL A   1      38.937  30.496  29.553  1.00  0.00     0.049 A 
ATOM     45  H   UNL A   1      40.985  30.415  29.176  1.00  0.00     0.167 HD
ATOM     46  C   UNL A   1      45.303  30.011  28.678  1.00  0.00     0.034 A 
ATOM     47  C   UNL A   1      38.678  31.690  30.123  1.00  0.00     0.034 A 
ATOM     48  C   UNL A   1      45.106  31.362  29.133  1.00  0.00     0.049 A 
ATOM     49  C   UNL A   1      39.810  32.656  30.352  1.00  0.00     0.074 A 
ATOM     50  C   UNL A   1      46.052  32.354  29.317  1.00  0.00     0.029 A 
ATOM     51  N   UNL A   1      43.881  31.908  29.484  1.00  0.00    -0.354 N 
ATOM     52  N   UNL A   1      41.082  32.523  30.066  1.00  0.00    -0.248 NA
ATOM     53  C   UNL A   1      39.464  33.954  30.951  1.00  0.00     0.031 C 
ATOM     54  C   UNL A   1      45.402  33.492  29.808  1.00  0.00     0.029 A 
ATOM     55  C   UNL A   1      44.048  33.220  29.895  1.00  0.00     0.049 A 
ATOM     56  H   UNL A   1      43.019  31.432  29.447  1.00  0.00     0.167 HD
ATOM     57  C   UNL A   1      41.680  33.730  30.413  1.00  0.00     0.074 A 
ATOM     58  C   UNL A   1      40.627  34.590  30.910  1.00  0.00     0.031 C 
ATOM     59  C   UNL A   1      42.986  34.088  30.337  1.00  0.00     0.034 A 
BRANCH  46  60
ATOM     60  C   UNL A   1      46.714  29.556  28.397  1.00  0.00     0.023 A 
ATOM     61  C   UNL A   1      47.258  29.732  27.108  1.00  0.00     0.012 A 
ATOM     62  C   UNL A   1      47.521  29.009  29.414  1.00  0.00     0.148 A 
ATOM     63  C   UNL A   1      48.564  29.335  26.825  1.00  0.00     0.002 A 
ATOM     64  C   UNL A   1      48.838  28.660  29.137  1.00  0.00     0.091 A 
ATOM     65  F   UNL A   1      46.986  28.833  30.632  1.00  0.00    -0.205 F 
ATOM     66  C   UNL A   1      49.357  28.809  27.840  1.00  0.00     0.022 A 
BRANCH  64  67
ATOM     67  S   UNL A   1      49.968  28.052  30.394  1.00  0.00     0.127 S 
ATOM     68  O   UNL A   1      49.823  29.066  31.438  1.00  0.00    -0.237 OA
ATOM     69  O   UNL A   1      49.388  26.751  30.727  1.00  0.00    -0.237 OA
ATOM     70  O   UNL A   1      51.278  27.988  29.762  1.00  0.00    -0.744 OA
ENDBRANCH  64  67
ENDBRANCH  46  60
BRANCH  47  71
ATOM     71  C   UNL A   1      37.276  32.066  30.463  1.00  0.00     0.023 A 
ATOM     72  C   UNL A   1      36.790  31.815  31.762  1.00  0.00     0.012 A 
ATOM     73  C   UNL A   1      36.431  32.685  29.523  1.00  0.00     0.148 A 
ATOM     74  C   UNL A   1      35.478  32.142  32.107  1.00  0.00     0.002 A 
ATOM     75  C   UNL A   1      35.146  33.062  29.891  1.00  0.00     0.091 A 
ATOM     76  F   UNL A   1      36.908  32.908  28.290  1.00  0.00    -0.205 F 
ATOM     77  C   UNL A   1      34.659  32.774  31.176  1.00  0.00     0.022 A 
BRANCH  75  78
ATOM     78  S   UNL A   1      34.070  34.007  28.805  1.00  0.00     0.127 S 
ATOM     79  O   UNL A   1      33.597  32.975  27.883  1.00  0.00    -0.237 OA
ATOM     80  O   UNL A   1      33.061  34.502  29.744  1.00  0.00    -0.237 OA
ATOM     81  O   UNL A   1      34.909  35.041  28.224  1.00  0.00    -0.744 OA
ENDBRANCH  75  78
ENDBRANCH  47  71
BRANCH  59  82
ATOM     82  C   UNL A   1      43.355  35.487  30.758  1.00  0.00     0.023 A 
ATOM     83  C   UNL A   1      43.732  35.746  32.091  1.00  0.00     0.012 A 
ATOM     84  C   UNL A   1      43.400  36.531  29.812  1.00  0.00     0.148 A 
ATOM     85  C   UNL A   1      44.111  37.029  32.484  1.00  0.00     0.002 A 
ATOM     86  C   UNL A   1      43.829  37.795  30.201  1.00  0.00     0.091 A 
ATOM     87  F   UNL A   1      43.022  36.271  28.553  1.00  0.00    -0.205 F 
ATOM     88  C   UNL A   1      44.172  38.050  31.538  1.00  0.00     0.022 A 
BRANCH  86  89
ATOM     89  S   UNL A   1      44.032  39.145  29.033  1.00  0.00     0.127 S 
ATOM     90  O   UNL A   1      44.610  40.187  29.879  1.00  0.00    -0.237 OA
ATOM     91  O   UNL A   1      44.957  38.572  28.055  1.00  0.00    -0.237 OA
ATOM     92  O   UNL A   1      42.702  39.432  28.512  1.00  0.00    -0.744 OA
ENDBRANCH  86  89
ENDBRANCH  59  82
ENDBRANCH  33  34
ENDBRANCH  25  28
ENDBRANCH  23  24
ENDBRANCH   1  23
TORSDOF 16
ENDMDL
MODEL 2
REMARK VINA RESULT:     -11.5      5.124     10.877
REMARK SMILES C[C@H](CC(=O)NCCCNC(=O)c1ccc(-c2c3nc(c(-c4cccc(S(=O)(=O)[O-])c4F)c4ccc([nH]4)c(-c4cccc(S(=O)(=O)[O-])c4F)c4nc(c(-c5cccc(S(=O)(=O)[O-])c5F)c5ccc2[nH]5)C=C4)C=C3)cc1)NC(=O)[C@@H]1Cc2ccccc2O1
REMARK SMILES IDX 8 1 7 2 6 3 4 4 5 5 3 7 2 8 1 9 76 10 77 11 78 13 79 14
REMARK SMILES IDX 80 15 87 16 81 17 86 18 82 19 85 20 83 21 84 22 9 23 10 24
REMARK SMILES IDX 11 25 12 27 13 28 14 29 75 30 15 31 74 32 16 33 17 34 18 35
REMARK SMILES IDX 68 36 19 37 73 38 67 39 69 40 20 41 72 42 66 43 65 44 21 46
REMARK SMILES IDX 53 47 33 48 52 49 34 50 37 51 51 52 70 53 35 54 36 55 50 57
REMARK SMILES IDX 71 58 38 59 22 60 23 61 31 62 24 63 26 64 32 65 25 66 27 67
REMARK SMILES IDX 28 68 29 69 30 70 54 71 55 72 63 73 56 74 58 75 64 76 57 77
REMARK SMILES IDX 59 78 60 79 61 80 62 81 39 82 40 83 48 84 41 85 43 86 49 87
REMARK SMILES IDX 42 88 44 89 45 90 46 91 47 92
REMARK H PARENT 6 6 76 12 10 26 69 45 37 56
REMARK Flexibility Score: inf
ROOT
ATOM      1  C   UNL A   1      33.922  34.148  28.024  1.00  0.00     0.042 C 
ENDROOT
BRANCH   1   2
ATOM      2  C   UNL A   1      34.364  35.404  28.769  1.00  0.00     0.117 C 
BRANCH   2   3
ATOM      3  N   UNL A   1      33.277  36.009  29.519  1.00  0.00    -0.356 N 
ATOM      4  C   UNL A   1      32.900  35.849  30.814  1.00  0.00     0.222 C 
ATOM      5  O   UNL A   1      31.893  36.446  31.203  1.00  0.00    -0.275 OA
ATOM      6  H   UNL A   1      32.721  36.637  29.004  1.00  0.00     0.163 HD
BRANCH   4   7
ATOM      7  C   UNL A   1      33.702  34.997  31.777  1.00  0.00     0.124 C 
BRANCH   7   8
ATOM      8  C   UNL A   1      34.672  35.723  32.729  1.00  0.00     0.088 C 
ATOM      9  C   UNL A   1      34.244  37.177  32.934  1.00  0.00     0.031 C 
BRANCH   8  10
ATOM     10  N   UNL A   1      34.822  35.071  34.017  1.00  0.00    -0.350 N 
ATOM     11  C   UNL A   1      35.697  34.116  34.449  1.00  0.00     0.261 C 
ATOM     12  H   UNL A   1      34.179  35.371  34.700  1.00  0.00     0.163 HD
ATOM     13  O   UNL A   1      35.489  33.703  35.594  1.00  0.00    -0.271 OA
BRANCH  11  14
ATOM     14  C   UNL A   1      36.882  33.628  33.587  1.00  0.00     0.266 C 
ATOM     15  C   UNL A   1      37.899  34.687  33.133  1.00  0.00     0.095 C 
ATOM     16  O   UNL A   1      36.327  32.991  32.407  1.00  0.00    -0.480 OA
ATOM     17  C   UNL A   1      38.065  34.331  31.708  1.00  0.00    -0.002 A 
ATOM     18  C   UNL A   1      37.118  33.383  31.366  1.00  0.00     0.123 A 
ATOM     19  C   UNL A   1      38.965  34.807  30.768  1.00  0.00     0.008 A 
ATOM     20  C   UNL A   1      37.012  32.885  30.085  1.00  0.00     0.047 A 
ATOM     21  C   UNL A   1      38.890  34.299  29.466  1.00  0.00     0.001 A 
ATOM     22  C   UNL A   1      37.915  33.347  29.126  1.00  0.00     0.004 A 
ENDBRANCH  11  14
ENDBRANCH   8  10
ENDBRANCH   7   8
ENDBRANCH   4   7
ENDBRANCH   2   3
ENDBRANCH   1   2
BRANCH   1  23
ATOM     23  C   UNL A   1      34.389  32.831  28.626  1.00  0.00     0.118 C 
BRANCH  23  24
ATOM     24  N   UNL A   1      33.771  31.690  27.974  1.00  0.00    -0.352 N 
ATOM     25  C   UNL A   1      34.312  30.493  27.568  1.00  0.00     0.251 C 
ATOM     26  H   UNL A   1      32.808  31.789  27.793  1.00  0.00     0.163 HD
ATOM     27  O   UNL A   1      33.656  29.784  26.805  1.00  0.00    -0.269 OA
BRANCH  25  28
ATOM     28  C   UNL A   1      35.657  30.041  28.015  1.00  0.00     0.039 A 
ATOM     29  C   UNL A   1      35.780  29.460  29.284  1.00  0.00     0.014 A 
ATOM     30  C   UNL A   1      36.807  30.247  27.250  1.00  0.00     0.014 A 
ATOM     31  C   UNL A   1      37.034  29.057  29.759  1.00  0.00     0.010 A 
ATOM     32  C   UNL A   1      38.041  29.759  27.684  1.00  0.00     0.010 A 
ATOM     33  C   UNL A   1      38.178  29.179  28.952  1.00  0.00    -0.014 A 
BRANCH  33  34
ATOM     34  C   UNL A   1      39.515  28.726  29.427  1.00  0.00     0.031 A 
ATOM     35  C   UNL A   1      40.227  29.463  30.536  1.00  0.00     0.074 A 
ATOM     36  C   UNL A   1      40.127  27.688  28.820  1.00  0.00     0.049 A 
ATOM     37  N   UNL A   1      41.409  29.242  31.051  1.00  0.00    -0.248 NA
ATOM     38  C   UNL A   1      39.527  30.615  31.129  1.00  0.00     0.031 C 
ATOM     39  C   UNL A   1      39.586  26.930  27.691  1.00  0.00     0.029 A 
ATOM     40  N   UNL A   1      41.349  27.106  29.054  1.00  0.00    -0.354 N 
ATOM     41  C   UNL A   1      41.611  30.244  31.995  1.00  0.00     0.074 A 
ATOM     42  C   UNL A   1      40.443  31.095  31.958  1.00  0.00     0.031 C 
ATOM     43  C   UNL A   1      40.464  25.978  27.339  1.00  0.00     0.029 A 
ATOM     44  C   UNL A   1      41.647  26.079  28.189  1.00  0.00     0.049 A 
ATOM     45  H   UNL A   1      41.956  27.397  29.773  1.00  0.00     0.167 HD
ATOM     46  C   UNL A   1      42.657  30.427  32.837  1.00  0.00     0.034 A 
ATOM     47  C   UNL A   1      42.749  25.311  28.082  1.00  0.00     0.034 A 
ATOM     48  C   UNL A   1      43.803  29.558  32.903  1.00  0.00     0.049 A 
ATOM     49  C   UNL A   1      43.888  25.521  29.044  1.00  0.00     0.074 A 
ATOM     50  C   UNL A   1      44.872  29.611  33.779  1.00  0.00     0.029 A 
ATOM     51  N   UNL A   1      44.034  28.486  32.056  1.00  0.00    -0.354 N 
ATOM     52  N   UNL A   1      43.991  26.377  30.031  1.00  0.00    -0.248 NA
ATOM     53  C   UNL A   1      45.053  24.634  28.898  1.00  0.00     0.031 C 
ATOM     54  C   UNL A   1      45.765  28.588  33.442  1.00  0.00     0.029 A 
ATOM     55  C   UNL A   1      45.234  27.876  32.380  1.00  0.00     0.049 A 
ATOM     56  H   UNL A   1      43.432  28.201  31.330  1.00  0.00     0.167 HD
ATOM     57  C   UNL A   1      45.208  26.107  30.647  1.00  0.00     0.074 A 
ATOM     58  C   UNL A   1      45.798  24.993  29.934  1.00  0.00     0.031 C 
ATOM     59  C   UNL A   1      45.789  26.733  31.700  1.00  0.00     0.034 A 
BRANCH  46  60
ATOM     60  C   UNL A   1      42.592  31.590  33.797  1.00  0.00     0.023 A 
ATOM     61  C   UNL A   1      43.077  32.852  33.394  1.00  0.00     0.012 A 
ATOM     62  C   UNL A   1      42.003  31.454  35.069  1.00  0.00     0.148 A 
ATOM     63  C   UNL A   1      43.015  33.947  34.256  1.00  0.00     0.002 A 
ATOM     64  C   UNL A   1      41.901  32.561  35.904  1.00  0.00     0.091 A 
ATOM     65  F   UNL A   1      41.560  30.244  35.444  1.00  0.00    -0.205 F 
ATOM     66  C   UNL A   1      42.419  33.804  35.505  1.00  0.00     0.022 A 
BRANCH  64  67
ATOM     67  S   UNL A   1      41.075  32.503  37.498  1.00  0.00     0.127 S 
ATOM     68  O   UNL A   1      39.780  31.927  37.140  1.00  0.00    -0.237 OA
ATOM     69  O   UNL A   1      41.946  31.611  38.265  1.00  0.00    -0.237 OA
ATOM     70  O   UNL A   1      41.037  33.876  37.982  1.00  0.00    -0.744 OA
ENDBRANCH  64  67
ENDBRANCH  46  60
BRANCH  47  71
ATOM     71  C   UNL A   1      42.806  24.225  27.061  1.00  0.00     0.023 A 
ATOM     72  C   UNL A   1      43.543  24.429  25.878  1.00  0.00     0.012 A 
ATOM     73  C   UNL A   1      42.157  22.992  27.261  1.00  0.00     0.148 A 
ATOM     74  C   UNL A   1      43.604  23.439  24.897  1.00  0.00     0.002 A 
ATOM     75  C   UNL A   1      42.270  21.989  26.306  1.00  0.00     0.091 A 
ATOM     76  F   UNL A   1      41.453  22.819  28.388  1.00  0.00    -0.205 F 
ATOM     77  C   UNL A   1      42.976  22.216  25.114  1.00  0.00     0.022 A 
BRANCH  75  78
ATOM     78  S   UNL A   1      41.617  20.335  26.564  1.00  0.00     0.127 S 
ATOM     79  O   UNL A   1      40.176  20.586  26.599  1.00  0.00    -0.237 OA
ATOM     80  O   UNL A   1      42.090  19.638  25.366  1.00  0.00    -0.237 OA
ATOM     81  O   UNL A   1      42.209  19.868  27.805  1.00  0.00    -0.744 OA
ENDBRANCH  75  78
ENDBRANCH  47  71
BRANCH  59  82
ATOM     82  C   UNL A   1      47.115  26.206  32.185  1.00  0.00     0.023 A 
ATOM     83  C   UNL A   1      47.164  25.311  33.272  1.00  0.00     0.012 A 
ATOM     84  C   UNL A   1      48.308  26.544  31.514  1.00  0.00     0.148 A 
ATOM     85  C   UNL A   1      48.382  24.788  33.705  1.00  0.00     0.002 A 
ATOM     86  C   UNL A   1      49.511  25.978  31.919  1.00  0.00     0.091 A 
ATOM     87  F   UNL A   1      48.244  27.410  30.492  1.00  0.00    -0.205 F 
ATOM     88  C   UNL A   1      49.553  25.112  33.023  1.00  0.00     0.022 A 
BRANCH  86  89
ATOM     89  S   UNL A   1      51.053  26.259  31.041  1.00  0.00     0.127 S 
ATOM     90  O   UNL A   1      50.721  25.788  29.698  1.00  0.00    -0.237 OA
ATOM     91  O   UNL A   1      51.215  27.709  31.156  1.00  0.00    -0.237 OA
ATOM     92  O   UNL A   1      52.065  25.481  31.743  1.00  0.00    -0.744 OA
ENDBRANCH  86  89
ENDBRANCH  59  82
ENDBRANCH  33  34
ENDBRANCH  25  28
ENDBRANCH  23  24
ENDBRANCH   1  23
TORSDOF 16
ENDMDL
MODEL 3
REMARK VINA RESULT:     -11.4      4.705      9.641
REMARK SMILES C[C@H](CC(=O)NCCCNC(=O)c1ccc(-c2c3nc(c(-c4cccc(S(=O)(=O)[O-])c4F)c4ccc([nH]4)c(-c4cccc(S(=O)(=O)[O-])c4F)c4nc(c(-c5cccc(S(=O)(=O)[O-])c5F)c5ccc2[nH]5)C=C4)C=C3)cc1)NC(=O)[C@@H]1Cc2ccccc2O1
REMARK SMILES IDX 8 1 7 2 6 3 4 4 5 5 3 7 2 8 1 9 76 10 77 11 78 13 79 14
REMARK SMILES IDX 80 15 87 16 81 17 86 18 82 19 85 20 83 21 84 22 9 23 10 24
REMARK SMILES IDX 11 25 12 27 13 28 14 29 75 30 15 31 74 32 16 33 17 34 18 35
REMARK SMILES IDX 68 36 19 37 73 38 67 39 69 40 20 41 72 42 66 43 65 44 21 46
REMARK SMILES IDX 53 47 33 48 52 49 34 50 37 51 51 52 70 53 35 54 36 55 50 57
REMARK SMILES IDX 71 58 38 59 22 60 23 61 31 62 24 63 26 64 32 65 25 66 27 67
REMARK SMILES IDX 28 68 29 69 30 70 54 71 55 72 63 73 56 74 58 75 64 76 57 77
REMARK SMILES IDX 59 78 60 79 61 80 62 81 39 82 40 83 48 84 41 85 43 86 49 87
REMARK SMILES IDX 42 88 44 89 45 90 46 91 47 92
REMARK H PARENT 6 6 76 12 10 26 69 45 37 56
REMARK Flexibility Score: inf
ROOT
ATOM      1  C   UNL A   1      32.639  28.428  25.678  1.00  0.00     0.042 C 
ENDROOT
BRANCH   1   2
ATOM      2  C   UNL A   1      31.603  29.529  25.465  1.00  0.00     0.117 C 
BRANCH   2   3
ATOM      3  N   UNL A   1      31.265  29.700  24.063  1.00  0.00    -0.356 N 
ATOM      4  C   UNL A   1      30.596  28.883  23.208  1.00  0.00     0.222 C 
ATOM      5  O   UNL A   1      30.483  29.241  22.033  1.00  0.00    -0.275 OA
ATOM      6  H   UNL A   1      31.572  30.547  23.666  1.00  0.00     0.163 HD
BRANCH   4   7
ATOM      7  C   UNL A   1      29.968  27.585  23.676  1.00  0.00     0.124 C 
BRANCH   7   8
ATOM      8  C   UNL A   1      30.825  26.308  23.582  1.00  0.00     0.088 C 
ATOM      9  C   UNL A   1      29.939  25.070  23.432  1.00  0.00     0.031 C 
BRANCH   8  10
ATOM     10  N   UNL A   1      31.805  26.340  22.513  1.00  0.00    -0.350 N 
ATOM     11  C   UNL A   1      32.996  25.688  22.360  1.00  0.00     0.261 C 
ATOM     12  H   UNL A   1      31.570  26.937  21.766  1.00  0.00     0.163 HD
ATOM     13  O   UNL A   1      33.642  26.018  21.360  1.00  0.00    -0.271 OA
BRANCH  11  14
ATOM     14  C   UNL A   1      33.470  24.591  23.337  1.00  0.00     0.266 C 
ATOM     15  C   UNL A   1      34.049  25.056  24.683  1.00  0.00     0.095 C 
ATOM     16  O   UNL A   1      34.478  23.805  22.651  1.00  0.00    -0.480 OA
ATOM     17  C   UNL A   1      35.256  24.207  24.782  1.00  0.00    -0.002 A 
ATOM     18  C   UNL A   1      35.447  23.552  23.580  1.00  0.00     0.123 A 
ATOM     19  C   UNL A   1      36.137  24.029  25.836  1.00  0.00     0.008 A 
ATOM     20  C   UNL A   1      36.521  22.713  23.367  1.00  0.00     0.047 A 
ATOM     21  C   UNL A   1      37.222  23.165  25.651  1.00  0.00     0.001 A 
ATOM     22  C   UNL A   1      37.415  22.514  24.421  1.00  0.00     0.004 A 
ENDBRANCH  11  14
ENDBRANCH   8  10
ENDBRANCH   7   8
ENDBRANCH   4   7
ENDBRANCH   2   3
ENDBRANCH   1   2
BRANCH   1  23
ATOM     23  C   UNL A   1      33.787  28.782  26.611  1.00  0.00     0.118 C 
BRANCH  23  24
ATOM     24  N   UNL A   1      33.708  30.160  27.065  1.00  0.00    -0.352 N 
ATOM     25  C   UNL A   1      34.517  30.863  27.927  1.00  0.00     0.251 C 
ATOM     26  H   UNL A   1      32.954  30.674  26.697  1.00  0.00     0.163 HD
ATOM     27  O   UNL A   1      34.107  31.938  28.366  1.00  0.00    -0.269 OA
BRANCH  25  28
ATOM     28  C   UNL A   1      35.853  30.361  28.345  1.00  0.00     0.039 A 
ATOM     29  C   UNL A   1      35.934  29.533  29.472  1.00  0.00     0.014 A 
ATOM     30  C   UNL A   1      37.031  30.749  27.702  1.00  0.00     0.014 A 
ATOM     31  C   UNL A   1      37.178  29.071  29.921  1.00  0.00     0.010 A 
ATOM     32  C   UNL A   1      38.259  30.212  28.093  1.00  0.00     0.010 A 
ATOM     33  C   UNL A   1      38.354  29.385  29.221  1.00  0.00    -0.014 A 
BRANCH  33  34
ATOM     34  C   UNL A   1      39.682  28.876  29.665  1.00  0.00     0.031 A 
ATOM     35  C   UNL A   1      40.440  29.569  30.772  1.00  0.00     0.074 A 
ATOM     36  C   UNL A   1      40.245  27.826  29.032  1.00  0.00     0.049 A 
ATOM     37  N   UNL A   1      41.622  29.297  31.262  1.00  0.00    -0.248 NA
ATOM     38  C   UNL A   1      39.793  30.737  31.394  1.00  0.00     0.031 C 
ATOM     39  C   UNL A   1      39.656  27.105  27.902  1.00  0.00     0.029 A 
ATOM     40  N   UNL A   1      41.448  27.195  29.236  1.00  0.00    -0.354 N 
ATOM     41  C   UNL A   1      41.877  30.276  32.217  1.00  0.00     0.074 A 
ATOM     42  C   UNL A   1      40.741  31.170  32.214  1.00  0.00     0.031 C 
ATOM     43  C   UNL A   1      40.492  26.126  27.521  1.00  0.00     0.029 A 
ATOM     44  C   UNL A   1      41.692  26.171  28.350  1.00  0.00     0.049 A 
ATOM     45  H   UNL A   1      42.078  27.453  29.948  1.00  0.00     0.167 HD
ATOM     46  C   UNL A   1      42.944  30.407  33.043  1.00  0.00     0.034 A 
ATOM     47  C   UNL A   1      42.763  25.365  28.213  1.00  0.00     0.034 A 
ATOM     48  C   UNL A   1      44.057  29.497  33.076  1.00  0.00     0.049 A 
ATOM     49  C   UNL A   1      43.926  25.518  29.156  1.00  0.00     0.074 A 
ATOM     50  C   UNL A   1      45.143  29.497  33.933  1.00  0.00     0.029 A 
ATOM     51  N   UNL A   1      44.234  28.429  32.209  1.00  0.00    -0.354 N 
ATOM     52  N   UNL A   1      44.077  26.355  30.155  1.00  0.00    -0.248 NA
ATOM     53  C   UNL A   1      45.054  24.592  28.977  1.00  0.00     0.031 C 
ATOM     54  C   UNL A   1      45.991  28.446  33.565  1.00  0.00     0.029 A 
ATOM     55  C   UNL A   1      45.416  27.771  32.502  1.00  0.00     0.049 A 
ATOM     56  H   UNL A   1      43.609  28.178  31.490  1.00  0.00     0.167 HD
ATOM     57  C   UNL A   1      45.294  26.031  30.744  1.00  0.00     0.074 A 
ATOM     58  C   UNL A   1      45.830  24.907  30.005  1.00  0.00     0.031 C 
ATOM     59  C   UNL A   1      45.916  26.619  31.796  1.00  0.00     0.034 A 
BRANCH  46  60
ATOM     60  C   UNL A   1      42.938  31.557  34.021  1.00  0.00     0.023 A 
ATOM     61  C   UNL A   1      43.463  32.806  33.628  1.00  0.00     0.012 A 
ATOM     62  C   UNL A   1      42.366  31.424  35.301  1.00  0.00     0.148 A 
ATOM     63  C   UNL A   1      43.457  33.890  34.506  1.00  0.00     0.002 A 
ATOM     64  C   UNL A   1      42.320  32.521  36.153  1.00  0.00     0.091 A 
ATOM     65  F   UNL A   1      41.884  30.226  35.665  1.00  0.00    -0.205 F 
ATOM     66  C   UNL A   1      42.877  33.750  35.764  1.00  0.00     0.022 A 
BRANCH  64  67
ATOM     67  S   UNL A   1      41.520  32.470  37.761  1.00  0.00     0.127 S 
ATOM     68  O   UNL A   1      40.162  32.060  37.403  1.00  0.00    -0.237 OA
ATOM     69  O   UNL A   1      42.298  31.448  38.461  1.00  0.00    -0.237 OA
ATOM     70  O   UNL A   1      41.643  33.811  38.315  1.00  0.00    -0.744 OA
ENDBRANCH  64  67
ENDBRANCH  46  60
BRANCH  47  71
ATOM     71  C   UNL A   1      42.762  24.293  27.175  1.00  0.00     0.023 A 
ATOM     72  C   UNL A   1      43.445  24.508  25.961  1.00  0.00     0.012 A 
ATOM     73  C   UNL A   1      42.111  23.063  27.387  1.00  0.00     0.148 A 
ATOM     74  C   UNL A   1      43.451  23.532  24.965  1.00  0.00     0.002 A 
ATOM     75  C   UNL A   1      42.171  22.073  26.415  1.00  0.00     0.091 A 
ATOM     76  F   UNL A   1      41.459  22.881  28.544  1.00  0.00    -0.205 F 
ATOM     77  C   UNL A   1      42.822  22.311  25.194  1.00  0.00     0.022 A 
BRANCH  75  78
ATOM     78  S   UNL A   1      41.514  20.422  26.679  1.00  0.00     0.127 S 
ATOM     79  O   UNL A   1      42.250  19.996  27.869  1.00  0.00    -0.237 OA
ATOM     80  O   UNL A   1      40.093  20.699  26.901  1.00  0.00    -0.237 OA
ATOM     81  O   UNL A   1      41.799  19.686  25.460  1.00  0.00    -0.744 OA
ENDBRANCH  75  78
ENDBRANCH  47  71
BRANCH  59  82
ATOM     82  C   UNL A   1      47.230  26.037  32.249  1.00  0.00     0.023 A 
ATOM     83  C   UNL A   1      48.434  26.472  31.661  1.00  0.00     0.012 A 
ATOM     84  C   UNL A   1      47.275  25.110  33.310  1.00  0.00     0.148 A 
ATOM     85  C   UNL A   1      49.659  25.968  32.098  1.00  0.00     0.002 A 
ATOM     86  C   UNL A   1      48.503  24.652  33.774  1.00  0.00     0.091 A 
ATOM     87  F   UNL A   1      46.119  24.694  33.846  1.00  0.00    -0.205 F 
ATOM     88  C   UNL A   1      49.695  25.069  33.161  1.00  0.00     0.022 A 
BRANCH  86  89
ATOM     89  S   UNL A   1      48.651  23.568  35.200  1.00  0.00     0.127 S 
ATOM     90  O   UNL A   1      48.015  24.365  36.247  1.00  0.00    -0.237 OA
ATOM     91  O   UNL A   1      47.887  22.394  34.777  1.00  0.00    -0.237 OA
ATOM     92  O   UNL A   1      50.078  23.330  35.378  1.00  0.00    -0.744 OA
ENDBRANCH  86  89
ENDBRANCH  59  82
ENDBRANCH  33  34
ENDBRANCH  25  28
ENDBRANCH  23  24
ENDBRANCH   1  23
TORSDOF 16
ENDMDL
