MODEL 1
REMARK VINA RESULT:     -11.5      0.000      0.000
REMARK SMILES CC(C)CCNC(=O)[C@@H](C)Oc1ccc(N)cc1C(=O)NCCCNC(=O)c1ccc(-c2c3nc(c(-c4cccc(S(=O)(=O)[O-])c4F)c4ccc([nH]4)c(-c4cccc(S(=O)(=O)[O-])c4F)c4nc(c(-c5cccc(S(=O)(=O)[O-])c5F)c5ccc2[nH]5)C=C4)C=C3)cc1
REMARK SMILES IDX 19 1 20 2 21 3 18 5 12 6 13 7 14 8 17 9 15 10 11 11 9 12
REMARK SMILES IDX 10 13 7 14 6 15 8 17 5 18 4 19 2 20 1 21 3 22 16 23 22 26
REMARK SMILES IDX 23 27 24 28 25 29 26 30 27 32 28 33 29 34 90 35 30 36 89 37
REMARK SMILES IDX 31 38 32 39 33 40 83 41 34 42 88 43 82 44 84 45 35 46 87 47
REMARK SMILES IDX 81 48 80 49 36 51 68 52 48 53 67 54 49 55 52 56 66 57 85 58
REMARK SMILES IDX 50 59 51 60 65 62 86 63 53 64 37 65 38 66 46 67 39 68 41 69
REMARK SMILES IDX 47 70 40 71 42 72 43 73 44 74 45 75 69 76 70 77 78 78 71 79
REMARK SMILES IDX 73 80 79 81 72 82 74 83 75 84 76 85 77 86 54 87 55 88 63 89
REMARK SMILES IDX 56 90 58 91 64 92 57 93 59 94 60 95 61 96 62 97
REMARK H PARENT 21 4 6 16 16 24 16 25 25 31 84 50 52 61
REMARK Flexibility Score: inf
ROOT
ATOM      1  C   UNL A   1      32.089  23.306  26.828  1.00  0.00     0.255 C 
ATOM      2  O   UNL A   1      31.070  23.681  27.423  1.00  0.00    -0.269 OA
ATOM      3  N   UNL A   1      32.661  22.186  27.369  1.00  0.00    -0.352 N 
ATOM      4  H   UNL A   1      32.160  21.796  28.122  1.00  0.00     0.163 HD
ENDROOT
BRANCH   1   5
ATOM      5  C   UNL A   1      32.526  24.079  25.600  1.00  0.00     0.083 A 
ATOM      6  C   UNL A   1      33.211  25.302  25.465  1.00  0.00     0.133 A 
ATOM      7  C   UNL A   1      33.912  25.553  24.277  1.00  0.00     0.049 A 
ATOM      8  C   UNL A   1      33.718  24.772  23.137  1.00  0.00     0.029 A 
ATOM      9  C   UNL A   1      32.307  23.340  24.405  1.00  0.00     0.043 A 
ATOM     10  C   UNL A   1      32.820  23.720  23.165  1.00  0.00     0.032 A 
BRANCH   6  11
ATOM     11  O   UNL A   1      33.393  26.230  26.444  1.00  0.00    -0.480 OA
BRANCH  11  12
ATOM     12  C   UNL A   1      33.303  27.644  26.127  1.00  0.00     0.258 C 
ATOM     13  C   UNL A   1      34.418  28.590  26.645  1.00  0.00     0.064 C 
BRANCH  12  14
ATOM     14  C   UNL A   1      31.929  28.347  26.118  1.00  0.00     0.260 C 
ATOM     15  N   UNL A   1      31.253  28.547  24.949  1.00  0.00    -0.353 N 
ATOM     16  H   UNL A   1      30.297  28.766  25.036  1.00  0.00     0.163 HD
ATOM     17  O   UNL A   1      31.402  28.732  27.166  1.00  0.00    -0.271 OA
BRANCH  15  18
ATOM     18  C   UNL A   1      31.766  28.477  23.598  1.00  0.00     0.116 C 
BRANCH  18  19
ATOM     19  C   UNL A   1      30.694  28.479  22.528  1.00  0.00     0.024 C 
BRANCH  19  20
ATOM     20  C   UNL A   1      29.490  29.371  22.871  1.00  0.00    -0.016 C 
ATOM     21  C   UNL A   1      29.240  30.455  21.816  1.00  0.00     0.007 C 
ATOM     22  C   UNL A   1      28.250  28.492  23.016  1.00  0.00     0.007 C 
ENDBRANCH  19  20
ENDBRANCH  18  19
ENDBRANCH  15  18
ENDBRANCH  12  14
ENDBRANCH  11  12
ENDBRANCH   6  11
BRANCH  10  23
ATOM     23  N   UNL A   1      32.581  22.957  22.032  1.00  0.00    -0.399 N 
ATOM     24  H   UNL A   1      32.375  21.998  22.119  1.00  0.00     0.156 HD
ATOM     25  H   UNL A   1      32.617  23.375  21.142  1.00  0.00     0.156 HD
ENDBRANCH  10  23
ENDBRANCH   1   5
BRANCH   3  26
ATOM     26  C   UNL A   1      33.861  21.483  27.031  1.00  0.00     0.118 C 
BRANCH  26  27
ATOM     27  C   UNL A   1      35.123  22.312  27.081  1.00  0.00     0.042 C 
BRANCH  27  28
ATOM     28  C   UNL A   1      35.811  22.369  25.741  1.00  0.00     0.118 C 
BRANCH  28  29
ATOM     29  N   UNL A   1      36.785  21.293  25.578  1.00  0.00    -0.352 N 
ATOM     30  C   UNL A   1      38.151  21.256  25.723  1.00  0.00     0.251 C 
ATOM     31  H   UNL A   1      36.389  20.431  25.313  1.00  0.00     0.163 HD
ATOM     32  O   UNL A   1      38.761  20.260  25.329  1.00  0.00    -0.269 OA
BRANCH  30  33
ATOM     33  C   UNL A   1      38.905  22.393  26.302  1.00  0.00     0.039 A 
ATOM     34  C   UNL A   1      40.009  22.144  27.126  1.00  0.00     0.014 A 
ATOM     35  C   UNL A   1      38.523  23.709  26.066  1.00  0.00     0.014 A 
ATOM     36  C   UNL A   1      40.760  23.211  27.633  1.00  0.00     0.010 A 
ATOM     37  C   UNL A   1      39.358  24.756  26.429  1.00  0.00     0.010 A 
ATOM     38  C   UNL A   1      40.471  24.528  27.246  1.00  0.00    -0.014 A 
BRANCH  38  39
ATOM     39  C   UNL A   1      41.267  25.700  27.701  1.00  0.00     0.031 A 
ATOM     40  C   UNL A   1      40.609  26.772  28.535  1.00  0.00     0.074 A 
ATOM     41  C   UNL A   1      42.531  25.868  27.264  1.00  0.00     0.049 A 
ATOM     42  N   UNL A   1      41.066  27.946  28.886  1.00  0.00    -0.248 NA
ATOM     43  C   UNL A   1      39.231  26.512  28.996  1.00  0.00     0.031 C 
ATOM     44  C   UNL A   1      43.260  24.944  26.393  1.00  0.00     0.029 A 
ATOM     45  N   UNL A   1      43.418  26.897  27.467  1.00  0.00    -0.354 N 
ATOM     46  C   UNL A   1      40.020  28.580  29.547  1.00  0.00     0.074 A 
ATOM     47  C   UNL A   1      38.888  27.683  29.510  1.00  0.00     0.031 C 
ATOM     48  C   UNL A   1      44.482  25.441  26.143  1.00  0.00     0.029 A 
ATOM     49  C   UNL A   1      44.608  26.741  26.793  1.00  0.00     0.049 A 
ATOM     50  H   UNL A   1      43.222  27.672  28.040  1.00  0.00     0.167 HD
ATOM     51  C   UNL A   1      40.007  29.786  30.162  1.00  0.00     0.034 A 
ATOM     52  C   UNL A   1      45.674  27.561  26.692  1.00  0.00     0.034 A 
ATOM     53  C   UNL A   1      41.155  30.643  30.259  1.00  0.00     0.049 A 
ATOM     54  C   UNL A   1      45.653  28.877  27.423  1.00  0.00     0.074 A 
ATOM     55  C   UNL A   1      41.282  31.835  30.948  1.00  0.00     0.029 A 
ATOM     56  N   UNL A   1      42.375  30.400  29.646  1.00  0.00    -0.354 N 
ATOM     57  N   UNL A   1      44.703  29.395  28.163  1.00  0.00    -0.248 NA
ATOM     58  C   UNL A   1      46.862  29.709  27.332  1.00  0.00     0.031 C 
ATOM     59  C   UNL A   1      42.569  32.331  30.725  1.00  0.00     0.029 A 
ATOM     60  C   UNL A   1      43.257  31.427  29.931  1.00  0.00     0.049 A 
ATOM     61  H   UNL A   1      42.581  29.614  29.091  1.00  0.00     0.167 HD
ATOM     62  C   UNL A   1      45.212  30.588  28.659  1.00  0.00     0.074 A 
ATOM     63  C   UNL A   1      46.560  30.713  28.144  1.00  0.00     0.031 C 
ATOM     64  C   UNL A   1      44.615  31.503  29.461  1.00  0.00     0.034 A 
BRANCH  51  65
ATOM     65  C   UNL A   1      38.728  30.227  30.826  1.00  0.00     0.023 A 
ATOM     66  C   UNL A   1      38.514  29.950  32.192  1.00  0.00     0.012 A 
ATOM     67  C   UNL A   1      37.761  30.962  30.112  1.00  0.00     0.148 A 
ATOM     68  C   UNL A   1      37.343  30.360  32.827  1.00  0.00     0.002 A 
ATOM     69  C   UNL A   1      36.619  31.413  30.765  1.00  0.00     0.091 A 
ATOM     70  F   UNL A   1      37.970  31.200  28.810  1.00  0.00    -0.205 F 
ATOM     71  C   UNL A   1      36.402  31.100  32.116  1.00  0.00     0.022 A 
BRANCH  69  72
ATOM     72  S   UNL A   1      35.388  32.447  29.964  1.00  0.00     0.127 S 
ATOM     73  O   UNL A   1      36.198  33.586  29.529  1.00  0.00    -0.237 OA
ATOM     74  O   UNL A   1      34.922  31.583  28.880  1.00  0.00    -0.237 OA
ATOM     75  O   UNL A   1      34.390  32.745  30.979  1.00  0.00    -0.744 OA
ENDBRANCH  69  72
ENDBRANCH  51  65
BRANCH  52  76
ATOM     76  C   UNL A   1      46.870  27.136  25.912  1.00  0.00     0.023 A 
ATOM     77  C   UNL A   1      47.786  26.234  26.488  1.00  0.00     0.012 A 
ATOM     78  C   UNL A   1      47.095  27.596  24.600  1.00  0.00     0.148 A 
ATOM     79  C   UNL A   1      48.920  25.824  25.786  1.00  0.00     0.002 A 
ATOM     80  C   UNL A   1      48.197  27.141  23.885  1.00  0.00     0.091 A 
ATOM     81  F   UNL A   1      46.216  28.460  24.071  1.00  0.00    -0.205 F 
ATOM     82  C   UNL A   1      49.122  26.270  24.483  1.00  0.00     0.022 A 
BRANCH  80  83
ATOM     83  S   UNL A   1      48.467  27.560  22.159  1.00  0.00     0.127 S 
ATOM     84  O   UNL A   1      49.636  28.431  22.241  1.00  0.00    -0.237 OA
ATOM     85  O   UNL A   1      48.717  26.245  21.565  1.00  0.00    -0.237 OA
ATOM     86  O   UNL A   1      47.236  28.195  21.708  1.00  0.00    -0.744 OA
ENDBRANCH  80  83
ENDBRANCH  52  76
BRANCH  64  87
ATOM     87  C   UNL A   1      45.421  32.699  29.892  1.00  0.00     0.023 A 
ATOM     88  C   UNL A   1      46.241  32.623  31.034  1.00  0.00     0.012 A 
ATOM     89  C   UNL A   1      45.449  33.859  29.092  1.00  0.00     0.148 A 
ATOM     90  C   UNL A   1      47.063  33.695  31.385  1.00  0.00     0.002 A 
ATOM     91  C   UNL A   1      46.309  34.899  29.417  1.00  0.00     0.091 A 
ATOM     92  F   UNL A   1      44.649  33.912  28.017  1.00  0.00    -0.205 F 
ATOM     93  C   UNL A   1      47.107  34.825  30.570  1.00  0.00     0.022 A 
BRANCH  91  94
ATOM     94  S   UNL A   1      46.512  36.347  28.374  1.00  0.00     0.127 S 
ATOM     95  O   UNL A   1      45.368  37.165  28.774  1.00  0.00    -0.237 OA
ATOM     96  O   UNL A   1      47.812  36.859  28.808  1.00  0.00    -0.237 OA
ATOM     97  O   UNL A   1      46.478  35.864  27.000  1.00  0.00    -0.744 OA
ENDBRANCH  91  94
ENDBRANCH  64  87
ENDBRANCH  38  39
ENDBRANCH  30  33
ENDBRANCH  28  29
ENDBRANCH  27  28
ENDBRANCH  26  27
ENDBRANCH   3  26
TORSDOF 20
ENDMDL
MODEL 2
REMARK VINA RESULT:     -11.4      1.922      3.580
REMARK SMILES CC(C)CCNC(=O)[C@@H](C)Oc1ccc(N)cc1C(=O)NCCCNC(=O)c1ccc(-c2c3nc(c(-c4cccc(S(=O)(=O)[O-])c4F)c4ccc([nH]4)c(-c4cccc(S(=O)(=O)[O-])c4F)c4nc(c(-c5cccc(S(=O)(=O)[O-])c5F)c5ccc2[nH]5)C=C4)C=C3)cc1
REMARK SMILES IDX 19 1 20 2 21 3 18 5 12 6 13 7 14 8 17 9 15 10 11 11 9 12
REMARK SMILES IDX 10 13 7 14 6 15 8 17 5 18 4 19 2 20 1 21 3 22 16 23 22 26
REMARK SMILES IDX 23 27 24 28 25 29 26 30 27 32 28 33 29 34 90 35 30 36 89 37
REMARK SMILES IDX 31 38 32 39 33 40 83 41 34 42 88 43 82 44 84 45 35 46 87 47
REMARK SMILES IDX 81 48 80 49 36 51 68 52 48 53 67 54 49 55 52 56 66 57 85 58
REMARK SMILES IDX 50 59 51 60 65 62 86 63 53 64 37 65 38 66 46 67 39 68 41 69
REMARK SMILES IDX 47 70 40 71 42 72 43 73 44 74 45 75 69 76 70 77 78 78 71 79
REMARK SMILES IDX 73 80 79 81 72 82 74 83 75 84 76 85 77 86 54 87 55 88 63 89
REMARK SMILES IDX 56 90 58 91 64 92 57 93 59 94 60 95 61 96 62 97
REMARK H PARENT 21 4 6 16 16 24 16 25 25 31 84 50 52 61
REMARK Flexibility Score: inf
ROOT
ATOM      1  C   UNL A   1      33.832  24.810  22.976  1.00  0.00     0.255 C 
ATOM      2  O   UNL A   1      33.201  24.726  21.914  1.00  0.00    -0.269 OA
ATOM      3  N   UNL A   1      34.791  23.843  23.124  1.00  0.00    -0.352 N 
ATOM      4  H   UNL A   1      34.889  23.245  22.349  1.00  0.00     0.163 HD
ENDROOT
BRANCH   1   5
ATOM      5  C   UNL A   1      33.505  25.954  23.914  1.00  0.00     0.083 A 
ATOM      6  C   UNL A   1      33.235  25.976  25.296  1.00  0.00     0.133 A 
ATOM      7  C   UNL A   1      33.445  27.169  26.003  1.00  0.00     0.049 A 
ATOM      8  C   UNL A   1      33.630  28.385  25.344  1.00  0.00     0.029 A 
ATOM      9  C   UNL A   1      33.637  27.217  23.274  1.00  0.00     0.043 A 
ATOM     10  C   UNL A   1      33.614  28.430  23.961  1.00  0.00     0.032 A 
BRANCH   6  11
ATOM     11  O   UNL A   1      32.924  24.900  26.069  1.00  0.00    -0.480 OA
BRANCH  11  12
ATOM     12  C   UNL A   1      31.665  24.206  25.872  1.00  0.00     0.258 C 
ATOM     13  C   UNL A   1      30.404  25.046  25.534  1.00  0.00     0.064 C 
BRANCH  12  14
ATOM     14  C   UNL A   1      31.309  22.986  26.747  1.00  0.00     0.260 C 
ATOM     15  N   UNL A   1      32.013  21.821  26.643  1.00  0.00    -0.353 N 
ATOM     16  H   UNL A   1      31.903  21.184  27.386  1.00  0.00     0.163 HD
ATOM     17  O   UNL A   1      30.391  23.038  27.571  1.00  0.00    -0.271 OA
BRANCH  15  18
ATOM     18  C   UNL A   1      32.899  21.406  25.578  1.00  0.00     0.116 C 
BRANCH  18  19
ATOM     19  C   UNL A   1      32.201  20.707  24.430  1.00  0.00     0.024 C 
BRANCH  19  20
ATOM     20  C   UNL A   1      32.592  19.228  24.286  1.00  0.00    -0.016 C 
ATOM     21  C   UNL A   1      32.321  18.681  22.880  1.00  0.00     0.007 C 
ATOM     22  C   UNL A   1      34.073  19.073  24.626  1.00  0.00     0.007 C 
ENDBRANCH  19  20
ENDBRANCH  18  19
ENDBRANCH  15  18
ENDBRANCH  12  14
ENDBRANCH  11  12
ENDBRANCH   6  11
BRANCH  10  23
ATOM     23  N   UNL A   1      33.755  29.633  23.286  1.00  0.00    -0.399 N 
ATOM     24  H   UNL A   1      34.645  29.927  22.986  1.00  0.00     0.156 HD
ATOM     25  H   UNL A   1      32.966  30.193  23.110  1.00  0.00     0.156 HD
ENDBRANCH  10  23
ENDBRANCH   1   5
BRANCH   3  26
ATOM     26  C   UNL A   1      35.675  23.552  24.212  1.00  0.00     0.118 C 
BRANCH  26  27
ATOM     27  C   UNL A   1      36.226  22.145  24.228  1.00  0.00     0.042 C 
BRANCH  27  28
ATOM     28  C   UNL A   1      36.508  21.669  25.629  1.00  0.00     0.118 C 
BRANCH  28  29
ATOM     29  N   UNL A   1      37.546  20.642  25.663  1.00  0.00    -0.352 N 
ATOM     30  C   UNL A   1      38.892  20.701  25.935  1.00  0.00     0.251 C 
ATOM     31  H   UNL A   1      37.221  19.737  25.449  1.00  0.00     0.163 HD
ATOM     32  O   UNL A   1      39.586  19.710  25.699  1.00  0.00    -0.269 OA
BRANCH  30  33
ATOM     33  C   UNL A   1      39.528  21.929  26.466  1.00  0.00     0.039 A 
ATOM     34  C   UNL A   1      40.548  21.825  27.419  1.00  0.00     0.014 A 
ATOM     35  C   UNL A   1      39.114  23.192  26.057  1.00  0.00     0.014 A 
ATOM     36  C   UNL A   1      41.191  22.977  27.886  1.00  0.00     0.010 A 
ATOM     37  C   UNL A   1      39.857  24.314  26.391  1.00  0.00     0.010 A 
ATOM     38  C   UNL A   1      40.886  24.231  27.337  1.00  0.00    -0.014 A 
BRANCH  38  39
ATOM     39  C   UNL A   1      41.576  25.485  27.745  1.00  0.00     0.031 A 
ATOM     40  C   UNL A   1      40.801  26.565  28.461  1.00  0.00     0.074 A 
ATOM     41  C   UNL A   1      42.850  25.709  27.366  1.00  0.00     0.049 A 
ATOM     42  N   UNL A   1      41.159  27.789  28.747  1.00  0.00    -0.248 NA
ATOM     43  C   UNL A   1      39.419  26.242  28.864  1.00  0.00     0.031 C 
ATOM     44  C   UNL A   1      43.688  24.778  26.606  1.00  0.00     0.029 A 
ATOM     45  N   UNL A   1      43.654  26.809  27.539  1.00  0.00    -0.354 N 
ATOM     46  C   UNL A   1      40.037  28.394  29.302  1.00  0.00     0.074 A 
ATOM     47  C   UNL A   1      38.970  27.420  29.271  1.00  0.00     0.031 C 
ATOM     48  C   UNL A   1      44.887  25.341  26.387  1.00  0.00     0.029 A 
ATOM     49  C   UNL A   1      44.889  26.689  26.944  1.00  0.00     0.049 A 
ATOM     50  H   UNL A   1      43.374  27.607  28.042  1.00  0.00     0.167 HD
ATOM     51  C   UNL A   1      39.909  29.636  29.824  1.00  0.00     0.034 A 
ATOM     52  C   UNL A   1      45.903  27.572  26.840  1.00  0.00     0.034 A 
ATOM     53  C   UNL A   1      40.990  30.576  29.918  1.00  0.00     0.049 A 
ATOM     54  C   UNL A   1      45.753  28.931  27.468  1.00  0.00     0.074 A 
ATOM     55  C   UNL A   1      40.998  31.820  30.523  1.00  0.00     0.029 A 
ATOM     56  N   UNL A   1      42.257  30.376  29.392  1.00  0.00    -0.354 N 
ATOM     57  N   UNL A   1      44.729  29.433  28.115  1.00  0.00    -0.248 NA
ATOM     58  C   UNL A   1      46.908  29.837  27.381  1.00  0.00     0.031 C 
ATOM     59  C   UNL A   1      42.261  32.387  30.334  1.00  0.00     0.029 A 
ATOM     60  C   UNL A   1      43.052  31.479  29.647  1.00  0.00     0.049 A 
ATOM     61  H   UNL A   1      42.547  29.569  28.909  1.00  0.00     0.167 HD
ATOM     62  C   UNL A   1      45.129  30.691  28.548  1.00  0.00     0.074 A 
ATOM     63  C   UNL A   1      46.494  30.873  28.099  1.00  0.00     0.031 C 
ATOM     64  C   UNL A   1      44.428  31.616  29.247  1.00  0.00     0.034 A 
BRANCH  51  65
ATOM     65  C   UNL A   1      38.566  30.033  30.383  1.00  0.00     0.023 A 
ATOM     66  C   UNL A   1      38.222  29.674  31.702  1.00  0.00     0.012 A 
ATOM     67  C   UNL A   1      37.668  30.807  29.623  1.00  0.00     0.148 A 
ATOM     68  C   UNL A   1      36.990  30.042  32.242  1.00  0.00     0.002 A 
ATOM     69  C   UNL A   1      36.464  31.215  30.185  1.00  0.00     0.091 A 
ATOM     70  F   UNL A   1      38.002  31.124  28.364  1.00  0.00    -0.205 F 
ATOM     71  C   UNL A   1      36.117  30.821  31.487  1.00  0.00     0.022 A 
BRANCH  69  72
ATOM     72  S   UNL A   1      35.309  32.292  29.329  1.00  0.00     0.127 S 
ATOM     73  O   UNL A   1      34.630  32.945  30.448  1.00  0.00    -0.237 OA
ATOM     74  O   UNL A   1      36.207  33.162  28.570  1.00  0.00    -0.237 OA
ATOM     75  O   UNL A   1      34.473  31.421  28.516  1.00  0.00    -0.744 OA
ENDBRANCH  69  72
ENDBRANCH  51  65
BRANCH  52  76
ATOM     76  C   UNL A   1      47.169  27.177  26.158  1.00  0.00     0.023 A 
ATOM     77  C   UNL A   1      47.348  27.494  24.797  1.00  0.00     0.012 A 
ATOM     78  C   UNL A   1      48.202  26.517  26.850  1.00  0.00     0.148 A 
ATOM     79  C   UNL A   1      48.518  27.130  24.130  1.00  0.00     0.002 A 
ATOM     80  C   UNL A   1      49.387  26.206  26.194  1.00  0.00     0.091 A 
ATOM     81  F   UNL A   1      48.010  26.217  28.143  1.00  0.00    -0.205 F 
ATOM     82  C   UNL A   1      49.540  26.495  24.829  1.00  0.00     0.022 A 
BRANCH  80  83
ATOM     83  S   UNL A   1      50.806  25.505  27.045  1.00  0.00     0.127 S 
ATOM     84  O   UNL A   1      51.143  26.566  27.991  1.00  0.00    -0.237 OA
ATOM     85  O   UNL A   1      50.232  24.301  27.648  1.00  0.00    -0.237 OA
ATOM     86  O   UNL A   1      51.797  25.242  26.010  1.00  0.00    -0.744 OA
ENDBRANCH  80  83
ENDBRANCH  52  76
BRANCH  64  87
ATOM     87  C   UNL A   1      45.127  32.893  29.630  1.00  0.00     0.023 A 
ATOM     88  C   UNL A   1      45.908  32.946  30.801  1.00  0.00     0.012 A 
ATOM     89  C   UNL A   1      45.098  34.003  28.762  1.00  0.00     0.148 A 
ATOM     90  C   UNL A   1      46.635  34.095  31.112  1.00  0.00     0.002 A 
ATOM     91  C   UNL A   1      45.866  35.123  29.052  1.00  0.00     0.091 A 
ATOM     92  F   UNL A   1      44.336  33.933  27.662  1.00  0.00    -0.205 F 
ATOM     93  C   UNL A   1      46.625  35.176  30.232  1.00  0.00     0.022 A 
BRANCH  91  94
ATOM     94  S   UNL A   1      46.000  36.519  27.930  1.00  0.00     0.127 S 
ATOM     95  O   UNL A   1      46.848  37.434  28.692  1.00  0.00    -0.237 OA
ATOM     96  O   UNL A   1      46.646  35.915  26.765  1.00  0.00    -0.237 OA
ATOM     97  O   UNL A   1      44.640  36.983  27.697  1.00  0.00    -0.744 OA
ENDBRANCH  91  94
ENDBRANCH  64  87
ENDBRANCH  38  39
ENDBRANCH  30  33
ENDBRANCH  28  29
ENDBRANCH  27  28
ENDBRANCH  26  27
ENDBRANCH   3  26
TORSDOF 20
ENDMDL
MODEL 3
REMARK VINA RESULT:     -11.4      5.142      7.643
REMARK SMILES CC(C)CCNC(=O)[C@@H](C)Oc1ccc(N)cc1C(=O)NCCCNC(=O)c1ccc(-c2c3nc(c(-c4cccc(S(=O)(=O)[O-])c4F)c4ccc([nH]4)c(-c4cccc(S(=O)(=O)[O-])c4F)c4nc(c(-c5cccc(S(=O)(=O)[O-])c5F)c5ccc2[nH]5)C=C4)C=C3)cc1
REMARK SMILES IDX 19 1 20 2 21 3 18 5 12 6 13 7 14 8 17 9 15 10 11 11 9 12
REMARK SMILES IDX 10 13 7 14 6 15 8 17 5 18 4 19 2 20 1 21 3 22 16 23 22 26
REMARK SMILES IDX 23 27 24 28 25 29 26 30 27 32 28 33 29 34 90 35 30 36 89 37
REMARK SMILES IDX 31 38 32 39 33 40 83 41 34 42 88 43 82 44 84 45 35 46 87 47
REMARK SMILES IDX 81 48 80 49 36 51 68 52 48 53 67 54 49 55 52 56 66 57 85 58
REMARK SMILES IDX 50 59 51 60 65 62 86 63 53 64 37 65 38 66 46 67 39 68 41 69
REMARK SMILES IDX 47 70 40 71 42 72 43 73 44 74 45 75 69 76 70 77 78 78 71 79
REMARK SMILES IDX 73 80 79 81 72 82 74 83 75 84 76 85 77 86 54 87 55 88 63 89
REMARK SMILES IDX 56 90 58 91 64 92 57 93 59 94 60 95 61 96 62 97
REMARK H PARENT 21 4 6 16 16 24 16 25 25 31 84 50 52 61
REMARK Flexibility Score: inf
ROOT
ATOM      1  C   UNL A   1      33.270  26.528  22.268  1.00  0.00     0.255 C 
ATOM      2  O   UNL A   1      33.281  25.807  21.262  1.00  0.00    -0.269 OA
ATOM      3  N   UNL A   1      33.738  27.795  22.043  1.00  0.00    -0.352 N 
ATOM      4  H   UNL A   1      33.970  27.982  21.104  1.00  0.00     0.163 HD
ENDROOT
BRANCH   1   5
ATOM      5  C   UNL A   1      32.719  25.950  23.556  1.00  0.00     0.083 A 
ATOM      6  C   UNL A   1      33.358  25.538  24.741  1.00  0.00     0.133 A 
ATOM      7  C   UNL A   1      32.617  25.507  25.930  1.00  0.00     0.049 A 
ATOM      8  C   UNL A   1      31.224  25.590  25.923  1.00  0.00     0.029 A 
ATOM      9  C   UNL A   1      31.296  25.973  23.579  1.00  0.00     0.043 A 
ATOM     10  C   UNL A   1      30.545  25.711  24.724  1.00  0.00     0.032 A 
BRANCH   6  11
ATOM     11  O   UNL A   1      34.691  25.301  24.891  1.00  0.00    -0.480 OA
BRANCH  11  12
ATOM     12  C   UNL A   1      35.181  23.936  24.945  1.00  0.00     0.258 C 
ATOM     13  C   UNL A   1      36.468  23.646  25.763  1.00  0.00     0.064 C 
BRANCH  12  14
ATOM     14  C   UNL A   1      35.094  23.034  23.697  1.00  0.00     0.260 C 
ATOM     15  N   UNL A   1      34.190  22.012  23.634  1.00  0.00    -0.353 N 
ATOM     16  H   UNL A   1      34.017  21.645  22.736  1.00  0.00     0.163 HD
ATOM     17  O   UNL A   1      35.827  23.221  22.721  1.00  0.00    -0.271 OA
BRANCH  15  18
ATOM     18  C   UNL A   1      33.456  21.402  24.721  1.00  0.00     0.116 C 
BRANCH  18  19
ATOM     19  C   UNL A   1      32.488  20.322  24.283  1.00  0.00     0.024 C 
BRANCH  19  20
ATOM     20  C   UNL A   1      33.120  18.923  24.220  1.00  0.00    -0.016 C 
ATOM     21  C   UNL A   1      32.900  18.118  25.506  1.00  0.00     0.007 C 
ATOM     22  C   UNL A   1      32.533  18.169  23.029  1.00  0.00     0.007 C 
ENDBRANCH  19  20
ENDBRANCH  18  19
ENDBRANCH  15  18
ENDBRANCH  12  14
ENDBRANCH  11  12
ENDBRANCH   6  11
BRANCH  10  23
ATOM     23  N   UNL A   1      29.159  25.753  24.691  1.00  0.00    -0.399 N 
ATOM     24  H   UNL A   1      28.640  24.924  24.798  1.00  0.00     0.156 HD
ATOM     25  H   UNL A   1      28.697  26.611  24.559  1.00  0.00     0.156 HD
ENDBRANCH  10  23
ENDBRANCH   1   5
BRANCH   3  26
ATOM     26  C   UNL A   1      33.950  28.894  22.935  1.00  0.00     0.118 C 
BRANCH  26  27
ATOM     27  C   UNL A   1      32.743  29.297  23.749  1.00  0.00     0.042 C 
BRANCH  27  28
ATOM     28  C   UNL A   1      33.046  29.328  25.225  1.00  0.00     0.118 C 
BRANCH  28  29
ATOM     29  N   UNL A   1      32.733  30.623  25.824  1.00  0.00    -0.352 N 
ATOM     30  C   UNL A   1      33.275  31.301  26.889  1.00  0.00     0.251 C 
ATOM     31  H   UNL A   1      31.995  31.101  25.380  1.00  0.00     0.163 HD
ATOM     32  O   UNL A   1      32.689  32.300  27.313  1.00  0.00    -0.269 OA
BRANCH  30  33
ATOM     33  C   UNL A   1      34.514  30.841  27.559  1.00  0.00     0.039 A 
ATOM     34  C   UNL A   1      35.574  31.735  27.744  1.00  0.00     0.014 A 
ATOM     35  C   UNL A   1      34.659  29.525  27.986  1.00  0.00     0.014 A 
ATOM     36  C   UNL A   1      36.727  31.325  28.423  1.00  0.00     0.010 A 
ATOM     37  C   UNL A   1      35.724  29.167  28.800  1.00  0.00     0.010 A 
ATOM     38  C   UNL A   1      36.791  30.049  29.004  1.00  0.00    -0.014 A 
BRANCH  38  39
ATOM     39  C   UNL A   1      37.962  29.574  29.790  1.00  0.00     0.031 A 
ATOM     40  C   UNL A   1      38.203  30.122  31.176  1.00  0.00     0.074 A 
ATOM     41  C   UNL A   1      38.871  28.757  29.221  1.00  0.00     0.049 A 
ATOM     42  N   UNL A   1      39.243  29.977  31.954  1.00  0.00    -0.248 NA
ATOM     43  C   UNL A   1      37.156  30.993  31.743  1.00  0.00     0.031 C 
ATOM     44  C   UNL A   1      38.795  28.214  27.863  1.00  0.00     0.029 A 
ATOM     45  N   UNL A   1      40.059  28.266  29.705  1.00  0.00    -0.354 N 
ATOM     46  C   UNL A   1      39.004  30.780  33.063  1.00  0.00     0.074 A 
ATOM     47  C   UNL A   1      37.742  31.448  32.840  1.00  0.00     0.031 C 
ATOM     48  C   UNL A   1      39.881  27.461  27.626  1.00  0.00     0.029 A 
ATOM     49  C   UNL A   1      40.755  27.507  28.794  1.00  0.00     0.049 A 
ATOM     50  H   UNL A   1      40.382  28.441  30.619  1.00  0.00     0.167 HD
ATOM     51  C   UNL A   1      39.746  30.925  34.186  1.00  0.00     0.034 A 
ATOM     52  C   UNL A   1      41.970  26.928  28.879  1.00  0.00     0.034 A 
ATOM     53  C   UNL A   1      40.963  30.205  34.435  1.00  0.00     0.049 A 
ATOM     54  C   UNL A   1      42.756  27.066  30.154  1.00  0.00     0.074 A 
ATOM     55  C   UNL A   1      41.737  30.196  35.581  1.00  0.00     0.029 A 
ATOM     56  N   UNL A   1      41.583  29.365  33.523  1.00  0.00    -0.354 N 
ATOM     57  N   UNL A   1      42.444  27.717  31.249  1.00  0.00    -0.248 NA
ATOM     58  C   UNL A   1      44.048  26.368  30.221  1.00  0.00     0.031 C 
ATOM     59  C   UNL A   1      42.845  29.377  35.351  1.00  0.00     0.029 A 
ATOM     60  C   UNL A   1      42.738  28.842  34.076  1.00  0.00     0.049 A 
ATOM     61  H   UNL A   1      41.251  29.170  32.618  1.00  0.00     0.167 HD
ATOM     62  C   UNL A   1      43.475  27.471  32.147  1.00  0.00     0.074 A 
ATOM     63  C   UNL A   1      44.419  26.603  31.473  1.00  0.00     0.031 C 
ATOM     64  C   UNL A   1      43.633  27.930  33.412  1.00  0.00     0.034 A 
BRANCH  51  65
ATOM     65  C   UNL A   1      39.237  31.859  35.254  1.00  0.00     0.023 A 
ATOM     66  C   UNL A   1      38.283  31.404  36.187  1.00  0.00     0.012 A 
ATOM     67  C   UNL A   1      39.741  33.170  35.368  1.00  0.00     0.148 A 
ATOM     68  C   UNL A   1      37.808  32.249  37.189  1.00  0.00     0.002 A 
ATOM     69  C   UNL A   1      39.303  33.989  36.402  1.00  0.00     0.091 A 
ATOM     70  F   UNL A   1      40.634  33.593  34.461  1.00  0.00    -0.205 F 
ATOM     71  C   UNL A   1      38.326  33.536  37.302  1.00  0.00     0.022 A 
BRANCH  69  72
ATOM     72  S   UNL A   1      39.971  35.632  36.687  1.00  0.00     0.127 S 
ATOM     73  O   UNL A   1      39.270  36.026  37.909  1.00  0.00    -0.237 OA
ATOM     74  O   UNL A   1      41.396  35.356  36.864  1.00  0.00    -0.237 OA
ATOM     75  O   UNL A   1      39.643  36.411  35.502  1.00  0.00    -0.744 OA
ENDBRANCH  69  72
ENDBRANCH  51  65
BRANCH  52  76
ATOM     76  C   UNL A   1      42.492  26.119  27.740  1.00  0.00     0.023 A 
ATOM     77  C   UNL A   1      43.347  26.725  26.798  1.00  0.00     0.012 A 
ATOM     78  C   UNL A   1      42.172  24.756  27.598  1.00  0.00     0.148 A 
ATOM     79  C   UNL A   1      43.845  25.996  25.717  1.00  0.00     0.002 A 
ATOM     80  C   UNL A   1      42.715  24.022  26.550  1.00  0.00     0.091 A 
ATOM     81  F   UNL A   1      41.351  24.199  28.501  1.00  0.00    -0.205 F 
ATOM     82  C   UNL A   1      43.537  24.644  25.597  1.00  0.00     0.022 A 
BRANCH  80  83
ATOM     83  S   UNL A   1      42.478  22.248  26.390  1.00  0.00     0.127 S 
ATOM     84  O   UNL A   1      42.618  21.800  27.773  1.00  0.00    -0.237 OA
ATOM     85  O   UNL A   1      41.118  22.172  25.852  1.00  0.00    -0.237 OA
ATOM     86  O   UNL A   1      43.511  21.792  25.470  1.00  0.00    -0.744 OA
ENDBRANCH  80  83
ENDBRANCH  52  76
BRANCH  64  87
ATOM     87  C   UNL A   1      44.835  27.465  34.189  1.00  0.00     0.023 A 
ATOM     88  C   UNL A   1      46.007  28.246  34.211  1.00  0.00     0.012 A 
ATOM     89  C   UNL A   1      44.755  26.308  34.991  1.00  0.00     0.148 A 
ATOM     90  C   UNL A   1      47.090  27.870  35.004  1.00  0.00     0.002 A 
ATOM     91  C   UNL A   1      45.818  25.970  35.819  1.00  0.00     0.091 A 
ATOM     92  F   UNL A   1      43.634  25.575  34.943  1.00  0.00    -0.205 F 
ATOM     93  C   UNL A   1      46.990  26.742  35.818  1.00  0.00     0.022 A 
BRANCH  91  94
ATOM     94  S   UNL A   1      45.741  24.599  36.976  1.00  0.00     0.127 S 
ATOM     95  O   UNL A   1      47.048  24.684  37.625  1.00  0.00    -0.237 OA
ATOM     96  O   UNL A   1      44.612  24.977  37.826  1.00  0.00    -0.237 OA
ATOM     97  O   UNL A   1      45.524  23.403  36.174  1.00  0.00    -0.744 OA
ENDBRANCH  91  94
ENDBRANCH  64  87
ENDBRANCH  38  39
ENDBRANCH  30  33
ENDBRANCH  28  29
ENDBRANCH  27  28
ENDBRANCH  26  27
ENDBRANCH   3  26
TORSDOF 20
ENDMDL
