MODEL 1
REMARK VINA RESULT:     -12.1      0.000      0.000
REMARK SMILES C[NH2+][C@@]1(C(=O)NCCCNC(=O)c2ccc(-c3c4nc(c(-c5cccc(S(=O)(=O)[O-])c5F)c5ccc([nH]5)c(-c5cccc(S(=O)(=O)[O-])c5F)c5nc(c(-c6cccc(S(=O)(=O)[O-])c6F)c6ccc3[nH]6)C=C5)C=C4)cc2)CC[C@H]([NH+]2CC[NH+](C)CC2)C1
REMARK SMILES IDX 9 1 8 2 7 3 6 4 4 5 5 6 3 8 76 9 86 10 77 11 78 12 2 13 1 14
REMARK SMILES IDX 79 17 80 18 85 19 81 21 84 22 82 23 83 24 10 26 11 27 12 29
REMARK SMILES IDX 13 30 14 31 75 32 15 33 74 34 16 35 17 36 18 37 68 38 19 39
REMARK SMILES IDX 73 40 67 41 69 42 20 43 72 44 66 45 65 46 21 48 53 49 33 50
REMARK SMILES IDX 52 51 34 52 37 53 51 54 70 55 35 56 36 57 50 59 71 60 38 61
REMARK SMILES IDX 22 62 23 63 31 64 24 65 26 66 32 67 25 68 27 69 28 70 29 71
REMARK SMILES IDX 30 72 54 73 55 74 63 75 56 76 58 77 64 78 57 79 59 80 60 81
REMARK SMILES IDX 61 82 62 83 39 84 40 85 48 86 41 87 43 88 49 89 42 90 44 91
REMARK SMILES IDX 45 92 46 93 47 94
REMARK H PARENT 6 7 2 15 2 16 79 20 82 25 10 28 69 47 37 58
REMARK Flexibility Score: inf
ROOT
ATOM      1  C   UNL A   1      34.341  29.038  26.314  1.00  0.00     0.118 C 
ENDROOT
BRANCH   1   2
ATOM      2  C   UNL A   1      33.266  27.878  26.874  1.00  0.00     0.042 C 
BRANCH   2   3
ATOM      3  C   UNL A   1      31.284  27.214  26.504  1.00  0.00     0.118 C 
BRANCH   3   4
ATOM      4  N   UNL A   1      30.650  26.253  25.395  1.00  0.00    -0.351 N 
ATOM      5  C   UNL A   1      30.768  25.968  24.076  1.00  0.00     0.281 C 
ATOM      6  O   UNL A   1      29.857  25.244  23.644  1.00  0.00    -0.268 OA
ATOM      7  H   UNL A   1      29.950  25.691  25.799  1.00  0.00     0.163 HD
BRANCH   5   8
ATOM      8  C   UNL A   1      31.916  26.481  23.157  1.00  0.00     0.181 C 
ATOM      9  C   UNL A   1      31.808  25.767  21.802  1.00  0.00     0.085 C 
ATOM     10  C   UNL A   1      33.307  26.116  23.711  1.00  0.00     0.144 C 
ATOM     11  C   UNL A   1      33.053  24.888  21.723  1.00  0.00     0.072 C 
ATOM     12  C   UNL A   1      33.597  24.717  23.168  1.00  0.00     0.191 C 
BRANCH   8  13
ATOM     13  N   UNL A   1      31.763  27.958  23.114  1.00  0.00    -0.336 N 
ATOM     14  C   UNL A   1      32.933  28.777  22.911  1.00  0.00     0.331 C 
ATOM     15  H   UNL A   1      31.116  28.168  22.354  1.00  0.00     0.346 HD
ATOM     16  H   UNL A   1      31.456  28.199  24.056  1.00  0.00     0.346 HD
ENDBRANCH   8  13
BRANCH  12  17
ATOM     17  N   UNL A   1      33.119  23.585  23.978  1.00  0.00    -0.323 N 
ATOM     18  C   UNL A   1      34.287  23.082  25.310  1.00  0.00     0.324 C 
ATOM     19  C   UNL A   1      31.978  22.298  23.251  1.00  0.00     0.324 C 
ATOM     20  H   UNL A   1      32.335  24.020  24.465  1.00  0.00     0.348 HD
ATOM     21  C   UNL A   1      34.711  21.191  25.568  1.00  0.00     0.324 C 
ATOM     22  C   UNL A   1      32.378  20.375  23.543  1.00  0.00     0.324 C 
ATOM     23  N   UNL A   1      33.629  19.894  24.827  1.00  0.00    -0.328 N 
ATOM     24  C   UNL A   1      34.385  18.687  24.508  1.00  0.00     0.333 C 
ATOM     25  H   UNL A   1      32.984  19.691  25.590  1.00  0.00     0.348 HD
ENDBRANCH  12  17
ENDBRANCH   5   8
ENDBRANCH   3   4
ENDBRANCH   2   3
ENDBRANCH   1   2
BRANCH   1  26
ATOM     26  N   UNL A   1      34.139  30.378  26.863  1.00  0.00    -0.352 N 
ATOM     27  C   UNL A   1      34.750  31.048  27.876  1.00  0.00     0.251 C 
ATOM     28  H   UNL A   1      33.428  30.890  26.416  1.00  0.00     0.163 HD
ATOM     29  O   UNL A   1      34.247  32.044  28.386  1.00  0.00    -0.269 OA
BRANCH  27  30
ATOM     30  C   UNL A   1      36.015  30.509  28.372  1.00  0.00     0.039 A 
ATOM     31  C   UNL A   1      36.004  29.710  29.515  1.00  0.00     0.014 A 
ATOM     32  C   UNL A   1      37.185  30.753  27.650  1.00  0.00     0.014 A 
ATOM     33  C   UNL A   1      37.192  29.130  29.935  1.00  0.00     0.010 A 
ATOM     34  C   UNL A   1      38.344  30.100  28.017  1.00  0.00     0.010 A 
ATOM     35  C   UNL A   1      38.361  29.320  29.181  1.00  0.00    -0.014 A 
BRANCH  35  36
ATOM     36  C   UNL A   1      39.652  28.780  29.639  1.00  0.00     0.031 A 
ATOM     37  C   UNL A   1      40.359  29.477  30.765  1.00  0.00     0.074 A 
ATOM     38  C   UNL A   1      40.198  27.739  28.989  1.00  0.00     0.049 A 
ATOM     39  N   UNL A   1      41.535  29.232  31.275  1.00  0.00    -0.248 NA
ATOM     40  C   UNL A   1      39.674  30.637  31.367  1.00  0.00     0.031 C 
ATOM     41  C   UNL A   1      39.611  27.061  27.830  1.00  0.00     0.029 A 
ATOM     42  N   UNL A   1      41.379  27.083  29.196  1.00  0.00    -0.354 N 
ATOM     43  C   UNL A   1      41.750  30.236  32.212  1.00  0.00     0.074 A 
ATOM     44  C   UNL A   1      40.609  31.119  32.169  1.00  0.00     0.031 C 
ATOM     45  C   UNL A   1      40.434  26.075  27.436  1.00  0.00     0.029 A 
ATOM     46  C   UNL A   1      41.610  26.069  28.298  1.00  0.00     0.049 A 
ATOM     47  H   UNL A   1      42.005  27.314  29.921  1.00  0.00     0.167 HD
ATOM     48  C   UNL A   1      42.793  30.380  33.060  1.00  0.00     0.034 A 
ATOM     49  C   UNL A   1      42.660  25.234  28.194  1.00  0.00     0.034 A 
ATOM     50  C   UNL A   1      43.876  29.440  33.128  1.00  0.00     0.049 A 
ATOM     51  C   UNL A   1      43.763  25.359  29.210  1.00  0.00     0.074 A 
ATOM     52  C   UNL A   1      44.939  29.412  34.009  1.00  0.00     0.029 A 
ATOM     53  N   UNL A   1      44.024  28.354  32.278  1.00  0.00    -0.354 N 
ATOM     54  N   UNL A   1      43.885  26.221  30.193  1.00  0.00    -0.248 NA
ATOM     55  C   UNL A   1      44.849  24.375  29.135  1.00  0.00     0.031 C 
ATOM     56  C   UNL A   1      45.741  28.314  33.680  1.00  0.00     0.029 A 
ATOM     57  C   UNL A   1      45.162  27.645  32.611  1.00  0.00     0.049 A 
ATOM     58  H   UNL A   1      43.409  28.122  31.545  1.00  0.00     0.167 HD
ATOM     59  C   UNL A   1      45.041  25.863  30.875  1.00  0.00     0.074 A 
ATOM     60  C   UNL A   1      45.570  24.692  30.203  1.00  0.00     0.031 C 
ATOM     61  C   UNL A   1      45.623  26.451  31.948  1.00  0.00     0.034 A 
BRANCH  48  62
ATOM     62  C   UNL A   1      42.772  31.553  34.001  1.00  0.00     0.023 A 
ATOM     63  C   UNL A   1      43.249  32.809  33.569  1.00  0.00     0.012 A 
ATOM     64  C   UNL A   1      42.262  31.424  35.308  1.00  0.00     0.148 A 
ATOM     65  C   UNL A   1      43.260  33.904  34.432  1.00  0.00     0.002 A 
ATOM     66  C   UNL A   1      42.230  32.532  36.147  1.00  0.00     0.091 A 
ATOM     67  F   UNL A   1      41.839  30.218  35.713  1.00  0.00    -0.205 F 
ATOM     68  C   UNL A   1      42.742  33.768  35.716  1.00  0.00     0.022 A 
BRANCH  66  69
ATOM     69  S   UNL A   1      41.508  32.483  37.791  1.00  0.00     0.127 S 
ATOM     70  O   UNL A   1      41.709  33.859  38.243  1.00  0.00    -0.237 OA
ATOM     71  O   UNL A   1      40.117  32.132  37.504  1.00  0.00    -0.237 OA
ATOM     72  O   UNL A   1      42.252  31.469  38.527  1.00  0.00    -0.744 OA
ENDBRANCH  66  69
ENDBRANCH  48  62
BRANCH  49  73
ATOM     73  C   UNL A   1      42.662  24.162  27.160  1.00  0.00     0.023 A 
ATOM     74  C   UNL A   1      43.352  24.373  25.950  1.00  0.00     0.012 A 
ATOM     75  C   UNL A   1      42.033  22.922  27.384  1.00  0.00     0.148 A 
ATOM     76  C   UNL A   1      43.387  23.383  24.968  1.00  0.00     0.002 A 
ATOM     77  C   UNL A   1      42.117  21.920  26.422  1.00  0.00     0.091 A 
ATOM     78  F   UNL A   1      41.378  22.741  28.539  1.00  0.00    -0.205 F 
ATOM     79  C   UNL A   1      42.779  22.154  25.207  1.00  0.00     0.022 A 
BRANCH  77  80
ATOM     80  S   UNL A   1      41.479  20.263  26.700  1.00  0.00     0.127 S 
ATOM     81  O   UNL A   1      40.047  20.512  26.834  1.00  0.00    -0.237 OA
ATOM     82  O   UNL A   1      41.874  19.575  25.469  1.00  0.00    -0.237 OA
ATOM     83  O   UNL A   1      42.153  19.779  27.897  1.00  0.00    -0.744 OA
ENDBRANCH  77  80
ENDBRANCH  49  73
BRANCH  61  84
ATOM     84  C   UNL A   1      46.877  25.817  32.486  1.00  0.00     0.023 A 
ATOM     85  C   UNL A   1      48.133  26.238  32.009  1.00  0.00     0.012 A 
ATOM     86  C   UNL A   1      46.805  24.871  33.527  1.00  0.00     0.148 A 
ATOM     87  C   UNL A   1      49.303  25.700  32.541  1.00  0.00     0.002 A 
ATOM     88  C   UNL A   1      47.976  24.381  34.087  1.00  0.00     0.091 A 
ATOM     89  F   UNL A   1      45.596  24.475  33.950  1.00  0.00    -0.205 F 
ATOM     90  C   UNL A   1      49.225  24.783  33.588  1.00  0.00     0.022 A 
BRANCH  88  91
ATOM     91  S   UNL A   1      47.970  23.280  35.506  1.00  0.00     0.127 S 
ATOM     92  O   UNL A   1      47.329  22.088  34.954  1.00  0.00    -0.237 OA
ATOM     93  O   UNL A   1      49.398  23.131  35.789  1.00  0.00    -0.237 OA
ATOM     94  O   UNL A   1      47.218  23.971  36.546  1.00  0.00    -0.744 OA
ENDBRANCH  88  91
ENDBRANCH  61  84
ENDBRANCH  35  36
ENDBRANCH  27  30
ENDBRANCH   1  26
TORSDOF 15
ENDMDL
MODEL 2
REMARK VINA RESULT:     -12.1      1.599      2.071
REMARK SMILES C[NH2+][C@@]1(C(=O)NCCCNC(=O)c2ccc(-c3c4nc(c(-c5cccc(S(=O)(=O)[O-])c5F)c5ccc([nH]5)c(-c5cccc(S(=O)(=O)[O-])c5F)c5nc(c(-c6cccc(S(=O)(=O)[O-])c6F)c6ccc3[nH]6)C=C5)C=C4)cc2)CC[C@H]([NH+]2CC[NH+](C)CC2)C1
REMARK SMILES IDX 9 1 8 2 7 3 6 4 4 5 5 6 3 8 76 9 86 10 77 11 78 12 2 13 1 14
REMARK SMILES IDX 79 17 80 18 85 19 81 21 84 22 82 23 83 24 10 26 11 27 12 29
REMARK SMILES IDX 13 30 14 31 75 32 15 33 74 34 16 35 17 36 18 37 68 38 19 39
REMARK SMILES IDX 73 40 67 41 69 42 20 43 72 44 66 45 65 46 21 48 53 49 33 50
REMARK SMILES IDX 52 51 34 52 37 53 51 54 70 55 35 56 36 57 50 59 71 60 38 61
REMARK SMILES IDX 22 62 23 63 31 64 24 65 26 66 32 67 25 68 27 69 28 70 29 71
REMARK SMILES IDX 30 72 54 73 55 74 63 75 56 76 58 77 64 78 57 79 59 80 60 81
REMARK SMILES IDX 61 82 62 83 39 84 40 85 48 86 41 87 43 88 49 89 42 90 44 91
REMARK SMILES IDX 45 92 46 93 47 94
REMARK H PARENT 6 7 2 15 2 16 79 20 82 25 10 28 69 47 37 58
REMARK Flexibility Score: inf
ROOT
ATOM      1  C   UNL A   1      34.265  28.944  26.346  1.00  0.00     0.118 C 
ENDROOT
BRANCH   1   2
ATOM      2  C   UNL A   1      32.845  28.139  25.960  1.00  0.00     0.042 C 
BRANCH   2   3
ATOM      3  C   UNL A   1      31.445  26.828  26.870  1.00  0.00     0.118 C 
BRANCH   3   4
ATOM      4  N   UNL A   1      31.150  25.267  26.700  1.00  0.00    -0.351 N 
ATOM      5  C   UNL A   1      30.859  24.363  25.733  1.00  0.00     0.281 C 
ATOM      6  O   UNL A   1      30.512  23.258  26.179  1.00  0.00    -0.268 OA
ATOM      7  H   UNL A   1      31.192  24.819  27.576  1.00  0.00     0.163 HD
BRANCH   5   8
ATOM      8  C   UNL A   1      30.936  24.646  24.203  1.00  0.00     0.181 C 
ATOM      9  C   UNL A   1      30.757  23.316  23.455  1.00  0.00     0.085 C 
ATOM     10  C   UNL A   1      32.320  25.177  23.782  1.00  0.00     0.144 C 
ATOM     11  C   UNL A   1      32.105  23.058  22.789  1.00  0.00     0.072 C 
ATOM     12  C   UNL A   1      33.163  23.930  23.520  1.00  0.00     0.191 C 
BRANCH   8  13
ATOM     13  N   UNL A   1      29.898  25.674  23.935  1.00  0.00    -0.336 N 
ATOM     14  C   UNL A   1      30.283  26.905  23.289  1.00  0.00     0.331 C 
ATOM     15  H   UNL A   1      29.191  25.236  23.345  1.00  0.00     0.346 HD
ATOM     16  H   UNL A   1      29.600  25.968  24.864  1.00  0.00     0.346 HD
ENDBRANCH   8  13
BRANCH  12  17
ATOM     17  N   UNL A   1      33.874  23.362  24.676  1.00  0.00    -0.323 N 
ATOM     18  C   UNL A   1      35.074  24.525  25.451  1.00  0.00     0.324 C 
ATOM     19  C   UNL A   1      34.195  21.527  24.800  1.00  0.00     0.324 C 
ATOM     20  H   UNL A   1      33.111  23.285  25.347  1.00  0.00     0.348 HD
ATOM     21  C   UNL A   1      36.876  23.909  25.896  1.00  0.00     0.324 C 
ATOM     22  C   UNL A   1      36.011  20.893  25.292  1.00  0.00     0.324 C 
ATOM     23  N   UNL A   1      37.237  22.103  25.985  1.00  0.00    -0.328 N 
ATOM     24  C   UNL A   1      38.626  21.819  25.636  1.00  0.00     0.333 C 
ATOM     25  H   UNL A   1      37.095  21.904  26.974  1.00  0.00     0.348 HD
ENDBRANCH  12  17
ENDBRANCH   5   8
ENDBRANCH   3   4
ENDBRANCH   2   3
ENDBRANCH   1   2
BRANCH   1  26
ATOM     26  N   UNL A   1      34.082  30.304  26.852  1.00  0.00    -0.352 N 
ATOM     27  C   UNL A   1      34.702  30.998  27.843  1.00  0.00     0.251 C 
ATOM     28  H   UNL A   1      33.378  30.811  26.388  1.00  0.00     0.163 HD
ATOM     29  O   UNL A   1      34.213  32.016  28.320  1.00  0.00    -0.269 OA
BRANCH  27  30
ATOM     30  C   UNL A   1      35.960  30.458  28.356  1.00  0.00     0.039 A 
ATOM     31  C   UNL A   1      35.934  29.664  29.503  1.00  0.00     0.014 A 
ATOM     32  C   UNL A   1      37.139  30.695  27.647  1.00  0.00     0.014 A 
ATOM     33  C   UNL A   1      37.116  29.083  29.938  1.00  0.00     0.010 A 
ATOM     34  C   UNL A   1      38.292  30.041  28.030  1.00  0.00     0.010 A 
ATOM     35  C   UNL A   1      38.293  29.267  29.198  1.00  0.00    -0.014 A 
BRANCH  35  36
ATOM     36  C   UNL A   1      39.577  28.725  29.673  1.00  0.00     0.031 A 
ATOM     37  C   UNL A   1      40.279  29.432  30.796  1.00  0.00     0.074 A 
ATOM     38  C   UNL A   1      40.123  27.673  29.040  1.00  0.00     0.049 A 
ATOM     39  N   UNL A   1      41.449  29.187  31.319  1.00  0.00    -0.248 NA
ATOM     40  C   UNL A   1      39.595  30.603  31.379  1.00  0.00     0.031 C 
ATOM     41  C   UNL A   1      39.543  26.984  27.884  1.00  0.00     0.029 A 
ATOM     42  N   UNL A   1      41.299  27.014  29.265  1.00  0.00    -0.354 N 
ATOM     43  C   UNL A   1      41.662  30.200  32.246  1.00  0.00     0.074 A 
ATOM     44  C   UNL A   1      40.526  31.089  32.183  1.00  0.00     0.031 C 
ATOM     45  C   UNL A   1      40.363  25.989  27.509  1.00  0.00     0.029 A 
ATOM     46  C   UNL A   1      41.532  25.988  28.381  1.00  0.00     0.049 A 
ATOM     47  H   UNL A   1      41.920  27.250  29.992  1.00  0.00     0.167 HD
ATOM     48  C   UNL A   1      42.698  30.349  33.101  1.00  0.00     0.034 A 
ATOM     49  C   UNL A   1      42.579  25.146  28.296  1.00  0.00     0.034 A 
ATOM     50  C   UNL A   1      43.776  29.404  33.190  1.00  0.00     0.049 A 
ATOM     51  C   UNL A   1      43.674  25.277  29.320  1.00  0.00     0.074 A 
ATOM     52  C   UNL A   1      44.831  29.382  34.080  1.00  0.00     0.029 A 
ATOM     53  N   UNL A   1      43.925  28.307  32.354  1.00  0.00    -0.354 N 
ATOM     54  N   UNL A   1      43.792  26.150  30.294  1.00  0.00    -0.248 NA
ATOM     55  C   UNL A   1      44.755  24.287  29.265  1.00  0.00     0.031 C 
ATOM     56  C   UNL A   1      45.629  28.275  33.771  1.00  0.00     0.029 A 
ATOM     57  C   UNL A   1      45.056  27.597  32.705  1.00  0.00     0.049 A 
ATOM     58  H   UNL A   1      43.315  28.070  31.618  1.00  0.00     0.167 HD
ATOM     59  C   UNL A   1      44.940  25.795  30.990  1.00  0.00     0.074 A 
ATOM     60  C   UNL A   1      45.469  24.613  30.336  1.00  0.00     0.031 C 
ATOM     61  C   UNL A   1      45.517  26.392  32.061  1.00  0.00     0.034 A 
BRANCH  48  62
ATOM     62  C   UNL A   1      42.676  31.534  34.028  1.00  0.00     0.023 A 
ATOM     63  C   UNL A   1      43.216  32.767  33.605  1.00  0.00     0.012 A 
ATOM     64  C   UNL A   1      42.102  31.438  35.311  1.00  0.00     0.148 A 
ATOM     65  C   UNL A   1      43.226  33.870  34.457  1.00  0.00     0.002 A 
ATOM     66  C   UNL A   1      42.070  32.557  36.136  1.00  0.00     0.091 A 
ATOM     67  F   UNL A   1      41.618  30.252  35.708  1.00  0.00    -0.205 F 
ATOM     68  C   UNL A   1      42.645  33.768  35.717  1.00  0.00     0.022 A 
BRANCH  66  69
ATOM     69  S   UNL A   1      41.273  32.553  37.745  1.00  0.00     0.127 S 
ATOM     70  O   UNL A   1      39.933  32.074  37.410  1.00  0.00    -0.237 OA
ATOM     71  O   UNL A   1      42.093  31.597  38.491  1.00  0.00    -0.237 OA
ATOM     72  O   UNL A   1      41.342  33.924  38.232  1.00  0.00    -0.744 OA
ENDBRANCH  66  69
ENDBRANCH  48  62
BRANCH  49  73
ATOM     73  C   UNL A   1      42.584  24.062  27.274  1.00  0.00     0.023 A 
ATOM     74  C   UNL A   1      43.138  24.314  26.004  1.00  0.00     0.012 A 
ATOM     75  C   UNL A   1      42.094  22.774  27.566  1.00  0.00     0.148 A 
ATOM     76  C   UNL A   1      43.173  23.316  25.031  1.00  0.00     0.002 A 
ATOM     77  C   UNL A   1      42.180  21.768  26.609  1.00  0.00     0.091 A 
ATOM     78  F   UNL A   1      41.566  22.553  28.778  1.00  0.00    -0.205 F 
ATOM     79  C   UNL A   1      42.703  22.041  25.335  1.00  0.00     0.022 A 
BRANCH  77  80
ATOM     80  S   UNL A   1      41.724  20.065  26.958  1.00  0.00     0.127 S 
ATOM     81  O   UNL A   1      41.677  19.487  25.618  1.00  0.00    -0.237 OA
ATOM     82  O   UNL A   1      42.845  19.614  27.785  1.00  0.00    -0.237 OA
ATOM     83  O   UNL A   1      40.452  20.136  27.663  1.00  0.00    -0.744 OA
ENDBRANCH  77  80
ENDBRANCH  49  73
BRANCH  61  84
ATOM     84  C   UNL A   1      46.762  25.758  32.617  1.00  0.00     0.023 A 
ATOM     85  C   UNL A   1      46.666  24.857  33.694  1.00  0.00     0.012 A 
ATOM     86  C   UNL A   1      48.010  25.992  32.009  1.00  0.00     0.148 A 
ATOM     87  C   UNL A   1      47.805  24.219  34.180  1.00  0.00     0.002 A 
ATOM     88  C   UNL A   1      49.131  25.312  32.466  1.00  0.00     0.091 A 
ATOM     89  F   UNL A   1      48.077  26.869  30.997  1.00  0.00    -0.205 F 
ATOM     90  C   UNL A   1      49.033  24.435  33.558  1.00  0.00     0.022 A 
BRANCH  88  91
ATOM     91  S   UNL A   1      50.728  25.449  31.658  1.00  0.00     0.127 S 
ATOM     92  O   UNL A   1      50.423  24.968  30.311  1.00  0.00    -0.237 OA
ATOM     93  O   UNL A   1      51.000  26.884  31.746  1.00  0.00    -0.237 OA
ATOM     94  O   UNL A   1      51.641  24.614  32.429  1.00  0.00    -0.744 OA
ENDBRANCH  88  91
ENDBRANCH  61  84
ENDBRANCH  35  36
ENDBRANCH  27  30
ENDBRANCH   1  26
TORSDOF 15
ENDMDL
MODEL 3
REMARK VINA RESULT:     -12.1      3.560      8.990
REMARK SMILES C[NH2+][C@@]1(C(=O)NCCCNC(=O)c2ccc(-c3c4nc(c(-c5cccc(S(=O)(=O)[O-])c5F)c5ccc([nH]5)c(-c5cccc(S(=O)(=O)[O-])c5F)c5nc(c(-c6cccc(S(=O)(=O)[O-])c6F)c6ccc3[nH]6)C=C5)C=C4)cc2)CC[C@H]([NH+]2CC[NH+](C)CC2)C1
REMARK SMILES IDX 9 1 8 2 7 3 6 4 4 5 5 6 3 8 76 9 86 10 77 11 78 12 2 13 1 14
REMARK SMILES IDX 79 17 80 18 85 19 81 21 84 22 82 23 83 24 10 26 11 27 12 29
REMARK SMILES IDX 13 30 14 31 75 32 15 33 74 34 16 35 17 36 18 37 68 38 19 39
REMARK SMILES IDX 73 40 67 41 69 42 20 43 72 44 66 45 65 46 21 48 53 49 33 50
REMARK SMILES IDX 52 51 34 52 37 53 51 54 70 55 35 56 36 57 50 59 71 60 38 61
REMARK SMILES IDX 22 62 23 63 31 64 24 65 26 66 32 67 25 68 27 69 28 70 29 71
REMARK SMILES IDX 30 72 54 73 55 74 63 75 56 76 58 77 64 78 57 79 59 80 60 81
REMARK SMILES IDX 61 82 62 83 39 84 40 85 48 86 41 87 43 88 49 89 42 90 44 91
REMARK SMILES IDX 45 92 46 93 47 94
REMARK H PARENT 6 7 2 15 2 16 79 20 82 25 10 28 69 47 37 58
REMARK Flexibility Score: inf
ROOT
ATOM      1  C   UNL A   1      33.160  33.154  27.389  1.00  0.00     0.118 C 
ENDROOT
BRANCH   1   2
ATOM      2  C   UNL A   1      31.875  32.244  26.809  1.00  0.00     0.042 C 
BRANCH   2   3
ATOM      3  C   UNL A   1      31.532  30.580  25.537  1.00  0.00     0.118 C 
BRANCH   3   4
ATOM      4  N   UNL A   1      32.510  29.637  24.695  1.00  0.00    -0.351 N 
ATOM      5  C   UNL A   1      32.461  28.668  23.749  1.00  0.00     0.281 C 
ATOM      6  O   UNL A   1      33.548  28.097  23.571  1.00  0.00    -0.268 OA
ATOM      7  H   UNL A   1      33.446  29.817  24.943  1.00  0.00     0.163 HD
BRANCH   5   8
ATOM      8  C   UNL A   1      31.185  28.278  22.945  1.00  0.00     0.181 C 
ATOM      9  C   UNL A   1      30.088  27.877  23.944  1.00  0.00     0.085 C 
ATOM     10  C   UNL A   1      31.415  27.038  22.059  1.00  0.00     0.144 C 
ATOM     11  C   UNL A   1      29.870  26.386  23.706  1.00  0.00     0.072 C 
ATOM     12  C   UNL A   1      31.122  25.842  22.964  1.00  0.00     0.191 C 
BRANCH   8  13
ATOM     13  N   UNL A   1      30.874  29.455  22.095  1.00  0.00    -0.336 N 
ATOM     14  C   UNL A   1      29.517  29.942  22.042  1.00  0.00     0.331 C 
ATOM     15  H   UNL A   1      31.454  30.225  22.427  1.00  0.00     0.346 HD
ATOM     16  H   UNL A   1      31.052  29.124  21.147  1.00  0.00     0.346 HD
ENDBRANCH   8  13
BRANCH  12  17
ATOM     17  N   UNL A   1      32.248  25.326  23.757  1.00  0.00    -0.323 N 
ATOM     18  C   UNL A   1      33.269  24.078  22.868  1.00  0.00     0.324 C 
ATOM     19  C   UNL A   1      32.154  25.245  25.620  1.00  0.00     0.324 C 
ATOM     20  H   UNL A   1      32.836  26.157  23.812  1.00  0.00     0.348 HD
ATOM     21  C   UNL A   1      33.781  22.419  23.768  1.00  0.00     0.324 C 
ATOM     22  C   UNL A   1      32.711  23.579  26.546  1.00  0.00     0.324 C 
ATOM     23  N   UNL A   1      33.660  22.291  25.603  1.00  0.00    -0.328 N 
ATOM     24  C   UNL A   1      33.396  20.920  26.026  1.00  0.00     0.333 C 
ATOM     25  H   UNL A   1      34.598  22.557  25.899  1.00  0.00     0.348 HD
ENDBRANCH  12  17
ENDBRANCH   5   8
ENDBRANCH   3   4
ENDBRANCH   2   3
ENDBRANCH   1   2
BRANCH   1  26
ATOM     26  N   UNL A   1      32.781  34.420  28.015  1.00  0.00    -0.352 N 
ATOM     27  C   UNL A   1      33.112  34.982  29.208  1.00  0.00     0.251 C 
ATOM     28  H   UNL A   1      32.172  34.969  27.470  1.00  0.00     0.163 HD
ATOM     29  O   UNL A   1      32.465  35.906  29.688  1.00  0.00    -0.269 OA
BRANCH  27  30
ATOM     30  C   UNL A   1      34.249  34.410  29.927  1.00  0.00     0.039 A 
ATOM     31  C   UNL A   1      34.007  33.622  31.053  1.00  0.00     0.014 A 
ATOM     32  C   UNL A   1      35.538  34.610  29.428  1.00  0.00     0.014 A 
ATOM     33  C   UNL A   1      35.081  33.011  31.683  1.00  0.00     0.010 A 
ATOM     34  C   UNL A   1      36.590  33.926  30.001  1.00  0.00     0.010 A 
ATOM     35  C   UNL A   1      36.371  33.158  31.153  1.00  0.00    -0.014 A 
BRANCH  35  36
ATOM     36  C   UNL A   1      37.540  32.583  31.839  1.00  0.00     0.031 A 
ATOM     37  C   UNL A   1      38.272  31.452  31.178  1.00  0.00     0.074 A 
ATOM     38  C   UNL A   1      37.867  33.024  33.066  1.00  0.00     0.049 A 
ATOM     39  N   UNL A   1      39.269  30.742  31.630  1.00  0.00    -0.248 NA
ATOM     40  C   UNL A   1      37.788  31.029  29.850  1.00  0.00     0.031 C 
ATOM     41  C   UNL A   1      37.150  34.062  33.812  1.00  0.00     0.029 A 
ATOM     42  N   UNL A   1      38.871  32.640  33.910  1.00  0.00    -0.354 N 
ATOM     43  C   UNL A   1      39.492  29.760  30.671  1.00  0.00     0.074 A 
ATOM     44  C   UNL A   1      38.499  29.934  29.637  1.00  0.00     0.031 C 
ATOM     45  C   UNL A   1      37.748  34.240  35.002  1.00  0.00     0.029 A 
ATOM     46  C   UNL A   1      38.870  33.313  35.108  1.00  0.00     0.049 A 
ATOM     47  H   UNL A   1      39.532  31.947  33.682  1.00  0.00     0.167 HD
ATOM     48  C   UNL A   1      40.466  28.823  30.642  1.00  0.00     0.034 A 
ATOM     49  C   UNL A   1      39.691  33.188  36.166  1.00  0.00     0.034 A 
ATOM     50  C   UNL A   1      41.483  28.726  31.650  1.00  0.00     0.049 A 
ATOM     51  C   UNL A   1      40.823  32.201  36.067  1.00  0.00     0.074 A 
ATOM     52  C   UNL A   1      42.582  27.892  31.687  1.00  0.00     0.029 A 
ATOM     53  N   UNL A   1      41.521  29.502  32.799  1.00  0.00    -0.354 N 
ATOM     54  N   UNL A   1      41.116  31.378  35.086  1.00  0.00    -0.248 NA
ATOM     55  C   UNL A   1      41.761  32.151  37.194  1.00  0.00     0.031 C 
ATOM     56  C   UNL A   1      43.280  28.155  32.871  1.00  0.00     0.029 A 
ATOM     57  C   UNL A   1      42.628  29.169  33.556  1.00  0.00     0.049 A 
ATOM     58  H   UNL A   1      40.858  30.189  33.040  1.00  0.00     0.167 HD
ATOM     59  C   UNL A   1      42.291  30.739  35.460  1.00  0.00     0.074 A 
ATOM     60  C   UNL A   1      42.665  31.287  36.750  1.00  0.00     0.031 C 
ATOM     61  C   UNL A   1      42.993  29.779  34.810  1.00  0.00     0.034 A 
BRANCH  48  62
ATOM     62  C   UNL A   1      40.499  27.885  29.465  1.00  0.00     0.023 A 
ATOM     63  C   UNL A   1      39.651  26.757  29.442  1.00  0.00     0.012 A 
ATOM     64  C   UNL A   1      41.351  28.127  28.370  1.00  0.00     0.148 A 
ATOM     65  C   UNL A   1      39.683  25.863  28.374  1.00  0.00     0.002 A 
ATOM     66  C   UNL A   1      41.340  27.259  27.284  1.00  0.00     0.091 A 
ATOM     67  F   UNL A   1      42.170  29.188  28.419  1.00  0.00    -0.205 F 
ATOM     68  C   UNL A   1      40.519  26.119  27.291  1.00  0.00     0.022 A 
BRANCH  66  69
ATOM     69  S   UNL A   1      42.319  27.543  25.806  1.00  0.00     0.127 S 
ATOM     70  O   UNL A   1      43.681  27.436  26.328  1.00  0.00    -0.237 OA
ATOM     71  O   UNL A   1      41.906  26.432  24.948  1.00  0.00    -0.237 OA
ATOM     72  O   UNL A   1      41.938  28.862  25.319  1.00  0.00    -0.744 OA
ENDBRANCH  66  69
ENDBRANCH  48  62
BRANCH  49  73
ATOM     73  C   UNL A   1      39.527  34.079  37.349  1.00  0.00     0.023 A 
ATOM     74  C   UNL A   1      39.917  35.429  37.253  1.00  0.00     0.012 A 
ATOM     75  C   UNL A   1      38.944  33.616  38.544  1.00  0.00     0.148 A 
ATOM     76  C   UNL A   1      39.761  36.293  38.337  1.00  0.00     0.002 A 
ATOM     77  C   UNL A   1      38.742  34.496  39.602  1.00  0.00     0.091 A 
ATOM     78  F   UNL A   1      38.583  32.327  38.617  1.00  0.00    -0.205 F 
ATOM     79  C   UNL A   1      39.166  35.831  39.508  1.00  0.00     0.022 A 
BRANCH  77  80
ATOM     80  S   UNL A   1      37.863  34.021  41.096  1.00  0.00     0.127 S 
ATOM     81  O   UNL A   1      38.852  33.188  41.773  1.00  0.00    -0.237 OA
ATOM     82  O   UNL A   1      37.613  35.318  41.726  1.00  0.00    -0.237 OA
ATOM     83  O   UNL A   1      36.661  33.336  40.642  1.00  0.00    -0.744 OA
ENDBRANCH  77  80
ENDBRANCH  49  73
BRANCH  61  84
ATOM     84  C   UNL A   1      44.255  29.286  35.463  1.00  0.00     0.023 A 
ATOM     85  C   UNL A   1      45.476  29.938  35.205  1.00  0.00     0.012 A 
ATOM     86  C   UNL A   1      44.207  28.234  36.398  1.00  0.00     0.148 A 
ATOM     87  C   UNL A   1      46.641  29.528  35.848  1.00  0.00     0.002 A 
ATOM     88  C   UNL A   1      45.363  27.867  37.073  1.00  0.00     0.091 A 
ATOM     89  F   UNL A   1      43.035  27.618  36.612  1.00  0.00    -0.205 F 
ATOM     90  C   UNL A   1      46.583  28.503  36.791  1.00  0.00     0.022 A 
BRANCH  88  91
ATOM     91  S   UNL A   1      45.358  26.633  38.378  1.00  0.00     0.127 S 
ATOM     92  O   UNL A   1      46.760  26.632  38.791  1.00  0.00    -0.237 OA
ATOM     93  O   UNL A   1      44.435  27.215  39.352  1.00  0.00    -0.237 OA
ATOM     94  O   UNL A   1      44.886  25.400  37.761  1.00  0.00    -0.744 OA
ENDBRANCH  88  91
ENDBRANCH  61  84
ENDBRANCH  35  36
ENDBRANCH  27  30
ENDBRANCH   1  26
TORSDOF 15
ENDMDL
