MODEL 1
REMARK VINA RESULT:     -13.7      0.000      0.000
REMARK SMILES O=C(Cc1ccccc1)Nc1cccc(C(=O)Nc2ccccc2C(=O)NCCCNC(=O)c2ccc(-c3c4nc(c(-c5cccc(S(=O)(=O)[O-])c5F)c5ccc([nH]5)c(-c5cccc(S(=O)(=O)[O-])c5F)c5nc(c(-c6cccc(S(=O)(=O)[O-])c6F)c6ccc3[nH]6)C=C5)C=C4)cc2)c1
REMARK SMILES IDX 28 1 27 2 25 3 26 4 24 6 19 7 20 8 21 9 23 10 22 11 18 12
REMARK SMILES IDX 16 13 17 14 15 16 11 17 12 18 97 19 13 20 14 21 10 22 1 23
REMARK SMILES IDX 2 24 3 26 4 27 5 28 9 29 6 30 8 31 7 32 29 33 30 34 31 35
REMARK SMILES IDX 32 36 33 38 34 39 35 40 96 41 36 42 95 43 37 44 38 45 39 46
REMARK SMILES IDX 89 47 40 48 94 49 88 50 90 51 41 52 93 53 87 54 86 55 42 57
REMARK SMILES IDX 74 58 54 59 73 60 55 61 58 62 72 63 91 64 56 65 57 66 71 68
REMARK SMILES IDX 92 69 59 70 43 71 44 72 52 73 45 74 47 75 53 76 46 77 48 78
REMARK SMILES IDX 49 79 50 80 51 81 75 82 76 83 84 84 77 85 79 86 85 87 78 88
REMARK SMILES IDX 80 89 81 90 82 91 83 92 60 93 61 94 69 95 62 96 64 97 70 98
REMARK SMILES IDX 63 99 65 100 66 101 67 102 68 103
REMARK H PARENT 27 5 18 15 10 25 31 37 90 56 58 67
REMARK Flexibility Score: inf
ROOT
ATOM      1  C   UNL A   1      36.893  22.746  24.437  1.00  0.00     0.118 C 
ENDROOT
BRANCH   1   2
ATOM      2  N   UNL A   1      36.075  23.000  25.608  1.00  0.00    -0.352 N 
ATOM      3  C   UNL A   1      34.777  22.658  25.859  1.00  0.00     0.253 C 
ATOM      4  O   UNL A   1      34.270  23.043  26.915  1.00  0.00    -0.269 OA
ATOM      5  H   UNL A   1      36.525  23.494  26.332  1.00  0.00     0.163 HD
BRANCH   3   6
ATOM      6  C   UNL A   1      33.938  21.950  24.858  1.00  0.00     0.063 A 
ATOM      7  C   UNL A   1      33.522  22.406  23.590  1.00  0.00     0.054 A 
ATOM      8  C   UNL A   1      32.556  21.644  22.904  1.00  0.00     0.027 A 
ATOM      9  C   UNL A   1      32.117  20.408  23.388  1.00  0.00     0.002 A 
ATOM     10  C   UNL A   1      33.498  20.689  25.323  1.00  0.00     0.016 A 
ATOM     11  C   UNL A   1      32.608  19.914  24.586  1.00  0.00     0.001 A 
BRANCH   7  12
ATOM     12  N   UNL A   1      33.987  23.531  22.854  1.00  0.00    -0.321 N 
ATOM     13  C   UNL A   1      33.628  24.869  22.864  1.00  0.00     0.255 C 
ATOM     14  O   UNL A   1      34.039  25.630  21.993  1.00  0.00    -0.269 OA
ATOM     15  H   UNL A   1      34.703  23.318  22.213  1.00  0.00     0.170 HD
BRANCH  13  16
ATOM     16  C   UNL A   1      32.799  25.411  23.954  1.00  0.00     0.042 A 
ATOM     17  C   UNL A   1      30.785  26.581  24.515  1.00  0.00     0.041 A 
ATOM     18  C   UNL A   1      31.353  26.936  25.746  1.00  0.00     0.026 A 
ATOM     19  C   UNL A   1      31.474  25.723  23.677  1.00  0.00     0.040 A 
ATOM     20  C   UNL A   1      32.618  26.459  26.108  1.00  0.00     0.003 A 
ATOM     21  C   UNL A   1      33.358  25.705  25.199  1.00  0.00     0.014 A 
BRANCH  17  22
ATOM     22  N   UNL A   1      29.603  27.217  24.104  1.00  0.00    -0.326 N 
ATOM     23  O   UNL A   1      30.241  28.186  22.067  1.00  0.00    -0.274 OA
ATOM     24  C   UNL A   1      29.430  28.001  22.970  1.00  0.00     0.228 C 
ATOM     25  H   UNL A   1      28.814  27.095  24.680  1.00  0.00     0.169 HD
BRANCH  24  26
ATOM     26  C   UNL A   1      28.050  28.616  22.896  1.00  0.00     0.135 C 
BRANCH  26  27
ATOM     27  C   UNL A   1      28.039  30.080  22.516  1.00  0.00    -0.039 A 
ATOM     28  C   UNL A   1      28.134  31.116  23.460  1.00  0.00     0.004 A 
ATOM     29  C   UNL A   1      27.993  30.418  21.157  1.00  0.00     0.004 A 
ATOM     30  C   UNL A   1      28.189  32.449  23.057  1.00  0.00     0.000 A 
ATOM     31  C   UNL A   1      28.038  31.753  20.756  1.00  0.00     0.000 A 
ATOM     32  C   UNL A   1      28.143  32.767  21.705  1.00  0.00     0.000 A 
ENDBRANCH  26  27
ENDBRANCH  24  26
ENDBRANCH  17  22
ENDBRANCH  13  16
ENDBRANCH   7  12
ENDBRANCH   3   6
ENDBRANCH   1   2
BRANCH   1  33
ATOM     33  C   UNL A   1      37.525  21.370  24.429  1.00  0.00     0.042 C 
BRANCH  33  34
ATOM     34  C   UNL A   1      37.953  20.876  25.806  1.00  0.00     0.118 C 
BRANCH  34  35
ATOM     35  N   UNL A   1      39.279  20.266  25.862  1.00  0.00    -0.352 N 
ATOM     36  C   UNL A   1      40.472  20.718  26.381  1.00  0.00     0.251 C 
ATOM     37  H   UNL A   1      39.329  19.370  25.456  1.00  0.00     0.163 HD
ATOM     38  O   UNL A   1      41.477  20.013  26.328  1.00  0.00    -0.269 OA
BRANCH  36  39
ATOM     39  C   UNL A   1      40.563  22.081  26.937  1.00  0.00     0.039 A 
ATOM     40  C   UNL A   1      41.414  22.316  28.020  1.00  0.00     0.014 A 
ATOM     41  C   UNL A   1      39.892  23.139  26.333  1.00  0.00     0.014 A 
ATOM     42  C   UNL A   1      41.706  23.630  28.394  1.00  0.00     0.010 A 
ATOM     43  C   UNL A   1      40.296  24.437  26.606  1.00  0.00     0.010 A 
ATOM     44  C   UNL A   1      41.218  24.701  27.629  1.00  0.00    -0.014 A 
BRANCH  44  45
ATOM     45  C   UNL A   1      41.667  26.104  27.840  1.00  0.00     0.031 A 
ATOM     46  C   UNL A   1      43.060  26.509  27.431  1.00  0.00     0.074 A 
ATOM     47  C   UNL A   1      40.888  26.965  28.529  1.00  0.00     0.049 A 
ATOM     48  N   UNL A   1      43.719  27.602  27.712  1.00  0.00    -0.248 NA
ATOM     49  C   UNL A   1      43.837  25.528  26.652  1.00  0.00     0.031 C 
ATOM     50  C   UNL A   1      39.555  26.672  29.061  1.00  0.00     0.029 A 
ATOM     51  N   UNL A   1      41.121  28.258  28.929  1.00  0.00    -0.354 N 
ATOM     52  C   UNL A   1      44.999  27.413  27.204  1.00  0.00     0.074 A 
ATOM     53  C   UNL A   1      45.039  26.083  26.639  1.00  0.00     0.031 C 
ATOM     54  C   UNL A   1      39.081  27.756  29.696  1.00  0.00     0.029 A 
ATOM     55  C   UNL A   1      40.090  28.808  29.659  1.00  0.00     0.049 A 
ATOM     56  H   UNL A   1      41.947  28.748  28.713  1.00  0.00     0.167 HD
ATOM     57  C   UNL A   1      46.037  28.282  27.169  1.00  0.00     0.034 A 
ATOM     58  C   UNL A   1      39.976  30.018  30.239  1.00  0.00     0.034 A 
ATOM     59  C   UNL A   1      45.960  29.636  27.641  1.00  0.00     0.049 A 
ATOM     60  C   UNL A   1      41.116  30.993  30.116  1.00  0.00     0.074 A 
ATOM     61  C   UNL A   1      46.917  30.631  27.559  1.00  0.00     0.029 A 
ATOM     62  N   UNL A   1      44.854  30.191  28.264  1.00  0.00    -0.354 N 
ATOM     63  N   UNL A   1      42.269  30.841  29.511  1.00  0.00    -0.248 NA
ATOM     64  C   UNL A   1      40.929  32.316  30.729  1.00  0.00     0.031 C 
ATOM     65  C   UNL A   1      46.386  31.792  28.129  1.00  0.00     0.029 A 
ATOM     66  C   UNL A   1      45.099  31.519  28.564  1.00  0.00     0.049 A 
ATOM     67  H   UNL A   1      44.017  29.712  28.464  1.00  0.00     0.167 HD
ATOM     68  C   UNL A   1      42.931  32.056  29.641  1.00  0.00     0.074 A 
ATOM     69  C   UNL A   1      42.041  32.942  30.364  1.00  0.00     0.031 C 
ATOM     70  C   UNL A   1      44.171  32.402  29.221  1.00  0.00     0.034 A 
BRANCH  57  71
ATOM     71  C   UNL A   1      47.313  27.818  26.517  1.00  0.00     0.023 A 
ATOM     72  C   UNL A   1      48.351  27.306  27.324  1.00  0.00     0.012 A 
ATOM     73  C   UNL A   1      47.474  27.847  25.119  1.00  0.00     0.148 A 
ATOM     74  C   UNL A   1      49.545  26.870  26.755  1.00  0.00     0.002 A 
ATOM     75  C   UNL A   1      48.652  27.368  24.555  1.00  0.00     0.091 A 
ATOM     76  F   UNL A   1      46.486  28.355  24.369  1.00  0.00    -0.205 F 
ATOM     77  C   UNL A   1      49.692  26.891  25.372  1.00  0.00     0.022 A 
BRANCH  75  78
ATOM     78  S   UNL A   1      48.911  27.281  22.779  1.00  0.00     0.127 S 
ATOM     79  O   UNL A   1      50.369  27.357  22.690  1.00  0.00    -0.237 OA
ATOM     80  O   UNL A   1      48.347  25.972  22.448  1.00  0.00    -0.237 OA
ATOM     81  O   UNL A   1      48.189  28.411  22.214  1.00  0.00    -0.744 OA
ENDBRANCH  75  78
ENDBRANCH  57  71
BRANCH  58  82
ATOM     82  C   UNL A   1      38.705  30.411  30.915  1.00  0.00     0.023 A 
ATOM     83  C   UNL A   1      38.503  30.029  32.256  1.00  0.00     0.012 A 
ATOM     84  C   UNL A   1      37.713  31.166  30.262  1.00  0.00     0.148 A 
ATOM     85  C   UNL A   1      37.324  30.362  32.924  1.00  0.00     0.002 A 
ATOM     86  C   UNL A   1      36.561  31.538  30.949  1.00  0.00     0.091 A 
ATOM     87  F   UNL A   1      37.912  31.508  28.982  1.00  0.00    -0.205 F 
ATOM     88  C   UNL A   1      36.357  31.124  32.275  1.00  0.00     0.022 A 
BRANCH  86  89
ATOM     89  S   UNL A   1      35.326  32.626  30.225  1.00  0.00     0.127 S 
ATOM     90  O   UNL A   1      36.098  33.844  29.996  1.00  0.00    -0.237 OA
ATOM     91  O   UNL A   1      34.948  31.900  29.012  1.00  0.00    -0.237 OA
ATOM     92  O   UNL A   1      34.265  32.718  31.218  1.00  0.00    -0.744 OA
ENDBRANCH  86  89
ENDBRANCH  58  82
BRANCH  70  93
ATOM     93  C   UNL A   1      44.637  33.805  29.499  1.00  0.00     0.023 A 
ATOM     94  C   UNL A   1      45.255  34.100  30.729  1.00  0.00     0.012 A 
ATOM     95  C   UNL A   1      44.554  34.801  28.506  1.00  0.00     0.148 A 
ATOM     96  C   UNL A   1      45.767  35.372  30.976  1.00  0.00     0.002 A 
ATOM     97  C   UNL A   1      45.104  36.054  28.743  1.00  0.00     0.091 A 
ATOM     98  F   UNL A   1      43.944  34.502  27.349  1.00  0.00    -0.205 F 
ATOM     99  C   UNL A   1      45.703  36.344  29.979  1.00  0.00     0.022 A 
BRANCH  97 100
ATOM    100  S   UNL A   1      45.153  37.338  27.487  1.00  0.00     0.127 S 
ATOM    101  O   UNL A   1      45.946  36.698  26.438  1.00  0.00    -0.237 OA
ATOM    102  O   UNL A   1      43.737  37.510  27.162  1.00  0.00    -0.237 OA
ATOM    103  O   UNL A   1      45.773  38.495  28.120  1.00  0.00    -0.744 OA
ENDBRANCH  97 100
ENDBRANCH  70  93
ENDBRANCH  44  45
ENDBRANCH  36  39
ENDBRANCH  34  35
ENDBRANCH  33  34
ENDBRANCH   1  33
TORSDOF 18
ENDMDL
MODEL 2
REMARK VINA RESULT:     -13.4      2.305      8.810
REMARK SMILES O=C(Cc1ccccc1)Nc1cccc(C(=O)Nc2ccccc2C(=O)NCCCNC(=O)c2ccc(-c3c4nc(c(-c5cccc(S(=O)(=O)[O-])c5F)c5ccc([nH]5)c(-c5cccc(S(=O)(=O)[O-])c5F)c5nc(c(-c6cccc(S(=O)(=O)[O-])c6F)c6ccc3[nH]6)C=C5)C=C4)cc2)c1
REMARK SMILES IDX 28 1 27 2 25 3 26 4 24 6 19 7 20 8 21 9 23 10 22 11 18 12
REMARK SMILES IDX 16 13 17 14 15 16 11 17 12 18 97 19 13 20 14 21 10 22 1 23
REMARK SMILES IDX 2 24 3 26 4 27 5 28 9 29 6 30 8 31 7 32 29 33 30 34 31 35
REMARK SMILES IDX 32 36 33 38 34 39 35 40 96 41 36 42 95 43 37 44 38 45 39 46
REMARK SMILES IDX 89 47 40 48 94 49 88 50 90 51 41 52 93 53 87 54 86 55 42 57
REMARK SMILES IDX 74 58 54 59 73 60 55 61 58 62 72 63 91 64 56 65 57 66 71 68
REMARK SMILES IDX 92 69 59 70 43 71 44 72 52 73 45 74 47 75 53 76 46 77 48 78
REMARK SMILES IDX 49 79 50 80 51 81 75 82 76 83 84 84 77 85 79 86 85 87 78 88
REMARK SMILES IDX 80 89 81 90 82 91 83 92 60 93 61 94 69 95 62 96 64 97 70 98
REMARK SMILES IDX 63 99 65 100 66 101 67 102 68 103
REMARK H PARENT 27 5 18 15 10 25 31 37 90 56 58 67
REMARK Flexibility Score: inf
ROOT
ATOM      1  C   UNL A   1      35.273  23.668  24.042  1.00  0.00     0.118 C 
ENDROOT
BRANCH   1   2
ATOM      2  N   UNL A   1      35.011  24.692  25.035  1.00  0.00    -0.352 N 
ATOM      3  C   UNL A   1      34.033  25.645  25.073  1.00  0.00     0.253 C 
ATOM      4  O   UNL A   1      34.049  26.456  26.001  1.00  0.00    -0.269 OA
ATOM      5  H   UNL A   1      35.632  24.700  25.800  1.00  0.00     0.163 HD
BRANCH   3   6
ATOM      6  C   UNL A   1      33.039  25.801  23.980  1.00  0.00     0.063 A 
ATOM      7  C   UNL A   1      31.652  25.546  24.020  1.00  0.00     0.054 A 
ATOM      8  C   UNL A   1      30.947  25.567  22.801  1.00  0.00     0.027 A 
ATOM      9  C   UNL A   1      31.558  25.957  21.606  1.00  0.00     0.002 A 
ATOM     10  C   UNL A   1      33.636  26.214  22.766  1.00  0.00     0.016 A 
ATOM     11  C   UNL A   1      32.898  26.309  21.591  1.00  0.00     0.001 A 
BRANCH   7  12
ATOM     12  N   UNL A   1      30.824  25.315  25.153  1.00  0.00    -0.321 N 
ATOM     13  C   UNL A   1      30.784  24.295  26.090  1.00  0.00     0.255 C 
ATOM     14  O   UNL A   1      29.845  24.209  26.876  1.00  0.00    -0.269 OA
ATOM     15  H   UNL A   1      30.148  26.015  25.301  1.00  0.00     0.170 HD
BRANCH  13  16
ATOM     16  C   UNL A   1      31.896  23.336  26.197  1.00  0.00     0.042 A 
ATOM     17  C   UNL A   1      32.778  21.235  25.456  1.00  0.00     0.041 A 
ATOM     18  C   UNL A   1      33.577  21.183  26.605  1.00  0.00     0.026 A 
ATOM     19  C   UNL A   1      32.028  22.371  25.207  1.00  0.00     0.040 A 
ATOM     20  C   UNL A   1      33.588  22.250  27.511  1.00  0.00     0.003 A 
ATOM     21  C   UNL A   1      32.729  23.329  27.318  1.00  0.00     0.014 A 
BRANCH  17  22
ATOM     22  N   UNL A   1      32.648  20.082  24.666  1.00  0.00    -0.326 N 
ATOM     23  O   UNL A   1      32.162  20.978  22.554  1.00  0.00    -0.274 OA
ATOM     24  C   UNL A   1      32.304  20.029  23.320  1.00  0.00     0.228 C 
ATOM     25  H   UNL A   1      32.819  19.221  25.111  1.00  0.00     0.169 HD
BRANCH  24  26
ATOM     26  C   UNL A   1      32.153  18.611  22.817  1.00  0.00     0.135 C 
BRANCH  26  27
ATOM     27  C   UNL A   1      32.849  17.571  23.666  1.00  0.00    -0.039 A 
ATOM     28  C   UNL A   1      34.152  17.115  23.403  1.00  0.00     0.004 A 
ATOM     29  C   UNL A   1      32.189  17.083  24.802  1.00  0.00     0.004 A 
ATOM     30  C   UNL A   1      34.778  16.206  24.253  1.00  0.00     0.000 A 
ATOM     31  C   UNL A   1      32.813  16.165  25.646  1.00  0.00     0.000 A 
ATOM     32  C   UNL A   1      34.109  15.732  25.376  1.00  0.00     0.000 A 
ENDBRANCH  26  27
ENDBRANCH  24  26
ENDBRANCH  17  22
ENDBRANCH  13  16
ENDBRANCH   7  12
ENDBRANCH   3   6
ENDBRANCH   1   2
BRANCH   1  33
ATOM     33  C   UNL A   1      36.612  22.982  24.221  1.00  0.00     0.042 C 
BRANCH  33  34
ATOM     34  C   UNL A   1      36.642  21.969  25.359  1.00  0.00     0.118 C 
BRANCH  34  35
ATOM     35  N   UNL A   1      37.772  21.043  25.336  1.00  0.00    -0.352 N 
ATOM     36  C   UNL A   1      39.030  21.122  25.891  1.00  0.00     0.251 C 
ATOM     37  H   UNL A   1      37.604  20.214  24.832  1.00  0.00     0.163 HD
ATOM     38  O   UNL A   1      39.827  20.198  25.752  1.00  0.00    -0.269 OA
BRANCH  36  39
ATOM     39  C   UNL A   1      39.448  22.350  26.594  1.00  0.00     0.039 A 
ATOM     40  C   UNL A   1      40.467  22.272  27.547  1.00  0.00     0.014 A 
ATOM     41  C   UNL A   1      38.909  23.584  26.246  1.00  0.00     0.014 A 
ATOM     42  C   UNL A   1      41.046  23.447  28.032  1.00  0.00     0.010 A 
ATOM     43  C   UNL A   1      39.580  24.740  26.613  1.00  0.00     0.010 A 
ATOM     44  C   UNL A   1      40.666  24.688  27.499  1.00  0.00    -0.014 A 
BRANCH  44  45
ATOM     45  C   UNL A   1      41.393  25.948  27.811  1.00  0.00     0.031 A 
ATOM     46  C   UNL A   1      40.700  27.034  28.594  1.00  0.00     0.074 A 
ATOM     47  C   UNL A   1      42.608  26.178  27.269  1.00  0.00     0.049 A 
ATOM     48  N   UNL A   1      41.066  28.273  28.790  1.00  0.00    -0.248 NA
ATOM     49  C   UNL A   1      39.392  26.697  29.185  1.00  0.00     0.031 C 
ATOM     50  C   UNL A   1      43.352  25.246  26.417  1.00  0.00     0.029 A 
ATOM     51  N   UNL A   1      43.420  27.284  27.328  1.00  0.00    -0.354 N 
ATOM     52  C   UNL A   1      40.011  28.876  29.465  1.00  0.00     0.074 A 
ATOM     53  C   UNL A   1      38.971  27.880  29.604  1.00  0.00     0.031 C 
ATOM     54  C   UNL A   1      44.515  25.810  26.052  1.00  0.00     0.029 A 
ATOM     55  C   UNL A   1      44.585  27.157  26.603  1.00  0.00     0.049 A 
ATOM     56  H   UNL A   1      43.192  28.092  27.842  1.00  0.00     0.167 HD
ATOM     57  C   UNL A   1      39.928  30.131  29.965  1.00  0.00     0.034 A 
ATOM     58  C   UNL A   1      45.589  28.031  26.399  1.00  0.00     0.034 A 
ATOM     59  C   UNL A   1      41.001  31.083  29.913  1.00  0.00     0.049 A 
ATOM     60  C   UNL A   1      45.506  29.394  27.034  1.00  0.00     0.074 A 
ATOM     61  C   UNL A   1      41.061  32.344  30.479  1.00  0.00     0.029 A 
ATOM     62  N   UNL A   1      42.213  30.870  29.275  1.00  0.00    -0.354 N 
ATOM     63  N   UNL A   1      44.557  29.897  27.786  1.00  0.00    -0.248 NA
ATOM     64  C   UNL A   1      46.644  30.299  26.819  1.00  0.00     0.031 C 
ATOM     65  C   UNL A   1      42.314  32.893  30.186  1.00  0.00     0.029 A 
ATOM     66  C   UNL A   1      43.033  31.972  29.440  1.00  0.00     0.049 A 
ATOM     67  H   UNL A   1      42.455  30.056  28.777  1.00  0.00     0.167 HD
ATOM     68  C   UNL A   1      44.995  31.161  28.159  1.00  0.00     0.074 A 
ATOM     69  C   UNL A   1      46.307  31.340  27.569  1.00  0.00     0.031 C 
ATOM     70  C   UNL A   1      44.363  32.099  28.904  1.00  0.00     0.034 A 
BRANCH  57  71
ATOM     71  C   UNL A   1      38.664  30.510  30.692  1.00  0.00     0.023 A 
ATOM     72  C   UNL A   1      38.528  30.175  32.055  1.00  0.00     0.012 A 
ATOM     73  C   UNL A   1      37.635  31.226  30.050  1.00  0.00     0.148 A 
ATOM     74  C   UNL A   1      37.372  30.508  32.758  1.00  0.00     0.002 A 
ATOM     75  C   UNL A   1      36.503  31.594  30.770  1.00  0.00     0.091 A 
ATOM     76  F   UNL A   1      37.772  31.518  28.748  1.00  0.00    -0.205 F 
ATOM     77  C   UNL A   1      36.366  31.225  32.118  1.00  0.00     0.022 A 
BRANCH  75  78
ATOM     78  S   UNL A   1      35.183  32.584  30.060  1.00  0.00     0.127 S 
ATOM     79  O   UNL A   1      34.687  31.702  29.004  1.00  0.00    -0.237 OA
ATOM     80  O   UNL A   1      34.274  32.746  31.195  1.00  0.00    -0.237 OA
ATOM     81  O   UNL A   1      35.808  33.817  29.604  1.00  0.00    -0.744 OA
ENDBRANCH  75  78
ENDBRANCH  57  71
BRANCH  58  82
ATOM     82  C   UNL A   1      46.800  27.621  25.630  1.00  0.00     0.023 A 
ATOM     83  C   UNL A   1      46.823  27.831  24.237  1.00  0.00     0.012 A 
ATOM     84  C   UNL A   1      47.925  27.049  26.255  1.00  0.00     0.148 A 
ATOM     85  C   UNL A   1      47.928  27.449  23.475  1.00  0.00     0.002 A 
ATOM     86  C   UNL A   1      49.043  26.717  25.497  1.00  0.00     0.091 A 
ATOM     87  F   UNL A   1      47.881  26.841  27.578  1.00  0.00    -0.205 F 
ATOM     88  C   UNL A   1      49.041  26.901  24.105  1.00  0.00     0.022 A 
BRANCH  86  89
ATOM     89  S   UNL A   1      50.565  26.124  26.249  1.00  0.00     0.127 S 
ATOM     90  O   UNL A   1      50.125  24.880  26.875  1.00  0.00    -0.237 OA
ATOM     91  O   UNL A   1      51.438  25.954  25.087  1.00  0.00    -0.237 OA
ATOM     92  O   UNL A   1      50.983  27.184  27.156  1.00  0.00    -0.744 OA
ENDBRANCH  86  89
ENDBRANCH  58  82
BRANCH  70  93
ATOM     93  C   UNL A   1      45.084  33.395  29.157  1.00  0.00     0.023 A 
ATOM     94  C   UNL A   1      45.959  33.499  30.255  1.00  0.00     0.012 A 
ATOM     95  C   UNL A   1      44.972  34.469  28.253  1.00  0.00     0.148 A 
ATOM     96  C   UNL A   1      46.699  34.661  30.462  1.00  0.00     0.002 A 
ATOM     97  C   UNL A   1      45.744  35.609  28.441  1.00  0.00     0.091 A 
ATOM     98  F   UNL A   1      44.118  34.354  27.224  1.00  0.00    -0.205 F 
ATOM     99  C   UNL A   1      46.602  35.710  29.549  1.00  0.00     0.022 A 
BRANCH  97 100
ATOM    100  S   UNL A   1      45.756  36.969  27.268  1.00  0.00     0.127 S 
ATOM    101  O   UNL A   1      46.573  37.959  27.968  1.00  0.00    -0.237 OA
ATOM    102  O   UNL A   1      46.396  36.366  26.099  1.00  0.00    -0.237 OA
ATOM    103  O   UNL A   1      44.361  37.340  27.070  1.00  0.00    -0.744 OA
ENDBRANCH  97 100
ENDBRANCH  70  93
ENDBRANCH  44  45
ENDBRANCH  36  39
ENDBRANCH  34  35
ENDBRANCH  33  34
ENDBRANCH   1  33
TORSDOF 18
ENDMDL
MODEL 3
REMARK VINA RESULT:     -13.3      5.013     10.742
REMARK SMILES O=C(Cc1ccccc1)Nc1cccc(C(=O)Nc2ccccc2C(=O)NCCCNC(=O)c2ccc(-c3c4nc(c(-c5cccc(S(=O)(=O)[O-])c5F)c5ccc([nH]5)c(-c5cccc(S(=O)(=O)[O-])c5F)c5nc(c(-c6cccc(S(=O)(=O)[O-])c6F)c6ccc3[nH]6)C=C5)C=C4)cc2)c1
REMARK SMILES IDX 28 1 27 2 25 3 26 4 24 6 19 7 20 8 21 9 23 10 22 11 18 12
REMARK SMILES IDX 16 13 17 14 15 16 11 17 12 18 97 19 13 20 14 21 10 22 1 23
REMARK SMILES IDX 2 24 3 26 4 27 5 28 9 29 6 30 8 31 7 32 29 33 30 34 31 35
REMARK SMILES IDX 32 36 33 38 34 39 35 40 96 41 36 42 95 43 37 44 38 45 39 46
REMARK SMILES IDX 89 47 40 48 94 49 88 50 90 51 41 52 93 53 87 54 86 55 42 57
REMARK SMILES IDX 74 58 54 59 73 60 55 61 58 62 72 63 91 64 56 65 57 66 71 68
REMARK SMILES IDX 92 69 59 70 43 71 44 72 52 73 45 74 47 75 53 76 46 77 48 78
REMARK SMILES IDX 49 79 50 80 51 81 75 82 76 83 84 84 77 85 79 86 85 87 78 88
REMARK SMILES IDX 80 89 81 90 82 91 83 92 60 93 61 94 69 95 62 96 64 97 70 98
REMARK SMILES IDX 63 99 65 100 66 101 67 102 68 103
REMARK H PARENT 27 5 18 15 10 25 31 37 90 56 58 67
REMARK Flexibility Score: inf
ROOT
ATOM      1  C   UNL A   1      32.001  28.926  27.392  1.00  0.00     0.118 C 
ENDROOT
BRANCH   1   2
ATOM      2  N   UNL A   1      32.976  28.390  26.461  1.00  0.00    -0.352 N 
ATOM      3  C   UNL A   1      32.788  27.646  25.331  1.00  0.00     0.253 C 
ATOM      4  O   UNL A   1      33.786  27.247  24.727  1.00  0.00    -0.269 OA
ATOM      5  H   UNL A   1      33.915  28.593  26.677  1.00  0.00     0.163 HD
BRANCH   3   6
ATOM      6  C   UNL A   1      31.439  27.214  24.883  1.00  0.00     0.063 A 
ATOM      7  C   UNL A   1      30.687  26.105  25.328  1.00  0.00     0.054 A 
ATOM      8  C   UNL A   1      29.523  25.774  24.609  1.00  0.00     0.027 A 
ATOM      9  C   UNL A   1      29.043  26.583  23.574  1.00  0.00     0.002 A 
ATOM     10  C   UNL A   1      30.928  28.032  23.849  1.00  0.00     0.016 A 
ATOM     11  C   UNL A   1      29.730  27.730  23.211  1.00  0.00     0.001 A 
BRANCH   7  12
ATOM     12  N   UNL A   1      30.911  25.278  26.463  1.00  0.00    -0.321 N 
ATOM     13  C   UNL A   1      31.605  24.091  26.633  1.00  0.00     0.255 C 
ATOM     14  O   UNL A   1      31.498  23.451  27.675  1.00  0.00    -0.269 OA
ATOM     15  H   UNL A   1      30.491  25.613  27.288  1.00  0.00     0.170 HD
BRANCH  13  16
ATOM     16  C   UNL A   1      32.530  23.611  25.592  1.00  0.00     0.042 A 
ATOM     17  C   UNL A   1      33.133  21.779  24.171  1.00  0.00     0.041 A 
ATOM     18  C   UNL A   1      34.416  22.323  24.040  1.00  0.00     0.026 A 
ATOM     19  C   UNL A   1      32.164  22.491  24.856  1.00  0.00     0.040 A 
ATOM     20  C   UNL A   1      34.728  23.556  24.626  1.00  0.00     0.003 A 
ATOM     21  C   UNL A   1      33.785  24.199  25.425  1.00  0.00     0.014 A 
BRANCH  17  22
ATOM     22  N   UNL A   1      32.904  20.466  23.731  1.00  0.00    -0.326 N 
ATOM     23  O   UNL A   1      31.849  20.811  21.665  1.00  0.00    -0.274 OA
ATOM     24  C   UNL A   1      32.246  20.080  22.568  1.00  0.00     0.228 C 
ATOM     25  H   UNL A   1      33.244  19.743  24.305  1.00  0.00     0.169 HD
BRANCH  24  26
ATOM     26  C   UNL A   1      32.087  18.580  22.464  1.00  0.00     0.135 C 
BRANCH  26  27
ATOM     27  C   UNL A   1      32.797  17.800  23.549  1.00  0.00    -0.039 A 
ATOM     28  C   UNL A   1      32.255  17.605  24.830  1.00  0.00     0.004 A 
ATOM     29  C   UNL A   1      34.023  17.194  23.244  1.00  0.00     0.004 A 
ATOM     30  C   UNL A   1      32.915  16.822  25.775  1.00  0.00     0.000 A 
ATOM     31  C   UNL A   1      34.687  16.419  24.194  1.00  0.00     0.000 A 
ATOM     32  C   UNL A   1      34.131  16.228  25.456  1.00  0.00     0.000 A 
ENDBRANCH  26  27
ENDBRANCH  24  26
ENDBRANCH  17  22
ENDBRANCH  13  16
ENDBRANCH   7  12
ENDBRANCH   3   6
ENDBRANCH   1   2
BRANCH   1  33
ATOM     33  C   UNL A   1      31.455  30.278  26.981  1.00  0.00     0.042 C 
BRANCH  33  34
ATOM     34  C   UNL A   1      32.519  31.255  26.495  1.00  0.00     0.118 C 
BRANCH  34  35
ATOM     35  N   UNL A   1      32.579  32.520  27.224  1.00  0.00    -0.352 N 
ATOM     36  C   UNL A   1      33.586  33.102  27.962  1.00  0.00     0.251 C 
ATOM     37  H   UNL A   1      31.752  33.052  27.181  1.00  0.00     0.163 HD
ATOM     38  O   UNL A   1      33.416  34.200  28.484  1.00  0.00    -0.269 OA
BRANCH  36  39
ATOM     39  C   UNL A   1      34.849  32.373  28.188  1.00  0.00     0.039 A 
ATOM     40  C   UNL A   1      36.048  33.089  28.227  1.00  0.00     0.014 A 
ATOM     41  C   UNL A   1      34.841  31.008  28.457  1.00  0.00     0.014 A 
ATOM     42  C   UNL A   1      37.209  32.463  28.687  1.00  0.00     0.010 A 
ATOM     43  C   UNL A   1      35.953  30.432  29.052  1.00  0.00     0.010 A 
ATOM     44  C   UNL A   1      37.148  31.154  29.189  1.00  0.00    -0.014 A 
BRANCH  44  45
ATOM     45  C   UNL A   1      38.292  30.513  29.891  1.00  0.00     0.031 A 
ATOM     46  C   UNL A   1      38.699  31.007  31.256  1.00  0.00     0.074 A 
ATOM     47  C   UNL A   1      39.052  29.600  29.249  1.00  0.00     0.049 A 
ATOM     48  N   UNL A   1      39.778  30.740  31.943  1.00  0.00    -0.248 NA
ATOM     49  C   UNL A   1      37.801  31.977  31.908  1.00  0.00     0.031 C 
ATOM     50  C   UNL A   1      38.821  29.101  27.890  1.00  0.00     0.029 A 
ATOM     51  N   UNL A   1      40.196  28.952  29.643  1.00  0.00    -0.354 N 
ATOM     52  C   UNL A   1      39.720  31.553  33.069  1.00  0.00     0.074 A 
ATOM     53  C   UNL A   1      38.523  32.356  32.951  1.00  0.00     0.031 C 
ATOM     54  C   UNL A   1      39.777  28.213  27.575  1.00  0.00     0.029 A 
ATOM     55  C   UNL A   1      40.716  28.109  28.686  1.00  0.00     0.049 A 
ATOM     56  H   UNL A   1      40.607  29.076  30.530  1.00  0.00     0.167 HD
ATOM     57  C   UNL A   1      40.560  31.598  34.130  1.00  0.00     0.034 A 
ATOM     58  C   UNL A   1      41.826  27.347  28.698  1.00  0.00     0.034 A 
ATOM     59  C   UNL A   1      41.690  30.727  34.290  1.00  0.00     0.049 A 
ATOM     60  C   UNL A   1      42.700  27.357  29.924  1.00  0.00     0.074 A 
ATOM     61  C   UNL A   1      42.545  30.617  35.372  1.00  0.00     0.029 A 
ATOM     62  N   UNL A   1      42.110  29.801  33.349  1.00  0.00    -0.354 N 
ATOM     63  N   UNL A   1      42.551  28.033  31.037  1.00  0.00    -0.248 NA
ATOM     64  C   UNL A   1      43.879  26.479  29.909  1.00  0.00     0.031 C 
ATOM     65  C   UNL A   1      43.481  29.618  35.086  1.00  0.00     0.029 A 
ATOM     66  C   UNL A   1      43.207  29.106  33.827  1.00  0.00     0.049 A 
ATOM     67  H   UNL A   1      41.691  29.657  32.470  1.00  0.00     0.167 HD
ATOM     68  C   UNL A   1      43.594  27.639  31.866  1.00  0.00     0.074 A 
ATOM     69  C   UNL A   1      44.357  26.648  31.135  1.00  0.00     0.031 C 
ATOM     70  C   UNL A   1      43.907  28.073  33.111  1.00  0.00     0.034 A 
BRANCH  57  71
ATOM     71  C   UNL A   1      40.230  32.560  35.240  1.00  0.00     0.023 A 
ATOM     72  C   UNL A   1      40.846  33.829  35.256  1.00  0.00     0.012 A 
ATOM     73  C   UNL A   1      39.291  32.235  36.238  1.00  0.00     0.148 A 
ATOM     74  C   UNL A   1      40.566  34.744  36.269  1.00  0.00     0.002 A 
ATOM     75  C   UNL A   1      38.983  33.171  37.220  1.00  0.00     0.091 A 
ATOM     76  F   UNL A   1      38.730  31.017  36.220  1.00  0.00    -0.205 F 
ATOM     77  C   UNL A   1      39.628  34.419  37.244  1.00  0.00     0.022 A 
BRANCH  75  78
ATOM     78  S   UNL A   1      37.734  32.879  38.478  1.00  0.00     0.127 S 
ATOM     79  O   UNL A   1      37.860  34.081  39.303  1.00  0.00    -0.237 OA
ATOM     80  O   UNL A   1      36.506  32.812  37.684  1.00  0.00    -0.237 OA
ATOM     81  O   UNL A   1      38.103  31.631  39.129  1.00  0.00    -0.744 OA
ENDBRANCH  75  78
ENDBRANCH  57  71
BRANCH  58  82
ATOM     82  C   UNL A   1      42.133  26.445  27.550  1.00  0.00     0.023 A 
ATOM     83  C   UNL A   1      42.820  26.971  26.438  1.00  0.00     0.012 A 
ATOM     84  C   UNL A   1      41.775  25.083  27.553  1.00  0.00     0.148 A 
ATOM     85  C   UNL A   1      43.116  26.167  25.336  1.00  0.00     0.002 A 
ATOM     86  C   UNL A   1      42.117  24.276  26.472  1.00  0.00     0.091 A 
ATOM     87  F   UNL A   1      41.108  24.602  28.610  1.00  0.00    -0.205 F 
ATOM     88  C   UNL A   1      42.772  24.819  25.356  1.00  0.00     0.022 A 
BRANCH  86  89
ATOM     89  S   UNL A   1      41.824  22.502  26.475  1.00  0.00     0.127 S 
ATOM     90  O   UNL A   1      42.391  22.107  27.761  1.00  0.00    -0.237 OA
ATOM     91  O   UNL A   1      40.364  22.429  26.398  1.00  0.00    -0.237 OA
ATOM     92  O   UNL A   1      42.508  21.997  25.292  1.00  0.00    -0.744 OA
ENDBRANCH  86  89
ENDBRANCH  58  82
BRANCH  70  93
ATOM     93  C   UNL A   1      45.106  27.462  33.783  1.00  0.00     0.023 A 
ATOM     94  C   UNL A   1      46.362  28.087  33.665  1.00  0.00     0.012 A 
ATOM     95  C   UNL A   1      44.968  26.330  34.610  1.00  0.00     0.148 A 
ATOM     96  C   UNL A   1      47.469  27.585  34.345  1.00  0.00     0.002 A 
ATOM     97  C   UNL A   1      46.066  25.859  35.319  1.00  0.00     0.091 A 
ATOM     98  F   UNL A   1      43.765  25.740  34.692  1.00  0.00    -0.205 F 
ATOM     99  C   UNL A   1      47.319  26.480  35.181  1.00  0.00     0.022 A 
BRANCH  97 100
ATOM    100  S   UNL A   1      45.947  24.502  36.490  1.00  0.00     0.127 S 
ATOM    101  O   UNL A   1      47.349  24.299  36.853  1.00  0.00    -0.237 OA
ATOM    102  O   UNL A   1      45.120  25.078  37.550  1.00  0.00    -0.237 OA
ATOM    103  O   UNL A   1      45.324  23.402  35.766  1.00  0.00    -0.744 OA
ENDBRANCH  97 100
ENDBRANCH  70  93
ENDBRANCH  44  45
ENDBRANCH  36  39
ENDBRANCH  34  35
ENDBRANCH  33  34
ENDBRANCH   1  33
TORSDOF 18
ENDMDL
