MODEL 1
REMARK VINA RESULT:     -10.8      0.000      0.000
REMARK SMILES CC(C)(Br)[C@H](Br)C(=O)NCCCNC(=O)c1ccc(-c2c3nc(c(-c4cccc(S(=O)(=O)[O-])c4F)c4ccc([nH]4)c(-c4cccc(S(=O)(=O)[O-])c4F)c4nc(c(-c5cccc(S(=O)(=O)[O-])c5F)c5ccc2[nH]5)C=C4)C=C3)cc1
REMARK SMILES IDX 12 1 11 2 10 3 9 4 7 5 8 6 5 8 6 9 2 10 1 11 3 12 4 13 13 14
REMARK SMILES IDX 14 15 15 17 16 18 17 19 78 20 18 21 77 22 19 23 20 24 21 25
REMARK SMILES IDX 71 26 22 27 76 28 70 29 72 30 23 31 75 32 69 33 68 34 24 36
REMARK SMILES IDX 56 37 36 38 55 39 37 40 40 41 54 42 73 43 38 44 39 45 53 47
REMARK SMILES IDX 74 48 41 49 25 50 26 51 34 52 27 53 29 54 35 55 28 56 30 57
REMARK SMILES IDX 31 58 32 59 33 60 57 61 58 62 66 63 59 64 61 65 67 66 60 67
REMARK SMILES IDX 62 68 63 69 64 70 65 71 42 72 43 73 51 74 44 75 46 76 52 77
REMARK SMILES IDX 45 78 47 79 48 80 49 81 50 82
REMARK H PARENT 9 7 13 16 72 35 40 46
REMARK Flexibility Score: inf
ROOT
ATOM      1  C   UNL A   1      32.886  32.312  27.353  1.00  0.00     0.118 C 
ENDROOT
BRANCH   1   2
ATOM      2  C   UNL A   1      31.726  31.547  26.732  1.00  0.00     0.042 C 
BRANCH   2   3
ATOM      3  C   UNL A   1      32.135  30.270  26.013  1.00  0.00     0.117 C 
BRANCH   3   4
ATOM      4  N   UNL A   1      31.433  30.073  24.757  1.00  0.00    -0.355 N 
ATOM      5  C   UNL A   1      31.222  28.978  23.987  1.00  0.00     0.235 C 
ATOM      6  O   UNL A   1      30.544  29.164  22.966  1.00  0.00    -0.274 OA
ATOM      7  H   UNL A   1      31.031  30.896  24.395  1.00  0.00     0.163 HD
BRANCH   5   8
ATOM      8  C   UNL A   1      31.671  27.560  24.321  1.00  0.00     0.162 C 
ATOM      9  Br  UNL A   1      30.156  26.339  24.354  1.00  0.00    -0.077 Br
BRANCH   8  10
ATOM     10  C   UNL A   1      32.960  27.034  23.662  1.00  0.00     0.042 C 
ATOM     11  C   UNL A   1      33.711  26.070  24.598  1.00  0.00     0.025 C 
ATOM     12  C   UNL A   1      33.904  28.191  23.292  1.00  0.00     0.025 C 
ATOM     13  Br  UNL A   1      32.672  26.029  21.989  1.00  0.00    -0.084 Br
ENDBRANCH   8  10
ENDBRANCH   5   8
ENDBRANCH   3   4
ENDBRANCH   2   3
ENDBRANCH   1   2
BRANCH   1  14
ATOM     14  N   UNL A   1      32.570  33.713  27.622  1.00  0.00    -0.352 N 
ATOM     15  C   UNL A   1      33.079  34.578  28.561  1.00  0.00     0.251 C 
ATOM     16  H   UNL A   1      31.881  34.099  27.034  1.00  0.00     0.163 HD
ATOM     17  O   UNL A   1      32.547  35.673  28.729  1.00  0.00    -0.269 OA
BRANCH  15  18
ATOM     18  C   UNL A   1      34.243  34.187  29.384  1.00  0.00     0.039 A 
ATOM     19  C   UNL A   1      34.041  33.433  30.544  1.00  0.00     0.014 A 
ATOM     20  C   UNL A   1      35.535  34.558  29.010  1.00  0.00     0.014 A 
ATOM     21  C   UNL A   1      35.141  32.969  31.271  1.00  0.00     0.010 A 
ATOM     22  C   UNL A   1      36.627  34.014  29.674  1.00  0.00     0.010 A 
ATOM     23  C   UNL A   1      36.445  33.212  30.811  1.00  0.00    -0.014 A 
BRANCH  23  24
ATOM     24  C   UNL A   1      37.645  32.641  31.477  1.00  0.00     0.031 A 
ATOM     25  C   UNL A   1      38.385  31.501  30.830  1.00  0.00     0.074 A 
ATOM     26  C   UNL A   1      37.978  33.044  32.720  1.00  0.00     0.049 A 
ATOM     27  N   UNL A   1      39.328  30.741  31.324  1.00  0.00    -0.248 NA
ATOM     28  C   UNL A   1      37.981  31.139  29.460  1.00  0.00     0.031 C 
ATOM     29  C   UNL A   1      37.292  34.086  33.488  1.00  0.00     0.029 A 
ATOM     30  N   UNL A   1      38.954  32.594  33.576  1.00  0.00    -0.354 N 
ATOM     31  C   UNL A   1      39.584  29.778  30.355  1.00  0.00     0.074 A 
ATOM     32  C   UNL A   1      38.680  30.033  29.254  1.00  0.00     0.031 C 
ATOM     33  C   UNL A   1      37.863  34.193  34.698  1.00  0.00     0.029 A 
ATOM     34  C   UNL A   1      38.931  33.204  34.810  1.00  0.00     0.049 A 
ATOM     35  H   UNL A   1      39.608  31.901  33.330  1.00  0.00     0.167 HD
ATOM     36  C   UNL A   1      40.506  28.787  30.367  1.00  0.00     0.034 A 
ATOM     37  C   UNL A   1      39.674  32.981  35.912  1.00  0.00     0.034 A 
ATOM     38  C   UNL A   1      41.453  28.587  31.428  1.00  0.00     0.049 A 
ATOM     39  C   UNL A   1      40.744  31.925  35.870  1.00  0.00     0.074 A 
ATOM     40  C   UNL A   1      42.495  27.678  31.492  1.00  0.00     0.029 A 
ATOM     41  N   UNL A   1      41.483  29.315  32.608  1.00  0.00    -0.354 N 
ATOM     42  N   UNL A   1      41.067  31.118  34.888  1.00  0.00    -0.248 NA
ATOM     43  C   UNL A   1      41.576  31.768  37.072  1.00  0.00     0.031 C 
ATOM     44  C   UNL A   1      43.152  27.855  32.714  1.00  0.00     0.029 A 
ATOM     45  C   UNL A   1      42.528  28.881  33.404  1.00  0.00     0.049 A 
ATOM     46  H   UNL A   1      40.854  30.034  32.843  1.00  0.00     0.167 HD
ATOM     47  C   UNL A   1      42.163  30.390  35.336  1.00  0.00     0.074 A 
ATOM     48  C   UNL A   1      42.457  30.859  36.675  1.00  0.00     0.031 C 
ATOM     49  C   UNL A   1      42.853  29.412  34.703  1.00  0.00     0.034 A 
BRANCH  36  50
ATOM     50  C   UNL A   1      40.582  27.886  29.163  1.00  0.00     0.023 A 
ATOM     51  C   UNL A   1      39.717  26.776  29.074  1.00  0.00     0.012 A 
ATOM     52  C   UNL A   1      41.462  28.164  28.099  1.00  0.00     0.148 A 
ATOM     53  C   UNL A   1      39.751  25.936  27.962  1.00  0.00     0.002 A 
ATOM     54  C   UNL A   1      41.460  27.346  26.975  1.00  0.00     0.091 A 
ATOM     55  F   UNL A   1      42.293  29.209  28.211  1.00  0.00    -0.205 F 
ATOM     56  C   UNL A   1      40.615  26.227  26.910  1.00  0.00     0.022 A 
BRANCH  54  57
ATOM     57  S   UNL A   1      42.479  27.683  25.534  1.00  0.00     0.127 S 
ATOM     58  O   UNL A   1      41.912  28.945  25.060  1.00  0.00    -0.237 OA
ATOM     59  O   UNL A   1      43.816  27.797  26.118  1.00  0.00    -0.237 OA
ATOM     60  O   UNL A   1      42.303  26.543  24.646  1.00  0.00    -0.744 OA
ENDBRANCH  54  57
ENDBRANCH  36  50
BRANCH  37  61
ATOM     61  C   UNL A   1      39.485  33.833  37.121  1.00  0.00     0.023 A 
ATOM     62  C   UNL A   1      39.915  35.173  37.088  1.00  0.00     0.012 A 
ATOM     63  C   UNL A   1      38.851  33.344  38.280  1.00  0.00     0.148 A 
ATOM     64  C   UNL A   1      39.746  36.004  38.195  1.00  0.00     0.002 A 
ATOM     65  C   UNL A   1      38.639  34.193  39.362  1.00  0.00     0.091 A 
ATOM     66  F   UNL A   1      38.460  32.063  38.300  1.00  0.00    -0.205 F 
ATOM     67  C   UNL A   1      39.099  35.518  39.328  1.00  0.00     0.022 A 
BRANCH  65  68
ATOM     68  S   UNL A   1      37.700  33.687  40.810  1.00  0.00     0.127 S 
ATOM     69  O   UNL A   1      38.609  32.731  41.436  1.00  0.00    -0.237 OA
ATOM     70  O   UNL A   1      37.545  34.952  41.530  1.00  0.00    -0.237 OA
ATOM     71  O   UNL A   1      36.455  33.138  40.292  1.00  0.00    -0.744 OA
ENDBRANCH  65  68
ENDBRANCH  37  61
BRANCH  49  72
ATOM     72  C   UNL A   1      44.032  28.806  35.414  1.00  0.00     0.023 A 
ATOM     73  C   UNL A   1      45.311  29.372  35.253  1.00  0.00     0.012 A 
ATOM     74  C   UNL A   1      43.849  27.748  36.327  1.00  0.00     0.148 A 
ATOM     75  C   UNL A   1      46.396  28.881  35.978  1.00  0.00     0.002 A 
ATOM     76  C   UNL A   1      44.926  27.294  37.079  1.00  0.00     0.091 A 
ATOM     77  F   UNL A   1      42.625  27.213  36.449  1.00  0.00    -0.205 F 
ATOM     78  C   UNL A   1      46.202  27.855  36.900  1.00  0.00     0.022 A 
BRANCH  76  79
ATOM     79  S   UNL A   1      44.750  26.043  38.355  1.00  0.00     0.127 S 
ATOM     80  O   UNL A   1      46.122  25.917  38.841  1.00  0.00    -0.237 OA
ATOM     81  O   UNL A   1      43.825  26.682  39.292  1.00  0.00    -0.237 OA
ATOM     82  O   UNL A   1      44.212  24.864  37.688  1.00  0.00    -0.744 OA
ENDBRANCH  76  79
ENDBRANCH  49  72
ENDBRANCH  23  24
ENDBRANCH  15  18
ENDBRANCH   1  14
TORSDOF 14
ENDMDL
MODEL 2
REMARK VINA RESULT:     -10.7      4.248     10.064
REMARK SMILES CC(C)(Br)[C@H](Br)C(=O)NCCCNC(=O)c1ccc(-c2c3nc(c(-c4cccc(S(=O)(=O)[O-])c4F)c4ccc([nH]4)c(-c4cccc(S(=O)(=O)[O-])c4F)c4nc(c(-c5cccc(S(=O)(=O)[O-])c5F)c5ccc2[nH]5)C=C4)C=C3)cc1
REMARK SMILES IDX 12 1 11 2 10 3 9 4 7 5 8 6 5 8 6 9 2 10 1 11 3 12 4 13 13 14
REMARK SMILES IDX 14 15 15 17 16 18 17 19 78 20 18 21 77 22 19 23 20 24 21 25
REMARK SMILES IDX 71 26 22 27 76 28 70 29 72 30 23 31 75 32 69 33 68 34 24 36
REMARK SMILES IDX 56 37 36 38 55 39 37 40 40 41 54 42 73 43 38 44 39 45 53 47
REMARK SMILES IDX 74 48 41 49 25 50 26 51 34 52 27 53 29 54 35 55 28 56 30 57
REMARK SMILES IDX 31 58 32 59 33 60 57 61 58 62 66 63 59 64 61 65 67 66 60 67
REMARK SMILES IDX 62 68 63 69 64 70 65 71 42 72 43 73 51 74 44 75 46 76 52 77
REMARK SMILES IDX 45 78 47 79 48 80 49 81 50 82
REMARK H PARENT 9 7 13 16 72 35 40 46
REMARK Flexibility Score: inf
ROOT
ATOM      1  C   UNL A   1      34.368  32.780  28.520  1.00  0.00     0.118 C 
ENDROOT
BRANCH   1   2
ATOM      2  C   UNL A   1      33.694  34.079  28.100  1.00  0.00     0.042 C 
BRANCH   2   3
ATOM      3  C   UNL A   1      33.810  35.200  29.122  1.00  0.00     0.117 C 
BRANCH   3   4
ATOM      4  N   UNL A   1      32.874  35.066  30.224  1.00  0.00    -0.355 N 
ATOM      5  C   UNL A   1      33.006  35.222  31.564  1.00  0.00     0.235 C 
ATOM      6  O   UNL A   1      31.973  35.049  32.228  1.00  0.00    -0.274 OA
ATOM      7  H   UNL A   1      31.964  34.813  29.943  1.00  0.00     0.163 HD
BRANCH   5   8
ATOM      8  C   UNL A   1      34.275  35.666  32.283  1.00  0.00     0.162 C 
ATOM      9  Br  UNL A   1      33.928  37.207  33.420  1.00  0.00    -0.077 Br
BRANCH   8  10
ATOM     10  C   UNL A   1      35.196  34.579  32.866  1.00  0.00     0.042 C 
ATOM     11  C   UNL A   1      35.094  34.527  34.401  1.00  0.00     0.025 C 
ATOM     12  C   UNL A   1      36.664  34.833  32.482  1.00  0.00     0.025 C 
ATOM     13  Br  UNL A   1      34.795  32.749  32.247  1.00  0.00    -0.084 Br
ENDBRANCH   8  10
ENDBRANCH   5   8
ENDBRANCH   3   4
ENDBRANCH   2   3
ENDBRANCH   1   2
BRANCH   1  14
ATOM     14  N   UNL A   1      33.886  31.618  27.778  1.00  0.00    -0.352 N 
ATOM     15  C   UNL A   1      34.508  30.428  27.482  1.00  0.00     0.251 C 
ATOM     16  H   UNL A   1      32.968  31.701  27.434  1.00  0.00     0.163 HD
ATOM     17  O   UNL A   1      33.981  29.648  26.692  1.00  0.00    -0.269 OA
BRANCH  15  18
ATOM     18  C   UNL A   1      35.814  30.096  28.088  1.00  0.00     0.039 A 
ATOM     19  C   UNL A   1      35.859  29.611  29.399  1.00  0.00     0.014 A 
ATOM     20  C   UNL A   1      36.995  30.255  27.363  1.00  0.00     0.014 A 
ATOM     21  C   UNL A   1      37.077  29.194  29.944  1.00  0.00     0.010 A 
ATOM     22  C   UNL A   1      38.186  29.749  27.868  1.00  0.00     0.010 A 
ATOM     23  C   UNL A   1      38.243  29.211  29.162  1.00  0.00    -0.014 A 
BRANCH  23  24
ATOM     24  C   UNL A   1      39.538  28.668  29.650  1.00  0.00     0.031 A 
ATOM     25  C   UNL A   1      40.281  29.383  30.747  1.00  0.00     0.074 A 
ATOM     26  C   UNL A   1      40.113  27.629  29.011  1.00  0.00     0.049 A 
ATOM     27  N   UNL A   1      41.499  29.190  31.183  1.00  0.00    -0.248 NA
ATOM     28  C   UNL A   1      39.574  30.490  31.415  1.00  0.00     0.031 C 
ATOM     29  C   UNL A   1      39.532  26.899  27.881  1.00  0.00     0.029 A 
ATOM     30  N   UNL A   1      41.336  27.031  29.193  1.00  0.00    -0.354 N 
ATOM     31  C   UNL A   1      41.725  30.185  32.125  1.00  0.00     0.074 A 
ATOM     32  C   UNL A   1      40.528  30.996  32.182  1.00  0.00     0.031 C 
ATOM     33  C   UNL A   1      40.396  25.958  27.470  1.00  0.00     0.029 A 
ATOM     34  C   UNL A   1      41.608  26.039  28.279  1.00  0.00     0.049 A 
ATOM     35  H   UNL A   1      41.959  27.288  29.910  1.00  0.00     0.167 HD
ATOM     36  C   UNL A   1      42.819  30.391  32.896  1.00  0.00     0.034 A 
ATOM     37  C   UNL A   1      42.714  25.289  28.101  1.00  0.00     0.034 A 
ATOM     38  C   UNL A   1      43.974  29.536  32.892  1.00  0.00     0.049 A 
ATOM     39  C   UNL A   1      43.886  25.488  29.023  1.00  0.00     0.074 A 
ATOM     40  C   UNL A   1      45.091  29.596  33.706  1.00  0.00     0.029 A 
ATOM     41  N   UNL A   1      44.155  28.457  32.041  1.00  0.00    -0.354 N 
ATOM     42  N   UNL A   1      44.025  26.343  30.006  1.00  0.00    -0.248 NA
ATOM     43  C   UNL A   1      45.042  24.598  28.835  1.00  0.00     0.031 C 
ATOM     44  C   UNL A   1      45.950  28.554  33.342  1.00  0.00     0.029 A 
ATOM     45  C   UNL A   1      45.362  27.839  32.312  1.00  0.00     0.049 A 
ATOM     46  H   UNL A   1      43.518  28.173  31.346  1.00  0.00     0.167 HD
ATOM     47  C   UNL A   1      45.260  26.068  30.581  1.00  0.00     0.074 A 
ATOM     48  C   UNL A   1      45.827  24.958  29.843  1.00  0.00     0.031 C 
ATOM     49  C   UNL A   1      45.876  26.688  31.617  1.00  0.00     0.034 A 
BRANCH  36  50
ATOM     50  C   UNL A   1      42.791  31.547  33.859  1.00  0.00     0.023 A 
ATOM     51  C   UNL A   1      43.265  32.808  33.442  1.00  0.00     0.012 A 
ATOM     52  C   UNL A   1      42.246  31.407  35.151  1.00  0.00     0.148 A 
ATOM     53  C   UNL A   1      43.233  33.901  34.306  1.00  0.00     0.002 A 
ATOM     54  C   UNL A   1      42.178  32.512  35.992  1.00  0.00     0.091 A 
ATOM     55  F   UNL A   1      41.821  30.197  35.539  1.00  0.00    -0.205 F 
ATOM     56  C   UNL A   1      42.680  33.756  35.575  1.00  0.00     0.022 A 
BRANCH  54  57
ATOM     57  S   UNL A   1      41.412  32.444  37.615  1.00  0.00     0.127 S 
ATOM     58  O   UNL A   1      41.475  33.845  38.030  1.00  0.00    -0.237 OA
ATOM     59  O   UNL A   1      40.066  31.961  37.305  1.00  0.00    -0.237 OA
ATOM     60  O   UNL A   1      42.220  31.520  38.398  1.00  0.00    -0.744 OA
ENDBRANCH  54  57
ENDBRANCH  36  50
BRANCH  37  61
ATOM     61  C   UNL A   1      42.732  24.226  27.056  1.00  0.00     0.023 A 
ATOM     62  C   UNL A   1      43.410  24.468  25.846  1.00  0.00     0.012 A 
ATOM     63  C   UNL A   1      42.125  22.973  27.264  1.00  0.00     0.148 A 
ATOM     64  C   UNL A   1      43.459  23.494  24.848  1.00  0.00     0.002 A 
ATOM     65  C   UNL A   1      42.220  21.987  26.286  1.00  0.00     0.091 A 
ATOM     66  F   UNL A   1      41.472  22.764  28.416  1.00  0.00    -0.205 F 
ATOM     67  C   UNL A   1      42.873  22.251  25.072  1.00  0.00     0.022 A 
BRANCH  65  68
ATOM     68  S   UNL A   1      41.608  20.316  26.543  1.00  0.00     0.127 S 
ATOM     69  O   UNL A   1      40.163  20.522  26.530  1.00  0.00    -0.237 OA
ATOM     70  O   UNL A   1      42.141  19.613  25.374  1.00  0.00    -0.237 OA
ATOM     71  O   UNL A   1      42.179  19.884  27.811  1.00  0.00    -0.744 OA
ENDBRANCH  65  68
ENDBRANCH  37  61
BRANCH  49  72
ATOM     72  C   UNL A   1      47.212  26.160  32.061  1.00  0.00     0.023 A 
ATOM     73  C   UNL A   1      48.392  26.685  31.502  1.00  0.00     0.012 A 
ATOM     74  C   UNL A   1      47.297  25.224  33.112  1.00  0.00     0.148 A 
ATOM     75  C   UNL A   1      49.639  26.275  31.970  1.00  0.00     0.002 A 
ATOM     76  C   UNL A   1      48.543  24.853  33.604  1.00  0.00     0.091 A 
ATOM     77  F   UNL A   1      46.160  24.724  33.617  1.00  0.00    -0.205 F 
ATOM     78  C   UNL A   1      49.715  25.372  33.029  1.00  0.00     0.022 A 
BRANCH  76  79
ATOM     79  S   UNL A   1      48.733  23.771  35.024  1.00  0.00     0.127 S 
ATOM     80  O   UNL A   1      50.187  23.658  35.121  1.00  0.00    -0.237 OA
ATOM     81  O   UNL A   1      48.108  24.549  36.095  1.00  0.00    -0.237 OA
ATOM     82  O   UNL A   1      48.031  22.539  34.687  1.00  0.00    -0.744 OA
ENDBRANCH  76  79
ENDBRANCH  49  72
ENDBRANCH  23  24
ENDBRANCH  15  18
ENDBRANCH   1  14
TORSDOF 14
ENDMDL
MODEL 3
REMARK VINA RESULT:     -10.6      6.530     11.566
REMARK SMILES CC(C)(Br)[C@H](Br)C(=O)NCCCNC(=O)c1ccc(-c2c3nc(c(-c4cccc(S(=O)(=O)[O-])c4F)c4ccc([nH]4)c(-c4cccc(S(=O)(=O)[O-])c4F)c4nc(c(-c5cccc(S(=O)(=O)[O-])c5F)c5ccc2[nH]5)C=C4)C=C3)cc1
REMARK SMILES IDX 12 1 11 2 10 3 9 4 7 5 8 6 5 8 6 9 2 10 1 11 3 12 4 13 13 14
REMARK SMILES IDX 14 15 15 17 16 18 17 19 78 20 18 21 77 22 19 23 20 24 21 25
REMARK SMILES IDX 71 26 22 27 76 28 70 29 72 30 23 31 75 32 69 33 68 34 24 36
REMARK SMILES IDX 56 37 36 38 55 39 37 40 40 41 54 42 73 43 38 44 39 45 53 47
REMARK SMILES IDX 74 48 41 49 25 50 26 51 34 52 27 53 29 54 35 55 28 56 30 57
REMARK SMILES IDX 31 58 32 59 33 60 57 61 58 62 66 63 59 64 61 65 67 66 60 67
REMARK SMILES IDX 62 68 63 69 64 70 65 71 42 72 43 73 51 74 44 75 46 76 52 77
REMARK SMILES IDX 45 78 47 79 48 80 49 81 50 82
REMARK H PARENT 9 7 13 16 72 35 40 46
REMARK Flexibility Score: inf
ROOT
ATOM      1  C   UNL A   1      37.257  21.751  24.967  1.00  0.00     0.118 C 
ENDROOT
BRANCH   1   2
ATOM      2  C   UNL A   1      35.785  21.369  25.033  1.00  0.00     0.042 C 
BRANCH   2   3
ATOM      3  C   UNL A   1      35.101  21.747  26.339  1.00  0.00     0.117 C 
BRANCH   3   4
ATOM      4  N   UNL A   1      34.714  23.145  26.396  1.00  0.00    -0.355 N 
ATOM      5  C   UNL A   1      33.587  23.800  26.023  1.00  0.00     0.235 C 
ATOM      6  O   UNL A   1      33.581  25.021  26.239  1.00  0.00    -0.274 OA
ATOM      7  H   UNL A   1      35.405  23.733  26.780  1.00  0.00     0.163 HD
BRANCH   5   8
ATOM      8  C   UNL A   1      32.330  23.149  25.456  1.00  0.00     0.162 C 
ATOM      9  Br  UNL A   1      30.734  23.834  26.333  1.00  0.00    -0.077 Br
BRANCH   8  10
ATOM     10  C   UNL A   1      32.242  22.952  23.931  1.00  0.00     0.042 C 
ATOM     11  C   UNL A   1      30.936  23.541  23.368  1.00  0.00     0.025 C 
ATOM     12  C   UNL A   1      32.305  21.460  23.562  1.00  0.00     0.025 C 
ATOM     13  Br  UNL A   1      33.694  23.813  22.910  1.00  0.00    -0.084 Br
ENDBRANCH   8  10
ENDBRANCH   5   8
ENDBRANCH   3   4
ENDBRANCH   2   3
ENDBRANCH   1   2
BRANCH   1  14
ATOM     14  N   UNL A   1      38.149  20.667  25.367  1.00  0.00    -0.352 N 
ATOM     15  C   UNL A   1      39.363  20.703  26.012  1.00  0.00     0.251 C 
ATOM     16  H   UNL A   1      37.830  19.765  25.138  1.00  0.00     0.163 HD
ATOM     17  O   UNL A   1      40.034  19.677  26.100  1.00  0.00    -0.269 OA
BRANCH  15  18
ATOM     18  C   UNL A   1      39.874  21.971  26.575  1.00  0.00     0.039 A 
ATOM     19  C   UNL A   1      40.850  21.933  27.575  1.00  0.00     0.014 A 
ATOM     20  C   UNL A   1      39.396  23.197  26.113  1.00  0.00     0.014 A 
ATOM     21  C   UNL A   1      41.416  23.125  28.038  1.00  0.00     0.010 A 
ATOM     22  C   UNL A   1      40.027  24.372  26.500  1.00  0.00     0.010 A 
ATOM     23  C   UNL A   1      41.045  24.352  27.465  1.00  0.00    -0.014 A 
BRANCH  23  24
ATOM     24  C   UNL A   1      41.700  25.634  27.834  1.00  0.00     0.031 A 
ATOM     25  C   UNL A   1      40.916  26.688  28.570  1.00  0.00     0.074 A 
ATOM     26  C   UNL A   1      42.941  25.909  27.381  1.00  0.00     0.049 A 
ATOM     27  N   UNL A   1      41.232  27.933  28.815  1.00  0.00    -0.248 NA
ATOM     28  C   UNL A   1      39.580  26.302  29.057  1.00  0.00     0.031 C 
ATOM     29  C   UNL A   1      43.776  25.002  26.590  1.00  0.00     0.029 A 
ATOM     30  N   UNL A   1      43.701  27.048  27.486  1.00  0.00    -0.354 N 
ATOM     31  C   UNL A   1      40.116  28.492  29.426  1.00  0.00     0.074 A 
ATOM     32  C   UNL A   1      39.105  27.460  29.491  1.00  0.00     0.031 C 
ATOM     33  C   UNL A   1      44.927  25.619  26.278  1.00  0.00     0.029 A 
ATOM     34  C   UNL A   1      44.899  26.977  26.813  1.00  0.00     0.049 A 
ATOM     35  H   UNL A   1      43.415  27.841  27.994  1.00  0.00     0.167 HD
ATOM     36  C   UNL A   1      39.955  29.745  29.913  1.00  0.00     0.034 A 
ATOM     37  C   UNL A   1      45.860  27.904  26.633  1.00  0.00     0.034 A 
ATOM     38  C   UNL A   1      40.988  30.743  29.917  1.00  0.00     0.049 A 
ATOM     39  C   UNL A   1      45.688  29.264  27.253  1.00  0.00     0.074 A 
ATOM     40  C   UNL A   1      40.962  32.008  30.478  1.00  0.00     0.029 A 
ATOM     41  N   UNL A   1      42.240  30.586  29.342  1.00  0.00    -0.354 N 
ATOM     42  N   UNL A   1      44.681  29.729  27.953  1.00  0.00    -0.248 NA
ATOM     43  C   UNL A   1      46.795  30.219  27.090  1.00  0.00     0.031 C 
ATOM     44  C   UNL A   1      42.198  32.616  30.238  1.00  0.00     0.029 A 
ATOM     45  C   UNL A   1      42.997  31.726  29.539  1.00  0.00     0.049 A 
ATOM     46  H   UNL A   1      42.544  29.780  28.864  1.00  0.00     0.167 HD
ATOM     47  C   UNL A   1      45.049  31.009  28.349  1.00  0.00     0.074 A 
ATOM     48  C   UNL A   1      46.378  31.244  27.820  1.00  0.00     0.031 C 
ATOM     49  C   UNL A   1      44.346  31.914  29.071  1.00  0.00     0.034 A 
BRANCH  36  50
ATOM     50  C   UNL A   1      38.633  30.086  30.549  1.00  0.00     0.023 A 
ATOM     51  C   UNL A   1      38.372  29.666  31.869  1.00  0.00     0.012 A 
ATOM     52  C   UNL A   1      37.676  30.864  29.869  1.00  0.00     0.148 A 
ATOM     53  C   UNL A   1      37.165  29.984  32.491  1.00  0.00     0.002 A 
ATOM     54  C   UNL A   1      36.493  31.214  30.511  1.00  0.00     0.091 A 
ATOM     55  F   UNL A   1      37.931  31.235  28.607  1.00  0.00    -0.205 F 
ATOM     56  C   UNL A   1      36.232  30.765  31.816  1.00  0.00     0.022 A 
BRANCH  54  57
ATOM     57  S   UNL A   1      35.264  32.282  29.755  1.00  0.00     0.127 S 
ATOM     58  O   UNL A   1      34.743  31.427  28.690  1.00  0.00    -0.237 OA
ATOM     59  O   UNL A   1      34.332  32.516  30.860  1.00  0.00    -0.237 OA
ATOM     60  O   UNL A   1      35.984  33.468  29.313  1.00  0.00    -0.744 OA
ENDBRANCH  54  57
ENDBRANCH  36  50
BRANCH  37  61
ATOM     61  C   UNL A   1      47.109  27.549  25.899  1.00  0.00     0.023 A 
ATOM     62  C   UNL A   1      48.159  26.925  26.599  1.00  0.00     0.012 A 
ATOM     63  C   UNL A   1      47.249  27.785  24.518  1.00  0.00     0.148 A 
ATOM     64  C   UNL A   1      49.338  26.567  25.946  1.00  0.00     0.002 A 
ATOM     65  C   UNL A   1      48.407  27.380  23.861  1.00  0.00     0.091 A 
ATOM     66  F   UNL A   1      46.245  28.392  23.870  1.00  0.00    -0.205 F 
ATOM     67  C   UNL A   1      49.459  26.785  24.576  1.00  0.00     0.022 A 
BRANCH  65  68
ATOM     68  S   UNL A   1      48.593  27.503  22.078  1.00  0.00     0.127 S 
ATOM     69  O   UNL A   1      49.816  28.291  21.958  1.00  0.00    -0.237 OA
ATOM     70  O   UNL A   1      48.725  26.098  21.687  1.00  0.00    -0.237 OA
ATOM     71  O   UNL A   1      47.374  28.143  21.603  1.00  0.00    -0.744 OA
ENDBRANCH  65  68
ENDBRANCH  37  61
BRANCH  49  72
ATOM     72  C   UNL A   1      45.003  33.229  29.388  1.00  0.00     0.023 A 
ATOM     73  C   UNL A   1      45.791  33.354  30.548  1.00  0.00     0.012 A 
ATOM     74  C   UNL A   1      44.930  34.302  28.477  1.00  0.00     0.148 A 
ATOM     75  C   UNL A   1      46.484  34.536  30.806  1.00  0.00     0.002 A 
ATOM     76  C   UNL A   1      45.658  35.461  28.719  1.00  0.00     0.091 A 
ATOM     77  F   UNL A   1      44.158  34.166  27.389  1.00  0.00    -0.205 F 
ATOM     78  C   UNL A   1      46.429  35.582  29.887  1.00  0.00     0.022 A 
BRANCH  76  79
ATOM     79  S   UNL A   1      45.723  36.819  27.546  1.00  0.00     0.127 S 
ATOM     80  O   UNL A   1      46.610  37.760  28.228  1.00  0.00    -0.237 OA
ATOM     81  O   UNL A   1      46.302  36.181  26.363  1.00  0.00    -0.237 OA
ATOM     82  O   UNL A   1      44.347  37.268  27.376  1.00  0.00    -0.744 OA
ENDBRANCH  76  79
ENDBRANCH  49  72
ENDBRANCH  23  24
ENDBRANCH  15  18
ENDBRANCH   1  14
TORSDOF 14
ENDMDL
