MODEL 1
REMARK VINA RESULT:     -12.4      0.000      0.000
REMARK SMILES CC(C)=CC(=O)N1[C@H](C(=O)NCCCNC(=O)c2ccc(-c3c4nc(c(-c5cccc(S(=O)(=O)[O-])c5F)c5ccc([nH]5)c(-c5cccc(S(=O)(=O)[O-])c5F)c5nc(c(-c6cccc(S(=O)(=O)[O-])c6F)c6ccc3[nH]6)C=C5)C=C4)cc2)COC12CCCCC2
REMARK SMILES IDX 13 1 12 2 11 3 9 4 10 5 8 7 7 8 83 9 81 10 82 11 84 12 88 13
REMARK SMILES IDX 85 14 87 15 86 16 5 17 6 18 4 19 1 20 2 21 3 22 14 23 15 24
REMARK SMILES IDX 16 25 17 27 18 28 19 29 80 30 20 31 79 32 21 33 22 34 23 35
REMARK SMILES IDX 73 36 24 37 78 38 72 39 74 40 25 41 77 42 71 43 70 44 26 46
REMARK SMILES IDX 58 47 38 48 57 49 39 50 42 51 56 52 75 53 40 54 41 55 55 57
REMARK SMILES IDX 76 58 43 59 27 60 28 61 36 62 29 63 31 64 37 65 30 66 32 67
REMARK SMILES IDX 33 68 34 69 35 70 59 71 60 72 68 73 61 74 63 75 69 76 62 77
REMARK SMILES IDX 64 78 65 79 66 80 67 81 44 82 45 83 53 84 46 85 48 86 54 87
REMARK SMILES IDX 47 88 49 89 50 90 51 91 52 92
REMARK H PARENT 11 6 15 26 74 45 42 56
REMARK Flexibility Score: inf
ROOT
ATOM      1  C   UNL A   1      35.790  22.300  24.136  1.00  0.00     0.042 C 
ENDROOT
BRANCH   1   2
ATOM      2  C   UNL A   1      34.369  22.851  24.111  1.00  0.00     0.117 C 
BRANCH   2   3
ATOM      3  N   UNL A   1      33.433  21.991  24.809  1.00  0.00    -0.354 N 
ATOM      4  C   UNL A   1      32.092  22.005  25.014  1.00  0.00     0.245 C 
ATOM      5  O   UNL A   1      31.662  20.915  25.418  1.00  0.00    -0.273 OA
ATOM      6  H   UNL A   1      33.873  21.218  25.231  1.00  0.00     0.163 HD
BRANCH   4   7
ATOM      7  C   UNL A   1      31.117  23.187  24.712  1.00  0.00     0.203 C 
ATOM      8  N   UNL A   1      31.447  24.588  25.031  1.00  0.00    -0.296 N 
ATOM      9  C   UNL A   1      30.916  25.487  23.989  1.00  0.00     0.144 C 
ATOM     10  C   UNL A   1      30.656  23.307  23.279  1.00  0.00     0.198 C 
ATOM     11  O   UNL A   1      30.122  24.621  23.147  1.00  0.00    -0.353 OA
ATOM     12  C   UNL A   1      29.924  26.590  24.406  1.00  0.00     0.059 C 
ATOM     13  C   UNL A   1      32.070  26.086  23.159  1.00  0.00     0.059 C 
ATOM     14  C   UNL A   1      29.430  27.424  23.222  1.00  0.00     0.005 C 
ATOM     15  C   UNL A   1      31.582  26.970  22.008  1.00  0.00     0.005 C 
ATOM     16  C   UNL A   1      30.612  28.044  22.486  1.00  0.00     0.000 C 
BRANCH   8  17
ATOM     17  C   UNL A   1      32.033  24.928  26.231  1.00  0.00     0.249 C 
ATOM     18  O   UNL A   1      31.690  24.516  27.333  1.00  0.00    -0.270 OA
BRANCH  17  19
ATOM     19  C   UNL A   1      33.130  25.913  26.208  1.00  0.00     0.070 C 
ATOM     20  C   UNL A   1      31.602  27.728  27.084  1.00  0.00     0.039 C 
ATOM     21  C   UNL A   1      32.926  27.185  26.609  1.00  0.00    -0.071 C 
ATOM     22  C   UNL A   1      34.030  28.201  26.531  1.00  0.00     0.039 C 
ENDBRANCH  17  19
ENDBRANCH   8  17
ENDBRANCH   4   7
ENDBRANCH   2   3
ENDBRANCH   1   2
BRANCH   1  23
ATOM     23  C   UNL A   1      36.341  22.138  25.551  1.00  0.00     0.118 C 
BRANCH  23  24
ATOM     24  N   UNL A   1      37.349  21.084  25.625  1.00  0.00    -0.352 N 
ATOM     25  C   UNL A   1      38.694  21.162  25.892  1.00  0.00     0.251 C 
ATOM     26  H   UNL A   1      37.011  20.174  25.459  1.00  0.00     0.163 HD
ATOM     27  O   UNL A   1      39.417  20.202  25.642  1.00  0.00    -0.269 OA
BRANCH  25  28
ATOM     28  C   UNL A   1      39.269  22.392  26.473  1.00  0.00     0.039 A 
ATOM     29  C   UNL A   1      40.314  22.286  27.395  1.00  0.00     0.014 A 
ATOM     30  C   UNL A   1      38.762  23.647  26.127  1.00  0.00     0.014 A 
ATOM     31  C   UNL A   1      40.905  23.444  27.906  1.00  0.00     0.010 A 
ATOM     32  C   UNL A   1      39.396  24.799  26.582  1.00  0.00     0.010 A 
ATOM     33  C   UNL A   1      40.479  24.709  27.468  1.00  0.00    -0.014 A 
BRANCH  33  34
ATOM     34  C   UNL A   1      41.194  25.947  27.863  1.00  0.00     0.031 A 
ATOM     35  C   UNL A   1      40.475  27.043  28.600  1.00  0.00     0.074 A 
ATOM     36  C   UNL A   1      42.462  26.130  27.443  1.00  0.00     0.049 A 
ATOM     37  N   UNL A   1      40.909  28.231  28.935  1.00  0.00    -0.248 NA
ATOM     38  C   UNL A   1      39.080  26.782  28.989  1.00  0.00     0.031 C 
ATOM     39  C   UNL A   1      43.234  25.169  26.653  1.00  0.00     0.029 A 
ATOM     40  N   UNL A   1      43.309  27.200  27.585  1.00  0.00    -0.354 N 
ATOM     41  C   UNL A   1      39.836  28.870  29.541  1.00  0.00     0.074 A 
ATOM     42  C   UNL A   1      38.721  27.948  29.508  1.00  0.00     0.031 C 
ATOM     43  C   UNL A   1      44.437  25.695  26.373  1.00  0.00     0.029 A 
ATOM     44  C   UNL A   1      44.508  27.041  26.929  1.00  0.00     0.049 A 
ATOM     45  H   UNL A   1      43.082  28.003  28.107  1.00  0.00     0.167 HD
ATOM     46  C   UNL A   1      39.790  30.105  30.096  1.00  0.00     0.034 A 
ATOM     47  C   UNL A   1      45.540  27.893  26.770  1.00  0.00     0.034 A 
ATOM     48  C   UNL A   1      40.912  31.003  30.153  1.00  0.00     0.049 A 
ATOM     49  C   UNL A   1      45.467  29.253  27.407  1.00  0.00     0.074 A 
ATOM     50  C   UNL A   1      40.998  32.233  30.782  1.00  0.00     0.029 A 
ATOM     51  N   UNL A   1      42.137  30.781  29.542  1.00  0.00    -0.354 N 
ATOM     52  N   UNL A   1      44.506  29.773  28.132  1.00  0.00    -0.248 NA
ATOM     53  C   UNL A   1      46.631  30.133  27.231  1.00  0.00     0.031 C 
ATOM     54  C   UNL A   1      42.264  32.769  30.524  1.00  0.00     0.029 A 
ATOM     55  C   UNL A   1      42.977  31.861  29.756  1.00  0.00     0.049 A 
ATOM     56  H   UNL A   1      42.374  29.975  29.031  1.00  0.00     0.167 HD
ATOM     57  C   UNL A   1      44.956  31.031  28.515  1.00  0.00     0.074 A 
ATOM     58  C   UNL A   1      46.289  31.181  27.969  1.00  0.00     0.031 C 
ATOM     59  C   UNL A   1      44.316  31.982  29.239  1.00  0.00     0.034 A 
BRANCH  46  60
ATOM     60  C   UNL A   1      38.497  30.543  30.732  1.00  0.00     0.023 A 
ATOM     61  C   UNL A   1      38.278  30.298  32.104  1.00  0.00     0.012 A 
ATOM     62  C   UNL A   1      37.530  31.255  29.995  1.00  0.00     0.148 A 
ATOM     63  C   UNL A   1      37.105  30.725  32.724  1.00  0.00     0.002 A 
ATOM     64  C   UNL A   1      36.382  31.715  30.631  1.00  0.00     0.091 A 
ATOM     65  F   UNL A   1      37.745  31.461  28.688  1.00  0.00    -0.205 F 
ATOM     66  C   UNL A   1      36.163  31.441  31.991  1.00  0.00     0.022 A 
BRANCH  64  67
ATOM     67  S   UNL A   1      35.144  32.715  29.797  1.00  0.00     0.127 S 
ATOM     68  O   UNL A   1      34.227  33.025  30.894  1.00  0.00    -0.237 OA
ATOM     69  O   UNL A   1      35.934  33.851  29.324  1.00  0.00    -0.237 OA
ATOM     70  O   UNL A   1      34.594  31.875  28.743  1.00  0.00    -0.744 OA
ENDBRANCH  64  67
ENDBRANCH  46  60
BRANCH  47  71
ATOM     71  C   UNL A   1      46.746  27.463  26.008  1.00  0.00     0.023 A 
ATOM     72  C   UNL A   1      46.843  27.770  24.637  1.00  0.00     0.012 A 
ATOM     73  C   UNL A   1      47.811  26.790  26.637  1.00  0.00     0.148 A 
ATOM     74  C   UNL A   1      47.964  27.390  23.900  1.00  0.00     0.002 A 
ATOM     75  C   UNL A   1      48.951  26.465  25.911  1.00  0.00     0.091 A 
ATOM     76  F   UNL A   1      47.696  26.496  27.940  1.00  0.00    -0.205 F 
ATOM     77  C   UNL A   1      49.022  26.748  24.539  1.00  0.00     0.022 A 
BRANCH  75  78
ATOM     78  S   UNL A   1      50.416  25.765  26.681  1.00  0.00     0.127 S 
ATOM     79  O   UNL A   1      49.904  24.504  27.209  1.00  0.00    -0.237 OA
ATOM     80  O   UNL A   1      51.324  25.633  25.541  1.00  0.00    -0.237 OA
ATOM     81  O   UNL A   1      50.844  26.742  27.674  1.00  0.00    -0.744 OA
ENDBRANCH  75  78
ENDBRANCH  47  71
BRANCH  59  82
ATOM     82  C   UNL A   1      45.049  33.274  29.492  1.00  0.00     0.023 A 
ATOM     83  C   UNL A   1      45.889  33.388  30.618  1.00  0.00     0.012 A 
ATOM     84  C   UNL A   1      44.966  34.343  28.578  1.00  0.00     0.148 A 
ATOM     85  C   UNL A   1      46.614  34.557  30.845  1.00  0.00     0.002 A 
ATOM     86  C   UNL A   1      45.728  35.486  28.787  1.00  0.00     0.091 A 
ATOM     87  F   UNL A   1      44.148  34.219  27.523  1.00  0.00    -0.205 F 
ATOM     88  C   UNL A   1      46.542  35.600  29.924  1.00  0.00     0.022 A 
BRANCH  86  89
ATOM     89  S   UNL A   1      45.774  36.844  27.611  1.00  0.00     0.127 S 
ATOM     90  O   UNL A   1      46.672  37.786  28.279  1.00  0.00    -0.237 OA
ATOM     91  O   UNL A   1      46.337  36.203  26.422  1.00  0.00    -0.237 OA
ATOM     92  O   UNL A   1      44.398  37.297  27.462  1.00  0.00    -0.744 OA
ENDBRANCH  86  89
ENDBRANCH  59  82
ENDBRANCH  33  34
ENDBRANCH  25  28
ENDBRANCH  23  24
ENDBRANCH   1  23
TORSDOF 15
ENDMDL
MODEL 2
REMARK VINA RESULT:     -12.4      4.693      9.768
REMARK SMILES CC(C)=CC(=O)N1[C@H](C(=O)NCCCNC(=O)c2ccc(-c3c4nc(c(-c5cccc(S(=O)(=O)[O-])c5F)c5ccc([nH]5)c(-c5cccc(S(=O)(=O)[O-])c5F)c5nc(c(-c6cccc(S(=O)(=O)[O-])c6F)c6ccc3[nH]6)C=C5)C=C4)cc2)COC12CCCCC2
REMARK SMILES IDX 13 1 12 2 11 3 9 4 10 5 8 7 7 8 83 9 81 10 82 11 84 12 88 13
REMARK SMILES IDX 85 14 87 15 86 16 5 17 6 18 4 19 1 20 2 21 3 22 14 23 15 24
REMARK SMILES IDX 16 25 17 27 18 28 19 29 80 30 20 31 79 32 21 33 22 34 23 35
REMARK SMILES IDX 73 36 24 37 78 38 72 39 74 40 25 41 77 42 71 43 70 44 26 46
REMARK SMILES IDX 58 47 38 48 57 49 39 50 42 51 56 52 75 53 40 54 41 55 55 57
REMARK SMILES IDX 76 58 43 59 27 60 28 61 36 62 29 63 31 64 37 65 30 66 32 67
REMARK SMILES IDX 33 68 34 69 35 70 59 71 60 72 68 73 61 74 63 75 69 76 62 77
REMARK SMILES IDX 64 78 65 79 66 80 67 81 44 82 45 83 53 84 46 85 48 86 54 87
REMARK SMILES IDX 47 88 49 89 50 90 51 91 52 92
REMARK H PARENT 11 6 15 26 74 45 42 56
REMARK Flexibility Score: inf
ROOT
ATOM      1  C   UNL A   1      32.071  28.985  24.280  1.00  0.00     0.042 C 
ENDROOT
BRANCH   1   2
ATOM      2  C   UNL A   1      31.898  27.473  24.191  1.00  0.00     0.117 C 
BRANCH   2   3
ATOM      3  N   UNL A   1      31.695  26.865  25.492  1.00  0.00    -0.354 N 
ATOM      4  C   UNL A   1      31.658  25.590  25.957  1.00  0.00     0.245 C 
ATOM      5  O   UNL A   1      31.753  25.533  27.191  1.00  0.00    -0.273 OA
ATOM      6  H   UNL A   1      31.550  27.531  26.202  1.00  0.00     0.163 HD
BRANCH   4   7
ATOM      7  C   UNL A   1      31.601  24.288  25.097  1.00  0.00     0.203 C 
ATOM      8  N   UNL A   1      32.815  23.592  24.631  1.00  0.00    -0.296 N 
ATOM      9  C   UNL A   1      32.606  22.132  24.652  1.00  0.00     0.144 C 
ATOM     10  C   UNL A   1      30.810  23.146  25.689  1.00  0.00     0.198 C 
ATOM     11  O   UNL A   1      31.203  21.981  24.969  1.00  0.00    -0.353 OA
ATOM     12  C   UNL A   1      32.764  21.347  23.336  1.00  0.00     0.059 C 
ATOM     13  C   UNL A   1      33.451  21.486  25.770  1.00  0.00     0.059 C 
ATOM     14  C   UNL A   1      32.485  19.851  23.498  1.00  0.00     0.005 C 
ATOM     15  C   UNL A   1      33.221  19.977  25.897  1.00  0.00     0.005 C 
ATOM     16  C   UNL A   1      33.399  19.259  24.564  1.00  0.00     0.000 C 
BRANCH   8  17
ATOM     17  C   UNL A   1      33.887  24.290  24.120  1.00  0.00     0.249 C 
ATOM     18  O   UNL A   1      33.949  24.776  22.996  1.00  0.00    -0.270 OA
BRANCH  17  19
ATOM     19  C   UNL A   1      35.089  24.425  24.963  1.00  0.00     0.070 C 
ATOM     20  C   UNL A   1      36.291  22.633  23.643  1.00  0.00     0.039 C 
ATOM     21  C   UNL A   1      36.184  23.671  24.731  1.00  0.00    -0.071 C 
ATOM     22  C   UNL A   1      37.386  23.769  25.627  1.00  0.00     0.039 C 
ENDBRANCH  17  19
ENDBRANCH   8  17
ENDBRANCH   4   7
ENDBRANCH   2   3
ENDBRANCH   1   2
BRANCH   1  23
ATOM     23  C   UNL A   1      32.985  29.413  25.426  1.00  0.00     0.118 C 
BRANCH  23  24
ATOM     24  N   UNL A   1      32.590  30.704  25.984  1.00  0.00    -0.352 N 
ATOM     25  C   UNL A   1      33.121  31.415  27.031  1.00  0.00     0.251 C 
ATOM     26  H   UNL A   1      31.822  31.131  25.539  1.00  0.00     0.163 HD
ATOM     27  O   UNL A   1      32.483  32.345  27.517  1.00  0.00    -0.269 OA
BRANCH  25  28
ATOM     28  C   UNL A   1      34.451  31.066  27.571  1.00  0.00     0.039 A 
ATOM     29  C   UNL A   1      35.417  32.068  27.705  1.00  0.00     0.014 A 
ATOM     30  C   UNL A   1      34.752  29.749  27.924  1.00  0.00     0.014 A 
ATOM     31  C   UNL A   1      36.656  31.761  28.271  1.00  0.00     0.010 A 
ATOM     32  C   UNL A   1      35.960  29.458  28.550  1.00  0.00     0.010 A 
ATOM     33  C   UNL A   1      36.919  30.463  28.739  1.00  0.00    -0.014 A 
BRANCH  33  34
ATOM     34  C   UNL A   1      38.158  30.146  29.492  1.00  0.00     0.031 A 
ATOM     35  C   UNL A   1      39.154  29.162  28.946  1.00  0.00     0.074 A 
ATOM     36  C   UNL A   1      38.318  30.658  30.729  1.00  0.00     0.049 A 
ATOM     37  N   UNL A   1      40.236  28.689  29.509  1.00  0.00    -0.248 NA
ATOM     38  C   UNL A   1      38.888  28.618  27.604  1.00  0.00     0.031 C 
ATOM     39  C   UNL A   1      37.377  31.562  31.394  1.00  0.00     0.029 A 
ATOM     40  N   UNL A   1      39.304  30.461  31.661  1.00  0.00    -0.354 N 
ATOM     41  C   UNL A   1      40.762  27.770  28.610  1.00  0.00     0.074 A 
ATOM     42  C   UNL A   1      39.867  27.732  27.473  1.00  0.00     0.031 C 
ATOM     43  C   UNL A   1      37.826  31.834  32.630  1.00  0.00     0.029 A 
ATOM     44  C   UNL A   1      39.063  31.097  32.858  1.00  0.00     0.049 A 
ATOM     45  H   UNL A   1      40.107  29.918  31.492  1.00  0.00     0.167 HD
ATOM     46  C   UNL A   1      41.898  27.041  28.712  1.00  0.00     0.034 A 
ATOM     47  C   UNL A   1      39.747  31.070  34.018  1.00  0.00     0.034 A 
ATOM     48  C   UNL A   1      42.798  27.107  29.832  1.00  0.00     0.049 A 
ATOM     49  C   UNL A   1      41.013  30.261  34.100  1.00  0.00     0.074 A 
ATOM     50  C   UNL A   1      44.026  26.486  29.987  1.00  0.00     0.029 A 
ATOM     51  N   UNL A   1      42.561  27.819  30.998  1.00  0.00    -0.354 N 
ATOM     52  N   UNL A   1      41.588  29.536  33.171  1.00  0.00    -0.248 NA
ATOM     53  C   UNL A   1      41.739  30.291  35.377  1.00  0.00     0.031 C 
ATOM     54  C   UNL A   1      44.515  26.797  31.260  1.00  0.00     0.029 A 
ATOM     55  C   UNL A   1      43.606  27.634  31.888  1.00  0.00     0.049 A 
ATOM     56  H   UNL A   1      41.767  28.374  31.169  1.00  0.00     0.167 HD
ATOM     57  C   UNL A   1      42.752  29.039  33.744  1.00  0.00     0.074 A 
ATOM     58  C   UNL A   1      42.817  29.572  35.090  1.00  0.00     0.031 C 
ATOM     59  C   UNL A   1      43.676  28.201  33.210  1.00  0.00     0.034 A 
BRANCH  46  60
ATOM     60  C   UNL A   1      42.262  26.139  27.561  1.00  0.00     0.023 A 
ATOM     61  C   UNL A   1      43.067  26.638  26.516  1.00  0.00     0.012 A 
ATOM     62  C   UNL A   1      41.870  24.786  27.545  1.00  0.00     0.148 A 
ATOM     63  C   UNL A   1      43.447  25.815  25.457  1.00  0.00     0.002 A 
ATOM     64  C   UNL A   1      42.289  23.960  26.509  1.00  0.00     0.091 A 
ATOM     65  F   UNL A   1      41.089  24.335  28.537  1.00  0.00    -0.205 F 
ATOM     66  C   UNL A   1      43.067  24.475  25.459  1.00  0.00     0.022 A 
BRANCH  64  67
ATOM     67  S   UNL A   1      41.921  22.203  26.457  1.00  0.00     0.127 S 
ATOM     68  O   UNL A   1      42.649  21.784  25.259  1.00  0.00    -0.237 OA
ATOM     69  O   UNL A   1      42.497  21.731  27.716  1.00  0.00    -0.237 OA
ATOM     70  O   UNL A   1      40.472  22.099  26.375  1.00  0.00    -0.744 OA
ENDBRANCH  64  67
ENDBRANCH  46  60
BRANCH  47  71
ATOM     71  C   UNL A   1      39.268  31.870  35.180  1.00  0.00     0.023 A 
ATOM     72  C   UNL A   1      38.407  31.273  36.121  1.00  0.00     0.012 A 
ATOM     73  C   UNL A   1      39.690  33.199  35.382  1.00  0.00     0.148 A 
ATOM     74  C   UNL A   1      37.950  31.994  37.225  1.00  0.00     0.002 A 
ATOM     75  C   UNL A   1      39.278  33.892  36.514  1.00  0.00     0.091 A 
ATOM     76  F   UNL A   1      40.501  33.754  34.470  1.00  0.00    -0.205 F 
ATOM     77  C   UNL A   1      38.394  33.298  37.427  1.00  0.00     0.022 A 
BRANCH  75  78
ATOM     78  S   UNL A   1      39.910  35.523  36.926  1.00  0.00     0.127 S 
ATOM     79  O   UNL A   1      39.222  35.803  38.183  1.00  0.00    -0.237 OA
ATOM     80  O   UNL A   1      41.346  35.269  37.052  1.00  0.00    -0.237 OA
ATOM     81  O   UNL A   1      39.552  36.381  35.803  1.00  0.00    -0.744 OA
ENDBRANCH  75  78
ENDBRANCH  47  71
BRANCH  59  82
ATOM     82  C   UNL A   1      44.845  27.811  34.078  1.00  0.00     0.023 A 
ATOM     83  C   UNL A   1      46.000  28.619  34.093  1.00  0.00     0.012 A 
ATOM     84  C   UNL A   1      44.770  26.692  34.930  1.00  0.00     0.148 A 
ATOM     85  C   UNL A   1      47.074  28.303  34.924  1.00  0.00     0.002 A 
ATOM     86  C   UNL A   1      45.825  26.411  35.790  1.00  0.00     0.091 A 
ATOM     87  F   UNL A   1      43.669  25.929  34.887  1.00  0.00    -0.205 F 
ATOM     88  C   UNL A   1      46.981  27.208  35.780  1.00  0.00     0.022 A 
BRANCH  86  89
ATOM     89  S   UNL A   1      45.763  25.079  36.993  1.00  0.00     0.127 S 
ATOM     90  O   UNL A   1      44.525  25.382  37.710  1.00  0.00    -0.237 OA
ATOM     91  O   UNL A   1      45.699  23.893  36.138  1.00  0.00    -0.237 OA
ATOM     92  O   UNL A   1      46.982  25.191  37.783  1.00  0.00    -0.744 OA
ENDBRANCH  86  89
ENDBRANCH  59  82
ENDBRANCH  33  34
ENDBRANCH  25  28
ENDBRANCH  23  24
ENDBRANCH   1  23
TORSDOF 15
ENDMDL
MODEL 3
REMARK VINA RESULT:     -12.4      4.703      7.658
REMARK SMILES CC(C)=CC(=O)N1[C@H](C(=O)NCCCNC(=O)c2ccc(-c3c4nc(c(-c5cccc(S(=O)(=O)[O-])c5F)c5ccc([nH]5)c(-c5cccc(S(=O)(=O)[O-])c5F)c5nc(c(-c6cccc(S(=O)(=O)[O-])c6F)c6ccc3[nH]6)C=C5)C=C4)cc2)COC12CCCCC2
REMARK SMILES IDX 13 1 12 2 11 3 9 4 10 5 8 7 7 8 83 9 81 10 82 11 84 12 88 13
REMARK SMILES IDX 85 14 87 15 86 16 5 17 6 18 4 19 1 20 2 21 3 22 14 23 15 24
REMARK SMILES IDX 16 25 17 27 18 28 19 29 80 30 20 31 79 32 21 33 22 34 23 35
REMARK SMILES IDX 73 36 24 37 78 38 72 39 74 40 25 41 77 42 71 43 70 44 26 46
REMARK SMILES IDX 58 47 38 48 57 49 39 50 42 51 56 52 75 53 40 54 41 55 55 57
REMARK SMILES IDX 76 58 43 59 27 60 28 61 36 62 29 63 31 64 37 65 30 66 32 67
REMARK SMILES IDX 33 68 34 69 35 70 59 71 60 72 68 73 61 74 63 75 69 76 62 77
REMARK SMILES IDX 64 78 65 79 66 80 67 81 44 82 45 83 53 84 46 85 48 86 54 87
REMARK SMILES IDX 47 88 49 89 50 90 51 91 52 92
REMARK H PARENT 11 6 15 26 74 45 42 56
REMARK Flexibility Score: inf
ROOT
ATOM      1  C   UNL A   1      33.880  28.094  24.462  1.00  0.00     0.042 C 
ENDROOT
BRANCH   1   2
ATOM      2  C   UNL A   1      32.487  27.485  24.349  1.00  0.00     0.117 C 
BRANCH   2   3
ATOM      3  N   UNL A   1      32.059  26.859  25.584  1.00  0.00    -0.354 N 
ATOM      4  C   UNL A   1      31.810  25.583  25.974  1.00  0.00     0.245 C 
ATOM      5  O   UNL A   1      31.751  25.466  27.206  1.00  0.00    -0.273 OA
ATOM      6  H   UNL A   1      31.916  27.510  26.309  1.00  0.00     0.163 HD
BRANCH   4   7
ATOM      7  C   UNL A   1      31.692  24.333  25.045  1.00  0.00     0.203 C 
ATOM      8  N   UNL A   1      32.871  23.600  24.549  1.00  0.00    -0.296 N 
ATOM      9  C   UNL A   1      32.585  22.153  24.491  1.00  0.00     0.144 C 
ATOM     10  C   UNL A   1      30.836  23.204  25.570  1.00  0.00     0.198 C 
ATOM     11  O   UNL A   1      31.174  22.061  24.791  1.00  0.00    -0.353 OA
ATOM     12  C   UNL A   1      32.713  21.433  23.135  1.00  0.00     0.059 C 
ATOM     13  C   UNL A   1      33.385  21.404  25.577  1.00  0.00     0.059 C 
ATOM     14  C   UNL A   1      32.354  19.948  23.215  1.00  0.00     0.005 C 
ATOM     15  C   UNL A   1      33.075  19.906  25.621  1.00  0.00     0.005 C 
ATOM     16  C   UNL A   1      33.226  19.252  24.253  1.00  0.00     0.000 C 
BRANCH   8  17
ATOM     17  C   UNL A   1      33.983  24.266  24.084  1.00  0.00     0.249 C 
ATOM     18  O   UNL A   1      34.118  24.720  22.953  1.00  0.00    -0.270 OA
BRANCH  17  19
ATOM     19  C   UNL A   1      35.136  24.405  24.991  1.00  0.00     0.070 C 
ATOM     20  C   UNL A   1      36.410  22.609  23.747  1.00  0.00     0.039 C 
ATOM     21  C   UNL A   1      36.243  23.651  24.823  1.00  0.00    -0.071 C 
ATOM     22  C   UNL A   1      37.393  23.753  25.784  1.00  0.00     0.039 C 
ENDBRANCH  17  19
ENDBRANCH   8  17
ENDBRANCH   4   7
ENDBRANCH   2   3
ENDBRANCH   1   2
BRANCH   1  23
ATOM     23  C   UNL A   1      34.292  28.373  25.906  1.00  0.00     0.118 C 
BRANCH  23  24
ATOM     24  N   UNL A   1      33.913  29.719  26.329  1.00  0.00    -0.352 N 
ATOM     25  C   UNL A   1      34.415  30.503  27.337  1.00  0.00     0.251 C 
ATOM     26  H   UNL A   1      33.183  30.127  25.810  1.00  0.00     0.163 HD
ATOM     27  O   UNL A   1      33.784  31.490  27.708  1.00  0.00    -0.269 OA
BRANCH  25  28
ATOM     28  C   UNL A   1      35.704  30.165  27.975  1.00  0.00     0.039 A 
ATOM     29  C   UNL A   1      35.706  29.631  29.267  1.00  0.00     0.014 A 
ATOM     30  C   UNL A   1      36.909  30.394  27.308  1.00  0.00     0.014 A 
ATOM     31  C   UNL A   1      36.914  29.252  29.856  1.00  0.00     0.010 A 
ATOM     32  C   UNL A   1      38.104  29.953  27.866  1.00  0.00     0.010 A 
ATOM     33  C   UNL A   1      38.117  29.368  29.141  1.00  0.00    -0.014 A 
BRANCH  33  34
ATOM     34  C   UNL A   1      39.391  28.823  29.672  1.00  0.00     0.031 A 
ATOM     35  C   UNL A   1      40.131  29.538  30.768  1.00  0.00     0.074 A 
ATOM     36  C   UNL A   1      39.938  27.746  29.074  1.00  0.00     0.049 A 
ATOM     37  N   UNL A   1      41.302  29.265  31.282  1.00  0.00    -0.248 NA
ATOM     38  C   UNL A   1      39.485  30.729  31.342  1.00  0.00     0.031 C 
ATOM     39  C   UNL A   1      39.348  27.016  27.949  1.00  0.00     0.029 A 
ATOM     40  N   UNL A   1      41.128  27.102  29.299  1.00  0.00    -0.354 N 
ATOM     41  C   UNL A   1      41.550  30.264  32.214  1.00  0.00     0.074 A 
ATOM     42  C   UNL A   1      40.418  31.166  32.178  1.00  0.00     0.031 C 
ATOM     43  C   UNL A   1      40.182  26.032  27.576  1.00  0.00     0.029 A 
ATOM     44  C   UNL A   1      41.379  26.083  28.408  1.00  0.00     0.049 A 
ATOM     45  H   UNL A   1      41.744  27.344  30.028  1.00  0.00     0.167 HD
ATOM     46  C   UNL A   1      42.613  30.406  33.041  1.00  0.00     0.034 A 
ATOM     47  C   UNL A   1      42.460  25.294  28.260  1.00  0.00     0.034 A 
ATOM     48  C   UNL A   1      43.720  29.489  33.093  1.00  0.00     0.049 A 
ATOM     49  C   UNL A   1      43.622  25.465  29.201  1.00  0.00     0.074 A 
ATOM     50  C   UNL A   1      44.795  29.487  33.964  1.00  0.00     0.029 A 
ATOM     51  N   UNL A   1      43.907  28.423  32.225  1.00  0.00    -0.354 N 
ATOM     52  N   UNL A   1      43.758  26.308  30.195  1.00  0.00    -0.248 NA
ATOM     53  C   UNL A   1      44.764  24.559  29.017  1.00  0.00     0.031 C 
ATOM     54  C   UNL A   1      45.649  28.438  33.603  1.00  0.00     0.029 A 
ATOM     55  C   UNL A   1      45.092  27.771  32.523  1.00  0.00     0.049 A 
ATOM     56  H   UNL A   1      43.288  28.167  31.504  1.00  0.00     0.167 HD
ATOM     57  C   UNL A   1      44.991  26.021  30.770  1.00  0.00     0.074 A 
ATOM     58  C   UNL A   1      45.547  24.905  30.031  1.00  0.00     0.031 C 
ATOM     59  C   UNL A   1      45.615  26.638  31.804  1.00  0.00     0.034 A 
BRANCH  46  60
ATOM     60  C   UNL A   1      42.612  31.572  33.995  1.00  0.00     0.023 A 
ATOM     61  C   UNL A   1      43.107  32.821  33.567  1.00  0.00     0.012 A 
ATOM     62  C   UNL A   1      42.062  31.453  35.287  1.00  0.00     0.148 A 
ATOM     63  C   UNL A   1      43.086  33.924  34.419  1.00  0.00     0.002 A 
ATOM     64  C   UNL A   1      42.004  32.569  36.115  1.00  0.00     0.091 A 
ATOM     65  F   UNL A   1      41.614  30.254  35.684  1.00  0.00    -0.205 F 
ATOM     66  C   UNL A   1      42.525  33.801  35.687  1.00  0.00     0.022 A 
BRANCH  64  67
ATOM     67  S   UNL A   1      41.231  32.535  37.737  1.00  0.00     0.127 S 
ATOM     68  O   UNL A   1      39.894  32.035  37.416  1.00  0.00    -0.237 OA
ATOM     69  O   UNL A   1      42.077  31.587  38.461  1.00  0.00    -0.237 OA
ATOM     70  O   UNL A   1      41.283  33.902  38.234  1.00  0.00    -0.744 OA
ENDBRANCH  64  67
ENDBRANCH  46  60
BRANCH  47  71
ATOM     71  C   UNL A   1      42.473  24.243  27.204  1.00  0.00     0.023 A 
ATOM     72  C   UNL A   1      43.115  24.503  25.978  1.00  0.00     0.012 A 
ATOM     73  C   UNL A   1      41.891  22.978  27.419  1.00  0.00     0.148 A 
ATOM     74  C   UNL A   1      43.152  23.535  24.975  1.00  0.00     0.002 A 
ATOM     75  C   UNL A   1      41.981  21.998  26.437  1.00  0.00     0.091 A 
ATOM     76  F   UNL A   1      41.274  22.753  28.588  1.00  0.00    -0.205 F 
ATOM     77  C   UNL A   1      42.596  22.280  25.208  1.00  0.00     0.022 A 
BRANCH  75  78
ATOM     78  S   UNL A   1      41.418  20.313  26.705  1.00  0.00     0.127 S 
ATOM     79  O   UNL A   1      39.981  20.501  26.877  1.00  0.00    -0.237 OA
ATOM     80  O   UNL A   1      41.810  19.660  25.456  1.00  0.00    -0.237 OA
ATOM     81  O   UNL A   1      42.141  19.837  27.879  1.00  0.00    -0.744 OA
ENDBRANCH  75  78
ENDBRANCH  47  71
BRANCH  59  82
ATOM     82  C   UNL A   1      46.970  26.118  32.209  1.00  0.00     0.023 A 
ATOM     83  C   UNL A   1      48.128  26.662  31.618  1.00  0.00     0.012 A 
ATOM     84  C   UNL A   1      47.100  25.152  33.225  1.00  0.00     0.148 A 
ATOM     85  C   UNL A   1      49.394  26.231  32.012  1.00  0.00     0.002 A 
ATOM     86  C   UNL A   1      48.366  24.762  33.646  1.00  0.00     0.091 A 
ATOM     87  F   UNL A   1      45.985  24.637  33.762  1.00  0.00    -0.205 F 
ATOM     88  C   UNL A   1      49.512  25.291  33.033  1.00  0.00     0.022 A 
BRANCH  86  89
ATOM     89  S   UNL A   1      48.622  23.627  35.015  1.00  0.00     0.127 S 
ATOM     90  O   UNL A   1      50.081  23.539  35.060  1.00  0.00    -0.237 OA
ATOM     91  O   UNL A   1      48.020  24.353  36.134  1.00  0.00    -0.237 OA
ATOM     92  O   UNL A   1      47.936  22.394  34.652  1.00  0.00    -0.744 OA
ENDBRANCH  86  89
ENDBRANCH  59  82
ENDBRANCH  33  34
ENDBRANCH  25  28
ENDBRANCH  23  24
ENDBRANCH   1  23
TORSDOF 15
ENDMDL
