MODEL 1
REMARK VINA RESULT:     -12.9      0.000      0.000
REMARK SMILES O=C(NCCCNC(=O)c1ccc(-c2c3nc(c(-c4cccc(S(=O)(=O)[O-])c4F)c4ccc([nH]4)c(-c4cccc(S(=O)(=O)[O-])c4F)c4nc(c(-c5cccc(S(=O)(=O)[O-])c5F)c5ccc2[nH]5)C=C4)C=C3)cc1)C1=NN(c2ccc([N+](=O)[O-])cc2)[C@H](c2ccccc2)C1
REMARK SMILES IDX 5 1 4 2 3 3 1 4 2 5 73 7 74 8 92 9 75 10 85 11 76 12 77 13
REMARK SMILES IDX 84 14 78 15 83 16 79 17 80 18 81 19 82 20 86 21 87 22 91 23
REMARK SMILES IDX 88 24 90 25 89 26 6 27 7 28 8 29 9 31 10 32 11 33 72 34
REMARK SMILES IDX 12 35 71 36 13 37 14 38 15 39 65 40 16 41 70 42 64 43 66 44
REMARK SMILES IDX 17 45 69 46 63 47 62 48 18 50 50 51 30 52 49 53 31 54 34 55
REMARK SMILES IDX 48 56 67 57 32 58 33 59 47 61 68 62 35 63 19 64 20 65 28 66
REMARK SMILES IDX 21 67 23 68 29 69 22 70 24 71 25 72 26 73 27 74 51 75 52 76
REMARK SMILES IDX 60 77 53 78 55 79 61 80 54 81 56 82 57 83 58 84 59 85 36 86
REMARK SMILES IDX 37 87 45 88 38 89 40 90 46 91 39 92 41 93 42 94 43 95 44 96
REMARK H PARENT 3 6 7 30 66 49 34 60
REMARK Flexibility Score: inf
ROOT
ATOM      1  C   UNL A   1      34.536  22.079  26.883  1.00  0.00     0.042 C 
ENDROOT
BRANCH   1   2
ATOM      2  C   UNL A   1      33.298  21.902  26.015  1.00  0.00     0.118 C 
BRANCH   2   3
ATOM      3  N   UNL A   1      32.052  21.980  26.770  1.00  0.00    -0.351 N 
ATOM      4  O   UNL A   1      30.136  22.972  27.512  1.00  0.00    -0.268 OA
ATOM      5  C   UNL A   1      31.171  23.032  26.858  1.00  0.00     0.267 C 
ATOM      6  H   UNL A   1      31.810  21.175  27.283  1.00  0.00     0.163 HD
BRANCH   5   7
ATOM      7  C   UNL A   1      31.511  24.325  26.173  1.00  0.00     0.128 C 
ATOM      8  N   UNL A   1      32.036  25.328  26.797  1.00  0.00    -0.171 NA
ATOM      9  C   UNL A   1      31.282  24.494  24.711  1.00  0.00     0.096 C 
ATOM     10  N   UNL A   1      31.972  26.378  25.944  1.00  0.00    -0.257 N 
ATOM     11  C   UNL A   1      31.539  26.010  24.580  1.00  0.00     0.144 C 
BRANCH  10  12
ATOM     12  C   UNL A   1      32.519  27.571  26.374  1.00  0.00     0.061 A 
ATOM     13  C   UNL A   1      31.691  28.606  26.836  1.00  0.00     0.035 A 
ATOM     14  C   UNL A   1      33.891  27.834  26.248  1.00  0.00     0.035 A 
ATOM     15  C   UNL A   1      32.214  29.847  27.212  1.00  0.00     0.088 A 
ATOM     16  C   UNL A   1      34.435  29.066  26.622  1.00  0.00     0.088 A 
ATOM     17  C   UNL A   1      33.591  30.067  27.112  1.00  0.00     0.269 A 
BRANCH  17  18
ATOM     18  N   UNL A   1      34.152  31.360  27.516  1.00  0.00     0.062 N 
ATOM     19  O   UNL A   1      33.361  32.286  27.748  1.00  0.00    -0.258 OA
ATOM     20  O   UNL A   1      35.383  31.449  27.624  1.00  0.00    -0.258 OA
ENDBRANCH  17  18
ENDBRANCH  10  12
BRANCH  11  21
ATOM     21  C   UNL A   1      30.396  26.852  24.029  1.00  0.00    -0.023 A 
ATOM     22  C   UNL A   1      29.036  26.547  24.202  1.00  0.00     0.006 A 
ATOM     23  C   UNL A   1      30.711  28.001  23.278  1.00  0.00     0.006 A 
ATOM     24  C   UNL A   1      28.038  27.353  23.643  1.00  0.00     0.000 A 
ATOM     25  C   UNL A   1      29.715  28.831  22.758  1.00  0.00     0.000 A 
ATOM     26  C   UNL A   1      28.376  28.501  22.934  1.00  0.00     0.000 A 
ENDBRANCH  11  21
ENDBRANCH   5   7
ENDBRANCH   2   3
ENDBRANCH   1   2
BRANCH   1  27
ATOM     27  C   UNL A   1      35.770  22.550  26.129  1.00  0.00     0.118 C 
BRANCH  27  28
ATOM     28  N   UNL A   1      36.746  21.490  25.926  1.00  0.00    -0.352 N 
ATOM     29  C   UNL A   1      38.118  21.518  25.933  1.00  0.00     0.251 C 
ATOM     30  H   UNL A   1      36.357  20.602  25.757  1.00  0.00     0.163 HD
ATOM     31  O   UNL A   1      38.731  20.515  25.572  1.00  0.00    -0.269 OA
BRANCH  29  32
ATOM     32  C   UNL A   1      38.864  22.726  26.354  1.00  0.00     0.039 A 
ATOM     33  C   UNL A   1      38.503  23.960  25.802  1.00  0.00     0.014 A 
ATOM     34  C   UNL A   1      39.945  22.655  27.236  1.00  0.00     0.014 A 
ATOM     35  C   UNL A   1      39.197  25.117  26.163  1.00  0.00     0.010 A 
ATOM     36  C   UNL A   1      40.578  23.820  27.664  1.00  0.00     0.010 A 
ATOM     37  C   UNL A   1      40.227  25.061  27.114  1.00  0.00    -0.014 A 
BRANCH  37  38
ATOM     38  C   UNL A   1      40.961  26.287  27.525  1.00  0.00     0.031 A 
ATOM     39  C   UNL A   1      42.387  26.504  27.091  1.00  0.00     0.074 A 
ATOM     40  C   UNL A   1      40.368  27.173  28.348  1.00  0.00     0.049 A 
ATOM     41  N   UNL A   1      43.188  27.503  27.363  1.00  0.00    -0.248 NA
ATOM     42  C   UNL A   1      43.007  25.449  26.271  1.00  0.00     0.031 C 
ATOM     43  C   UNL A   1      39.027  27.032  28.920  1.00  0.00     0.029 A 
ATOM     44  N   UNL A   1      40.826  28.359  28.867  1.00  0.00    -0.354 N 
ATOM     45  C   UNL A   1      44.411  27.179  26.787  1.00  0.00     0.074 A 
ATOM     46  C   UNL A   1      44.259  25.874  26.181  1.00  0.00     0.031 C 
ATOM     47  C   UNL A   1      38.769  28.092  29.702  1.00  0.00     0.029 A 
ATOM     48  C   UNL A   1      39.928  28.979  29.704  1.00  0.00     0.049 A 
ATOM     49  H   UNL A   1      41.713  28.730  28.660  1.00  0.00     0.167 HD
ATOM     50  C   UNL A   1      45.548  27.913  26.734  1.00  0.00     0.034 A 
ATOM     51  C   UNL A   1      40.025  30.134  30.390  1.00  0.00     0.034 A 
ATOM     52  C   UNL A   1      45.677  29.237  27.280  1.00  0.00     0.049 A 
ATOM     53  C   UNL A   1      41.264  30.974  30.241  1.00  0.00     0.074 A 
ATOM     54  C   UNL A   1      46.751  30.106  27.186  1.00  0.00     0.029 A 
ATOM     55  N   UNL A   1      44.703  29.883  28.023  1.00  0.00    -0.354 N 
ATOM     56  N   UNL A   1      42.345  30.730  29.540  1.00  0.00    -0.248 NA
ATOM     57  C   UNL A   1      41.279  32.268  30.937  1.00  0.00     0.031 C 
ATOM     58  C   UNL A   1      46.429  31.274  27.886  1.00  0.00     0.029 A 
ATOM     59  C   UNL A   1      45.149  31.140  28.398  1.00  0.00     0.049 A 
ATOM     60  H   UNL A   1      43.824  29.505  28.251  1.00  0.00     0.167 HD
ATOM     61  C   UNL A   1      43.153  31.852  29.682  1.00  0.00     0.074 A 
ATOM     62  C   UNL A   1      42.425  32.786  30.516  1.00  0.00     0.031 C 
ATOM     63  C   UNL A   1      44.393  32.082  29.183  1.00  0.00     0.034 A 
BRANCH  50  64
ATOM     64  C   UNL A   1      46.726  27.325  26.000  1.00  0.00     0.023 A 
ATOM     65  C   UNL A   1      47.517  26.342  26.631  1.00  0.00     0.012 A 
ATOM     66  C   UNL A   1      47.022  27.702  24.676  1.00  0.00     0.148 A 
ATOM     67  C   UNL A   1      48.605  25.773  25.972  1.00  0.00     0.002 A 
ATOM     68  C   UNL A   1      48.082  27.098  24.008  1.00  0.00     0.091 A 
ATOM     69  F   UNL A   1      46.274  28.654  24.098  1.00  0.00    -0.205 F 
ATOM     70  C   UNL A   1      48.881  26.143  24.658  1.00  0.00     0.022 A 
BRANCH  68  71
ATOM     71  S   UNL A   1      48.467  27.448  22.290  1.00  0.00     0.127 S 
ATOM     72  O   UNL A   1      49.651  28.296  22.419  1.00  0.00    -0.237 OA
ATOM     73  O   UNL A   1      48.729  26.113  21.751  1.00  0.00    -0.237 OA
ATOM     74  O   UNL A   1      47.285  28.099  21.741  1.00  0.00    -0.744 OA
ENDBRANCH  68  71
ENDBRANCH  50  64
BRANCH  51  75
ATOM     75  C   UNL A   1      38.871  30.605  31.208  1.00  0.00     0.023 A 
ATOM     76  C   UNL A   1      38.749  30.170  32.542  1.00  0.00     0.012 A 
ATOM     77  C   UNL A   1      37.925  31.509  30.690  1.00  0.00     0.148 A 
ATOM     78  C   UNL A   1      37.687  30.604  33.337  1.00  0.00     0.002 A 
ATOM     79  C   UNL A   1      36.900  31.979  31.503  1.00  0.00     0.091 A 
ATOM     80  F   UNL A   1      38.054  31.903  29.415  1.00  0.00    -0.205 F 
ATOM     81  C   UNL A   1      36.770  31.516  32.822  1.00  0.00     0.022 A 
BRANCH  79  82
ATOM     82  S   UNL A   1      35.755  33.255  30.966  1.00  0.00     0.127 S 
ATOM     83  O   UNL A   1      34.504  32.509  30.858  1.00  0.00    -0.237 OA
ATOM     84  O   UNL A   1      35.814  34.205  32.078  1.00  0.00    -0.237 OA
ATOM     85  O   UNL A   1      36.300  33.767  29.714  1.00  0.00    -0.744 OA
ENDBRANCH  79  82
ENDBRANCH  51  75
BRANCH  63  86
ATOM     86  C   UNL A   1      45.036  33.408  29.495  1.00  0.00     0.023 A 
ATOM     87  C   UNL A   1      45.872  33.530  30.622  1.00  0.00     0.012 A 
ATOM     88  C   UNL A   1      44.866  34.512  28.638  1.00  0.00     0.148 A 
ATOM     89  C   UNL A   1      46.500  34.741  30.912  1.00  0.00     0.002 A 
ATOM     90  C   UNL A   1      45.532  35.702  28.906  1.00  0.00     0.091 A 
ATOM     91  F   UNL A   1      44.049  34.384  27.581  1.00  0.00    -0.205 F 
ATOM     92  C   UNL A   1      46.339  35.822  30.048  1.00  0.00     0.022 A 
BRANCH  90  93
ATOM     93  S   UNL A   1      45.454  37.110  27.793  1.00  0.00     0.127 S 
ATOM     94  O   UNL A   1      44.018  37.376  27.746  1.00  0.00    -0.237 OA
ATOM     95  O   UNL A   1      46.238  38.120  28.506  1.00  0.00    -0.237 OA
ATOM     96  O   UNL A   1      46.055  36.660  26.544  1.00  0.00    -0.744 OA
ENDBRANCH  90  93
ENDBRANCH  63  86
ENDBRANCH  37  38
ENDBRANCH  29  32
ENDBRANCH  27  28
ENDBRANCH   1  27
TORSDOF 16
ENDMDL
MODEL 2
REMARK VINA RESULT:     -12.8      1.838      2.917
REMARK SMILES O=C(NCCCNC(=O)c1ccc(-c2c3nc(c(-c4cccc(S(=O)(=O)[O-])c4F)c4ccc([nH]4)c(-c4cccc(S(=O)(=O)[O-])c4F)c4nc(c(-c5cccc(S(=O)(=O)[O-])c5F)c5ccc2[nH]5)C=C4)C=C3)cc1)C1=NN(c2ccc([N+](=O)[O-])cc2)[C@H](c2ccccc2)C1
REMARK SMILES IDX 5 1 4 2 3 3 1 4 2 5 73 7 74 8 92 9 75 10 85 11 76 12 77 13
REMARK SMILES IDX 84 14 78 15 83 16 79 17 80 18 81 19 82 20 86 21 87 22 91 23
REMARK SMILES IDX 88 24 90 25 89 26 6 27 7 28 8 29 9 31 10 32 11 33 72 34
REMARK SMILES IDX 12 35 71 36 13 37 14 38 15 39 65 40 16 41 70 42 64 43 66 44
REMARK SMILES IDX 17 45 69 46 63 47 62 48 18 50 50 51 30 52 49 53 31 54 34 55
REMARK SMILES IDX 48 56 67 57 32 58 33 59 47 61 68 62 35 63 19 64 20 65 28 66
REMARK SMILES IDX 21 67 23 68 29 69 22 70 24 71 25 72 26 73 27 74 51 75 52 76
REMARK SMILES IDX 60 77 53 78 55 79 61 80 54 81 56 82 57 83 58 84 59 85 36 86
REMARK SMILES IDX 37 87 45 88 38 89 40 90 46 91 39 92 41 93 42 94 43 95 44 96
REMARK H PARENT 3 6 7 30 66 49 34 60
REMARK Flexibility Score: inf
ROOT
ATOM      1  C   UNL A   1      36.240  22.924  24.247  1.00  0.00     0.042 C 
ENDROOT
BRANCH   1   2
ATOM      2  C   UNL A   1      34.871  23.521  23.953  1.00  0.00     0.118 C 
BRANCH   2   3
ATOM      3  N   UNL A   1      33.932  22.554  23.394  1.00  0.00    -0.351 N 
ATOM      4  O   UNL A   1      31.875  21.773  22.787  1.00  0.00    -0.268 OA
ATOM      5  C   UNL A   1      32.563  22.647  23.303  1.00  0.00     0.267 C 
ATOM      6  H   UNL A   1      34.330  21.727  23.036  1.00  0.00     0.163 HD
BRANCH   5   7
ATOM      7  C   UNL A   1      31.873  23.839  23.903  1.00  0.00     0.128 C 
ATOM      8  N   UNL A   1      31.197  24.684  23.196  1.00  0.00    -0.171 NA
ATOM      9  C   UNL A   1      31.912  24.081  25.372  1.00  0.00     0.096 C 
ATOM     10  N   UNL A   1      30.936  25.734  24.009  1.00  0.00    -0.257 N 
ATOM     11  C   UNL A   1      31.306  25.498  25.420  1.00  0.00     0.144 C 
BRANCH  10  12
ATOM     12  C   UNL A   1      30.177  26.762  23.484  1.00  0.00     0.061 A 
ATOM     13  C   UNL A   1      30.795  27.835  22.822  1.00  0.00     0.035 A 
ATOM     14  C   UNL A   1      28.794  26.833  23.701  1.00  0.00     0.035 A 
ATOM     15  C   UNL A   1      30.056  28.920  22.343  1.00  0.00     0.088 A 
ATOM     16  C   UNL A   1      28.035  27.907  23.227  1.00  0.00     0.088 A 
ATOM     17  C   UNL A   1      28.672  28.945  22.541  1.00  0.00     0.269 A 
BRANCH  17  18
ATOM     18  N   UNL A   1      27.885  30.072  22.030  1.00  0.00     0.062 N 
ATOM     19  O   UNL A   1      27.202  30.715  22.841  1.00  0.00    -0.258 OA
ATOM     20  O   UNL A   1      27.963  30.331  20.820  1.00  0.00    -0.258 OA
ENDBRANCH  17  18
ENDBRANCH  10  12
BRANCH  11  21
ATOM     21  C   UNL A   1      32.168  26.590  26.040  1.00  0.00    -0.023 A 
ATOM     22  C   UNL A   1      33.534  26.768  25.768  1.00  0.00     0.006 A 
ATOM     23  C   UNL A   1      31.573  27.471  26.964  1.00  0.00     0.006 A 
ATOM     24  C   UNL A   1      34.271  27.778  26.397  1.00  0.00     0.000 A 
ATOM     25  C   UNL A   1      32.296  28.508  27.558  1.00  0.00     0.000 A 
ATOM     26  C   UNL A   1      33.650  28.656  27.279  1.00  0.00     0.000 A 
ENDBRANCH  11  21
ENDBRANCH   5   7
ENDBRANCH   2   3
ENDBRANCH   1   2
BRANCH   1  27
ATOM     27  C   UNL A   1      36.437  22.484  25.690  1.00  0.00     0.118 C 
BRANCH  27  28
ATOM     28  N   UNL A   1      37.463  21.462  25.832  1.00  0.00    -0.352 N 
ATOM     29  C   UNL A   1      38.801  21.567  26.119  1.00  0.00     0.251 C 
ATOM     30  H   UNL A   1      37.144  20.540  25.703  1.00  0.00     0.163 HD
ATOM     31  O   UNL A   1      39.505  20.563  26.026  1.00  0.00    -0.269 OA
BRANCH  29  32
ATOM     32  C   UNL A   1      39.406  22.856  26.524  1.00  0.00     0.039 A 
ATOM     33  C   UNL A   1      40.335  22.856  27.571  1.00  0.00     0.014 A 
ATOM     34  C   UNL A   1      39.033  24.064  25.932  1.00  0.00     0.014 A 
ATOM     35  C   UNL A   1      40.913  24.057  27.992  1.00  0.00     0.010 A 
ATOM     36  C   UNL A   1      39.675  25.248  26.291  1.00  0.00     0.010 A 
ATOM     37  C   UNL A   1      40.604  25.262  27.342  1.00  0.00    -0.014 A 
BRANCH  37  38
ATOM     38  C   UNL A   1      41.226  26.543  27.763  1.00  0.00     0.031 A 
ATOM     39  C   UNL A   1      42.659  26.848  27.411  1.00  0.00     0.074 A 
ATOM     40  C   UNL A   1      40.525  27.406  28.524  1.00  0.00     0.049 A 
ATOM     41  N   UNL A   1      43.373  27.906  27.704  1.00  0.00    -0.248 NA
ATOM     42  C   UNL A   1      43.399  25.819  26.661  1.00  0.00     0.031 C 
ATOM     43  C   UNL A   1      39.162  27.187  29.016  1.00  0.00     0.029 A 
ATOM     44  N   UNL A   1      40.869  28.632  29.037  1.00  0.00    -0.354 N 
ATOM     45  C   UNL A   1      44.648  27.653  27.214  1.00  0.00     0.074 A 
ATOM     46  C   UNL A   1      44.623  26.327  26.636  1.00  0.00     0.031 C 
ATOM     47  C   UNL A   1      38.785  28.245  29.751  1.00  0.00     0.029 A 
ATOM     48  C   UNL A   1      39.880  29.208  29.800  1.00  0.00     0.049 A 
ATOM     49  H   UNL A   1      41.740  29.059  28.874  1.00  0.00     0.167 HD
ATOM     50  C   UNL A   1      45.735  28.462  27.210  1.00  0.00     0.034 A 
ATOM     51  C   UNL A   1      39.856  30.384  30.458  1.00  0.00     0.034 A 
ATOM     52  C   UNL A   1      45.740  29.803  27.727  1.00  0.00     0.049 A 
ATOM     53  C   UNL A   1      41.043  31.302  30.362  1.00  0.00     0.074 A 
ATOM     54  C   UNL A   1      46.757  30.742  27.674  1.00  0.00     0.029 A 
ATOM     55  N   UNL A   1      44.680  30.399  28.390  1.00  0.00    -0.354 N 
ATOM     56  N   UNL A   1      42.180  31.117  29.736  1.00  0.00    -0.248 NA
ATOM     57  C   UNL A   1      40.927  32.610  31.022  1.00  0.00     0.031 C 
ATOM     58  C   UNL A   1      46.314  31.901  28.321  1.00  0.00     0.029 A 
ATOM     59  C   UNL A   1      45.016  31.691  28.757  1.00  0.00     0.049 A 
ATOM     60  H   UNL A   1      43.815  29.967  28.575  1.00  0.00     0.167 HD
ATOM     61  C   UNL A   1      42.900  32.295  29.896  1.00  0.00     0.074 A 
ATOM     62  C   UNL A   1      42.060  33.196  30.658  1.00  0.00     0.031 C 
ATOM     63  C   UNL A   1      44.151  32.597  29.467  1.00  0.00     0.034 A 
BRANCH  50  64
ATOM     64  C   UNL A   1      46.993  27.939  26.566  1.00  0.00     0.023 A 
ATOM     65  C   UNL A   1      47.969  27.304  27.363  1.00  0.00     0.012 A 
ATOM     66  C   UNL A   1      47.191  28.028  25.174  1.00  0.00     0.148 A 
ATOM     67  C   UNL A   1      49.136  26.801  26.792  1.00  0.00     0.002 A 
ATOM     68  C   UNL A   1      48.338  27.483  24.606  1.00  0.00     0.091 A 
ATOM     69  F   UNL A   1      46.265  28.654  24.434  1.00  0.00    -0.205 F 
ATOM     70  C   UNL A   1      49.316  26.881  25.414  1.00  0.00     0.022 A 
BRANCH  68  71
ATOM     71  S   UNL A   1      48.623  27.466  22.833  1.00  0.00     0.127 S 
ATOM     72  O   UNL A   1      49.936  28.101  22.739  1.00  0.00    -0.237 OA
ATOM     73  O   UNL A   1      48.614  26.035  22.530  1.00  0.00    -0.237 OA
ATOM     74  O   UNL A   1      47.520  28.214  22.245  1.00  0.00    -0.744 OA
ENDBRANCH  68  71
ENDBRANCH  50  64
BRANCH  51  75
ATOM     75  C   UNL A   1      38.624  30.793  31.191  1.00  0.00     0.023 A 
ATOM     76  C   UNL A   1      38.542  30.572  32.580  1.00  0.00     0.012 A 
ATOM     77  C   UNL A   1      37.558  31.435  30.532  1.00  0.00     0.148 A 
ATOM     78  C   UNL A   1      37.407  30.957  33.295  1.00  0.00     0.002 A 
ATOM     79  C   UNL A   1      36.454  31.864  31.260  1.00  0.00     0.091 A 
ATOM     80  F   UNL A   1      37.652  31.626  29.209  1.00  0.00    -0.205 F 
ATOM     81  C   UNL A   1      36.369  31.612  32.638  1.00  0.00     0.022 A 
BRANCH  79  82
ATOM     82  S   UNL A   1      35.133  32.832  30.521  1.00  0.00     0.127 S 
ATOM     83  O   UNL A   1      35.846  34.030  30.088  1.00  0.00    -0.237 OA
ATOM     84  O   UNL A   1      34.684  31.956  29.437  1.00  0.00    -0.237 OA
ATOM     85  O   UNL A   1      34.150  33.024  31.580  1.00  0.00    -0.744 OA
ENDBRANCH  79  82
ENDBRANCH  51  75
BRANCH  63  86
ATOM     86  C   UNL A   1      44.683  33.971  29.782  1.00  0.00     0.023 A 
ATOM     87  C   UNL A   1      45.416  34.182  30.967  1.00  0.00     0.012 A 
ATOM     88  C   UNL A   1      44.515  35.035  28.875  1.00  0.00     0.148 A 
ATOM     89  C   UNL A   1      45.941  35.440  31.261  1.00  0.00     0.002 A 
ATOM     90  C   UNL A   1      45.082  36.274  29.152  1.00  0.00     0.091 A 
ATOM     91  F   UNL A   1      43.796  34.823  27.763  1.00  0.00    -0.205 F 
ATOM     92  C   UNL A   1      45.783  36.481  30.349  1.00  0.00     0.022 A 
BRANCH  90  93
ATOM     93  S   UNL A   1      45.007  37.639  27.987  1.00  0.00     0.127 S 
ATOM     94  O   UNL A   1      43.578  37.946  27.977  1.00  0.00    -0.237 OA
ATOM     95  O   UNL A   1      45.843  38.652  28.633  1.00  0.00    -0.237 OA
ATOM     96  O   UNL A   1      45.551  37.122  26.737  1.00  0.00    -0.744 OA
ENDBRANCH  90  93
ENDBRANCH  63  86
ENDBRANCH  37  38
ENDBRANCH  29  32
ENDBRANCH  27  28
ENDBRANCH   1  27
TORSDOF 16
ENDMDL
MODEL 3
REMARK VINA RESULT:     -12.7      3.011      4.116
REMARK SMILES O=C(NCCCNC(=O)c1ccc(-c2c3nc(c(-c4cccc(S(=O)(=O)[O-])c4F)c4ccc([nH]4)c(-c4cccc(S(=O)(=O)[O-])c4F)c4nc(c(-c5cccc(S(=O)(=O)[O-])c5F)c5ccc2[nH]5)C=C4)C=C3)cc1)C1=NN(c2ccc([N+](=O)[O-])cc2)[C@H](c2ccccc2)C1
REMARK SMILES IDX 5 1 4 2 3 3 1 4 2 5 73 7 74 8 92 9 75 10 85 11 76 12 77 13
REMARK SMILES IDX 84 14 78 15 83 16 79 17 80 18 81 19 82 20 86 21 87 22 91 23
REMARK SMILES IDX 88 24 90 25 89 26 6 27 7 28 8 29 9 31 10 32 11 33 72 34
REMARK SMILES IDX 12 35 71 36 13 37 14 38 15 39 65 40 16 41 70 42 64 43 66 44
REMARK SMILES IDX 17 45 69 46 63 47 62 48 18 50 50 51 30 52 49 53 31 54 34 55
REMARK SMILES IDX 48 56 67 57 32 58 33 59 47 61 68 62 35 63 19 64 20 65 28 66
REMARK SMILES IDX 21 67 23 68 29 69 22 70 24 71 25 72 26 73 27 74 51 75 52 76
REMARK SMILES IDX 60 77 53 78 55 79 61 80 54 81 56 82 57 83 58 84 59 85 36 86
REMARK SMILES IDX 37 87 45 88 38 89 40 90 46 91 39 92 41 93 42 94 43 95 44 96
REMARK H PARENT 3 6 7 30 66 49 34 60
REMARK Flexibility Score: inf
ROOT
ATOM      1  C   UNL A   1      35.826  23.653  25.718  1.00  0.00     0.042 C 
ENDROOT
BRANCH   1   2
ATOM      2  C   UNL A   1      34.691  24.123  24.820  1.00  0.00     0.118 C 
BRANCH   2   3
ATOM      3  N   UNL A   1      33.685  23.093  24.581  1.00  0.00    -0.351 N 
ATOM      4  O   UNL A   1      31.566  22.284  24.328  1.00  0.00    -0.268 OA
ATOM      5  C   UNL A   1      32.316  23.225  24.564  1.00  0.00     0.267 C 
ATOM      6  H   UNL A   1      34.030  22.187  24.411  1.00  0.00     0.163 HD
BRANCH   5   7
ATOM      7  C   UNL A   1      31.708  24.558  24.898  1.00  0.00     0.128 C 
ATOM      8  N   UNL A   1      31.080  25.276  24.027  1.00  0.00    -0.171 NA
ATOM      9  C   UNL A   1      31.778  25.099  26.284  1.00  0.00     0.096 C 
ATOM     10  N   UNL A   1      30.894  26.488  24.601  1.00  0.00    -0.257 N 
ATOM     11  C   UNL A   1      31.263  26.531  26.031  1.00  0.00     0.144 C 
BRANCH  10  12
ATOM     12  C   UNL A   1      30.195  27.429  23.869  1.00  0.00     0.061 A 
ATOM     13  C   UNL A   1      30.859  28.539  23.322  1.00  0.00     0.035 A 
ATOM     14  C   UNL A   1      28.799  27.377  23.756  1.00  0.00     0.035 A 
ATOM     15  C   UNL A   1      30.164  29.540  22.637  1.00  0.00     0.088 A 
ATOM     16  C   UNL A   1      28.085  28.365  23.072  1.00  0.00     0.088 A 
ATOM     17  C   UNL A   1      28.775  29.441  22.507  1.00  0.00     0.269 A 
BRANCH  17  18
ATOM     18  N   UNL A   1      28.039  30.479  21.778  1.00  0.00     0.062 N 
ATOM     19  O   UNL A   1      27.584  31.431  22.430  1.00  0.00    -0.258 OA
ATOM     20  O   UNL A   1      27.929  30.356  20.550  1.00  0.00    -0.258 OA
ENDBRANCH  17  18
ENDBRANCH  10  12
BRANCH  11  21
ATOM     21  C   UNL A   1      32.197  27.671  26.410  1.00  0.00    -0.023 A 
ATOM     22  C   UNL A   1      33.596  27.621  26.287  1.00  0.00     0.006 A 
ATOM     23  C   UNL A   1      31.638  28.850  26.941  1.00  0.00     0.006 A 
ATOM     24  C   UNL A   1      34.396  28.699  26.682  1.00  0.00     0.000 A 
ATOM     25  C   UNL A   1      32.432  29.944  27.293  1.00  0.00     0.000 A 
ATOM     26  C   UNL A   1      33.814  29.864  27.171  1.00  0.00     0.000 A 
ENDBRANCH  11  21
ENDBRANCH   5   7
ENDBRANCH   2   3
ENDBRANCH   1   2
BRANCH   1  27
ATOM     27  C   UNL A   1      37.145  23.421  24.996  1.00  0.00     0.118 C 
BRANCH  27  28
ATOM     28  N   UNL A   1      38.005  22.470  25.684  1.00  0.00    -0.352 N 
ATOM     29  C   UNL A   1      39.121  22.666  26.458  1.00  0.00     0.251 C 
ATOM     30  H   UNL A   1      37.742  21.528  25.578  1.00  0.00     0.163 HD
ATOM     31  O   UNL A   1      39.780  21.686  26.802  1.00  0.00    -0.269 OA
BRANCH  29  32
ATOM     32  C   UNL A   1      39.546  24.022  26.873  1.00  0.00     0.039 A 
ATOM     33  C   UNL A   1      39.308  24.421  28.193  1.00  0.00     0.014 A 
ATOM     34  C   UNL A   1      40.121  24.923  25.973  1.00  0.00     0.014 A 
ATOM     35  C   UNL A   1      39.679  25.701  28.614  1.00  0.00     0.010 A 
ATOM     36  C   UNL A   1      40.572  26.165  26.417  1.00  0.00     0.010 A 
ATOM     37  C   UNL A   1      40.334  26.577  27.735  1.00  0.00    -0.014 A 
BRANCH  37  38
ATOM     38  C   UNL A   1      40.755  27.932  28.174  1.00  0.00     0.031 A 
ATOM     39  C   UNL A   1      42.213  28.314  28.180  1.00  0.00     0.074 A 
ATOM     40  C   UNL A   1      39.833  28.799  28.636  1.00  0.00     0.049 A 
ATOM     41  N   UNL A   1      42.767  29.444  28.542  1.00  0.00    -0.248 NA
ATOM     42  C   UNL A   1      43.177  27.286  27.755  1.00  0.00     0.031 C 
ATOM     43  C   UNL A   1      38.402  28.519  28.775  1.00  0.00     0.029 A 
ATOM     44  N   UNL A   1      39.965  30.086  29.096  1.00  0.00    -0.354 N 
ATOM     45  C   UNL A   1      44.139  29.248  28.429  1.00  0.00     0.074 A 
ATOM     46  C   UNL A   1      44.336  27.880  27.999  1.00  0.00     0.031 C 
ATOM     47  C   UNL A   1      37.789  29.602  29.278  1.00  0.00     0.029 A 
ATOM     48  C   UNL A   1      38.781  30.647  29.514  1.00  0.00     0.049 A 
ATOM     49  H   UNL A   1      40.825  30.562  29.125  1.00  0.00     0.167 HD
ATOM     50  C   UNL A   1      45.144  30.134  28.628  1.00  0.00     0.034 A 
ATOM     51  C   UNL A   1      38.521  31.867  30.023  1.00  0.00     0.034 A 
ATOM     52  C   UNL A   1      44.943  31.510  28.992  1.00  0.00     0.049 A 
ATOM     53  C   UNL A   1      39.643  32.862  30.149  1.00  0.00     0.074 A 
ATOM     54  C   UNL A   1      45.888  32.515  29.113  1.00  0.00     0.029 A 
ATOM     55  N   UNL A   1      43.716  32.076  29.293  1.00  0.00    -0.354 N 
ATOM     56  N   UNL A   1      40.914  32.713  29.863  1.00  0.00    -0.248 NA
ATOM     57  C   UNL A   1      39.289  34.208  30.621  1.00  0.00     0.031 C 
ATOM     58  C   UNL A   1      45.230  33.687  29.503  1.00  0.00     0.029 A 
ATOM     59  C   UNL A   1      43.875  33.416  29.604  1.00  0.00     0.049 A 
ATOM     60  H   UNL A   1      42.856  31.597  29.288  1.00  0.00     0.167 HD
ATOM     61  C   UNL A   1      41.504  33.951  30.087  1.00  0.00     0.074 A 
ATOM     62  C   UNL A   1      40.446  34.845  30.509  1.00  0.00     0.031 C 
ATOM     63  C   UNL A   1      42.806  34.310  29.971  1.00  0.00     0.034 A 
BRANCH  50  64
ATOM     64  C   UNL A   1      46.553  29.656  28.390  1.00  0.00     0.023 A 
ATOM     65  C   UNL A   1      47.133  29.809  27.113  1.00  0.00     0.012 A 
ATOM     66  C   UNL A   1      47.322  29.104  29.435  1.00  0.00     0.148 A 
ATOM     67  C   UNL A   1      48.438  29.387  26.869  1.00  0.00     0.002 A 
ATOM     68  C   UNL A   1      48.638  28.727  29.195  1.00  0.00     0.091 A 
ATOM     69  F   UNL A   1      46.748  28.945  30.636  1.00  0.00    -0.205 F 
ATOM     70  C   UNL A   1      49.194  28.856  27.911  1.00  0.00     0.022 A 
BRANCH  68  71
ATOM     71  S   UNL A   1      49.717  28.107  30.490  1.00  0.00     0.127 S 
ATOM     72  O   UNL A   1      50.860  27.625  29.718  1.00  0.00    -0.237 OA
ATOM     73  O   UNL A   1      49.977  29.311  31.280  1.00  0.00    -0.237 OA
ATOM     74  O   UNL A   1      48.953  27.081  31.188  1.00  0.00    -0.744 OA
ENDBRANCH  68  71
ENDBRANCH  50  64
BRANCH  51  75
ATOM     75  C   UNL A   1      37.120  32.242  30.365  1.00  0.00     0.023 A 
ATOM     76  C   UNL A   1      36.629  31.970  31.656  1.00  0.00     0.012 A 
ATOM     77  C   UNL A   1      36.290  32.900  29.437  1.00  0.00     0.148 A 
ATOM     78  C   UNL A   1      35.325  32.320  32.009  1.00  0.00     0.002 A 
ATOM     79  C   UNL A   1      35.011  33.295  29.813  1.00  0.00     0.091 A 
ATOM     80  F   UNL A   1      36.773  33.140  28.210  1.00  0.00    -0.205 F 
ATOM     81  C   UNL A   1      34.521  32.992  31.093  1.00  0.00     0.022 A 
BRANCH  79  82
ATOM     82  S   UNL A   1      33.956  34.281  28.744  1.00  0.00     0.127 S 
ATOM     83  O   UNL A   1      33.656  33.339  27.668  1.00  0.00    -0.237 OA
ATOM     84  O   UNL A   1      32.830  34.588  29.627  1.00  0.00    -0.237 OA
ATOM     85  O   UNL A   1      34.755  35.441  28.369  1.00  0.00    -0.744 OA
ENDBRANCH  79  82
ENDBRANCH  51  75
BRANCH  63  86
ATOM     86  C   UNL A   1      43.165  35.741  30.274  1.00  0.00     0.023 A 
ATOM     87  C   UNL A   1      43.652  36.084  31.552  1.00  0.00     0.012 A 
ATOM     88  C   UNL A   1      43.082  36.733  29.278  1.00  0.00     0.148 A 
ATOM     89  C   UNL A   1      44.016  37.398  31.843  1.00  0.00     0.002 A 
ATOM     90  C   UNL A   1      43.491  38.031  29.562  1.00  0.00     0.091 A 
ATOM     91  F   UNL A   1      42.595  36.395  28.075  1.00  0.00    -0.205 F 
ATOM     92  C   UNL A   1      43.946  38.368  30.845  1.00  0.00     0.022 A 
BRANCH  90  93
ATOM     93  S   UNL A   1      43.523  39.316  28.306  1.00  0.00     0.127 S 
ATOM     94  O   UNL A   1      44.370  38.711  27.280  1.00  0.00    -0.237 OA
ATOM     95  O   UNL A   1      42.111  39.434  27.939  1.00  0.00    -0.237 OA
ATOM     96  O   UNL A   1      44.071  40.496  28.963  1.00  0.00    -0.744 OA
ENDBRANCH  90  93
ENDBRANCH  63  86
ENDBRANCH  37  38
ENDBRANCH  29  32
ENDBRANCH  27  28
ENDBRANCH   1  27
TORSDOF 16
ENDMDL
