MODEL 1
REMARK VINA RESULT:     -11.7      0.000      0.000
REMARK SMILES [NH3+][C@@]1(C(=O)NCCCNC(=O)c2ccc(-c3c4nc(c(-c5cccc(S(=O)(=O)[O-])c5F)c5ccc([nH]5)c(-c5cccc(S(=O)(=O)[O-])c5F)c5nc(c(-c6cccc(S(=O)(=O)[O-])c6F)c6ccc3[nH]6)C=C5)C=C4)cc2)CCC[C@H]1CCOc1ccccc1
REMARK SMILES IDX 6 1 5 2 3 3 4 4 2 6 75 7 78 8 76 9 77 10 1 11 79 15 80 16
REMARK SMILES IDX 81 17 82 18 83 19 87 20 84 21 86 22 85 23 7 24 8 25 9 26
REMARK SMILES IDX 10 27 11 29 12 30 13 31 74 32 14 33 73 34 15 35 16 36 17 37
REMARK SMILES IDX 67 38 18 39 72 40 66 41 68 42 19 43 71 44 65 45 64 46 20 48
REMARK SMILES IDX 52 49 32 50 51 51 33 52 36 53 50 54 69 55 34 56 35 57 49 59
REMARK SMILES IDX 70 60 37 61 21 62 22 63 30 64 23 65 25 66 31 67 24 68 26 69
REMARK SMILES IDX 27 70 28 71 29 72 53 73 54 74 62 75 55 76 57 77 63 78 56 79
REMARK SMILES IDX 58 80 59 81 60 82 61 83 38 84 39 85 47 86 40 87 42 88 48 89
REMARK SMILES IDX 41 90 43 91 44 92 45 93 46 94
REMARK H PARENT 5 5 1 12 1 13 1 14 9 28 68 47 36 58
REMARK Flexibility Score: inf
ROOT
ATOM      1  C   UNL A   1      32.015  30.413  25.920  1.00  0.00     0.118 C 
ENDROOT
BRANCH   1   2
ATOM      2  N   UNL A   1      31.651  29.219  26.656  1.00  0.00    -0.351 N 
ATOM      3  C   UNL A   1      31.545  27.915  26.286  1.00  0.00     0.281 C 
ATOM      4  O   UNL A   1      31.409  27.104  27.218  1.00  0.00    -0.268 OA
ATOM      5  H   UNL A   1      31.439  29.383  27.604  1.00  0.00     0.163 HD
BRANCH   3   6
ATOM      6  C   UNL A   1      31.583  27.383  24.796  1.00  0.00     0.176 C 
ATOM      7  C   UNL A   1      33.000  27.365  24.197  1.00  0.00     0.079 C 
ATOM      8  C   UNL A   1      30.696  28.234  23.847  1.00  0.00     0.064 C 
ATOM      9  C   UNL A   1      33.069  28.405  23.096  1.00  0.00     0.008 C 
ATOM     10  C   UNL A   1      31.642  28.800  22.764  1.00  0.00     0.011 C 
BRANCH   6  11
ATOM     11  N   UNL A   1      31.144  25.952  24.858  1.00  0.00    -0.345 N 
ATOM     12  H   UNL A   1      30.361  25.809  24.220  1.00  0.00     0.345 HD
ATOM     13  H   UNL A   1      30.854  25.727  25.808  1.00  0.00     0.345 HD
ATOM     14  H   UNL A   1      31.919  25.347  24.586  1.00  0.00     0.345 HD
ENDBRANCH   6  11
BRANCH   8  15
ATOM     15  C   UNL A   1      29.505  27.537  23.136  1.00  0.00     0.052 C 
BRANCH  15  16
ATOM     16  C   UNL A   1      28.090  28.006  23.500  1.00  0.00     0.230 C 
BRANCH  16  17
ATOM     17  O   UNL A   1      27.467  28.678  22.399  1.00  0.00    -0.494 OA
BRANCH  17  18
ATOM     18  C   UNL A   1      27.770  30.008  22.362  1.00  0.00     0.119 A 
ATOM     19  C   UNL A   1      27.746  30.800  23.508  1.00  0.00     0.046 A 
ATOM     20  C   UNL A   1      28.039  30.569  21.119  1.00  0.00     0.046 A 
ATOM     21  C   UNL A   1      28.075  32.153  23.415  1.00  0.00     0.004 A 
ATOM     22  C   UNL A   1      28.372  31.918  21.027  1.00  0.00     0.004 A 
ATOM     23  C   UNL A   1      28.406  32.707  22.177  1.00  0.00     0.000 A 
ENDBRANCH  17  18
ENDBRANCH  16  17
ENDBRANCH  15  16
ENDBRANCH   8  15
ENDBRANCH   3   6
ENDBRANCH   1   2
BRANCH   1  24
ATOM     24  C   UNL A   1      31.671  31.723  26.618  1.00  0.00     0.042 C 
BRANCH  24  25
ATOM     25  C   UNL A   1      32.856  32.436  27.258  1.00  0.00     0.118 C 
BRANCH  25  26
ATOM     26  N   UNL A   1      32.556  33.821  27.601  1.00  0.00    -0.352 N 
ATOM     27  C   UNL A   1      33.069  34.618  28.599  1.00  0.00     0.251 C 
ATOM     28  H   UNL A   1      31.882  34.253  27.029  1.00  0.00     0.163 HD
ATOM     29  O   UNL A   1      32.527  35.690  28.851  1.00  0.00    -0.269 OA
BRANCH  27  30
ATOM     30  C   UNL A   1      34.252  34.188  29.380  1.00  0.00     0.039 A 
ATOM     31  C   UNL A   1      34.056  33.466  30.562  1.00  0.00     0.014 A 
ATOM     32  C   UNL A   1      35.547  34.512  28.971  1.00  0.00     0.014 A 
ATOM     33  C   UNL A   1      35.159  32.997  31.283  1.00  0.00     0.010 A 
ATOM     34  C   UNL A   1      36.645  33.982  29.650  1.00  0.00     0.010 A 
ATOM     35  C   UNL A   1      36.464  33.213  30.809  1.00  0.00    -0.014 A 
BRANCH  35  36
ATOM     36  C   UNL A   1      37.641  32.596  31.478  1.00  0.00     0.031 A 
ATOM     37  C   UNL A   1      38.373  31.443  30.845  1.00  0.00     0.074 A 
ATOM     38  C   UNL A   1      37.990  33.016  32.711  1.00  0.00     0.049 A 
ATOM     39  N   UNL A   1      39.378  30.750  31.315  1.00  0.00    -0.248 NA
ATOM     40  C   UNL A   1      37.903  30.997  29.524  1.00  0.00     0.031 C 
ATOM     41  C   UNL A   1      37.311  34.070  33.468  1.00  0.00     0.029 A 
ATOM     42  N   UNL A   1      38.983  32.588  33.559  1.00  0.00    -0.354 N 
ATOM     43  C   UNL A   1      39.640  29.767  30.368  1.00  0.00     0.074 A 
ATOM     44  C   UNL A   1      38.670  29.938  29.306  1.00  0.00     0.031 C 
ATOM     45  C   UNL A   1      37.903  34.204  34.665  1.00  0.00     0.029 A 
ATOM     46  C   UNL A   1      38.979  33.225  34.778  1.00  0.00     0.049 A 
ATOM     47  H   UNL A   1      39.634  31.890  33.317  1.00  0.00     0.167 HD
ATOM     48  C   UNL A   1      40.613  28.824  30.368  1.00  0.00     0.034 A 
ATOM     49  C   UNL A   1      39.743  33.035  35.873  1.00  0.00     0.034 A 
ATOM     50  C   UNL A   1      41.597  28.677  31.408  1.00  0.00     0.049 A 
ATOM     51  C   UNL A   1      40.829  31.995  35.837  1.00  0.00     0.074 A 
ATOM     52  C   UNL A   1      42.682  27.819  31.450  1.00  0.00     0.029 A 
ATOM     53  N   UNL A   1      41.607  29.391  32.597  1.00  0.00    -0.354 N 
ATOM     54  N   UNL A   1      41.172  31.195  34.858  1.00  0.00    -0.248 NA
ATOM     55  C   UNL A   1      41.653  31.853  37.046  1.00  0.00     0.031 C 
ATOM     56  C   UNL A   1      43.329  27.989  32.678  1.00  0.00     0.029 A 
ATOM     57  C   UNL A   1      42.666  28.977  33.389  1.00  0.00     0.049 A 
ATOM     58  H   UNL A   1      40.959  30.090  32.842  1.00  0.00     0.167 HD
ATOM     59  C   UNL A   1      42.267  30.473  35.321  1.00  0.00     0.074 A 
ATOM     60  C   UNL A   1      42.547  30.953  36.658  1.00  0.00     0.031 C 
ATOM     61  C   UNL A   1      42.963  29.488  34.702  1.00  0.00     0.034 A 
BRANCH  48  62
ATOM     62  C   UNL A   1      40.698  27.898  29.182  1.00  0.00     0.023 A 
ATOM     63  C   UNL A   1      39.853  26.772  29.116  1.00  0.00     0.012 A 
ATOM     64  C   UNL A   1      41.554  28.183  28.099  1.00  0.00     0.148 A 
ATOM     65  C   UNL A   1      39.879  25.927  28.008  1.00  0.00     0.002 A 
ATOM     66  C   UNL A   1      41.542  27.360  26.979  1.00  0.00     0.091 A 
ATOM     67  F   UNL A   1      42.363  29.248  28.187  1.00  0.00    -0.205 F 
ATOM     68  C   UNL A   1      40.714  26.227  26.936  1.00  0.00     0.022 A 
BRANCH  66  69
ATOM     69  S   UNL A   1      42.523  27.703  25.513  1.00  0.00     0.127 S 
ATOM     70  O   UNL A   1      41.933  28.958  25.050  1.00  0.00    -0.237 OA
ATOM     71  O   UNL A   1      43.871  27.830  26.068  1.00  0.00    -0.237 OA
ATOM     72  O   UNL A   1      42.335  26.563  24.627  1.00  0.00    -0.744 OA
ENDBRANCH  66  69
ENDBRANCH  48  62
BRANCH  49  73
ATOM     73  C   UNL A   1      39.534  33.881  37.083  1.00  0.00     0.023 A 
ATOM     74  C   UNL A   1      39.968  35.220  37.078  1.00  0.00     0.012 A 
ATOM     75  C   UNL A   1      38.888  33.372  38.228  1.00  0.00     0.148 A 
ATOM     76  C   UNL A   1      39.792  36.029  38.201  1.00  0.00     0.002 A 
ATOM     77  C   UNL A   1      38.662  34.201  39.320  1.00  0.00     0.091 A 
ATOM     78  F   UNL A   1      38.495  32.092  38.219  1.00  0.00    -0.205 F 
ATOM     79  C   UNL A   1      39.131  35.525  39.317  1.00  0.00     0.022 A 
BRANCH  77  80
ATOM     80  S   UNL A   1      37.695  33.678  40.740  1.00  0.00     0.127 S 
ATOM     81  O   UNL A   1      38.619  32.772  41.415  1.00  0.00    -0.237 OA
ATOM     82  O   UNL A   1      37.460  34.947  41.429  1.00  0.00    -0.237 OA
ATOM     83  O   UNL A   1      36.493  33.066  40.189  1.00  0.00    -0.744 OA
ENDBRANCH  77  80
ENDBRANCH  49  73
BRANCH  61  84
ATOM     84  C   UNL A   1      44.112  28.867  35.455  1.00  0.00     0.023 A 
ATOM     85  C   UNL A   1      45.417  29.369  35.274  1.00  0.00     0.012 A 
ATOM     86  C   UNL A   1      43.892  27.834  36.385  1.00  0.00     0.148 A 
ATOM     87  C   UNL A   1      46.488  28.830  35.985  1.00  0.00     0.002 A 
ATOM     88  C   UNL A   1      44.957  27.335  37.128  1.00  0.00     0.091 A 
ATOM     89  F   UNL A   1      42.647  27.358  36.531  1.00  0.00    -0.205 F 
ATOM     90  C   UNL A   1      46.257  27.823  36.919  1.00  0.00     0.022 A 
BRANCH  88  91
ATOM     91  S   UNL A   1      44.744  26.104  38.418  1.00  0.00     0.127 S 
ATOM     92  O   UNL A   1      43.874  25.130  37.760  1.00  0.00    -0.237 OA
ATOM     93  O   UNL A   1      46.115  25.646  38.639  1.00  0.00    -0.237 OA
ATOM     94  O   UNL A   1      44.150  26.805  39.549  1.00  0.00    -0.744 OA
ENDBRANCH  88  91
ENDBRANCH  61  84
ENDBRANCH  35  36
ENDBRANCH  27  30
ENDBRANCH  25  26
ENDBRANCH  24  25
ENDBRANCH   1  24
TORSDOF 18
ENDMDL
MODEL 2
REMARK VINA RESULT:     -11.6      6.136     11.081
REMARK SMILES [NH3+][C@@]1(C(=O)NCCCNC(=O)c2ccc(-c3c4nc(c(-c5cccc(S(=O)(=O)[O-])c5F)c5ccc([nH]5)c(-c5cccc(S(=O)(=O)[O-])c5F)c5nc(c(-c6cccc(S(=O)(=O)[O-])c6F)c6ccc3[nH]6)C=C5)C=C4)cc2)CCC[C@H]1CCOc1ccccc1
REMARK SMILES IDX 6 1 5 2 3 3 4 4 2 6 75 7 78 8 76 9 77 10 1 11 79 15 80 16
REMARK SMILES IDX 81 17 82 18 83 19 87 20 84 21 86 22 85 23 7 24 8 25 9 26
REMARK SMILES IDX 10 27 11 29 12 30 13 31 74 32 14 33 73 34 15 35 16 36 17 37
REMARK SMILES IDX 67 38 18 39 72 40 66 41 68 42 19 43 71 44 65 45 64 46 20 48
REMARK SMILES IDX 52 49 32 50 51 51 33 52 36 53 50 54 69 55 34 56 35 57 49 59
REMARK SMILES IDX 70 60 37 61 21 62 22 63 30 64 23 65 25 66 31 67 24 68 26 69
REMARK SMILES IDX 27 70 28 71 29 72 53 73 54 74 62 75 55 76 57 77 63 78 56 79
REMARK SMILES IDX 58 80 59 81 60 82 61 83 38 84 39 85 47 86 40 87 42 88 48 89
REMARK SMILES IDX 41 90 43 91 44 92 45 93 46 94
REMARK H PARENT 5 5 1 12 1 13 1 14 9 28 68 47 36 58
REMARK Flexibility Score: inf
ROOT
ATOM      1  C   UNL A   1      35.003  22.827  25.616  1.00  0.00     0.118 C 
ENDROOT
BRANCH   1   2
ATOM      2  N   UNL A   1      34.035  23.031  26.676  1.00  0.00    -0.351 N 
ATOM      3  C   UNL A   1      32.706  22.761  26.763  1.00  0.00     0.281 C 
ATOM      4  O   UNL A   1      32.211  22.871  27.898  1.00  0.00    -0.268 OA
ATOM      5  H   UNL A   1      34.413  23.442  27.487  1.00  0.00     0.163 HD
BRANCH   3   6
ATOM      6  C   UNL A   1      31.780  22.332  25.553  1.00  0.00     0.176 C 
ATOM      7  C   UNL A   1      32.068  20.907  25.049  1.00  0.00     0.079 C 
ATOM      8  C   UNL A   1      31.927  23.285  24.336  1.00  0.00     0.064 C 
ATOM      9  C   UNL A   1      32.665  21.001  23.658  1.00  0.00     0.008 C 
ATOM     10  C   UNL A   1      32.415  22.411  23.159  1.00  0.00     0.011 C 
BRANCH   6  11
ATOM     11  N   UNL A   1      30.383  22.304  26.092  1.00  0.00    -0.345 N 
ATOM     12  H   UNL A   1      30.349  21.707  26.918  1.00  0.00     0.345 HD
ATOM     13  H   UNL A   1      29.752  21.937  25.380  1.00  0.00     0.345 HD
ATOM     14  H   UNL A   1      30.097  23.250  26.344  1.00  0.00     0.345 HD
ENDBRANCH   6  11
BRANCH   8  15
ATOM     15  C   UNL A   1      30.674  24.074  23.869  1.00  0.00     0.052 C 
BRANCH  15  16
ATOM     16  C   UNL A   1      30.701  25.601  24.022  1.00  0.00     0.230 C 
BRANCH  16  17
ATOM     17  O   UNL A   1      31.986  26.056  24.460  1.00  0.00    -0.494 OA
BRANCH  17  18
ATOM     18  C   UNL A   1      31.899  27.114  25.317  1.00  0.00     0.119 A 
ATOM     19  C   UNL A   1      31.879  26.941  26.700  1.00  0.00     0.046 A 
ATOM     20  C   UNL A   1      31.758  28.380  24.760  1.00  0.00     0.046 A 
ATOM     21  C   UNL A   1      31.798  28.059  27.531  1.00  0.00     0.004 A 
ATOM     22  C   UNL A   1      31.683  29.496  25.590  1.00  0.00     0.004 A 
ATOM     23  C   UNL A   1      31.719  29.338  26.975  1.00  0.00     0.000 A 
ENDBRANCH  17  18
ENDBRANCH  16  17
ENDBRANCH  15  16
ENDBRANCH   8  15
ENDBRANCH   3   6
ENDBRANCH   1   2
BRANCH   1  24
ATOM     24  C   UNL A   1      35.810  21.540  25.728  1.00  0.00     0.042 C 
BRANCH  24  25
ATOM     25  C   UNL A   1      37.108  21.530  24.930  1.00  0.00     0.118 C 
BRANCH  25  26
ATOM     26  N   UNL A   1      38.019  20.476  25.359  1.00  0.00    -0.352 N 
ATOM     27  C   UNL A   1      39.256  20.562  25.958  1.00  0.00     0.251 C 
ATOM     28  H   UNL A   1      37.701  19.559  25.196  1.00  0.00     0.163 HD
ATOM     29  O   UNL A   1      39.954  19.556  26.045  1.00  0.00    -0.269 OA
BRANCH  27  30
ATOM     30  C   UNL A   1      39.757  21.856  26.478  1.00  0.00     0.039 A 
ATOM     31  C   UNL A   1      40.772  21.851  27.439  1.00  0.00     0.014 A 
ATOM     32  C   UNL A   1      39.218  23.069  26.043  1.00  0.00     0.014 A 
ATOM     33  C   UNL A   1      41.302  23.061  27.899  1.00  0.00     0.010 A 
ATOM     34  C   UNL A   1      39.796  24.272  26.447  1.00  0.00     0.010 A 
ATOM     35  C   UNL A   1      40.850  24.282  27.373  1.00  0.00    -0.014 A 
BRANCH  35  36
ATOM     36  C   UNL A   1      41.503  25.569  27.736  1.00  0.00     0.031 A 
ATOM     37  C   UNL A   1      40.745  26.638  28.475  1.00  0.00     0.074 A 
ATOM     38  C   UNL A   1      42.759  25.812  27.310  1.00  0.00     0.049 A 
ATOM     39  N   UNL A   1      41.139  27.838  28.818  1.00  0.00    -0.248 NA
ATOM     40  C   UNL A   1      39.358  26.331  28.860  1.00  0.00     0.031 C 
ATOM     41  C   UNL A   1      43.574  24.890  26.514  1.00  0.00     0.029 A 
ATOM     42  N   UNL A   1      43.561  26.918  27.456  1.00  0.00    -0.354 N 
ATOM     43  C   UNL A   1      40.044  28.440  29.429  1.00  0.00     0.074 A 
ATOM     44  C   UNL A   1      38.960  27.481  29.385  1.00  0.00     0.031 C 
ATOM     45  C   UNL A   1      44.754  25.468  26.242  1.00  0.00     0.029 A 
ATOM     46  C   UNL A   1      44.770  26.812  26.809  1.00  0.00     0.049 A 
ATOM     47  H   UNL A   1      43.294  27.712  27.974  1.00  0.00     0.167 HD
ATOM     48  C   UNL A   1      39.955  29.668  29.994  1.00  0.00     0.034 A 
ATOM     49  C   UNL A   1      45.776  27.700  26.672  1.00  0.00     0.034 A 
ATOM     50  C   UNL A   1      41.044  30.606  30.066  1.00  0.00     0.049 A 
ATOM     51  C   UNL A   1      45.657  29.048  27.329  1.00  0.00     0.074 A 
ATOM     52  C   UNL A   1      41.081  31.833  30.707  1.00  0.00     0.029 A 
ATOM     53  N   UNL A   1      42.281  30.434  29.463  1.00  0.00    -0.354 N 
ATOM     54  N   UNL A   1      44.678  29.529  28.054  1.00  0.00    -0.248 NA
ATOM     55  C   UNL A   1      46.797  29.964  27.174  1.00  0.00     0.031 C 
ATOM     56  C   UNL A   1      42.328  32.418  30.464  1.00  0.00     0.029 A 
ATOM     57  C   UNL A   1      43.080  31.542  29.698  1.00  0.00     0.049 A 
ATOM     58  H   UNL A   1      42.552  29.642  28.946  1.00  0.00     0.167 HD
ATOM     59  C   UNL A   1      45.091  30.791  28.463  1.00  0.00     0.074 A 
ATOM     60  C   UNL A   1      46.423  30.987  27.931  1.00  0.00     0.031 C 
ATOM     61  C   UNL A   1      44.420  31.712  29.198  1.00  0.00     0.034 A 
BRANCH  48  62
ATOM     62  C   UNL A   1      38.645  30.058  30.629  1.00  0.00     0.023 A 
ATOM     63  C   UNL A   1      38.392  29.712  31.972  1.00  0.00     0.012 A 
ATOM     64  C   UNL A   1      37.701  30.833  29.927  1.00  0.00     0.148 A 
ATOM     65  C   UNL A   1      37.210  30.103  32.597  1.00  0.00     0.002 A 
ATOM     66  C   UNL A   1      36.543  31.256  30.571  1.00  0.00     0.091 A 
ATOM     67  F   UNL A   1      37.950  31.138  28.646  1.00  0.00    -0.205 F 
ATOM     68  C   UNL A   1      36.291  30.883  31.901  1.00  0.00     0.022 A 
BRANCH  66  69
ATOM     69  S   UNL A   1      35.334  32.330  29.788  1.00  0.00     0.127 S 
ATOM     70  O   UNL A   1      34.824  31.470  28.720  1.00  0.00    -0.237 OA
ATOM     71  O   UNL A   1      34.389  32.573  30.878  1.00  0.00    -0.237 OA
ATOM     72  O   UNL A   1      36.067  33.506  29.344  1.00  0.00    -0.744 OA
ENDBRANCH  66  69
ENDBRANCH  48  62
BRANCH  49  73
ATOM     73  C   UNL A   1      47.004  27.324  25.913  1.00  0.00     0.023 A 
ATOM     74  C   UNL A   1      48.011  26.574  26.550  1.00  0.00     0.012 A 
ATOM     75  C   UNL A   1      47.166  27.684  24.561  1.00  0.00     0.148 A 
ATOM     76  C   UNL A   1      49.173  26.218  25.865  1.00  0.00     0.002 A 
ATOM     77  C   UNL A   1      48.298  27.274  23.867  1.00  0.00     0.091 A 
ATOM     78  F   UNL A   1      46.203  28.409  23.977  1.00  0.00    -0.205 F 
ATOM     79  C   UNL A   1      49.312  26.557  24.522  1.00  0.00     0.022 A 
BRANCH  77  80
ATOM     80  S   UNL A   1      48.495  27.544  22.102  1.00  0.00     0.127 S 
ATOM     81  O   UNL A   1      49.660  28.421  22.061  1.00  0.00    -0.237 OA
ATOM     82  O   UNL A   1      48.727  26.184  21.614  1.00  0.00    -0.237 OA
ATOM     83  O   UNL A   1      47.238  28.132  21.656  1.00  0.00    -0.744 OA
ENDBRANCH  77  80
ENDBRANCH  49  73
BRANCH  61  84
ATOM     84  C   UNL A   1      45.117  33.017  29.488  1.00  0.00     0.023 A 
ATOM     85  C   UNL A   1      45.912  33.141  30.644  1.00  0.00     0.012 A 
ATOM     86  C   UNL A   1      45.037  34.094  28.585  1.00  0.00     0.148 A 
ATOM     87  C   UNL A   1      46.592  34.329  30.913  1.00  0.00     0.002 A 
ATOM     88  C   UNL A   1      45.757  35.258  28.834  1.00  0.00     0.091 A 
ATOM     89  F   UNL A   1      44.261  33.964  27.499  1.00  0.00    -0.205 F 
ATOM     90  C   UNL A   1      46.523  35.381  30.003  1.00  0.00     0.022 A 
BRANCH  88  91
ATOM     91  S   UNL A   1      45.805  36.631  27.677  1.00  0.00     0.127 S 
ATOM     92  O   UNL A   1      44.412  37.074  27.681  1.00  0.00    -0.237 OA
ATOM     93  O   UNL A   1      46.741  37.550  28.326  1.00  0.00    -0.237 OA
ATOM     94  O   UNL A   1      46.279  36.078  26.415  1.00  0.00    -0.744 OA
ENDBRANCH  88  91
ENDBRANCH  61  84
ENDBRANCH  35  36
ENDBRANCH  27  30
ENDBRANCH  25  26
ENDBRANCH  24  25
ENDBRANCH   1  24
TORSDOF 18
ENDMDL
MODEL 3
REMARK VINA RESULT:     -11.5      5.939      8.711
REMARK SMILES [NH3+][C@@]1(C(=O)NCCCNC(=O)c2ccc(-c3c4nc(c(-c5cccc(S(=O)(=O)[O-])c5F)c5ccc([nH]5)c(-c5cccc(S(=O)(=O)[O-])c5F)c5nc(c(-c6cccc(S(=O)(=O)[O-])c6F)c6ccc3[nH]6)C=C5)C=C4)cc2)CCC[C@H]1CCOc1ccccc1
REMARK SMILES IDX 6 1 5 2 3 3 4 4 2 6 75 7 78 8 76 9 77 10 1 11 79 15 80 16
REMARK SMILES IDX 81 17 82 18 83 19 87 20 84 21 86 22 85 23 7 24 8 25 9 26
REMARK SMILES IDX 10 27 11 29 12 30 13 31 74 32 14 33 73 34 15 35 16 36 17 37
REMARK SMILES IDX 67 38 18 39 72 40 66 41 68 42 19 43 71 44 65 45 64 46 20 48
REMARK SMILES IDX 52 49 32 50 51 51 33 52 36 53 50 54 69 55 34 56 35 57 49 59
REMARK SMILES IDX 70 60 37 61 21 62 22 63 30 64 23 65 25 66 31 67 24 68 26 69
REMARK SMILES IDX 27 70 28 71 29 72 53 73 54 74 62 75 55 76 57 77 63 78 56 79
REMARK SMILES IDX 58 80 59 81 60 82 61 83 38 84 39 85 47 86 40 87 42 88 48 89
REMARK SMILES IDX 41 90 43 91 44 92 45 93 46 94
REMARK H PARENT 5 5 1 12 1 13 1 14 9 28 68 47 36 58
REMARK Flexibility Score: inf
ROOT
ATOM      1  C   UNL A   1      34.751  22.154  24.315  1.00  0.00     0.118 C 
ENDROOT
BRANCH   1   2
ATOM      2  N   UNL A   1      34.224  22.567  23.030  1.00  0.00    -0.351 N 
ATOM      3  C   UNL A   1      33.538  23.673  22.637  1.00  0.00     0.281 C 
ATOM      4  O   UNL A   1      33.413  23.817  21.409  1.00  0.00    -0.268 OA
ATOM      5  H   UNL A   1      34.395  21.924  22.304  1.00  0.00     0.163 HD
BRANCH   3   6
ATOM      6  C   UNL A   1      32.911  24.752  23.611  1.00  0.00     0.176 C 
ATOM      7  C   UNL A   1      33.949  25.746  24.159  1.00  0.00     0.079 C 
ATOM      8  C   UNL A   1      32.211  24.101  24.835  1.00  0.00     0.064 C 
ATOM      9  C   UNL A   1      34.106  25.504  25.648  1.00  0.00     0.008 C 
ATOM     10  C   UNL A   1      32.937  24.642  26.086  1.00  0.00     0.011 C 
BRANCH   6  11
ATOM     11  N   UNL A   1      31.967  25.561  22.776  1.00  0.00    -0.345 N 
ATOM     12  H   UNL A   1      31.682  26.392  23.294  1.00  0.00     0.345 HD
ATOM     13  H   UNL A   1      31.145  25.001  22.553  1.00  0.00     0.345 HD
ATOM     14  H   UNL A   1      32.432  25.842  21.913  1.00  0.00     0.345 HD
ENDBRANCH   6  11
BRANCH   8  15
ATOM     15  C   UNL A   1      30.687  24.335  25.016  1.00  0.00     0.052 C 
BRANCH  15  16
ATOM     16  C   UNL A   1      30.249  25.594  25.775  1.00  0.00     0.230 C 
BRANCH  16  17
ATOM     17  O   UNL A   1      30.382  26.764  24.961  1.00  0.00    -0.494 OA
BRANCH  17  18
ATOM     18  C   UNL A   1      31.116  27.740  25.569  1.00  0.00     0.119 A 
ATOM     19  C   UNL A   1      31.424  27.692  26.927  1.00  0.00     0.046 A 
ATOM     20  C   UNL A   1      31.493  28.834  24.797  1.00  0.00     0.046 A 
ATOM     21  C   UNL A   1      32.187  28.713  27.496  1.00  0.00     0.004 A 
ATOM     22  C   UNL A   1      32.259  29.849  25.363  1.00  0.00     0.004 A 
ATOM     23  C   UNL A   1      32.620  29.782  26.709  1.00  0.00     0.000 A 
ENDBRANCH  17  18
ENDBRANCH  16  17
ENDBRANCH  15  16
ENDBRANCH   8  15
ENDBRANCH   3   6
ENDBRANCH   1   2
BRANCH   1  24
ATOM     24  C   UNL A   1      36.267  22.019  24.370  1.00  0.00     0.042 C 
BRANCH  24  25
ATOM     25  C   UNL A   1      36.864  22.079  25.771  1.00  0.00     0.118 C 
BRANCH  25  26
ATOM     26  N   UNL A   1      37.988  21.166  25.939  1.00  0.00    -0.352 N 
ATOM     27  C   UNL A   1      39.300  21.425  26.262  1.00  0.00     0.251 C 
ATOM     28  H   UNL A   1      37.775  20.215  25.801  1.00  0.00     0.163 HD
ATOM     29  O   UNL A   1      40.137  20.534  26.146  1.00  0.00    -0.269 OA
BRANCH  27  30
ATOM     30  C   UNL A   1      39.715  22.768  26.729  1.00  0.00     0.039 A 
ATOM     31  C   UNL A   1      40.684  22.867  27.732  1.00  0.00     0.014 A 
ATOM     32  C   UNL A   1      39.138  23.927  26.204  1.00  0.00     0.014 A 
ATOM     33  C   UNL A   1      41.134  24.126  28.145  1.00  0.00     0.010 A 
ATOM     34  C   UNL A   1      39.639  25.178  26.563  1.00  0.00     0.010 A 
ATOM     35  C   UNL A   1      40.647  25.293  27.531  1.00  0.00    -0.014 A 
BRANCH  35  36
ATOM     36  C   UNL A   1      41.220  26.628  27.848  1.00  0.00     0.031 A 
ATOM     37  C   UNL A   1      42.663  26.940  27.555  1.00  0.00     0.074 A 
ATOM     38  C   UNL A   1      40.458  27.534  28.495  1.00  0.00     0.049 A 
ATOM     39  N   UNL A   1      43.340  28.027  27.819  1.00  0.00    -0.248 NA
ATOM     40  C   UNL A   1      43.455  25.886  26.900  1.00  0.00     0.031 C 
ATOM     41  C   UNL A   1      39.068  27.325  28.910  1.00  0.00     0.029 A 
ATOM     42  N   UNL A   1      40.751  28.798  28.947  1.00  0.00    -0.354 N 
ATOM     43  C   UNL A   1      44.641  27.781  27.395  1.00  0.00     0.074 A 
ATOM     44  C   UNL A   1      44.665  26.428  26.880  1.00  0.00     0.031 C 
ATOM     45  C   UNL A   1      38.632  28.419  29.555  1.00  0.00     0.029 A 
ATOM     46  C   UNL A   1      39.717  29.392  29.633  1.00  0.00     0.049 A 
ATOM     47  H   UNL A   1      41.619  29.236  28.795  1.00  0.00     0.167 HD
ATOM     48  C   UNL A   1      45.712  28.611  27.412  1.00  0.00     0.034 A 
ATOM     49  C   UNL A   1      39.650  30.578  30.269  1.00  0.00     0.034 A 
ATOM     50  C   UNL A   1      45.678  29.966  27.894  1.00  0.00     0.049 A 
ATOM     51  C   UNL A   1      40.848  31.488  30.253  1.00  0.00     0.074 A 
ATOM     52  C   UNL A   1      46.684  30.916  27.859  1.00  0.00     0.029 A 
ATOM     53  N   UNL A   1      44.590  30.560  28.516  1.00  0.00    -0.354 N 
ATOM     54  N   UNL A   1      42.016  31.302  29.688  1.00  0.00    -0.248 NA
ATOM     55  C   UNL A   1      40.709  32.783  30.934  1.00  0.00     0.031 C 
ATOM     56  C   UNL A   1      46.216  32.074  28.489  1.00  0.00     0.029 A 
ATOM     57  C   UNL A   1      44.908  31.856  28.889  1.00  0.00     0.049 A 
ATOM     58  H   UNL A   1      43.721  30.125  28.668  1.00  0.00     0.167 HD
ATOM     59  C   UNL A   1      42.741  32.464  29.923  1.00  0.00     0.074 A 
ATOM     60  C   UNL A   1      41.870  33.360  30.654  1.00  0.00     0.031 C 
ATOM     61  C   UNL A   1      44.021  32.755  29.581  1.00  0.00     0.034 A 
BRANCH  48  62
ATOM     62  C   UNL A   1      47.011  28.096  26.846  1.00  0.00     0.023 A 
ATOM     63  C   UNL A   1      47.999  27.595  27.718  1.00  0.00     0.012 A 
ATOM     64  C   UNL A   1      47.223  28.034  25.455  1.00  0.00     0.148 A 
ATOM     65  C   UNL A   1      49.189  27.070  27.217  1.00  0.00     0.002 A 
ATOM     66  C   UNL A   1      48.393  27.469  24.962  1.00  0.00     0.091 A 
ATOM     67  F   UNL A   1      46.280  28.531  24.642  1.00  0.00    -0.205 F 
ATOM     68  C   UNL A   1      49.382  26.996  25.841  1.00  0.00     0.022 A 
BRANCH  66  69
ATOM     69  S   UNL A   1      48.704  27.255  23.205  1.00  0.00     0.127 S 
ATOM     70  O   UNL A   1      50.156  27.415  23.140  1.00  0.00    -0.237 OA
ATOM     71  O   UNL A   1      48.230  25.890  22.973  1.00  0.00    -0.237 OA
ATOM     72  O   UNL A   1      47.933  28.289  22.531  1.00  0.00    -0.744 OA
ENDBRANCH  66  69
ENDBRANCH  48  62
BRANCH  49  73
ATOM     73  C   UNL A   1      38.384  30.994  30.941  1.00  0.00     0.023 A 
ATOM     74  C   UNL A   1      38.222  30.766  32.320  1.00  0.00     0.012 A 
ATOM     75  C   UNL A   1      37.354  31.634  30.225  1.00  0.00     0.148 A 
ATOM     76  C   UNL A   1      37.044  31.137  32.969  1.00  0.00     0.002 A 
ATOM     77  C   UNL A   1      36.208  32.055  30.889  1.00  0.00     0.091 A 
ATOM     78  F   UNL A   1      37.520  31.830  28.910  1.00  0.00    -0.205 F 
ATOM     79  C   UNL A   1      36.043  31.790  32.258  1.00  0.00     0.022 A 
BRANCH  77  80
ATOM     80  S   UNL A   1      34.932  33.029  30.082  1.00  0.00     0.127 S 
ATOM     81  O   UNL A   1      34.382  32.071  29.128  1.00  0.00    -0.237 OA
ATOM     82  O   UNL A   1      34.052  33.359  31.204  1.00  0.00    -0.237 OA
ATOM     83  O   UNL A   1      35.623  34.177  29.507  1.00  0.00    -0.744 OA
ENDBRANCH  77  80
ENDBRANCH  49  73
BRANCH  61  84
ATOM     84  C   UNL A   1      44.559  34.107  29.977  1.00  0.00     0.023 A 
ATOM     85  C   UNL A   1      45.178  34.271  31.232  1.00  0.00     0.012 A 
ATOM     86  C   UNL A   1      44.510  35.193  29.083  1.00  0.00     0.148 A 
ATOM     87  C   UNL A   1      45.712  35.504  31.604  1.00  0.00     0.002 A 
ATOM     88  C   UNL A   1      45.088  36.407  29.440  1.00  0.00     0.091 A 
ATOM     89  F   UNL A   1      43.902  35.023  27.900  1.00  0.00    -0.205 F 
ATOM     90  C   UNL A   1      45.677  36.567  30.704  1.00  0.00     0.022 A 
BRANCH  88  91
ATOM     91  S   UNL A   1      45.176  37.804  28.315  1.00  0.00     0.127 S 
ATOM     92  O   UNL A   1      43.761  38.118  28.119  1.00  0.00    -0.237 OA
ATOM     93  O   UNL A   1      45.916  38.790  29.103  1.00  0.00    -0.237 OA
ATOM     94  O   UNL A   1      45.877  37.325  27.132  1.00  0.00    -0.744 OA
ENDBRANCH  88  91
ENDBRANCH  61  84
ENDBRANCH  35  36
ENDBRANCH  27  30
ENDBRANCH  25  26
ENDBRANCH  24  25
ENDBRANCH   1  24
TORSDOF 18
ENDMDL
