MODEL 1
REMARK VINA RESULT:     -12.5      0.000      0.000
REMARK SMILES O=C(NCCCNC(=O)c1sccc1S(=O)(=O)Nc1ccc(Cn2cncn2)cc1)c1ccc(-c2c3nc(c(-c4cccc(S(=O)(=O)[O-])c4F)c4ccc([nH]4)c(-c4cccc(S(=O)(=O)[O-])c4F)c4nc(c(-c5cccc(S(=O)(=O)[O-])c5F)c5ccc2[nH]5)C=C4)C=C3)cc1
REMARK SMILES IDX 6 1 5 2 4 3 3 4 1 5 2 6 31 8 32 9 93 10 33 11 92 12 34 13
REMARK SMILES IDX 35 14 36 15 86 16 37 17 91 18 85 19 87 20 38 21 90 22 84 23
REMARK SMILES IDX 83 24 39 26 71 27 51 28 70 29 52 30 55 31 69 32 88 33 53 34
REMARK SMILES IDX 54 35 68 37 89 38 56 39 40 40 41 41 49 42 42 43 44 44 50 45
REMARK SMILES IDX 43 46 45 47 46 48 47 49 48 50 72 51 73 52 81 53 74 54 76 55
REMARK SMILES IDX 82 56 75 57 77 58 78 59 79 60 80 61 57 62 58 63 66 64 59 65
REMARK SMILES IDX 61 66 67 67 60 68 62 69 63 70 64 71 65 72 7 73 8 74 9 76
REMARK SMILES IDX 10 77 11 78 14 79 12 80 13 81 15 82 16 83 17 84 18 85 19 87
REMARK SMILES IDX 20 88 30 89 21 90 29 91 22 92 23 93 24 94 25 95 28 96 26 97
REMARK SMILES IDX 27 98
REMARK H PARENT 3 7 87 25 55 36 7 75 18 86
REMARK Flexibility Score: inf
ROOT
ATOM      1  C   UNL A   1      32.391  30.002  26.020  1.00  0.00     0.118 C 
ENDROOT
BRANCH   1   2
ATOM      2  C   UNL A   1      33.412  29.712  27.117  1.00  0.00     0.042 C 
BRANCH   2   3
ATOM      3  C   UNL A   1      34.472  30.804  27.326  1.00  0.00     0.118 C 
BRANCH   3   4
ATOM      4  N   UNL A   1      34.469  31.470  28.613  1.00  0.00    -0.352 N 
ATOM      5  O   UNL A   1      35.071  32.355  30.547  1.00  0.00    -0.269 OA
ATOM      6  C   UNL A   1      35.387  31.609  29.621  1.00  0.00     0.251 C 
ATOM      7  H   UNL A   1      33.618  31.925  28.808  1.00  0.00     0.163 HD
BRANCH   6   8
ATOM      8  C   UNL A   1      36.674  30.871  29.676  1.00  0.00     0.039 A 
ATOM      9  C   UNL A   1      36.775  29.485  29.784  1.00  0.00     0.014 A 
ATOM     10  C   UNL A   1      37.852  31.636  29.626  1.00  0.00     0.014 A 
ATOM     11  C   UNL A   1      38.006  28.884  29.986  1.00  0.00     0.010 A 
ATOM     12  C   UNL A   1      39.097  31.031  29.769  1.00  0.00     0.010 A 
ATOM     13  C   UNL A   1      39.166  29.658  29.993  1.00  0.00    -0.014 A 
BRANCH  13  14
ATOM     14  C   UNL A   1      40.425  28.934  30.118  1.00  0.00     0.031 A 
ATOM     15  C   UNL A   1      40.953  28.789  31.505  1.00  0.00     0.074 A 
ATOM     16  C   UNL A   1      41.046  28.326  29.092  1.00  0.00     0.049 A 
ATOM     17  N   UNL A   1      42.085  29.200  31.981  1.00  0.00    -0.248 NA
ATOM     18  C   UNL A   1      40.066  28.172  32.501  1.00  0.00     0.031 C 
ATOM     19  C   UNL A   1      40.518  28.078  27.751  1.00  0.00     0.029 A 
ATOM     20  N   UNL A   1      42.237  27.659  29.099  1.00  0.00    -0.354 N 
ATOM     21  C   UNL A   1      42.136  28.724  33.292  1.00  0.00     0.074 A 
ATOM     22  C   UNL A   1      40.823  28.213  33.596  1.00  0.00     0.031 C 
ATOM     23  C   UNL A   1      41.249  27.100  27.174  1.00  0.00     0.029 A 
ATOM     24  C   UNL A   1      42.357  26.760  28.050  1.00  0.00     0.049 A 
ATOM     25  H   UNL A   1      42.937  27.801  29.776  1.00  0.00     0.167 HD
ATOM     26  C   UNL A   1      43.298  28.610  33.990  1.00  0.00     0.034 A 
ATOM     27  C   UNL A   1      43.240  25.737  27.966  1.00  0.00     0.034 A 
ATOM     28  C   UNL A   1      44.381  29.335  33.391  1.00  0.00     0.049 A 
ATOM     29  C   UNL A   1      44.350  25.997  28.909  1.00  0.00     0.074 A 
ATOM     30  C   UNL A   1      44.642  30.655  33.088  1.00  0.00     0.029 A 
ATOM     31  N   UNL A   1      45.345  28.602  32.746  1.00  0.00    -0.354 N 
ATOM     32  N   UNL A   1      45.239  26.939  28.758  1.00  0.00    -0.248 NA
ATOM     33  C   UNL A   1      44.297  25.396  30.232  1.00  0.00     0.031 C 
ATOM     34  C   UNL A   1      45.468  30.614  31.928  1.00  0.00     0.029 A 
ATOM     35  C   UNL A   1      45.654  29.271  31.594  1.00  0.00     0.049 A 
ATOM     36  H   UNL A   1      45.740  27.754  33.054  1.00  0.00     0.167 HD
ATOM     37  C   UNL A   1      45.557  27.333  30.051  1.00  0.00     0.074 A 
ATOM     38  C   UNL A   1      45.063  26.257  30.903  1.00  0.00     0.031 C 
ATOM     39  C   UNL A   1      45.924  28.619  30.330  1.00  0.00     0.034 A 
BRANCH  26  40
ATOM     40  C   UNL A   1      43.555  27.595  35.076  1.00  0.00     0.023 A 
ATOM     41  C   UNL A   1      43.847  28.076  36.373  1.00  0.00     0.012 A 
ATOM     42  C   UNL A   1      43.784  26.223  34.833  1.00  0.00     0.148 A 
ATOM     43  C   UNL A   1      44.371  27.240  37.365  1.00  0.00     0.002 A 
ATOM     44  C   UNL A   1      44.223  25.380  35.848  1.00  0.00     0.091 A 
ATOM     45  F   UNL A   1      43.709  25.746  33.584  1.00  0.00    -0.205 F 
ATOM     46  C   UNL A   1      44.546  25.887  37.107  1.00  0.00     0.022 A 
BRANCH  44  47
ATOM     47  S   UNL A   1      44.381  23.614  35.569  1.00  0.00     0.127 S 
ATOM     48  O   UNL A   1      43.020  23.251  35.187  1.00  0.00    -0.237 OA
ATOM     49  O   UNL A   1      45.363  23.558  34.486  1.00  0.00    -0.237 OA
ATOM     50  O   UNL A   1      44.868  23.082  36.837  1.00  0.00    -0.744 OA
ENDBRANCH  44  47
ENDBRANCH  26  40
BRANCH  27  51
ATOM     51  C   UNL A   1      43.079  24.439  27.277  1.00  0.00     0.023 A 
ATOM     52  C   UNL A   1      41.819  23.813  27.257  1.00  0.00     0.012 A 
ATOM     53  C   UNL A   1      44.098  23.922  26.445  1.00  0.00     0.148 A 
ATOM     54  C   UNL A   1      41.578  22.715  26.425  1.00  0.00     0.002 A 
ATOM     55  C   UNL A   1      43.860  22.817  25.637  1.00  0.00     0.091 A 
ATOM     56  F   UNL A   1      45.269  24.569  26.375  1.00  0.00    -0.205 F 
ATOM     57  C   UNL A   1      42.596  22.215  25.615  1.00  0.00     0.022 A 
BRANCH  55  58
ATOM     58  S   UNL A   1      45.138  22.123  24.579  1.00  0.00     0.127 S 
ATOM     59  O   UNL A   1      44.499  20.903  24.086  1.00  0.00    -0.237 OA
ATOM     60  O   UNL A   1      45.307  23.173  23.579  1.00  0.00    -0.237 OA
ATOM     61  O   UNL A   1      46.280  21.883  25.453  1.00  0.00    -0.744 OA
ENDBRANCH  55  58
ENDBRANCH  27  51
BRANCH  39  62
ATOM     62  C   UNL A   1      46.296  29.527  29.185  1.00  0.00     0.023 A 
ATOM     63  C   UNL A   1      47.584  29.498  28.611  1.00  0.00     0.012 A 
ATOM     64  C   UNL A   1      45.289  30.278  28.552  1.00  0.00     0.148 A 
ATOM     65  C   UNL A   1      47.871  30.225  27.454  1.00  0.00     0.002 A 
ATOM     66  C   UNL A   1      45.565  30.960  27.372  1.00  0.00     0.091 A 
ATOM     67  F   UNL A   1      44.062  30.290  29.099  1.00  0.00    -0.205 F 
ATOM     68  C   UNL A   1      46.858  30.946  26.827  1.00  0.00     0.022 A 
BRANCH  66  69
ATOM     69  S   UNL A   1      44.270  31.780  26.438  1.00  0.00     0.127 S 
ATOM     70  O   UNL A   1      43.821  32.811  27.371  1.00  0.00    -0.237 OA
ATOM     71  O   UNL A   1      44.991  32.288  25.269  1.00  0.00    -0.237 OA
ATOM     72  O   UNL A   1      43.294  30.743  26.123  1.00  0.00    -0.744 OA
ENDBRANCH  66  69
ENDBRANCH  39  62
ENDBRANCH  13  14
ENDBRANCH   6   8
ENDBRANCH   3   4
ENDBRANCH   2   3
ENDBRANCH   1   2
BRANCH   1  73
ATOM     73  N   UNL A   1      32.943  29.746  24.705  1.00  0.00    -0.351 N 
ATOM     74  C   UNL A   1      32.599  28.842  23.746  1.00  0.00     0.262 C 
ATOM     75  H   UNL A   1      33.700  30.327  24.463  1.00  0.00     0.163 HD
ATOM     76  O   UNL A   1      33.363  28.778  22.778  1.00  0.00    -0.268 OA
BRANCH  74  77
ATOM     77  C   UNL A   1      31.465  27.968  23.917  1.00  0.00     0.112 A 
ATOM     78  S   UNL A   1      30.118  28.383  22.903  1.00  0.00    -0.137 S 
ATOM     79  C   UNL A   1      31.151  26.906  24.748  1.00  0.00     0.111 A 
ATOM     80  C   UNL A   1      29.168  27.108  23.494  1.00  0.00     0.067 A 
ATOM     81  C   UNL A   1      29.831  26.393  24.458  1.00  0.00     0.035 A 
BRANCH  79  82
ATOM     82  S   UNL A   1      32.035  26.140  26.033  1.00  0.00     0.263 S 
ATOM     83  O   UNL A   1      33.398  26.553  25.763  1.00  0.00    -0.201 OA
ATOM     84  O   UNL A   1      31.339  26.621  27.207  1.00  0.00    -0.201 OA
BRANCH  82  85
ATOM     85  N   UNL A   1      32.039  24.495  26.184  1.00  0.00    -0.280 N 
ATOM     86  H   UNL A   1      31.245  24.093  26.604  1.00  0.00     0.180 HD
BRANCH  85  87
ATOM     87  C   UNL A   1      33.052  23.607  25.778  1.00  0.00     0.049 A 
ATOM     88  C   UNL A   1      33.719  22.948  26.811  1.00  0.00     0.027 A 
ATOM     89  C   UNL A   1      33.326  23.284  24.457  1.00  0.00     0.027 A 
ATOM     90  C   UNL A   1      34.460  21.803  26.547  1.00  0.00     0.008 A 
ATOM     91  C   UNL A   1      34.095  22.148  24.185  1.00  0.00     0.008 A 
ATOM     92  C   UNL A   1      34.595  21.349  25.229  1.00  0.00    -0.026 A 
BRANCH  92  93
ATOM     93  C   UNL A   1      35.109  19.959  24.935  1.00  0.00     0.181 C 
BRANCH  93  94
ATOM     94  N   UNL A   1      34.047  18.984  24.789  1.00  0.00    -0.249 N 
ATOM     95  C   UNL A   1      32.793  19.037  25.318  1.00  0.00     0.220 A 
ATOM     96  N   UNL A   1      34.186  17.912  23.986  1.00  0.00    -0.160 NA
ATOM     97  N   UNL A   1      32.104  17.995  24.917  1.00  0.00    -0.224 NA
ATOM     98  C   UNL A   1      32.990  17.334  24.116  1.00  0.00     0.246 A 
ENDBRANCH  93  94
ENDBRANCH  92  93
ENDBRANCH  85  87
ENDBRANCH  82  85
ENDBRANCH  79  82
ENDBRANCH  74  77
ENDBRANCH   1  73
TORSDOF 18
ENDMDL
MODEL 2
REMARK VINA RESULT:     -12.5      3.178      9.467
REMARK SMILES O=C(NCCCNC(=O)c1sccc1S(=O)(=O)Nc1ccc(Cn2cncn2)cc1)c1ccc(-c2c3nc(c(-c4cccc(S(=O)(=O)[O-])c4F)c4ccc([nH]4)c(-c4cccc(S(=O)(=O)[O-])c4F)c4nc(c(-c5cccc(S(=O)(=O)[O-])c5F)c5ccc2[nH]5)C=C4)C=C3)cc1
REMARK SMILES IDX 6 1 5 2 4 3 3 4 1 5 2 6 31 8 32 9 93 10 33 11 92 12 34 13
REMARK SMILES IDX 35 14 36 15 86 16 37 17 91 18 85 19 87 20 38 21 90 22 84 23
REMARK SMILES IDX 83 24 39 26 71 27 51 28 70 29 52 30 55 31 69 32 88 33 53 34
REMARK SMILES IDX 54 35 68 37 89 38 56 39 40 40 41 41 49 42 42 43 44 44 50 45
REMARK SMILES IDX 43 46 45 47 46 48 47 49 48 50 72 51 73 52 81 53 74 54 76 55
REMARK SMILES IDX 82 56 75 57 77 58 78 59 79 60 80 61 57 62 58 63 66 64 59 65
REMARK SMILES IDX 61 66 67 67 60 68 62 69 63 70 64 71 65 72 7 73 8 74 9 76
REMARK SMILES IDX 10 77 11 78 14 79 12 80 13 81 15 82 16 83 17 84 18 85 19 87
REMARK SMILES IDX 20 88 30 89 21 90 29 91 22 92 23 93 24 94 25 95 28 96 26 97
REMARK SMILES IDX 27 98
REMARK H PARENT 3 7 87 25 55 36 7 75 18 86
REMARK Flexibility Score: inf
ROOT
ATOM      1  C   UNL A   1      36.743  21.967  25.188  1.00  0.00     0.118 C 
ENDROOT
BRANCH   1   2
ATOM      2  C   UNL A   1      38.149  21.427  25.437  1.00  0.00     0.042 C 
BRANCH   2   3
ATOM      3  C   UNL A   1      39.083  22.372  26.209  1.00  0.00     0.118 C 
BRANCH   3   4
ATOM      4  N   UNL A   1      40.504  22.119  26.086  1.00  0.00    -0.352 N 
ATOM      5  O   UNL A   1      42.702  22.192  26.312  1.00  0.00    -0.269 OA
ATOM      6  C   UNL A   1      41.633  22.771  26.507  1.00  0.00     0.251 C 
ATOM      7  H   UNL A   1      40.705  21.292  25.589  1.00  0.00     0.163 HD
BRANCH   6   8
ATOM      8  C   UNL A   1      41.629  24.129  27.106  1.00  0.00     0.039 A 
ATOM      9  C   UNL A   1      42.445  24.515  28.169  1.00  0.00     0.014 A 
ATOM     10  C   UNL A   1      40.732  25.065  26.564  1.00  0.00     0.014 A 
ATOM     11  C   UNL A   1      42.274  25.749  28.774  1.00  0.00     0.010 A 
ATOM     12  C   UNL A   1      40.596  26.328  27.131  1.00  0.00     0.010 A 
ATOM     13  C   UNL A   1      41.339  26.650  28.265  1.00  0.00    -0.014 A 
BRANCH  13  14
ATOM     14  C   UNL A   1      41.290  27.960  28.904  1.00  0.00     0.031 A 
ATOM     15  C   UNL A   1      42.283  28.958  28.413  1.00  0.00     0.074 A 
ATOM     16  C   UNL A   1      40.355  28.322  29.800  1.00  0.00     0.049 A 
ATOM     17  N   UNL A   1      43.204  29.572  29.086  1.00  0.00    -0.248 NA
ATOM     18  C   UNL A   1      42.292  29.244  26.972  1.00  0.00     0.031 C 
ATOM     19  C   UNL A   1      39.126  27.607  30.145  1.00  0.00     0.029 A 
ATOM     20  N   UNL A   1      40.243  29.502  30.477  1.00  0.00    -0.354 N 
ATOM     21  C   UNL A   1      43.787  30.469  28.189  1.00  0.00     0.074 A 
ATOM     22  C   UNL A   1      43.278  30.136  26.883  1.00  0.00     0.031 C 
ATOM     23  C   UNL A   1      38.278  28.472  30.741  1.00  0.00     0.029 A 
ATOM     24  C   UNL A   1      38.955  29.744  30.930  1.00  0.00     0.049 A 
ATOM     25  H   UNL A   1      40.997  30.116  30.628  1.00  0.00     0.167 HD
ATOM     26  C   UNL A   1      44.512  31.547  28.593  1.00  0.00     0.034 A 
ATOM     27  C   UNL A   1      38.454  30.936  31.328  1.00  0.00     0.034 A 
ATOM     28  C   UNL A   1      44.900  31.472  29.972  1.00  0.00     0.049 A 
ATOM     29  C   UNL A   1      39.584  31.833  31.657  1.00  0.00     0.074 A 
ATOM     30  C   UNL A   1      45.661  30.618  30.743  1.00  0.00     0.029 A 
ATOM     31  N   UNL A   1      44.237  32.287  30.855  1.00  0.00    -0.354 N 
ATOM     32  N   UNL A   1      40.369  31.680  32.686  1.00  0.00    -0.248 NA
ATOM     33  C   UNL A   1      40.062  32.756  30.639  1.00  0.00     0.031 C 
ATOM     34  C   UNL A   1      45.077  30.668  32.041  1.00  0.00     0.029 A 
ATOM     35  C   UNL A   1      43.993  31.546  31.979  1.00  0.00     0.049 A 
ATOM     36  H   UNL A   1      43.984  33.227  30.707  1.00  0.00     0.167 HD
ATOM     37  C   UNL A   1      41.605  32.148  32.259  1.00  0.00     0.074 A 
ATOM     38  C   UNL A   1      41.317  32.925  31.058  1.00  0.00     0.031 C 
ATOM     39  C   UNL A   1      42.769  31.624  32.746  1.00  0.00     0.034 A 
BRANCH  26  40
ATOM     40  C   UNL A   1      44.636  32.839  27.824  1.00  0.00     0.023 A 
ATOM     41  C   UNL A   1      45.820  33.054  27.082  1.00  0.00     0.012 A 
ATOM     42  C   UNL A   1      43.780  33.947  28.006  1.00  0.00     0.148 A 
ATOM     43  C   UNL A   1      46.149  34.316  26.576  1.00  0.00     0.002 A 
ATOM     44  C   UNL A   1      44.071  35.178  27.427  1.00  0.00     0.091 A 
ATOM     45  F   UNL A   1      42.746  33.860  28.851  1.00  0.00    -0.205 F 
ATOM     46  C   UNL A   1      45.267  35.376  26.735  1.00  0.00     0.022 A 
BRANCH  44  47
ATOM     47  S   UNL A   1      42.914  36.545  27.547  1.00  0.00     0.127 S 
ATOM     48  O   UNL A   1      43.016  36.896  28.959  1.00  0.00    -0.237 OA
ATOM     49  O   UNL A   1      43.491  37.521  26.622  1.00  0.00    -0.237 OA
ATOM     50  O   UNL A   1      41.641  35.989  27.102  1.00  0.00    -0.744 OA
ENDBRANCH  44  47
ENDBRANCH  26  40
BRANCH  27  51
ATOM     51  C   UNL A   1      37.062  31.425  31.237  1.00  0.00     0.023 A 
ATOM     52  C   UNL A   1      36.376  31.796  32.408  1.00  0.00     0.012 A 
ATOM     53  C   UNL A   1      36.481  31.748  29.989  1.00  0.00     0.148 A 
ATOM     54  C   UNL A   1      35.156  32.477  32.339  1.00  0.00     0.002 A 
ATOM     55  C   UNL A   1      35.258  32.405  29.926  1.00  0.00     0.091 A 
ATOM     56  F   UNL A   1      37.170  31.495  28.868  1.00  0.00    -0.205 F 
ATOM     57  C   UNL A   1      34.596  32.781  31.101  1.00  0.00     0.022 A 
BRANCH  55  58
ATOM     58  S   UNL A   1      34.482  32.815  28.357  1.00  0.00     0.127 S 
ATOM     59  O   UNL A   1      35.597  33.394  27.605  1.00  0.00    -0.237 OA
ATOM     60  O   UNL A   1      34.039  31.506  27.885  1.00  0.00    -0.237 OA
ATOM     61  O   UNL A   1      33.427  33.768  28.680  1.00  0.00    -0.744 OA
ENDBRANCH  55  58
ENDBRANCH  27  51
BRANCH  39  62
ATOM     62  C   UNL A   1      42.709  30.764  33.983  1.00  0.00     0.023 A 
ATOM     63  C   UNL A   1      42.767  31.328  35.275  1.00  0.00     0.012 A 
ATOM     64  C   UNL A   1      42.398  29.398  33.854  1.00  0.00     0.148 A 
ATOM     65  C   UNL A   1      42.553  30.544  36.411  1.00  0.00     0.002 A 
ATOM     66  C   UNL A   1      42.136  28.632  34.984  1.00  0.00     0.091 A 
ATOM     67  F   UNL A   1      42.334  28.874  32.619  1.00  0.00    -0.205 F 
ATOM     68  C   UNL A   1      42.225  29.199  36.265  1.00  0.00     0.022 A 
BRANCH  66  69
ATOM     69  S   UNL A   1      41.561  26.936  34.855  1.00  0.00     0.127 S 
ATOM     70  O   UNL A   1      40.421  27.064  33.950  1.00  0.00    -0.237 OA
ATOM     71  O   UNL A   1      42.721  26.249  34.283  1.00  0.00    -0.237 OA
ATOM     72  O   UNL A   1      41.245  26.523  36.218  1.00  0.00    -0.744 OA
ENDBRANCH  66  69
ENDBRANCH  39  62
ENDBRANCH  13  14
ENDBRANCH   6   8
ENDBRANCH   3   4
ENDBRANCH   2   3
ENDBRANCH   1   2
BRANCH   1  73
ATOM     73  N   UNL A   1      35.861  21.673  26.299  1.00  0.00    -0.351 N 
ATOM     74  C   UNL A   1      34.503  21.698  26.400  1.00  0.00     0.262 C 
ATOM     75  H   UNL A   1      36.326  21.410  27.126  1.00  0.00     0.163 HD
ATOM     76  O   UNL A   1      34.052  21.530  27.538  1.00  0.00    -0.268 OA
BRANCH  74  77
ATOM     77  C   UNL A   1      33.676  21.993  25.257  1.00  0.00     0.112 A 
ATOM     78  S   UNL A   1      33.178  20.576  24.385  1.00  0.00    -0.137 S 
ATOM     79  C   UNL A   1      33.226  23.143  24.631  1.00  0.00     0.111 A 
ATOM     80  C   UNL A   1      32.299  21.478  23.248  1.00  0.00     0.067 A 
ATOM     81  C   UNL A   1      32.394  22.823  23.494  1.00  0.00     0.035 A 
BRANCH  79  82
ATOM     82  S   UNL A   1      33.503  24.825  24.963  1.00  0.00     0.263 S 
ATOM     83  O   UNL A   1      34.671  24.786  25.822  1.00  0.00    -0.201 OA
ATOM     84  O   UNL A   1      33.587  25.386  23.632  1.00  0.00    -0.201 OA
BRANCH  82  85
ATOM     85  N   UNL A   1      32.355  25.729  25.735  1.00  0.00    -0.280 N 
ATOM     86  H   UNL A   1      32.338  25.668  26.717  1.00  0.00     0.180 HD
BRANCH  85  87
ATOM     87  C   UNL A   1      31.399  26.574  25.142  1.00  0.00     0.049 A 
ATOM     88  C   UNL A   1      31.756  27.921  25.070  1.00  0.00     0.027 A 
ATOM     89  C   UNL A   1      30.225  26.134  24.549  1.00  0.00     0.027 A 
ATOM     90  C   UNL A   1      31.089  28.775  24.201  1.00  0.00     0.008 A 
ATOM     91  C   UNL A   1      29.534  26.999  23.695  1.00  0.00     0.008 A 
ATOM     92  C   UNL A   1      30.010  28.299  23.446  1.00  0.00    -0.026 A 
BRANCH  92  93
ATOM     93  C   UNL A   1      29.473  29.087  22.275  1.00  0.00     0.181 C 
BRANCH  93  94
ATOM     94  N   UNL A   1      28.692  30.239  22.680  1.00  0.00    -0.249 N 
ATOM     95  C   UNL A   1      27.506  30.243  23.350  1.00  0.00     0.220 A 
ATOM     96  N   UNL A   1      29.149  31.493  22.501  1.00  0.00    -0.160 NA
ATOM     97  N   UNL A   1      27.140  31.482  23.583  1.00  0.00    -0.224 NA
ATOM     98  C   UNL A   1      28.162  32.208  23.045  1.00  0.00     0.246 A 
ENDBRANCH  93  94
ENDBRANCH  92  93
ENDBRANCH  85  87
ENDBRANCH  82  85
ENDBRANCH  79  82
ENDBRANCH  74  77
ENDBRANCH   1  73
TORSDOF 18
ENDMDL
MODEL 3
REMARK VINA RESULT:     -12.2      1.889      2.288
REMARK SMILES O=C(NCCCNC(=O)c1sccc1S(=O)(=O)Nc1ccc(Cn2cncn2)cc1)c1ccc(-c2c3nc(c(-c4cccc(S(=O)(=O)[O-])c4F)c4ccc([nH]4)c(-c4cccc(S(=O)(=O)[O-])c4F)c4nc(c(-c5cccc(S(=O)(=O)[O-])c5F)c5ccc2[nH]5)C=C4)C=C3)cc1
REMARK SMILES IDX 6 1 5 2 4 3 3 4 1 5 2 6 31 8 32 9 93 10 33 11 92 12 34 13
REMARK SMILES IDX 35 14 36 15 86 16 37 17 91 18 85 19 87 20 38 21 90 22 84 23
REMARK SMILES IDX 83 24 39 26 71 27 51 28 70 29 52 30 55 31 69 32 88 33 53 34
REMARK SMILES IDX 54 35 68 37 89 38 56 39 40 40 41 41 49 42 42 43 44 44 50 45
REMARK SMILES IDX 43 46 45 47 46 48 47 49 48 50 72 51 73 52 81 53 74 54 76 55
REMARK SMILES IDX 82 56 75 57 77 58 78 59 79 60 80 61 57 62 58 63 66 64 59 65
REMARK SMILES IDX 61 66 67 67 60 68 62 69 63 70 64 71 65 72 7 73 8 74 9 76
REMARK SMILES IDX 10 77 11 78 14 79 12 80 13 81 15 82 16 83 17 84 18 85 19 87
REMARK SMILES IDX 20 88 30 89 21 90 29 91 22 92 23 93 24 94 25 95 28 96 26 97
REMARK SMILES IDX 27 98
REMARK H PARENT 3 7 87 25 55 36 7 75 18 86
REMARK Flexibility Score: inf
ROOT
ATOM      1  C   UNL A   1      31.772  29.930  26.003  1.00  0.00     0.118 C 
ENDROOT
BRANCH   1   2
ATOM      2  C   UNL A   1      32.632  29.653  27.233  1.00  0.00     0.042 C 
BRANCH   2   3
ATOM      3  C   UNL A   1      33.956  30.431  27.291  1.00  0.00     0.118 C 
BRANCH   3   4
ATOM      4  N   UNL A   1      34.063  31.449  28.316  1.00  0.00    -0.352 N 
ATOM      5  O   UNL A   1      34.828  32.863  29.834  1.00  0.00    -0.269 OA
ATOM      6  C   UNL A   1      35.069  31.870  29.147  1.00  0.00     0.251 C 
ATOM      7  H   UNL A   1      33.226  31.953  28.445  1.00  0.00     0.163 HD
BRANCH   6   8
ATOM      8  C   UNL A   1      36.366  31.166  29.298  1.00  0.00     0.039 A 
ATOM      9  C   UNL A   1      37.582  31.811  29.521  1.00  0.00     0.014 A 
ATOM     10  C   UNL A   1      36.349  29.765  29.195  1.00  0.00     0.014 A 
ATOM     11  C   UNL A   1      38.770  31.098  29.495  1.00  0.00     0.010 A 
ATOM     12  C   UNL A   1      37.534  29.037  29.228  1.00  0.00     0.010 A 
ATOM     13  C   UNL A   1      38.748  29.713  29.335  1.00  0.00    -0.014 A 
BRANCH  13  14
ATOM     14  C   UNL A   1      40.034  29.032  29.413  1.00  0.00     0.031 A 
ATOM     15  C   UNL A   1      40.587  28.849  30.785  1.00  0.00     0.074 A 
ATOM     16  C   UNL A   1      40.662  28.491  28.354  1.00  0.00     0.049 A 
ATOM     17  N   UNL A   1      41.710  29.283  31.264  1.00  0.00    -0.248 NA
ATOM     18  C   UNL A   1      39.738  28.159  31.766  1.00  0.00     0.031 C 
ATOM     19  C   UNL A   1      40.124  28.279  27.011  1.00  0.00     0.029 A 
ATOM     20  N   UNL A   1      41.877  27.869  28.318  1.00  0.00    -0.354 N 
ATOM     21  C   UNL A   1      41.797  28.754  32.553  1.00  0.00     0.074 A 
ATOM     22  C   UNL A   1      40.509  28.183  32.852  1.00  0.00     0.031 C 
ATOM     23  C   UNL A   1      40.882  27.354  26.384  1.00  0.00     0.029 A 
ATOM     24  C   UNL A   1      42.015  27.019  27.231  1.00  0.00     0.049 A 
ATOM     25  H   UNL A   1      42.580  28.009  28.991  1.00  0.00     0.167 HD
ATOM     26  C   UNL A   1      42.973  28.655  33.230  1.00  0.00     0.034 A 
ATOM     27  C   UNL A   1      42.933  26.035  27.092  1.00  0.00     0.034 A 
ATOM     28  C   UNL A   1      44.019  29.444  32.648  1.00  0.00     0.049 A 
ATOM     29  C   UNL A   1      44.047  26.297  28.031  1.00  0.00     0.074 A 
ATOM     30  C   UNL A   1      44.228  30.785  32.398  1.00  0.00     0.029 A 
ATOM     31  N   UNL A   1      45.001  28.775  31.960  1.00  0.00    -0.354 N 
ATOM     32  N   UNL A   1      44.897  27.277  27.908  1.00  0.00    -0.248 NA
ATOM     33  C   UNL A   1      44.035  25.639  29.328  1.00  0.00     0.031 C 
ATOM     34  C   UNL A   1      45.037  30.823  31.226  1.00  0.00     0.029 A 
ATOM     35  C   UNL A   1      45.268  29.503  30.834  1.00  0.00     0.049 A 
ATOM     36  H   UNL A   1      45.431  27.931  32.228  1.00  0.00     0.167 HD
ATOM     37  C   UNL A   1      45.220  27.628  29.212  1.00  0.00     0.074 A 
ATOM     38  C   UNL A   1      44.779  26.500  30.025  1.00  0.00     0.031 C 
ATOM     39  C   UNL A   1      45.543  28.915  29.540  1.00  0.00     0.034 A 
BRANCH  26  40
ATOM     40  C   UNL A   1      43.283  27.606  34.269  1.00  0.00     0.023 A 
ATOM     41  C   UNL A   1      43.504  28.038  35.598  1.00  0.00     0.012 A 
ATOM     42  C   UNL A   1      43.626  26.272  33.962  1.00  0.00     0.148 A 
ATOM     43  C   UNL A   1      44.068  27.193  36.560  1.00  0.00     0.002 A 
ATOM     44  C   UNL A   1      44.105  25.412  34.944  1.00  0.00     0.091 A 
ATOM     45  F   UNL A   1      43.620  25.858  32.689  1.00  0.00    -0.205 F 
ATOM     46  C   UNL A   1      44.355  25.874  36.237  1.00  0.00     0.022 A 
BRANCH  44  47
ATOM     47  S   UNL A   1      44.410  23.681  34.579  1.00  0.00     0.127 S 
ATOM     48  O   UNL A   1      43.238  23.336  33.782  1.00  0.00    -0.237 OA
ATOM     49  O   UNL A   1      45.669  23.739  33.836  1.00  0.00    -0.237 OA
ATOM     50  O   UNL A   1      44.523  23.043  35.885  1.00  0.00    -0.744 OA
ENDBRANCH  44  47
ENDBRANCH  26  40
BRANCH  27  51
ATOM     51  C   UNL A   1      42.810  24.761  26.352  1.00  0.00     0.023 A 
ATOM     52  C   UNL A   1      43.784  24.415  25.397  1.00  0.00     0.012 A 
ATOM     53  C   UNL A   1      41.873  23.778  26.740  1.00  0.00     0.148 A 
ATOM     54  C   UNL A   1      43.829  23.126  24.854  1.00  0.00     0.002 A 
ATOM     55  C   UNL A   1      41.907  22.506  26.181  1.00  0.00     0.091 A 
ATOM     56  F   UNL A   1      41.006  24.060  27.723  1.00  0.00    -0.205 F 
ATOM     57  C   UNL A   1      42.892  22.171  25.244  1.00  0.00     0.022 A 
BRANCH  55  58
ATOM     58  S   UNL A   1      40.718  21.237  26.639  1.00  0.00     0.127 S 
ATOM     59  O   UNL A   1      41.330  20.029  26.084  1.00  0.00    -0.237 OA
ATOM     60  O   UNL A   1      40.735  21.317  28.097  1.00  0.00    -0.237 OA
ATOM     61  O   UNL A   1      39.469  21.620  25.992  1.00  0.00    -0.744 OA
ENDBRANCH  55  58
ENDBRANCH  27  51
BRANCH  39  62
ATOM     62  C   UNL A   1      45.865  29.882  28.430  1.00  0.00     0.023 A 
ATOM     63  C   UNL A   1      44.851  30.598  27.760  1.00  0.00     0.012 A 
ATOM     64  C   UNL A   1      47.208  30.224  28.187  1.00  0.00     0.148 A 
ATOM     65  C   UNL A   1      45.167  31.604  26.845  1.00  0.00     0.002 A 
ATOM     66  C   UNL A   1      47.517  31.260  27.313  1.00  0.00     0.091 A 
ATOM     67  F   UNL A   1      48.167  29.545  28.839  1.00  0.00    -0.205 F 
ATOM     68  C   UNL A   1      46.499  31.945  26.632  1.00  0.00     0.022 A 
BRANCH  66  69
ATOM     69  S   UNL A   1      49.203  31.845  27.111  1.00  0.00     0.127 S 
ATOM     70  O   UNL A   1      49.032  32.964  26.187  1.00  0.00    -0.237 OA
ATOM     71  O   UNL A   1      49.573  32.231  28.475  1.00  0.00    -0.237 OA
ATOM     72  O   UNL A   1      49.956  30.707  26.596  1.00  0.00    -0.744 OA
ENDBRANCH  66  69
ENDBRANCH  39  62
ENDBRANCH  13  14
ENDBRANCH   6   8
ENDBRANCH   3   4
ENDBRANCH   2   3
ENDBRANCH   1   2
BRANCH   1  73
ATOM     73  N   UNL A   1      32.530  29.761  24.781  1.00  0.00    -0.351 N 
ATOM     74  C   UNL A   1      32.569  28.739  23.880  1.00  0.00     0.262 C 
ATOM     75  H   UNL A   1      33.122  30.517  24.563  1.00  0.00     0.163 HD
ATOM     76  O   UNL A   1      33.435  28.836  23.005  1.00  0.00    -0.268 OA
BRANCH  74  77
ATOM     77  C   UNL A   1      31.707  27.592  24.017  1.00  0.00     0.112 A 
ATOM     78  S   UNL A   1      30.063  27.907  23.553  1.00  0.00    -0.137 S 
ATOM     79  C   UNL A   1      31.847  26.300  24.496  1.00  0.00     0.111 A 
ATOM     80  C   UNL A   1      29.570  26.321  23.895  1.00  0.00     0.067 A 
ATOM     81  C   UNL A   1      30.608  25.566  24.377  1.00  0.00     0.035 A 
BRANCH  79  82
ATOM     82  S   UNL A   1      33.199  25.468  25.202  1.00  0.00     0.263 S 
ATOM     83  O   UNL A   1      34.061  26.560  25.609  1.00  0.00    -0.201 OA
ATOM     84  O   UNL A   1      32.555  24.630  26.191  1.00  0.00    -0.201 OA
BRANCH  82  85
ATOM     85  N   UNL A   1      34.112  24.431  24.295  1.00  0.00    -0.280 N 
ATOM     86  H   UNL A   1      34.944  24.798  23.917  1.00  0.00     0.180 HD
BRANCH  85  87
ATOM     87  C   UNL A   1      33.832  23.084  24.005  1.00  0.00     0.049 A 
ATOM     88  C   UNL A   1      34.585  22.150  24.716  1.00  0.00     0.027 A 
ATOM     89  C   UNL A   1      32.809  22.660  23.169  1.00  0.00     0.027 A 
ATOM     90  C   UNL A   1      34.163  20.829  24.799  1.00  0.00     0.008 A 
ATOM     91  C   UNL A   1      32.398  21.324  23.228  1.00  0.00     0.008 A 
ATOM     92  C   UNL A   1      33.016  20.418  24.109  1.00  0.00    -0.026 A 
BRANCH  92  93
ATOM     93  C   UNL A   1      32.351  19.098  24.422  1.00  0.00     0.181 C 
BRANCH  93  94
ATOM     94  N   UNL A   1      33.175  17.956  24.081  1.00  0.00    -0.249 N 
ATOM     95  C   UNL A   1      33.812  17.108  24.936  1.00  0.00     0.220 A 
ATOM     96  N   UNL A   1      33.316  17.550  22.805  1.00  0.00    -0.160 NA
ATOM     97  N   UNL A   1      34.414  16.165  24.249  1.00  0.00    -0.224 NA
ATOM     98  C   UNL A   1      34.092  16.475  22.960  1.00  0.00     0.246 A 
ENDBRANCH  93  94
ENDBRANCH  92  93
ENDBRANCH  85  87
ENDBRANCH  82  85
ENDBRANCH  79  82
ENDBRANCH  74  77
ENDBRANCH   1  73
TORSDOF 18
ENDMDL
