MODEL 1
REMARK VINA RESULT:     -12.8      0.000      0.000
REMARK SMILES Cc1ccnc(C(=O)c2[nH]c3ccc(F)cc3c2CC(=O)NCCCNC(=O)c2ccc(-c3c4nc(c(-c5cccc(S(=O)(=O)[O-])c5F)c5ccc([nH]5)c(-c5cccc(S(=O)(=O)[O-])c5F)c5nc(c(-c6cccc(S(=O)(=O)[O-])c6F)c6ccc3[nH]6)C=C5)C=C4)cc2)c1
REMARK SMILES IDX 24 1 23 2 22 3 20 4 21 5 19 7 18 8 9 9 10 10 11 11 17 13
REMARK SMILES IDX 12 14 16 15 13 16 14 17 15 18 7 19 8 20 6 21 1 22 2 23 3 24
REMARK SMILES IDX 92 25 4 26 5 27 25 28 26 29 27 30 28 32 29 33 30 34 91 35
REMARK SMILES IDX 31 36 90 37 32 38 33 39 34 40 84 41 35 42 89 43 83 44 85 45
REMARK SMILES IDX 36 46 88 47 82 48 81 49 37 51 69 52 49 53 68 54 50 55 53 56
REMARK SMILES IDX 67 57 86 58 51 59 52 60 66 62 87 63 54 64 38 65 39 66 47 67
REMARK SMILES IDX 40 68 42 69 48 70 41 71 43 72 44 73 45 74 46 75 70 76 71 77
REMARK SMILES IDX 79 78 72 79 74 80 80 81 73 82 75 83 76 84 77 85 78 86 55 87
REMARK SMILES IDX 56 88 64 89 57 90 59 91 65 92 58 93 60 94 61 95 62 96 63 97
REMARK H PARENT 22 6 10 12 26 31 85 50 53 61
REMARK Flexibility Score: inf
ROOT
ATOM      1  C   UNL A   1      31.934  28.329  26.380  1.00  0.00     0.042 C 
ENDROOT
BRANCH   1   2
ATOM      2  C   UNL A   1      32.556  26.935  26.494  1.00  0.00     0.117 C 
BRANCH   2   3
ATOM      3  N   UNL A   1      31.635  25.855  26.794  1.00  0.00    -0.356 N 
ATOM      4  C   UNL A   1      31.785  24.503  26.685  1.00  0.00     0.224 C 
ATOM      5  O   UNL A   1      30.928  23.802  27.235  1.00  0.00    -0.275 OA
ATOM      6  H   UNL A   1      30.758  26.146  27.131  1.00  0.00     0.163 HD
BRANCH   4   7
ATOM      7  C   UNL A   1      32.969  23.858  25.991  1.00  0.00     0.138 C 
BRANCH   7   8
ATOM      8  C   UNL A   1      32.731  23.341  24.602  1.00  0.00    -0.002 A 
ATOM      9  C   UNL A   1      32.577  24.048  23.405  1.00  0.00     0.093 A 
ATOM     10  N   UNL A   1      32.259  23.118  22.433  1.00  0.00    -0.352 N 
ATOM     11  C   UNL A   1      32.286  21.841  22.928  1.00  0.00     0.046 A 
ATOM     12  H   UNL A   1      32.039  23.346  21.500  1.00  0.00     0.167 HD
ATOM     13  C   UNL A   1      32.509  21.946  24.297  1.00  0.00     0.007 A 
ATOM     14  C   UNL A   1      32.112  20.614  22.272  1.00  0.00     0.030 A 
ATOM     15  C   UNL A   1      32.502  20.759  25.063  1.00  0.00     0.049 A 
ATOM     16  C   UNL A   1      32.170  19.451  23.046  1.00  0.00     0.041 A 
ATOM     17  C   UNL A   1      32.353  19.532  24.418  1.00  0.00     0.123 A 
ATOM     18  F   UNL A   1      32.406  18.408  25.146  1.00  0.00    -0.207 F 
BRANCH   9  19
ATOM     19  C   UNL A   1      32.560  25.467  23.058  1.00  0.00     0.227 C 
ATOM     20  O   UNL A   1      33.619  26.029  22.778  1.00  0.00    -0.285 OA
BRANCH  19  21
ATOM     21  C   UNL A   1      31.305  26.296  23.136  1.00  0.00     0.113 A 
ATOM     22  C   UNL A   1      29.855  29.674  22.161  1.00  0.00     0.044 C 
ATOM     23  C   UNL A   1      30.007  28.276  22.681  1.00  0.00    -0.047 A 
ATOM     24  C   UNL A   1      28.943  27.685  23.360  1.00  0.00     0.023 A 
ATOM     25  C   UNL A   1      31.185  27.536  22.514  1.00  0.00     0.036 A 
ATOM     26  C   UNL A   1      29.118  26.418  23.887  1.00  0.00     0.112 A 
ATOM     27  N   UNL A   1      30.272  25.724  23.810  1.00  0.00    -0.253 NA
ENDBRANCH  19  21
ENDBRANCH   9  19
ENDBRANCH   7   8
ENDBRANCH   4   7
ENDBRANCH   2   3
ENDBRANCH   1   2
BRANCH   1  28
ATOM     28  C   UNL A   1      32.756  29.422  25.705  1.00  0.00     0.118 C 
BRANCH  28  29
ATOM     29  N   UNL A   1      32.418  30.768  26.125  1.00  0.00    -0.352 N 
ATOM     30  C   UNL A   1      33.032  31.561  27.063  1.00  0.00     0.251 C 
ATOM     31  H   UNL A   1      31.640  31.169  25.675  1.00  0.00     0.163 HD
ATOM     32  O   UNL A   1      32.521  32.631  27.379  1.00  0.00    -0.269 OA
BRANCH  30  33
ATOM     33  C   UNL A   1      34.293  31.123  27.702  1.00  0.00     0.039 A 
ATOM     34  C   UNL A   1      35.284  32.077  27.946  1.00  0.00     0.014 A 
ATOM     35  C   UNL A   1      34.512  29.783  28.032  1.00  0.00     0.014 A 
ATOM     36  C   UNL A   1      36.478  31.696  28.564  1.00  0.00     0.010 A 
ATOM     37  C   UNL A   1      35.682  29.414  28.697  1.00  0.00     0.010 A 
ATOM     38  C   UNL A   1      36.679  30.365  28.969  1.00  0.00    -0.014 A 
BRANCH  38  39
ATOM     39  C   UNL A   1      37.910  29.968  29.703  1.00  0.00     0.031 A 
ATOM     40  C   UNL A   1      38.185  30.494  31.085  1.00  0.00     0.074 A 
ATOM     41  C   UNL A   1      38.819  29.183  29.092  1.00  0.00     0.049 A 
ATOM     42  N   UNL A   1      39.222  30.282  31.856  1.00  0.00    -0.248 NA
ATOM     43  C   UNL A   1      37.178  31.393  31.671  1.00  0.00     0.031 C 
ATOM     44  C   UNL A   1      38.704  28.661  27.728  1.00  0.00     0.029 A 
ATOM     45  N   UNL A   1      40.033  28.707  29.527  1.00  0.00    -0.354 N 
ATOM     46  C   UNL A   1      39.010  31.040  33.001  1.00  0.00     0.074 A 
ATOM     47  C   UNL A   1      37.757  31.741  32.812  1.00  0.00     0.031 C 
ATOM     48  C   UNL A   1      39.798  27.940  27.440  1.00  0.00     0.029 A 
ATOM     49  C   UNL A   1      40.709  27.974  28.579  1.00  0.00     0.049 A 
ATOM     50  H   UNL A   1      40.385  28.876  30.431  1.00  0.00     0.167 HD
ATOM     51  C   UNL A   1      39.772  31.128  34.117  1.00  0.00     0.034 A 
ATOM     52  C   UNL A   1      41.930  27.403  28.617  1.00  0.00     0.034 A 
ATOM     53  C   UNL A   1      41.004  30.410  34.314  1.00  0.00     0.049 A 
ATOM     54  C   UNL A   1      42.747  27.499  29.876  1.00  0.00     0.074 A 
ATOM     55  C   UNL A   1      41.805  30.370  35.443  1.00  0.00     0.029 A 
ATOM     56  N   UNL A   1      41.623  29.619  33.359  1.00  0.00    -0.354 N 
ATOM     57  N   UNL A   1      42.454  28.094  31.007  1.00  0.00    -0.248 NA
ATOM     58  C   UNL A   1      44.048  26.815  29.878  1.00  0.00     0.031 C 
ATOM     59  C   UNL A   1      42.926  29.584  35.157  1.00  0.00     0.029 A 
ATOM     60  C   UNL A   1      42.803  29.100  33.865  1.00  0.00     0.049 A 
ATOM     61  H   UNL A   1      41.275  29.451  32.453  1.00  0.00     0.167 HD
ATOM     62  C   UNL A   1      43.514  27.825  31.865  1.00  0.00     0.074 A 
ATOM     63  C   UNL A   1      44.446  26.995  31.131  1.00  0.00     0.031 C 
ATOM     64  C   UNL A   1      43.702  28.236  33.143  1.00  0.00     0.034 A 
BRANCH  51  65
ATOM     65  C   UNL A   1      39.281  32.010  35.238  1.00  0.00     0.023 A 
ATOM     66  C   UNL A   1      38.361  31.498  36.177  1.00  0.00     0.012 A 
ATOM     67  C   UNL A   1      39.776  33.318  35.402  1.00  0.00     0.148 A 
ATOM     68  C   UNL A   1      37.916  32.284  37.238  1.00  0.00     0.002 A 
ATOM     69  C   UNL A   1      39.362  34.081  36.488  1.00  0.00     0.091 A 
ATOM     70  F   UNL A   1      40.636  33.796  34.490  1.00  0.00    -0.205 F 
ATOM     71  C   UNL A   1      38.423  33.571  37.399  1.00  0.00     0.022 A 
BRANCH  69  72
ATOM     72  S   UNL A   1      40.019  35.718  36.832  1.00  0.00     0.127 S 
ATOM     73  O   UNL A   1      39.357  36.039  38.096  1.00  0.00    -0.237 OA
ATOM     74  O   UNL A   1      41.454  35.454  36.945  1.00  0.00    -0.237 OA
ATOM     75  O   UNL A   1      39.640  36.550  35.700  1.00  0.00    -0.744 OA
ENDBRANCH  69  72
ENDBRANCH  51  65
BRANCH  52  76
ATOM     76  C   UNL A   1      42.432  26.646  27.435  1.00  0.00     0.023 A 
ATOM     77  C   UNL A   1      43.202  27.309  26.460  1.00  0.00     0.012 A 
ATOM     78  C   UNL A   1      42.170  25.271  27.285  1.00  0.00     0.148 A 
ATOM     79  C   UNL A   1      43.669  26.624  25.338  1.00  0.00     0.002 A 
ATOM     80  C   UNL A   1      42.690  24.581  26.197  1.00  0.00     0.091 A 
ATOM     81  F   UNL A   1      41.427  24.660  28.219  1.00  0.00    -0.205 F 
ATOM     82  C   UNL A   1      43.423  25.260  25.211  1.00  0.00     0.022 A 
BRANCH  80  83
ATOM     83  S   UNL A   1      42.539  22.799  26.025  1.00  0.00     0.127 S 
ATOM     84  O   UNL A   1      43.326  22.321  27.158  1.00  0.00    -0.237 OA
ATOM     85  O   UNL A   1      41.094  22.607  26.151  1.00  0.00    -0.237 OA
ATOM     86  O   UNL A   1      43.070  22.484  24.706  1.00  0.00    -0.744 OA
ENDBRANCH  80  83
ENDBRANCH  52  76
BRANCH  64  87
ATOM     87  C   UNL A   1      44.944  27.764  33.857  1.00  0.00     0.023 A 
ATOM     88  C   UNL A   1      46.116  28.544  33.827  1.00  0.00     0.012 A 
ATOM     89  C   UNL A   1      44.925  26.576  34.615  1.00  0.00     0.148 A 
ATOM     90  C   UNL A   1      47.260  28.133  34.511  1.00  0.00     0.002 A 
ATOM     91  C   UNL A   1      46.050  26.200  35.337  1.00  0.00     0.091 A 
ATOM     92  F   UNL A   1      43.805  25.838  34.617  1.00  0.00    -0.205 F 
ATOM     93  C   UNL A   1      47.223  26.969  35.275  1.00  0.00     0.022 A 
BRANCH  91  94
ATOM     94  S   UNL A   1      46.064  24.772  36.427  1.00  0.00     0.127 S 
ATOM     95  O   UNL A   1      45.051  25.140  37.415  1.00  0.00    -0.237 OA
ATOM     96  O   UNL A   1      45.671  23.690  35.524  1.00  0.00    -0.237 OA
ATOM     97  O   UNL A   1      47.424  24.669  36.939  1.00  0.00    -0.744 OA
ENDBRANCH  91  94
ENDBRANCH  64  87
ENDBRANCH  38  39
ENDBRANCH  30  33
ENDBRANCH  28  29
ENDBRANCH   1  28
TORSDOF 16
ENDMDL
MODEL 2
REMARK VINA RESULT:     -12.7      2.501      7.884
REMARK SMILES Cc1ccnc(C(=O)c2[nH]c3ccc(F)cc3c2CC(=O)NCCCNC(=O)c2ccc(-c3c4nc(c(-c5cccc(S(=O)(=O)[O-])c5F)c5ccc([nH]5)c(-c5cccc(S(=O)(=O)[O-])c5F)c5nc(c(-c6cccc(S(=O)(=O)[O-])c6F)c6ccc3[nH]6)C=C5)C=C4)cc2)c1
REMARK SMILES IDX 24 1 23 2 22 3 20 4 21 5 19 7 18 8 9 9 10 10 11 11 17 13
REMARK SMILES IDX 12 14 16 15 13 16 14 17 15 18 7 19 8 20 6 21 1 22 2 23 3 24
REMARK SMILES IDX 92 25 4 26 5 27 25 28 26 29 27 30 28 32 29 33 30 34 91 35
REMARK SMILES IDX 31 36 90 37 32 38 33 39 34 40 84 41 35 42 89 43 83 44 85 45
REMARK SMILES IDX 36 46 88 47 82 48 81 49 37 51 69 52 49 53 68 54 50 55 53 56
REMARK SMILES IDX 67 57 86 58 51 59 52 60 66 62 87 63 54 64 38 65 39 66 47 67
REMARK SMILES IDX 40 68 42 69 48 70 41 71 43 72 44 73 45 74 46 75 70 76 71 77
REMARK SMILES IDX 79 78 72 79 74 80 80 81 73 82 75 83 76 84 77 85 78 86 55 87
REMARK SMILES IDX 56 88 64 89 57 90 59 91 65 92 58 93 60 94 61 95 62 96 63 97
REMARK H PARENT 22 6 10 12 26 31 85 50 53 61
REMARK Flexibility Score: inf
ROOT
ATOM      1  C   UNL A   1      31.700  31.418  26.481  1.00  0.00     0.042 C 
ENDROOT
BRANCH   1   2
ATOM      2  C   UNL A   1      32.046  30.135  25.723  1.00  0.00     0.117 C 
BRANCH   2   3
ATOM      3  N   UNL A   1      31.500  28.910  26.273  1.00  0.00    -0.356 N 
ATOM      4  C   UNL A   1      32.096  27.713  26.547  1.00  0.00     0.224 C 
ATOM      5  O   UNL A   1      31.454  26.914  27.237  1.00  0.00    -0.275 OA
ATOM      6  H   UNL A   1      30.539  28.948  26.485  1.00  0.00     0.163 HD
BRANCH   4   7
ATOM      7  C   UNL A   1      33.506  27.375  26.101  1.00  0.00     0.138 C 
BRANCH   7   8
ATOM      8  C   UNL A   1      33.634  26.535  24.863  1.00  0.00    -0.002 A 
ATOM      9  C   UNL A   1      33.275  26.836  23.545  1.00  0.00     0.093 A 
ATOM     10  N   UNL A   1      33.482  25.687  22.805  1.00  0.00    -0.352 N 
ATOM     11  C   UNL A   1      34.037  24.691  23.565  1.00  0.00     0.046 A 
ATOM     12  H   UNL A   1      33.258  25.595  21.850  1.00  0.00     0.167 HD
ATOM     13  C   UNL A   1      34.081  25.162  24.873  1.00  0.00     0.007 A 
ATOM     14  C   UNL A   1      34.481  23.414  23.195  1.00  0.00     0.030 A 
ATOM     15  C   UNL A   1      34.545  24.284  25.879  1.00  0.00     0.049 A 
ATOM     16  C   UNL A   1      34.991  22.588  24.201  1.00  0.00     0.041 A 
ATOM     17  C   UNL A   1      35.010  23.020  25.518  1.00  0.00     0.123 A 
ATOM     18  F   UNL A   1      35.502  22.215  26.471  1.00  0.00    -0.207 F 
BRANCH   9  19
ATOM     19  C   UNL A   1      32.654  27.990  22.899  1.00  0.00     0.227 C 
ATOM     20  O   UNL A   1      33.372  28.856  22.399  1.00  0.00    -0.285 OA
BRANCH  19  21
ATOM     21  C   UNL A   1      31.164  28.214  22.918  1.00  0.00     0.113 A 
ATOM     22  C   UNL A   1      28.481  30.739  21.977  1.00  0.00     0.044 C 
ATOM     23  C   UNL A   1      29.180  29.499  22.449  1.00  0.00    -0.047 A 
ATOM     24  C   UNL A   1      28.430  28.474  23.023  1.00  0.00     0.023 A 
ATOM     25  C   UNL A   1      30.566  29.330  22.339  1.00  0.00     0.036 A 
ATOM     26  C   UNL A   1      29.094  27.363  23.510  1.00  0.00     0.112 A 
ATOM     27  N   UNL A   1      30.435  27.219  23.490  1.00  0.00    -0.253 NA
ENDBRANCH  19  21
ENDBRANCH   9  19
ENDBRANCH   7   8
ENDBRANCH   4   7
ENDBRANCH   2   3
ENDBRANCH   1   2
BRANCH   1  28
ATOM     28  C   UNL A   1      32.795  32.062  27.328  1.00  0.00     0.118 C 
BRANCH  28  29
ATOM     29  N   UNL A   1      32.596  33.474  27.586  1.00  0.00    -0.352 N 
ATOM     30  C   UNL A   1      33.250  34.291  28.475  1.00  0.00     0.251 C 
ATOM     31  H   UNL A   1      31.895  33.909  27.049  1.00  0.00     0.163 HD
ATOM     32  O   UNL A   1      32.853  35.439  28.647  1.00  0.00    -0.269 OA
BRANCH  30  33
ATOM     33  C   UNL A   1      34.416  33.787  29.234  1.00  0.00     0.039 A 
ATOM     34  C   UNL A   1      34.193  32.902  30.292  1.00  0.00     0.014 A 
ATOM     35  C   UNL A   1      35.715  34.203  28.930  1.00  0.00     0.014 A 
ATOM     36  C   UNL A   1      35.276  32.396  31.015  1.00  0.00     0.010 A 
ATOM     37  C   UNL A   1      36.798  33.656  29.618  1.00  0.00     0.010 A 
ATOM     38  C   UNL A   1      36.592  32.748  30.669  1.00  0.00    -0.014 A 
BRANCH  38  39
ATOM     39  C   UNL A   1      37.754  32.149  31.378  1.00  0.00     0.031 A 
ATOM     40  C   UNL A   1      38.526  31.011  30.766  1.00  0.00     0.074 A 
ATOM     41  C   UNL A   1      38.073  32.587  32.612  1.00  0.00     0.049 A 
ATOM     42  N   UNL A   1      39.541  30.346  31.257  1.00  0.00    -0.248 NA
ATOM     43  C   UNL A   1      38.089  30.543  29.441  1.00  0.00     0.031 C 
ATOM     44  C   UNL A   1      37.362  33.637  33.345  1.00  0.00     0.029 A 
ATOM     45  N   UNL A   1      39.060  32.187  33.481  1.00  0.00    -0.354 N 
ATOM     46  C   UNL A   1      39.846  29.366  30.321  1.00  0.00     0.074 A 
ATOM     47  C   UNL A   1      38.888  29.504  29.244  1.00  0.00     0.031 C 
ATOM     48  C   UNL A   1      37.935  33.798  34.548  1.00  0.00     0.029 A 
ATOM     49  C   UNL A   1      39.029  32.843  34.689  1.00  0.00     0.049 A 
ATOM     50  H   UNL A   1      39.725  31.496  33.258  1.00  0.00     0.167 HD
ATOM     51  C   UNL A   1      40.843  28.450  30.342  1.00  0.00     0.034 A 
ATOM     52  C   UNL A   1      39.787  32.687  35.794  1.00  0.00     0.034 A 
ATOM     53  C   UNL A   1      41.811  28.331  31.401  1.00  0.00     0.049 A 
ATOM     54  C   UNL A   1      40.901  31.676  35.782  1.00  0.00     0.074 A 
ATOM     55  C   UNL A   1      42.907  27.489  31.473  1.00  0.00     0.029 A 
ATOM     56  N   UNL A   1      41.792  29.062  32.579  1.00  0.00    -0.354 N 
ATOM     57  N   UNL A   1      41.270  30.864  34.821  1.00  0.00    -0.248 NA
ATOM     58  C   UNL A   1      41.727  31.583  36.994  1.00  0.00     0.031 C 
ATOM     59  C   UNL A   1      43.530  27.686  32.710  1.00  0.00     0.029 A 
ATOM     60  C   UNL A   1      42.846  28.680  33.391  1.00  0.00     0.049 A 
ATOM     61  H   UNL A   1      41.126  29.751  32.805  1.00  0.00     0.167 HD
ATOM     62  C   UNL A   1      42.391  30.194  35.296  1.00  0.00     0.074 A 
ATOM     63  C   UNL A   1      42.654  30.709  36.624  1.00  0.00     0.031 C 
ATOM     64  C   UNL A   1      43.129  29.232  34.692  1.00  0.00     0.034 A 
BRANCH  51  65
ATOM     65  C   UNL A   1      40.967  27.518  29.163  1.00  0.00     0.023 A 
ATOM     66  C   UNL A   1      40.190  26.341  29.118  1.00  0.00     0.012 A 
ATOM     67  C   UNL A   1      41.800  27.835  28.071  1.00  0.00     0.148 A 
ATOM     68  C   UNL A   1      40.267  25.480  28.025  1.00  0.00     0.002 A 
ATOM     69  C   UNL A   1      41.836  26.995  26.964  1.00  0.00     0.091 A 
ATOM     70  F   UNL A   1      42.545  28.948  28.138  1.00  0.00    -0.205 F 
ATOM     71  C   UNL A   1      41.081  25.811  26.945  1.00  0.00     0.022 A 
BRANCH  69  72
ATOM     72  S   UNL A   1      42.787  27.374  25.488  1.00  0.00     0.127 S 
ATOM     73  O   UNL A   1      44.151  27.395  26.016  1.00  0.00    -0.237 OA
ATOM     74  O   UNL A   1      42.485  26.231  24.627  1.00  0.00    -0.237 OA
ATOM     75  O   UNL A   1      42.286  28.652  25.004  1.00  0.00    -0.744 OA
ENDBRANCH  69  72
ENDBRANCH  51  65
BRANCH  52  76
ATOM     76  C   UNL A   1      39.546  33.546  36.988  1.00  0.00     0.023 A 
ATOM     77  C   UNL A   1      40.039  34.865  37.005  1.00  0.00     0.012 A 
ATOM     78  C   UNL A   1      38.816  33.070  38.093  1.00  0.00     0.148 A 
ATOM     79  C   UNL A   1      39.840  35.682  38.119  1.00  0.00     0.002 A 
ATOM     80  C   UNL A   1      38.569  33.909  39.172  1.00  0.00     0.091 A 
ATOM     81  F   UNL A   1      38.364  31.808  38.060  1.00  0.00    -0.205 F 
ATOM     82  C   UNL A   1      39.097  35.209  39.197  1.00  0.00     0.022 A 
BRANCH  80  83
ATOM     83  S   UNL A   1      37.507  33.430  40.540  1.00  0.00     0.127 S 
ATOM     84  O   UNL A   1      37.390  34.683  41.281  1.00  0.00    -0.237 OA
ATOM     85  O   UNL A   1      36.291  33.009  39.844  1.00  0.00    -0.237 OA
ATOM     86  O   UNL A   1      38.207  32.352  41.225  1.00  0.00    -0.744 OA
ENDBRANCH  80  83
ENDBRANCH  52  76
BRANCH  64  87
ATOM     87  C   UNL A   1      44.326  28.693  35.435  1.00  0.00     0.023 A 
ATOM     88  C   UNL A   1      45.598  29.265  35.237  1.00  0.00     0.012 A 
ATOM     89  C   UNL A   1      44.173  27.663  36.385  1.00  0.00     0.148 A 
ATOM     90  C   UNL A   1      46.705  28.796  35.945  1.00  0.00     0.002 A 
ATOM     91  C   UNL A   1      45.269  27.238  37.124  1.00  0.00     0.091 A 
ATOM     92  F   UNL A   1      42.958  27.119  36.547  1.00  0.00    -0.205 F 
ATOM     93  C   UNL A   1      46.538  27.793  36.896  1.00  0.00     0.022 A 
BRANCH  91  94
ATOM     94  S   UNL A   1      45.133  26.021  38.439  1.00  0.00     0.127 S 
ATOM     95  O   UNL A   1      46.507  25.965  38.937  1.00  0.00    -0.237 OA
ATOM     96  O   UNL A   1      44.180  26.655  39.350  1.00  0.00    -0.237 OA
ATOM     97  O   UNL A   1      44.648  24.800  37.810  1.00  0.00    -0.744 OA
ENDBRANCH  91  94
ENDBRANCH  64  87
ENDBRANCH  38  39
ENDBRANCH  30  33
ENDBRANCH  28  29
ENDBRANCH   1  28
TORSDOF 16
ENDMDL
MODEL 3
REMARK VINA RESULT:     -12.6      5.414      8.712
REMARK SMILES Cc1ccnc(C(=O)c2[nH]c3ccc(F)cc3c2CC(=O)NCCCNC(=O)c2ccc(-c3c4nc(c(-c5cccc(S(=O)(=O)[O-])c5F)c5ccc([nH]5)c(-c5cccc(S(=O)(=O)[O-])c5F)c5nc(c(-c6cccc(S(=O)(=O)[O-])c6F)c6ccc3[nH]6)C=C5)C=C4)cc2)c1
REMARK SMILES IDX 24 1 23 2 22 3 20 4 21 5 19 7 18 8 9 9 10 10 11 11 17 13
REMARK SMILES IDX 12 14 16 15 13 16 14 17 15 18 7 19 8 20 6 21 1 22 2 23 3 24
REMARK SMILES IDX 92 25 4 26 5 27 25 28 26 29 27 30 28 32 29 33 30 34 91 35
REMARK SMILES IDX 31 36 90 37 32 38 33 39 34 40 84 41 35 42 89 43 83 44 85 45
REMARK SMILES IDX 36 46 88 47 82 48 81 49 37 51 69 52 49 53 68 54 50 55 53 56
REMARK SMILES IDX 67 57 86 58 51 59 52 60 66 62 87 63 54 64 38 65 39 66 47 67
REMARK SMILES IDX 40 68 42 69 48 70 41 71 43 72 44 73 45 74 46 75 70 76 71 77
REMARK SMILES IDX 79 78 72 79 74 80 80 81 73 82 75 83 76 84 77 85 78 86 55 87
REMARK SMILES IDX 56 88 64 89 57 90 59 91 65 92 58 93 60 94 61 95 62 96 63 97
REMARK H PARENT 22 6 10 12 26 31 85 50 53 61
REMARK Flexibility Score: inf
ROOT
ATOM      1  C   UNL A   1      37.794  19.961  24.906  1.00  0.00     0.042 C 
ENDROOT
BRANCH   1   2
ATOM      2  C   UNL A   1      36.458  20.693  25.055  1.00  0.00     0.117 C 
BRANCH   2   3
ATOM      3  N   UNL A   1      36.157  21.673  24.029  1.00  0.00    -0.356 N 
ATOM      4  C   UNL A   1      35.938  23.017  24.119  1.00  0.00     0.224 C 
ATOM      5  O   UNL A   1      35.940  23.654  23.061  1.00  0.00    -0.275 OA
ATOM      6  H   UNL A   1      36.101  21.308  23.117  1.00  0.00     0.163 HD
BRANCH   4   7
ATOM      7  C   UNL A   1      35.767  23.737  25.443  1.00  0.00     0.138 C 
BRANCH   7   8
ATOM      8  C   UNL A   1      34.356  24.005  25.882  1.00  0.00    -0.002 A 
ATOM      9  C   UNL A   1      33.394  23.116  26.371  1.00  0.00     0.093 A 
ATOM     10  N   UNL A   1      32.223  23.836  26.514  1.00  0.00    -0.352 N 
ATOM     11  C   UNL A   1      32.409  25.162  26.223  1.00  0.00     0.046 A 
ATOM     12  H   UNL A   1      31.362  23.445  26.790  1.00  0.00     0.167 HD
ATOM     13  C   UNL A   1      33.713  25.292  25.756  1.00  0.00     0.007 A 
ATOM     14  C   UNL A   1      31.518  26.241  26.320  1.00  0.00     0.030 A 
ATOM     15  C   UNL A   1      34.133  26.565  25.309  1.00  0.00     0.049 A 
ATOM     16  C   UNL A   1      31.981  27.500  25.927  1.00  0.00     0.041 A 
ATOM     17  C   UNL A   1      33.264  27.649  25.423  1.00  0.00     0.123 A 
ATOM     18  F   UNL A   1      33.692  28.863  25.049  1.00  0.00    -0.207 F 
BRANCH   9  19
ATOM     19  C   UNL A   1      33.370  21.674  26.608  1.00  0.00     0.227 C 
ATOM     20  O   UNL A   1      33.732  21.239  27.701  1.00  0.00    -0.285 OA
BRANCH  19  21
ATOM     21  C   UNL A   1      33.019  20.690  25.522  1.00  0.00     0.113 A 
ATOM     22  C   UNL A   1      32.655  16.969  24.827  1.00  0.00     0.044 C 
ATOM     23  C   UNL A   1      32.644  18.461  24.683  1.00  0.00    -0.047 A 
ATOM     24  C   UNL A   1      32.358  19.022  23.440  1.00  0.00     0.023 A 
ATOM     25  C   UNL A   1      32.915  19.321  25.756  1.00  0.00     0.036 A 
ATOM     26  C   UNL A   1      32.412  20.398  23.308  1.00  0.00     0.112 A 
ATOM     27  N   UNL A   1      32.753  21.237  24.306  1.00  0.00    -0.253 NA
ENDBRANCH  19  21
ENDBRANCH   9  19
ENDBRANCH   7   8
ENDBRANCH   4   7
ENDBRANCH   2   3
ENDBRANCH   1   2
BRANCH   1  28
ATOM     28  C   UNL A   1      38.920  20.332  25.866  1.00  0.00     0.118 C 
BRANCH  28  29
ATOM     29  N   UNL A   1      39.992  19.358  25.932  1.00  0.00    -0.352 N 
ATOM     30  C   UNL A   1      41.335  19.563  26.136  1.00  0.00     0.251 C 
ATOM     31  H   UNL A   1      39.721  18.420  25.815  1.00  0.00     0.163 HD
ATOM     32  O   UNL A   1      42.114  18.621  26.029  1.00  0.00    -0.269 OA
BRANCH  30  33
ATOM     33  C   UNL A   1      41.843  20.913  26.466  1.00  0.00     0.039 A 
ATOM     34  C   UNL A   1      42.035  21.827  25.426  1.00  0.00     0.014 A 
ATOM     35  C   UNL A   1      42.157  21.270  27.780  1.00  0.00     0.014 A 
ATOM     36  C   UNL A   1      42.497  23.115  25.710  1.00  0.00     0.010 A 
ATOM     37  C   UNL A   1      42.567  22.572  28.067  1.00  0.00     0.010 A 
ATOM     38  C   UNL A   1      42.743  23.509  27.036  1.00  0.00    -0.014 A 
BRANCH  38  39
ATOM     39  C   UNL A   1      43.154  24.902  27.355  1.00  0.00     0.031 A 
ATOM     40  C   UNL A   1      42.177  25.873  27.961  1.00  0.00     0.074 A 
ATOM     41  C   UNL A   1      44.396  25.316  27.033  1.00  0.00     0.049 A 
ATOM     42  N   UNL A   1      42.352  27.132  28.271  1.00  0.00    -0.248 NA
ATOM     43  C   UNL A   1      40.821  25.372  28.235  1.00  0.00     0.031 C 
ATOM     44  C   UNL A   1      45.417  24.493  26.380  1.00  0.00     0.029 A 
ATOM     45  N   UNL A   1      45.004  26.538  27.185  1.00  0.00    -0.354 N 
ATOM     46  C   UNL A   1      41.127  27.584  28.746  1.00  0.00     0.074 A 
ATOM     47  C   UNL A   1      40.207  26.469  28.658  1.00  0.00     0.031 C 
ATOM     48  C   UNL A   1      46.520  25.232  26.189  1.00  0.00     0.029 A 
ATOM     49  C   UNL A   1      46.279  26.588  26.672  1.00  0.00     0.049 A 
ATOM     50  H   UNL A   1      44.567  27.306  27.621  1.00  0.00     0.167 HD
ATOM     51  C   UNL A   1      40.801  28.805  29.234  1.00  0.00     0.034 A 
ATOM     52  C   UNL A   1      47.153  27.611  26.586  1.00  0.00     0.034 A 
ATOM     53  C   UNL A   1      41.723  29.904  29.347  1.00  0.00     0.049 A 
ATOM     54  C   UNL A   1      46.772  28.951  27.154  1.00  0.00     0.074 A 
ATOM     55  C   UNL A   1      41.508  31.153  29.904  1.00  0.00     0.029 A 
ATOM     56  N   UNL A   1      43.029  29.895  28.882  1.00  0.00    -0.354 N 
ATOM     57  N   UNL A   1      45.658  29.312  27.743  1.00  0.00    -0.248 NA
ATOM     58  C   UNL A   1      47.782  30.016  27.079  1.00  0.00     0.031 C 
ATOM     59  C   UNL A   1      42.673  31.911  29.743  1.00  0.00     0.029 A 
ATOM     60  C   UNL A   1      43.627  31.120  29.123  1.00  0.00     0.049 A 
ATOM     61  H   UNL A   1      43.467  29.130  28.443  1.00  0.00     0.167 HD
ATOM     62  C   UNL A   1      45.846  30.630  28.141  1.00  0.00     0.074 A 
ATOM     63  C   UNL A   1      47.189  30.998  27.746  1.00  0.00     0.031 C 
ATOM     64  C   UNL A   1      44.980  31.463  28.769  1.00  0.00     0.034 A 
BRANCH  51  65
ATOM     65  C   UNL A   1      39.389  29.013  29.722  1.00  0.00     0.023 A 
ATOM     66  C   UNL A   1      39.040  28.632  31.034  1.00  0.00     0.012 A 
ATOM     67  C   UNL A   1      38.427  29.646  28.910  1.00  0.00     0.148 A 
ATOM     68  C   UNL A   1      37.749  28.842  31.516  1.00  0.00     0.002 A 
ATOM     69  C   UNL A   1      37.155  29.895  29.413  1.00  0.00     0.091 A 
ATOM     70  F   UNL A   1      38.770  29.987  27.659  1.00  0.00    -0.205 F 
ATOM     71  C   UNL A   1      36.811  29.482  30.710  1.00  0.00     0.022 A 
BRANCH  69  72
ATOM     72  S   UNL A   1      35.901  30.786  28.486  1.00  0.00     0.127 S 
ATOM     73  O   UNL A   1      35.015  31.244  29.557  1.00  0.00    -0.237 OA
ATOM     74  O   UNL A   1      36.685  31.844  27.850  1.00  0.00    -0.237 OA
ATOM     75  O   UNL A   1      35.319  29.821  27.565  1.00  0.00    -0.744 OA
ENDBRANCH  69  72
ENDBRANCH  51  65
BRANCH  52  76
ATOM     76  C   UNL A   1      48.496  27.392  25.979  1.00  0.00     0.023 A 
ATOM     77  C   UNL A   1      49.571  26.990  26.795  1.00  0.00     0.012 A 
ATOM     78  C   UNL A   1      48.708  27.560  24.597  1.00  0.00     0.148 A 
ATOM     79  C   UNL A   1      50.841  26.794  26.252  1.00  0.00     0.002 A 
ATOM     80  C   UNL A   1      49.960  27.304  24.053  1.00  0.00     0.091 A 
ATOM     81  F   UNL A   1      47.674  27.952  23.839  1.00  0.00    -0.205 F 
ATOM     82  C   UNL A   1      51.034  26.941  24.880  1.00  0.00     0.022 A 
BRANCH  80  83
ATOM     83  S   UNL A   1      50.264  27.333  22.282  1.00  0.00     0.127 S 
ATOM     84  O   UNL A   1      50.079  28.748  21.970  1.00  0.00    -0.237 OA
ATOM     85  O   UNL A   1      51.647  26.861  22.208  1.00  0.00    -0.237 OA
ATOM     86  O   UNL A   1      49.289  26.422  21.699  1.00  0.00    -0.744 OA
ENDBRANCH  80  83
ENDBRANCH  52  76
BRANCH  64  87
ATOM     87  C   UNL A   1      45.465  32.850  29.113  1.00  0.00     0.023 A 
ATOM     88  C   UNL A   1      46.180  33.073  30.306  1.00  0.00     0.012 A 
ATOM     89  C   UNL A   1      45.268  33.919  28.215  1.00  0.00     0.148 A 
ATOM     90  C   UNL A   1      46.661  34.345  30.617  1.00  0.00     0.002 A 
ATOM     91  C   UNL A   1      45.796  35.170  28.506  1.00  0.00     0.091 A 
ATOM     92  F   UNL A   1      44.570  33.690  27.093  1.00  0.00    -0.205 F 
ATOM     93  C   UNL A   1      46.480  35.389  29.713  1.00  0.00     0.022 A 
BRANCH  91  94
ATOM     94  S   UNL A   1      45.699  36.549  27.358  1.00  0.00     0.127 S 
ATOM     95  O   UNL A   1      44.260  36.626  27.107  1.00  0.00    -0.237 OA
ATOM     96  O   UNL A   1      46.239  37.651  28.153  1.00  0.00    -0.237 OA
ATOM     97  O   UNL A   1      46.512  36.175  26.209  1.00  0.00    -0.744 OA
ENDBRANCH  91  94
ENDBRANCH  64  87
ENDBRANCH  38  39
ENDBRANCH  30  33
ENDBRANCH  28  29
ENDBRANCH   1  28
TORSDOF 16
ENDMDL
