MODEL 1
REMARK VINA RESULT:     -12.6      0.000      0.000
REMARK SMILES CC(=O)Nc1ccc(/C(=C\c2ccc(S(C)(=O)=O)cc2)C(=O)NCCCNC(=O)c2ccc(-c3c4nc(c(-c5cccc(S(=O)(=O)[O-])c5F)c5ccc([nH]5)c(-c5cccc(S(=O)(=O)[O-])c5F)c5nc(c(-c6cccc(S(=O)(=O)[O-])c6F)c6ccc3[nH]6)C=C5)C=C4)cc2)cc1
REMARK SMILES IDX 25 1 24 2 23 3 21 4 22 5 9 7 10 8 8 9 5 10 6 11 94 12 7 13
REMARK SMILES IDX 93 14 4 15 1 16 2 17 3 18 11 20 12 21 20 22 13 23 19 24
REMARK SMILES IDX 14 25 15 26 16 27 17 28 18 29 26 30 27 31 28 32 29 34 30 35
REMARK SMILES IDX 31 36 92 37 32 38 91 39 33 40 34 41 35 42 85 43 36 44 90 45
REMARK SMILES IDX 84 46 86 47 37 48 89 49 83 50 82 51 38 53 70 54 50 55 69 56
REMARK SMILES IDX 51 57 54 58 68 59 87 60 52 61 53 62 67 64 88 65 55 66 39 67
REMARK SMILES IDX 40 68 48 69 41 70 43 71 49 72 42 73 44 74 45 75 46 76 47 77
REMARK SMILES IDX 71 78 72 79 80 80 73 81 75 82 81 83 74 84 76 85 77 86 78 87
REMARK SMILES IDX 79 88 56 89 57 90 65 91 58 92 60 93 66 94 59 95 61 96 62 97
REMARK SMILES IDX 63 98 64 99
REMARK H PARENT 23 6 4 19 27 33 86 52 54 63
REMARK Flexibility Score: inf
ROOT
ATOM      1  C   UNL A   1      31.843  28.244  25.966  1.00  0.00     0.042 C 
ENDROOT
BRANCH   1   2
ATOM      2  C   UNL A   1      32.034  26.802  25.491  1.00  0.00     0.118 C 
BRANCH   2   3
ATOM      3  N   UNL A   1      32.096  26.733  24.044  1.00  0.00    -0.352 N 
ATOM      4  C   UNL A   1      32.440  25.799  23.123  1.00  0.00     0.251 C 
ATOM      5  O   UNL A   1      32.279  26.187  21.963  1.00  0.00    -0.269 OA
ATOM      6  H   UNL A   1      31.818  27.580  23.624  1.00  0.00     0.163 HD
BRANCH   4   7
ATOM      7  C   UNL A   1      32.917  24.378  23.436  1.00  0.00     0.047 C 
ATOM      8  C   UNL A   1      31.981  23.403  23.539  1.00  0.00     0.022 C 
BRANCH   7   9
ATOM      9  C   UNL A   1      34.365  24.138  23.812  1.00  0.00    -0.013 A 
ATOM     10  C   UNL A   1      36.922  23.285  24.785  1.00  0.00     0.041 A 
ATOM     11  C   UNL A   1      36.545  23.058  23.460  1.00  0.00     0.027 A 
ATOM     12  C   UNL A   1      36.091  24.069  25.564  1.00  0.00     0.027 A 
ATOM     13  C   UNL A   1      35.302  23.512  22.975  1.00  0.00     0.011 A 
ATOM     14  C   UNL A   1      34.828  24.455  25.099  1.00  0.00     0.011 A 
BRANCH  10  15
ATOM     15  N   UNL A   1      38.124  22.717  25.241  1.00  0.00    -0.326 N 
ATOM     16  C   UNL A   1      37.627  20.272  25.014  1.00  0.00     0.114 C 
ATOM     17  C   UNL A   1      38.496  21.420  25.457  1.00  0.00     0.221 C 
ATOM     18  O   UNL A   1      39.590  21.201  25.986  1.00  0.00    -0.275 OA
ATOM     19  H   UNL A   1      38.828  23.376  25.441  1.00  0.00     0.169 HD
ENDBRANCH  10  15
ENDBRANCH   7   9
BRANCH   8  20
ATOM     20  C   UNL A   1      32.139  21.952  23.714  1.00  0.00    -0.025 A 
ATOM     21  C   UNL A   1      32.050  21.135  22.573  1.00  0.00     0.009 A 
ATOM     22  C   UNL A   1      32.421  21.378  24.955  1.00  0.00     0.009 A 
ATOM     23  C   UNL A   1      32.299  19.766  22.663  1.00  0.00     0.021 A 
ATOM     24  C   UNL A   1      32.677  20.007  25.051  1.00  0.00     0.021 A 
ATOM     25  C   UNL A   1      32.621  19.211  23.903  1.00  0.00     0.067 A 
BRANCH  25  26
ATOM     26  S   UNL A   1      33.067  17.492  23.986  1.00  0.00     0.175 S 
ATOM     27  C   UNL A   1      34.772  17.519  24.471  1.00  0.00     0.163 C 
ATOM     28  O   UNL A   1      32.295  16.903  25.062  1.00  0.00    -0.224 OA
ATOM     29  O   UNL A   1      32.986  16.950  22.641  1.00  0.00    -0.224 OA
ENDBRANCH  25  26
ENDBRANCH   8  20
ENDBRANCH   4   7
ENDBRANCH   2   3
ENDBRANCH   1   2
BRANCH   1  30
ATOM     30  C   UNL A   1      33.059  29.138  25.716  1.00  0.00     0.118 C 
BRANCH  30  31
ATOM     31  N   UNL A   1      32.769  30.538  25.997  1.00  0.00    -0.352 N 
ATOM     32  C   UNL A   1      33.278  31.372  26.960  1.00  0.00     0.251 C 
ATOM     33  H   UNL A   1      32.103  30.951  25.401  1.00  0.00     0.163 HD
ATOM     34  O   UNL A   1      32.691  32.420  27.211  1.00  0.00    -0.269 OA
BRANCH  32  35
ATOM     35  C   UNL A   1      34.521  31.026  27.682  1.00  0.00     0.039 A 
ATOM     36  C   UNL A   1      34.654  29.744  28.222  1.00  0.00     0.014 A 
ATOM     37  C   UNL A   1      35.524  31.977  27.891  1.00  0.00     0.014 A 
ATOM     38  C   UNL A   1      35.804  29.407  28.938  1.00  0.00     0.010 A 
ATOM     39  C   UNL A   1      36.706  31.615  28.532  1.00  0.00     0.010 A 
ATOM     40  C   UNL A   1      36.851  30.333  29.080  1.00  0.00    -0.014 A 
BRANCH  40  41
ATOM     41  C   UNL A   1      38.098  29.973  29.803  1.00  0.00     0.031 A 
ATOM     42  C   UNL A   1      38.356  30.499  31.190  1.00  0.00     0.074 A 
ATOM     43  C   UNL A   1      39.029  29.222  29.181  1.00  0.00     0.049 A 
ATOM     44  N   UNL A   1      39.394  30.310  31.962  1.00  0.00    -0.248 NA
ATOM     45  C   UNL A   1      37.327  31.374  31.777  1.00  0.00     0.031 C 
ATOM     46  C   UNL A   1      38.930  28.720  27.809  1.00  0.00     0.029 A 
ATOM     47  N   UNL A   1      40.250  28.768  29.614  1.00  0.00    -0.354 N 
ATOM     48  C   UNL A   1      39.162  31.067  33.106  1.00  0.00     0.074 A 
ATOM     49  C   UNL A   1      37.902  31.748  32.911  1.00  0.00     0.031 C 
ATOM     50  C   UNL A   1      40.037  28.019  27.517  1.00  0.00     0.029 A 
ATOM     51  C   UNL A   1      40.938  28.049  28.664  1.00  0.00     0.049 A 
ATOM     52  H   UNL A   1      40.601  28.942  30.517  1.00  0.00     0.167 HD
ATOM     53  C   UNL A   1      39.915  31.165  34.228  1.00  0.00     0.034 A 
ATOM     54  C   UNL A   1      42.161  27.485  28.709  1.00  0.00     0.034 A 
ATOM     55  C   UNL A   1      41.151  30.458  34.429  1.00  0.00     0.049 A 
ATOM     56  C   UNL A   1      42.958  27.576  29.981  1.00  0.00     0.074 A 
ATOM     57  C   UNL A   1      41.947  30.420  35.561  1.00  0.00     0.029 A 
ATOM     58  N   UNL A   1      41.780  29.675  33.473  1.00  0.00    -0.354 N 
ATOM     59  N   UNL A   1      42.647  28.168  31.109  1.00  0.00    -0.248 NA
ATOM     60  C   UNL A   1      44.256  26.887  30.001  1.00  0.00     0.031 C 
ATOM     61  C   UNL A   1      43.074  29.643  35.277  1.00  0.00     0.029 A 
ATOM     62  C   UNL A   1      42.959  29.161  33.983  1.00  0.00     0.049 A 
ATOM     63  H   UNL A   1      41.437  29.509  32.565  1.00  0.00     0.167 HD
ATOM     64  C   UNL A   1      43.691  27.891  31.984  1.00  0.00     0.074 A 
ATOM     65  C   UNL A   1      44.631  27.059  31.260  1.00  0.00     0.031 C 
ATOM     66  C   UNL A   1      43.863  28.297  33.267  1.00  0.00     0.034 A 
BRANCH  53  67
ATOM     67  C   UNL A   1      39.402  32.040  35.344  1.00  0.00     0.023 A 
ATOM     68  C   UNL A   1      38.485  31.517  36.280  1.00  0.00     0.012 A 
ATOM     69  C   UNL A   1      39.869  33.360  35.501  1.00  0.00     0.148 A 
ATOM     70  C   UNL A   1      38.011  32.304  37.329  1.00  0.00     0.002 A 
ATOM     71  C   UNL A   1      39.431  34.122  36.578  1.00  0.00     0.091 A 
ATOM     72  F   UNL A   1      40.725  33.848  34.592  1.00  0.00    -0.205 F 
ATOM     73  C   UNL A   1      38.492  33.601  37.484  1.00  0.00     0.022 A 
BRANCH  71  74
ATOM     74  S   UNL A   1      40.051  35.773  36.916  1.00  0.00     0.127 S 
ATOM     75  O   UNL A   1      41.492  35.534  37.001  1.00  0.00    -0.237 OA
ATOM     76  O   UNL A   1      39.625  36.511  35.727  1.00  0.00    -0.237 OA
ATOM     77  O   UNL A   1      39.416  36.196  38.157  1.00  0.00    -0.744 OA
ENDBRANCH  71  74
ENDBRANCH  53  67
BRANCH  54  78
ATOM     78  C   UNL A   1      42.678  26.732  27.531  1.00  0.00     0.023 A 
ATOM     79  C   UNL A   1      43.279  27.434  26.467  1.00  0.00     0.012 A 
ATOM     80  C   UNL A   1      42.601  25.328  27.471  1.00  0.00     0.148 A 
ATOM     81  C   UNL A   1      43.757  26.753  25.347  1.00  0.00     0.002 A 
ATOM     82  C   UNL A   1      43.133  24.652  26.380  1.00  0.00     0.091 A 
ATOM     83  F   UNL A   1      42.021  24.680  28.490  1.00  0.00    -0.205 F 
ATOM     84  C   UNL A   1      43.693  25.363  25.307  1.00  0.00     0.022 A 
BRANCH  82  85
ATOM     85  S   UNL A   1      43.219  22.859  26.306  1.00  0.00     0.127 S 
ATOM     86  O   UNL A   1      42.728  22.591  24.956  1.00  0.00    -0.237 OA
ATOM     87  O   UNL A   1      44.649  22.619  26.501  1.00  0.00    -0.237 OA
ATOM     88  O   UNL A   1      42.377  22.378  27.392  1.00  0.00    -0.744 OA
ENDBRANCH  82  85
ENDBRANCH  54  78
BRANCH  66  89
ATOM     89  C   UNL A   1      45.091  27.811  33.992  1.00  0.00     0.023 A 
ATOM     90  C   UNL A   1      46.267  28.585  33.992  1.00  0.00     0.012 A 
ATOM     91  C   UNL A   1      45.054  26.608  34.727  1.00  0.00     0.148 A 
ATOM     92  C   UNL A   1      47.403  28.149  34.674  1.00  0.00     0.002 A 
ATOM     93  C   UNL A   1      46.172  26.209  35.451  1.00  0.00     0.091 A 
ATOM     94  F   UNL A   1      43.932  25.877  34.703  1.00  0.00    -0.205 F 
ATOM     95  C   UNL A   1      47.351  26.969  35.413  1.00  0.00     0.022 A 
BRANCH  93  96
ATOM     96  S   UNL A   1      46.162  24.759  36.510  1.00  0.00     0.127 S 
ATOM     97  O   UNL A   1      47.514  24.789  37.067  1.00  0.00    -0.237 OA
ATOM     98  O   UNL A   1      45.102  25.080  37.464  1.00  0.00    -0.237 OA
ATOM     99  O   UNL A   1      45.871  23.627  35.641  1.00  0.00    -0.744 OA
ENDBRANCH  93  96
ENDBRANCH  66  89
ENDBRANCH  40  41
ENDBRANCH  32  35
ENDBRANCH  30  31
ENDBRANCH   1  30
TORSDOF 17
ENDMDL
MODEL 2
REMARK VINA RESULT:     -12.5      1.832      2.235
REMARK SMILES CC(=O)Nc1ccc(/C(=C\c2ccc(S(C)(=O)=O)cc2)C(=O)NCCCNC(=O)c2ccc(-c3c4nc(c(-c5cccc(S(=O)(=O)[O-])c5F)c5ccc([nH]5)c(-c5cccc(S(=O)(=O)[O-])c5F)c5nc(c(-c6cccc(S(=O)(=O)[O-])c6F)c6ccc3[nH]6)C=C5)C=C4)cc2)cc1
REMARK SMILES IDX 25 1 24 2 23 3 21 4 22 5 9 7 10 8 8 9 5 10 6 11 94 12 7 13
REMARK SMILES IDX 93 14 4 15 1 16 2 17 3 18 11 20 12 21 20 22 13 23 19 24
REMARK SMILES IDX 14 25 15 26 16 27 17 28 18 29 26 30 27 31 28 32 29 34 30 35
REMARK SMILES IDX 31 36 92 37 32 38 91 39 33 40 34 41 35 42 85 43 36 44 90 45
REMARK SMILES IDX 84 46 86 47 37 48 89 49 83 50 82 51 38 53 70 54 50 55 69 56
REMARK SMILES IDX 51 57 54 58 68 59 87 60 52 61 53 62 67 64 88 65 55 66 39 67
REMARK SMILES IDX 40 68 48 69 41 70 43 71 49 72 42 73 44 74 45 75 46 76 47 77
REMARK SMILES IDX 71 78 72 79 80 80 73 81 75 82 81 83 74 84 76 85 77 86 78 87
REMARK SMILES IDX 79 88 56 89 57 90 65 91 58 92 60 93 66 94 59 95 61 96 62 97
REMARK SMILES IDX 63 98 64 99
REMARK H PARENT 23 6 4 19 27 33 86 52 54 63
REMARK Flexibility Score: inf
ROOT
ATOM      1  C   UNL A   1      33.667  28.541  24.472  1.00  0.00     0.042 C 
ENDROOT
BRANCH   1   2
ATOM      2  C   UNL A   1      33.172  27.104  24.291  1.00  0.00     0.118 C 
BRANCH   2   3
ATOM      3  N   UNL A   1      33.240  26.700  22.900  1.00  0.00    -0.352 N 
ATOM      4  C   UNL A   1      33.447  25.540  22.227  1.00  0.00     0.251 C 
ATOM      5  O   UNL A   1      33.362  25.675  21.003  1.00  0.00    -0.269 OA
ATOM      6  H   UNL A   1      33.101  27.460  22.289  1.00  0.00     0.163 HD
BRANCH   4   7
ATOM      7  C   UNL A   1      33.694  24.173  22.870  1.00  0.00     0.047 C 
ATOM      8  C   UNL A   1      32.675  23.279  22.873  1.00  0.00     0.022 C 
BRANCH   7   9
ATOM      9  C   UNL A   1      34.973  23.928  23.645  1.00  0.00    -0.013 A 
ATOM     10  C   UNL A   1      37.117  23.118  25.366  1.00  0.00     0.041 A 
ATOM     11  C   UNL A   1      37.076  22.715  24.030  1.00  0.00     0.027 A 
ATOM     12  C   UNL A   1      36.180  24.045  25.786  1.00  0.00     0.027 A 
ATOM     13  C   UNL A   1      36.040  23.145  23.177  1.00  0.00     0.011 A 
ATOM     14  C   UNL A   1      35.115  24.412  24.956  1.00  0.00     0.011 A 
BRANCH  10  15
ATOM     15  N   UNL A   1      38.111  22.573  26.195  1.00  0.00    -0.326 N 
ATOM     16  C   UNL A   1      39.557  24.577  26.608  1.00  0.00     0.114 C 
ATOM     17  C   UNL A   1      39.258  23.105  26.716  1.00  0.00     0.221 C 
ATOM     18  O   UNL A   1      40.031  22.358  27.324  1.00  0.00    -0.275 OA
ATOM     19  H   UNL A   1      37.954  21.634  26.447  1.00  0.00     0.169 HD
ENDBRANCH  10  15
ENDBRANCH   7   9
BRANCH   8  20
ATOM     20  C   UNL A   1      32.647  21.875  23.305  1.00  0.00    -0.025 A 
ATOM     21  C   UNL A   1      32.188  20.911  22.391  1.00  0.00     0.009 A 
ATOM     22  C   UNL A   1      33.105  21.474  24.562  1.00  0.00     0.009 A 
ATOM     23  C   UNL A   1      32.241  19.554  22.708  1.00  0.00     0.021 A 
ATOM     24  C   UNL A   1      33.166  20.114  24.884  1.00  0.00     0.021 A 
ATOM     25  C   UNL A   1      32.740  19.163  23.952  1.00  0.00     0.067 A 
BRANCH  25  26
ATOM     26  S   UNL A   1      32.929  17.430  24.297  1.00  0.00     0.175 S 
ATOM     27  C   UNL A   1      34.581  17.299  24.926  1.00  0.00     0.163 C 
ATOM     28  O   UNL A   1      32.005  17.104  25.366  1.00  0.00    -0.224 OA
ATOM     29  O   UNL A   1      32.868  16.720  23.031  1.00  0.00    -0.224 OA
ENDBRANCH  25  26
ENDBRANCH   8  20
ENDBRANCH   4   7
ENDBRANCH   2   3
ENDBRANCH   1   2
BRANCH   1  30
ATOM     30  C   UNL A   1      33.978  28.904  25.924  1.00  0.00     0.118 C 
BRANCH  30  31
ATOM     31  N   UNL A   1      33.613  30.281  26.229  1.00  0.00    -0.352 N 
ATOM     32  C   UNL A   1      33.994  31.088  27.270  1.00  0.00     0.251 C 
ATOM     33  H   UNL A   1      32.995  30.697  25.586  1.00  0.00     0.163 HD
ATOM     34  O   UNL A   1      33.348  32.106  27.501  1.00  0.00    -0.269 OA
BRANCH  32  35
ATOM     35  C   UNL A   1      35.172  30.752  28.099  1.00  0.00     0.039 A 
ATOM     36  C   UNL A   1      36.298  31.577  28.036  1.00  0.00     0.014 A 
ATOM     37  C   UNL A   1      35.198  29.594  28.881  1.00  0.00     0.014 A 
ATOM     38  C   UNL A   1      37.434  31.259  28.783  1.00  0.00     0.010 A 
ATOM     39  C   UNL A   1      36.300  29.324  29.689  1.00  0.00     0.010 A 
ATOM     40  C   UNL A   1      37.438  30.141  29.634  1.00  0.00    -0.014 A 
BRANCH  40  41
ATOM     41  C   UNL A   1      38.624  29.817  30.467  1.00  0.00     0.031 A 
ATOM     42  C   UNL A   1      38.809  30.459  31.816  1.00  0.00     0.074 A 
ATOM     43  C   UNL A   1      39.569  28.989  29.977  1.00  0.00     0.049 A 
ATOM     44  N   UNL A   1      39.790  30.315  32.669  1.00  0.00    -0.248 NA
ATOM     45  C   UNL A   1      37.773  31.410  32.254  1.00  0.00     0.031 C 
ATOM     46  C   UNL A   1      39.542  28.368  28.651  1.00  0.00     0.029 A 
ATOM     47  N   UNL A   1      40.744  28.545  30.528  1.00  0.00    -0.354 N 
ATOM     48  C   UNL A   1      39.509  31.177  33.723  1.00  0.00     0.074 A 
ATOM     49  C   UNL A   1      38.285  31.870  33.385  1.00  0.00     0.031 C 
ATOM     50  C   UNL A   1      40.642  27.615  28.496  1.00  0.00     0.029 A 
ATOM     51  C   UNL A   1      41.469  27.726  29.693  1.00  0.00     0.049 A 
ATOM     52  H   UNL A   1      41.043  28.791  31.433  1.00  0.00     0.167 HD
ATOM     53  C   UNL A   1      40.191  31.356  34.879  1.00  0.00     0.034 A 
ATOM     54  C   UNL A   1      42.668  27.137  29.869  1.00  0.00     0.034 A 
ATOM     55  C   UNL A   1      41.389  30.640  35.224  1.00  0.00     0.049 A 
ATOM     56  C   UNL A   1      43.385  27.322  31.178  1.00  0.00     0.074 A 
ATOM     57  C   UNL A   1      42.110  30.683  36.405  1.00  0.00     0.029 A 
ATOM     58  N   UNL A   1      42.053  29.758  34.385  1.00  0.00    -0.354 N 
ATOM     59  N   UNL A   1      43.021  28.021  32.226  1.00  0.00    -0.248 NA
ATOM     60  C   UNL A   1      44.657  26.605  31.345  1.00  0.00     0.031 C 
ATOM     61  C   UNL A   1      43.228  29.855  36.266  1.00  0.00     0.029 A 
ATOM     62  C   UNL A   1      43.181  29.261  35.015  1.00  0.00     0.049 A 
ATOM     63  H   UNL A   1      41.764  29.519  33.475  1.00  0.00     0.167 HD
ATOM     64  C   UNL A   1      43.998  27.798  33.189  1.00  0.00     0.074 A 
ATOM     65  C   UNL A   1      44.956  26.880  32.606  1.00  0.00     0.031 C 
ATOM     66  C   UNL A   1      44.101  28.314  34.440  1.00  0.00     0.034 A 
BRANCH  53  67
ATOM     67  C   UNL A   1      39.636  32.341  35.877  1.00  0.00     0.023 A 
ATOM     68  C   UNL A   1      38.685  31.915  36.829  1.00  0.00     0.012 A 
ATOM     69  C   UNL A   1      40.096  33.673  35.912  1.00  0.00     0.148 A 
ATOM     70  C   UNL A   1      38.172  32.806  37.771  1.00  0.00     0.002 A 
ATOM     71  C   UNL A   1      39.616  34.542  36.886  1.00  0.00     0.091 A 
ATOM     72  F   UNL A   1      40.984  34.067  34.989  1.00  0.00    -0.205 F 
ATOM     73  C   UNL A   1      38.645  34.115  37.806  1.00  0.00     0.022 A 
BRANCH  71  74
ATOM     74  S   UNL A   1      40.222  36.223  37.071  1.00  0.00     0.127 S 
ATOM     75  O   UNL A   1      41.647  35.997  37.311  1.00  0.00    -0.237 OA
ATOM     76  O   UNL A   1      39.908  36.807  35.767  1.00  0.00    -0.237 OA
ATOM     77  O   UNL A   1      39.485  36.795  38.189  1.00  0.00    -0.744 OA
ENDBRANCH  71  74
ENDBRANCH  53  67
BRANCH  54  78
ATOM     78  C   UNL A   1      43.235  26.268  28.799  1.00  0.00     0.023 A 
ATOM     79  C   UNL A   1      42.831  24.922  28.708  1.00  0.00     0.012 A 
ATOM     80  C   UNL A   1      44.152  26.775  27.858  1.00  0.00     0.148 A 
ATOM     81  C   UNL A   1      43.360  24.086  27.725  1.00  0.00     0.002 A 
ATOM     82  C   UNL A   1      44.629  25.953  26.844  1.00  0.00     0.091 A 
ATOM     83  F   UNL A   1      44.528  28.057  27.965  1.00  0.00    -0.205 F 
ATOM     84  C   UNL A   1      44.251  24.603  26.787  1.00  0.00     0.022 A 
BRANCH  82  85
ATOM     85  S   UNL A   1      45.670  26.567  25.515  1.00  0.00     0.127 S 
ATOM     86  O   UNL A   1      44.857  27.655  24.976  1.00  0.00    -0.237 OA
ATOM     87  O   UNL A   1      46.866  26.993  26.243  1.00  0.00    -0.237 OA
ATOM     88  O   UNL A   1      45.881  25.435  24.624  1.00  0.00    -0.744 OA
ENDBRANCH  82  85
ENDBRANCH  54  78
BRANCH  66  89
ATOM     89  C   UNL A   1      45.264  27.864  35.285  1.00  0.00     0.023 A 
ATOM     90  C   UNL A   1      45.139  26.733  36.116  1.00  0.00     0.012 A 
ATOM     91  C   UNL A   1      46.502  28.532  35.208  1.00  0.00     0.148 A 
ATOM     92  C   UNL A   1      46.216  26.300  36.890  1.00  0.00     0.002 A 
ATOM     93  C   UNL A   1      47.587  28.060  35.939  1.00  0.00     0.091 A 
ATOM     94  F   UNL A   1      46.598  29.615  34.425  1.00  0.00    -0.205 F 
ATOM     95  C   UNL A   1      47.441  26.955  36.792  1.00  0.00     0.022 A 
BRANCH  93  96
ATOM     96  S   UNL A   1      49.226  28.779  35.797  1.00  0.00     0.127 S 
ATOM     97  O   UNL A   1      50.056  27.754  36.430  1.00  0.00    -0.237 OA
ATOM     98  O   UNL A   1      49.392  28.889  34.349  1.00  0.00    -0.237 OA
ATOM     99  O   UNL A   1      49.168  30.055  36.497  1.00  0.00    -0.744 OA
ENDBRANCH  93  96
ENDBRANCH  66  89
ENDBRANCH  40  41
ENDBRANCH  32  35
ENDBRANCH  30  31
ENDBRANCH   1  30
TORSDOF 17
ENDMDL
MODEL 3
REMARK VINA RESULT:     -12.5      2.851      8.532
REMARK SMILES CC(=O)Nc1ccc(/C(=C\c2ccc(S(C)(=O)=O)cc2)C(=O)NCCCNC(=O)c2ccc(-c3c4nc(c(-c5cccc(S(=O)(=O)[O-])c5F)c5ccc([nH]5)c(-c5cccc(S(=O)(=O)[O-])c5F)c5nc(c(-c6cccc(S(=O)(=O)[O-])c6F)c6ccc3[nH]6)C=C5)C=C4)cc2)cc1
REMARK SMILES IDX 25 1 24 2 23 3 21 4 22 5 9 7 10 8 8 9 5 10 6 11 94 12 7 13
REMARK SMILES IDX 93 14 4 15 1 16 2 17 3 18 11 20 12 21 20 22 13 23 19 24
REMARK SMILES IDX 14 25 15 26 16 27 17 28 18 29 26 30 27 31 28 32 29 34 30 35
REMARK SMILES IDX 31 36 92 37 32 38 91 39 33 40 34 41 35 42 85 43 36 44 90 45
REMARK SMILES IDX 84 46 86 47 37 48 89 49 83 50 82 51 38 53 70 54 50 55 69 56
REMARK SMILES IDX 51 57 54 58 68 59 87 60 52 61 53 62 67 64 88 65 55 66 39 67
REMARK SMILES IDX 40 68 48 69 41 70 43 71 49 72 42 73 44 74 45 75 46 76 47 77
REMARK SMILES IDX 71 78 72 79 80 80 73 81 75 82 81 83 74 84 76 85 77 86 78 87
REMARK SMILES IDX 79 88 56 89 57 90 65 91 58 92 60 93 66 94 59 95 61 96 62 97
REMARK SMILES IDX 63 98 64 99
REMARK H PARENT 23 6 4 19 27 33 86 52 54 63
REMARK Flexibility Score: inf
ROOT
ATOM      1  C   UNL A   1      31.592  32.073  27.001  1.00  0.00     0.042 C 
ENDROOT
BRANCH   1   2
ATOM      2  C   UNL A   1      31.850  30.599  26.680  1.00  0.00     0.118 C 
BRANCH   2   3
ATOM      3  N   UNL A   1      33.224  30.237  26.968  1.00  0.00    -0.352 N 
ATOM      4  C   UNL A   1      34.027  29.172  26.720  1.00  0.00     0.251 C 
ATOM      5  O   UNL A   1      35.181  29.336  27.127  1.00  0.00    -0.269 OA
ATOM      6  H   UNL A   1      33.693  30.941  27.473  1.00  0.00     0.163 HD
BRANCH   4   7
ATOM      7  C   UNL A   1      33.616  27.908  25.961  1.00  0.00     0.047 C 
ATOM      8  C   UNL A   1      34.241  26.746  26.276  1.00  0.00     0.022 C 
BRANCH   7   9
ATOM      9  C   UNL A   1      32.689  28.016  24.767  1.00  0.00    -0.013 A 
ATOM     10  C   UNL A   1      30.733  28.618  22.761  1.00  0.00     0.041 A 
ATOM     11  C   UNL A   1      32.077  28.943  22.575  1.00  0.00     0.027 A 
ATOM     12  C   UNL A   1      30.404  27.858  23.868  1.00  0.00     0.027 A 
ATOM     13  C   UNL A   1      33.042  28.613  23.547  1.00  0.00     0.011 A 
ATOM     14  C   UNL A   1      31.353  27.596  24.864  1.00  0.00     0.011 A 
BRANCH  10  15
ATOM     15  N   UNL A   1      29.802  29.066  21.809  1.00  0.00    -0.326 N 
ATOM     16  C   UNL A   1      28.851  31.076  22.963  1.00  0.00     0.114 C 
ATOM     17  C   UNL A   1      28.879  30.074  21.839  1.00  0.00     0.221 C 
ATOM     18  O   UNL A   1      28.088  30.178  20.897  1.00  0.00    -0.275 OA
ATOM     19  H   UNL A   1      29.818  28.561  20.963  1.00  0.00     0.169 HD
ENDBRANCH  10  15
ENDBRANCH   7   9
BRANCH   8  20
ATOM     20  C   UNL A   1      33.987  25.377  25.810  1.00  0.00    -0.025 A 
ATOM     21  C   UNL A   1      33.056  24.599  26.520  1.00  0.00     0.009 A 
ATOM     22  C   UNL A   1      34.597  24.853  24.668  1.00  0.00     0.009 A 
ATOM     23  C   UNL A   1      32.696  23.332  26.061  1.00  0.00     0.021 A 
ATOM     24  C   UNL A   1      34.236  23.586  24.199  1.00  0.00     0.021 A 
ATOM     25  C   UNL A   1      33.282  22.837  24.894  1.00  0.00     0.067 A 
BRANCH  25  26
ATOM     26  S   UNL A   1      32.721  21.282  24.242  1.00  0.00     0.175 S 
ATOM     27  C   UNL A   1      32.217  21.672  22.588  1.00  0.00     0.163 C 
ATOM     28  O   UNL A   1      33.875  20.406  24.174  1.00  0.00    -0.224 OA
ATOM     29  O   UNL A   1      31.543  20.888  24.994  1.00  0.00    -0.224 OA
ENDBRANCH  25  26
ENDBRANCH   8  20
ENDBRANCH   4   7
ENDBRANCH   2   3
ENDBRANCH   1   2
BRANCH   1  30
ATOM     30  C   UNL A   1      32.850  32.941  26.954  1.00  0.00     0.118 C 
BRANCH  30  31
ATOM     31  N   UNL A   1      32.639  34.236  27.588  1.00  0.00    -0.352 N 
ATOM     32  C   UNL A   1      33.112  34.725  28.779  1.00  0.00     0.251 C 
ATOM     33  H   UNL A   1      32.068  34.857  27.081  1.00  0.00     0.163 HD
ATOM     34  O   UNL A   1      32.582  35.721  29.265  1.00  0.00    -0.269 OA
BRANCH  32  35
ATOM     35  C   UNL A   1      34.248  34.078  29.468  1.00  0.00     0.039 A 
ATOM     36  C   UNL A   1      35.549  34.463  29.132  1.00  0.00     0.014 A 
ATOM     37  C   UNL A   1      34.042  33.047  30.390  1.00  0.00     0.014 A 
ATOM     38  C   UNL A   1      36.638  33.840  29.745  1.00  0.00     0.010 A 
ATOM     39  C   UNL A   1      35.126  32.486  31.061  1.00  0.00     0.010 A 
ATOM     40  C   UNL A   1      36.436  32.861  30.731  1.00  0.00    -0.014 A 
BRANCH  40  41
ATOM     41  C   UNL A   1      37.585  32.221  31.422  1.00  0.00     0.031 A 
ATOM     42  C   UNL A   1      38.343  31.099  30.763  1.00  0.00     0.074 A 
ATOM     43  C   UNL A   1      37.906  32.610  32.672  1.00  0.00     0.049 A 
ATOM     44  N   UNL A   1      39.354  30.408  31.221  1.00  0.00    -0.248 NA
ATOM     45  C   UNL A   1      37.889  30.677  29.426  1.00  0.00     0.031 C 
ATOM     46  C   UNL A   1      37.197  33.631  33.446  1.00  0.00     0.029 A 
ATOM     47  N   UNL A   1      38.896  32.180  33.518  1.00  0.00    -0.354 N 
ATOM     48  C   UNL A   1      39.635  29.452  30.251  1.00  0.00     0.074 A 
ATOM     49  C   UNL A   1      38.662  29.626  29.195  1.00  0.00     0.031 C 
ATOM     50  C   UNL A   1      37.780  33.756  34.648  1.00  0.00     0.029 A 
ATOM     51  C   UNL A   1      38.882  32.803  34.744  1.00  0.00     0.049 A 
ATOM     52  H   UNL A   1      39.553  31.488  33.273  1.00  0.00     0.167 HD
ATOM     53  C   UNL A   1      40.627  28.531  30.227  1.00  0.00     0.034 A 
ATOM     54  C   UNL A   1      39.662  32.623  35.828  1.00  0.00     0.034 A 
ATOM     55  C   UNL A   1      41.612  28.384  31.265  1.00  0.00     0.049 A 
ATOM     56  C   UNL A   1      40.782  31.620  35.759  1.00  0.00     0.074 A 
ATOM     57  C   UNL A   1      42.709  27.541  31.299  1.00  0.00     0.029 A 
ATOM     58  N   UNL A   1      41.613  29.088  32.460  1.00  0.00    -0.354 N 
ATOM     59  N   UNL A   1      41.126  30.834  34.768  1.00  0.00    -0.248 NA
ATOM     60  C   UNL A   1      41.645  31.508  36.944  1.00  0.00     0.031 C 
ATOM     61  C   UNL A   1      43.353  27.711  32.529  1.00  0.00     0.029 A 
ATOM     62  C   UNL A   1      42.682  28.691  33.244  1.00  0.00     0.049 A 
ATOM     63  H   UNL A   1      40.950  29.771  32.713  1.00  0.00     0.167 HD
ATOM     64  C   UNL A   1      42.267  30.164  35.193  1.00  0.00     0.074 A 
ATOM     65  C   UNL A   1      42.567  30.654  36.523  1.00  0.00     0.031 C 
ATOM     66  C   UNL A   1      42.995  29.219  34.547  1.00  0.00     0.034 A 
BRANCH  53  67
ATOM     67  C   UNL A   1      40.723  27.632  29.020  1.00  0.00     0.023 A 
ATOM     68  C   UNL A   1      39.834  26.546  28.882  1.00  0.00     0.012 A 
ATOM     69  C   UNL A   1      41.652  27.895  27.994  1.00  0.00     0.148 A 
ATOM     70  C   UNL A   1      39.894  25.712  27.766  1.00  0.00     0.002 A 
ATOM     71  C   UNL A   1      41.673  27.090  26.860  1.00  0.00     0.091 A 
ATOM     72  F   UNL A   1      42.503  28.920  28.149  1.00  0.00    -0.205 F 
ATOM     73  C   UNL A   1      40.805  25.991  26.751  1.00  0.00     0.022 A 
BRANCH  71  74
ATOM     74  S   UNL A   1      42.750  27.413  25.459  1.00  0.00     0.127 S 
ATOM     75  O   UNL A   1      42.636  26.164  24.707  1.00  0.00    -0.237 OA
ATOM     76  O   UNL A   1      42.100  28.564  24.832  1.00  0.00    -0.237 OA
ATOM     77  O   UNL A   1      44.067  27.686  26.018  1.00  0.00    -0.744 OA
ENDBRANCH  71  74
ENDBRANCH  53  67
BRANCH  54  78
ATOM     78  C   UNL A   1      39.448  33.452  37.047  1.00  0.00     0.023 A 
ATOM     79  C   UNL A   1      39.980  34.755  37.104  1.00  0.00     0.012 A 
ATOM     80  C   UNL A   1      38.701  32.967  38.138  1.00  0.00     0.148 A 
ATOM     81  C   UNL A   1      39.806  35.545  38.241  1.00  0.00     0.002 A 
ATOM     82  C   UNL A   1      38.480  33.781  39.242  1.00  0.00     0.091 A 
ATOM     83  F   UNL A   1      38.209  31.723  38.066  1.00  0.00    -0.205 F 
ATOM     84  C   UNL A   1      39.048  35.062  39.306  1.00  0.00     0.022 A 
BRANCH  82  85
ATOM     85  S   UNL A   1      37.405  33.295  40.597  1.00  0.00     0.127 S 
ATOM     86  O   UNL A   1      38.100  32.125  41.127  1.00  0.00    -0.237 OA
ATOM     87  O   UNL A   1      37.450  34.480  41.454  1.00  0.00    -0.237 OA
ATOM     88  O   UNL A   1      36.104  33.039  39.996  1.00  0.00    -0.744 OA
ENDBRANCH  82  85
ENDBRANCH  54  78
BRANCH  66  89
ATOM     89  C   UNL A   1      44.218  28.684  35.245  1.00  0.00     0.023 A 
ATOM     90  C   UNL A   1      45.480  29.262  35.005  1.00  0.00     0.012 A 
ATOM     91  C   UNL A   1      44.102  27.643  36.188  1.00  0.00     0.148 A 
ATOM     92  C   UNL A   1      46.615  28.783  35.660  1.00  0.00     0.002 A 
ATOM     93  C   UNL A   1      45.228  27.209  36.878  1.00  0.00     0.091 A 
ATOM     94  F   UNL A   1      42.896  27.095  36.391  1.00  0.00    -0.205 F 
ATOM     95  C   UNL A   1      46.487  27.766  36.604  1.00  0.00     0.022 A 
BRANCH  93  96
ATOM     96  S   UNL A   1      45.140  25.978  38.182  1.00  0.00     0.127 S 
ATOM     97  O   UNL A   1      46.556  25.734  38.456  1.00  0.00    -0.237 OA
ATOM     98  O   UNL A   1      44.430  26.696  39.239  1.00  0.00    -0.237 OA
ATOM     99  O   UNL A   1      44.410  24.849  37.622  1.00  0.00    -0.744 OA
ENDBRANCH  93  96
ENDBRANCH  66  89
ENDBRANCH  40  41
ENDBRANCH  32  35
ENDBRANCH  30  31
ENDBRANCH   1  30
TORSDOF 17
ENDMDL
