MODEL 1
REMARK VINA RESULT:     -13.2      0.000      0.000
REMARK SMILES Cc1ccccc1[C@@H](Cc1c(Cl)cccc1Cl)C(=O)NCCCNC(=O)c1ccc(-c2c3nc(c(-c4cccc(S(=O)(=O)[O-])c4F)c4ccc([nH]4)c(-c4cccc(S(=O)(=O)[O-])c4F)c4nc(c(-c5cccc(S(=O)(=O)[O-])c5F)c5ccc2[nH]5)C=C4)C=C3)cc1
REMARK SMILES IDX 22 1 21 2 20 3 18 4 19 5 8 7 7 8 1 9 2 10 3 11 4 12 6 13
REMARK SMILES IDX 5 14 9 15 10 16 11 17 16 18 12 19 13 20 15 21 17 22 14 23
REMARK SMILES IDX 23 24 24 25 25 26 26 28 27 29 28 30 89 31 29 32 88 33 30 34
REMARK SMILES IDX 31 35 32 36 82 37 33 38 87 39 81 40 83 41 34 42 86 43 80 44
REMARK SMILES IDX 79 45 35 47 67 48 47 49 66 50 48 51 51 52 65 53 84 54 49 55
REMARK SMILES IDX 50 56 64 58 85 59 52 60 36 61 37 62 45 63 38 64 40 65 46 66
REMARK SMILES IDX 39 67 41 68 42 69 43 70 44 71 68 72 69 73 77 74 70 75 72 76
REMARK SMILES IDX 78 77 71 78 73 79 74 80 75 81 76 82 53 83 54 84 62 85 55 86
REMARK SMILES IDX 57 87 63 88 56 89 58 90 59 91 60 92 61 93
REMARK H PARENT 20 6 24 27 83 46 51 57
REMARK Flexibility Score: inf
ROOT
ATOM      1  C   UNL A   1      37.682  21.067  25.384  1.00  0.00     0.042 C 
ENDROOT
BRANCH   1   2
ATOM      2  C   UNL A   1      36.172  21.168  25.229  1.00  0.00     0.117 C 
BRANCH   2   3
ATOM      3  N   UNL A   1      35.800  22.119  24.200  1.00  0.00    -0.355 N 
ATOM      4  C   UNL A   1      34.593  22.548  23.749  1.00  0.00     0.227 C 
ATOM      5  O   UNL A   1      34.608  23.182  22.686  1.00  0.00    -0.274 OA
ATOM      6  H   UNL A   1      36.568  22.531  23.742  1.00  0.00     0.163 HD
BRANCH   4   7
ATOM      7  C   UNL A   1      33.240  22.302  24.458  1.00  0.00     0.113 C 
BRANCH   7   8
ATOM      8  C   UNL A   1      32.806  20.826  24.346  1.00  0.00    -0.032 A 
ATOM      9  C   UNL A   1      31.873  21.030  21.942  1.00  0.00     0.044 C 
ATOM     10  C   UNL A   1      32.324  20.250  23.149  1.00  0.00    -0.047 A 
ATOM     11  C   UNL A   1      32.253  18.845  23.037  1.00  0.00     0.004 A 
ATOM     12  C   UNL A   1      32.584  18.014  24.101  1.00  0.00     0.000 A 
ATOM     13  C   UNL A   1      33.002  19.967  25.443  1.00  0.00     0.005 A 
ATOM     14  C   UNL A   1      32.924  18.578  25.319  1.00  0.00     0.000 A 
ENDBRANCH   7   8
BRANCH   7  15
ATOM     15  C   UNL A   1      32.986  22.955  25.840  1.00  0.00     0.057 C 
BRANCH  15  16
ATOM     16  C   UNL A   1      32.118  24.207  25.960  1.00  0.00    -0.010 A 
ATOM     17  C   UNL A   1      32.690  25.486  25.749  1.00  0.00     0.045 A 
ATOM     18  C   UNL A   1      30.751  24.187  26.305  1.00  0.00     0.045 A 
ATOM     19  Cl  UNL A   1      34.393  25.722  25.517  1.00  0.00    -0.084 Cl
ATOM     20  C   UNL A   1      31.911  26.652  25.743  1.00  0.00     0.021 A 
ATOM     21  C   UNL A   1      29.969  25.352  26.261  1.00  0.00     0.021 A 
ATOM     22  Cl  UNL A   1      29.946  22.785  26.914  1.00  0.00    -0.084 Cl
ATOM     23  C   UNL A   1      30.543  26.581  25.962  1.00  0.00     0.003 A 
ENDBRANCH  15  16
ENDBRANCH   7  15
ENDBRANCH   4   7
ENDBRANCH   2   3
ENDBRANCH   1   2
BRANCH   1  24
ATOM     24  C   UNL A   1      38.372  22.399  25.622  1.00  0.00     0.118 C 
BRANCH  24  25
ATOM     25  N   UNL A   1      39.771  22.230  26.012  1.00  0.00    -0.352 N 
ATOM     26  C   UNL A   1      40.661  23.179  26.475  1.00  0.00     0.251 C 
ATOM     27  H   UNL A   1      40.126  21.315  25.935  1.00  0.00     0.163 HD
ATOM     28  O   UNL A   1      41.820  22.864  26.729  1.00  0.00    -0.269 OA
BRANCH  26  29
ATOM     29  C   UNL A   1      40.145  24.533  26.758  1.00  0.00     0.039 A 
ATOM     30  C   UNL A   1      40.857  25.620  26.243  1.00  0.00     0.014 A 
ATOM     31  C   UNL A   1      39.194  24.706  27.761  1.00  0.00     0.014 A 
ATOM     32  C   UNL A   1      40.806  26.839  26.911  1.00  0.00     0.010 A 
ATOM     33  C   UNL A   1      39.216  25.882  28.481  1.00  0.00     0.010 A 
ATOM     34  C   UNL A   1      40.078  26.918  28.097  1.00  0.00    -0.014 A 
BRANCH  34  35
ATOM     35  C   UNL A   1      40.227  27.994  29.066  1.00  0.00     0.031 A 
ATOM     36  C   UNL A   1      39.379  29.198  28.976  1.00  0.00     0.074 A 
ATOM     37  C   UNL A   1      41.079  27.845  30.104  1.00  0.00     0.049 A 
ATOM     38  N   UNL A   1      39.640  30.311  29.574  1.00  0.00    -0.248 NA
ATOM     39  C   UNL A   1      38.205  29.259  28.116  1.00  0.00     0.031 C 
ATOM     40  C   UNL A   1      41.097  28.617  31.341  1.00  0.00     0.029 A 
ATOM     41  N   UNL A   1      42.273  27.116  30.135  1.00  0.00    -0.354 N 
ATOM     42  C   UNL A   1      38.538  31.123  29.423  1.00  0.00     0.074 A 
ATOM     43  C   UNL A   1      37.756  30.484  28.395  1.00  0.00     0.031 C 
ATOM     44  C   UNL A   1      42.333  28.564  31.860  1.00  0.00     0.029 A 
ATOM     45  C   UNL A   1      43.175  27.884  30.893  1.00  0.00     0.049 A 
ATOM     46  H   UNL A   1      42.446  26.243  29.712  1.00  0.00     0.167 HD
ATOM     47  C   UNL A   1      38.354  32.148  30.302  1.00  0.00     0.034 A 
ATOM     48  C   UNL A   1      44.378  28.331  30.435  1.00  0.00     0.034 A 
ATOM     49  C   UNL A   1      39.570  32.381  31.098  1.00  0.00     0.049 A 
ATOM     50  C   UNL A   1      44.556  29.832  30.557  1.00  0.00     0.074 A 
ATOM     51  C   UNL A   1      39.932  32.077  32.400  1.00  0.00     0.029 A 
ATOM     52  N   UNL A   1      40.729  32.813  30.461  1.00  0.00    -0.354 N 
ATOM     53  N   UNL A   1      43.612  30.657  30.916  1.00  0.00    -0.248 NA
ATOM     54  C   UNL A   1      45.802  30.528  30.244  1.00  0.00     0.031 C 
ATOM     55  C   UNL A   1      41.339  32.247  32.515  1.00  0.00     0.029 A 
ATOM     56  C   UNL A   1      41.828  32.682  31.294  1.00  0.00     0.049 A 
ATOM     57  H   UNL A   1      40.763  33.165  29.541  1.00  0.00     0.167 HD
ATOM     58  C   UNL A   1      44.034  31.951  30.738  1.00  0.00     0.074 A 
ATOM     59  C   UNL A   1      45.442  31.814  30.408  1.00  0.00     0.031 C 
ATOM     60  C   UNL A   1      43.166  33.010  30.805  1.00  0.00     0.034 A 
BRANCH  47  61
ATOM     61  C   UNL A   1      37.013  32.791  30.655  1.00  0.00     0.023 A 
ATOM     62  C   UNL A   1      36.531  32.588  31.970  1.00  0.00     0.012 A 
ATOM     63  C   UNL A   1      36.125  33.465  29.782  1.00  0.00     0.148 A 
ATOM     64  C   UNL A   1      35.238  32.956  32.368  1.00  0.00     0.002 A 
ATOM     65  C   UNL A   1      34.836  33.837  30.175  1.00  0.00     0.091 A 
ATOM     66  F   UNL A   1      36.493  33.762  28.540  1.00  0.00    -0.205 F 
ATOM     67  C   UNL A   1      34.382  33.569  31.465  1.00  0.00     0.022 A 
BRANCH  65  68
ATOM     68  S   UNL A   1      33.672  34.631  29.045  1.00  0.00     0.127 S 
ATOM     69  O   UNL A   1      34.464  35.748  28.528  1.00  0.00    -0.237 OA
ATOM     70  O   UNL A   1      33.408  33.571  28.074  1.00  0.00    -0.237 OA
ATOM     71  O   UNL A   1      32.518  35.029  29.842  1.00  0.00    -0.744 OA
ENDBRANCH  65  68
ENDBRANCH  47  61
BRANCH  48  72
ATOM     72  C   UNL A   1      44.988  27.472  29.381  1.00  0.00     0.023 A 
ATOM     73  C   UNL A   1      45.422  26.184  29.779  1.00  0.00     0.012 A 
ATOM     74  C   UNL A   1      44.814  27.735  28.012  1.00  0.00     0.148 A 
ATOM     75  C   UNL A   1      45.568  25.154  28.850  1.00  0.00     0.002 A 
ATOM     76  C   UNL A   1      44.961  26.701  27.089  1.00  0.00     0.091 A 
ATOM     77  F   UNL A   1      44.431  28.964  27.639  1.00  0.00    -0.205 F 
ATOM     78  C   UNL A   1      45.307  25.405  27.508  1.00  0.00     0.022 A 
BRANCH  76  79
ATOM     79  S   UNL A   1      44.576  26.930  25.348  1.00  0.00     0.127 S 
ATOM     80  O   UNL A   1      45.877  27.309  24.808  1.00  0.00    -0.237 OA
ATOM     81  O   UNL A   1      44.107  25.601  24.954  1.00  0.00    -0.237 OA
ATOM     82  O   UNL A   1      43.541  27.953  25.330  1.00  0.00    -0.744 OA
ENDBRANCH  76  79
ENDBRANCH  48  72
BRANCH  60  83
ATOM     83  C   UNL A   1      43.473  34.441  30.389  1.00  0.00     0.023 A 
ATOM     84  C   UNL A   1      43.967  35.404  31.291  1.00  0.00     0.012 A 
ATOM     85  C   UNL A   1      43.415  34.831  29.024  1.00  0.00     0.148 A 
ATOM     86  C   UNL A   1      44.331  36.694  30.881  1.00  0.00     0.002 A 
ATOM     87  C   UNL A   1      43.878  36.080  28.606  1.00  0.00     0.091 A 
ATOM     88  F   UNL A   1      42.895  33.998  28.111  1.00  0.00    -0.205 F 
ATOM     89  C   UNL A   1      44.309  37.027  29.535  1.00  0.00     0.022 A 
BRANCH  87  90
ATOM     90  S   UNL A   1      44.075  36.439  26.854  1.00  0.00     0.127 S 
ATOM     91  O   UNL A   1      44.687  35.211  26.353  1.00  0.00    -0.237 OA
ATOM     92  O   UNL A   1      42.696  36.653  26.410  1.00  0.00    -0.237 OA
ATOM     93  O   UNL A   1      44.901  37.639  26.819  1.00  0.00    -0.744 OA
ENDBRANCH  87  90
ENDBRANCH  60  83
ENDBRANCH  34  35
ENDBRANCH  26  29
ENDBRANCH  24  25
ENDBRANCH   1  24
TORSDOF 16
ENDMDL
MODEL 2
REMARK VINA RESULT:     -13.2      4.302      9.676
REMARK SMILES Cc1ccccc1[C@@H](Cc1c(Cl)cccc1Cl)C(=O)NCCCNC(=O)c1ccc(-c2c3nc(c(-c4cccc(S(=O)(=O)[O-])c4F)c4ccc([nH]4)c(-c4cccc(S(=O)(=O)[O-])c4F)c4nc(c(-c5cccc(S(=O)(=O)[O-])c5F)c5ccc2[nH]5)C=C4)C=C3)cc1
REMARK SMILES IDX 22 1 21 2 20 3 18 4 19 5 8 7 7 8 1 9 2 10 3 11 4 12 6 13
REMARK SMILES IDX 5 14 9 15 10 16 11 17 16 18 12 19 13 20 15 21 17 22 14 23
REMARK SMILES IDX 23 24 24 25 25 26 26 28 27 29 28 30 89 31 29 32 88 33 30 34
REMARK SMILES IDX 31 35 32 36 82 37 33 38 87 39 81 40 83 41 34 42 86 43 80 44
REMARK SMILES IDX 79 45 35 47 67 48 47 49 66 50 48 51 51 52 65 53 84 54 49 55
REMARK SMILES IDX 50 56 64 58 85 59 52 60 36 61 37 62 45 63 38 64 40 65 46 66
REMARK SMILES IDX 39 67 41 68 42 69 43 70 44 71 68 72 69 73 77 74 70 75 72 76
REMARK SMILES IDX 78 77 71 78 73 79 74 80 75 81 76 82 53 83 54 84 62 85 55 86
REMARK SMILES IDX 57 87 63 88 56 89 58 90 59 91 60 92 61 93
REMARK H PARENT 20 6 24 27 83 46 51 57
REMARK Flexibility Score: inf
ROOT
ATOM      1  C   UNL A   1      32.383  30.978  26.899  1.00  0.00     0.042 C 
ENDROOT
BRANCH   1   2
ATOM      2  C   UNL A   1      31.698  30.002  25.953  1.00  0.00     0.117 C 
BRANCH   2   3
ATOM      3  N   UNL A   1      32.451  29.824  24.728  1.00  0.00    -0.355 N 
ATOM      4  C   UNL A   1      32.405  28.872  23.759  1.00  0.00     0.227 C 
ATOM      5  O   UNL A   1      33.353  28.866  22.964  1.00  0.00    -0.274 OA
ATOM      6  H   UNL A   1      33.123  30.525  24.567  1.00  0.00     0.163 HD
BRANCH   4   7
ATOM      7  C   UNL A   1      31.277  27.826  23.595  1.00  0.00     0.113 C 
BRANCH   7   8
ATOM      8  C   UNL A   1      30.021  28.448  22.952  1.00  0.00    -0.032 A 
ATOM      9  C   UNL A   1      28.357  26.765  23.996  1.00  0.00     0.044 C 
ATOM     10  C   UNL A   1      28.706  28.035  23.266  1.00  0.00    -0.047 A 
ATOM     11  C   UNL A   1      27.617  28.851  22.891  1.00  0.00     0.004 A 
ATOM     12  C   UNL A   1      27.802  30.019  22.160  1.00  0.00     0.000 A 
ATOM     13  C   UNL A   1      30.163  29.559  22.100  1.00  0.00     0.005 A 
ATOM     14  C   UNL A   1      29.076  30.354  21.732  1.00  0.00     0.000 A 
ENDBRANCH   7   8
BRANCH   7  15
ATOM     15  C   UNL A   1      31.638  26.407  23.086  1.00  0.00     0.057 C 
BRANCH  15  16
ATOM     16  C   UNL A   1      32.713  25.580  23.789  1.00  0.00    -0.010 A 
ATOM     17  C   UNL A   1      33.533  24.702  23.038  1.00  0.00     0.045 A 
ATOM     18  C   UNL A   1      32.939  25.604  25.181  1.00  0.00     0.045 A 
ATOM     19  Cl  UNL A   1      33.268  24.387  21.353  1.00  0.00    -0.084 Cl
ATOM     20  C   UNL A   1      34.599  24.005  23.623  1.00  0.00     0.021 A 
ATOM     21  C   UNL A   1      34.031  24.934  25.755  1.00  0.00     0.021 A 
ATOM     22  Cl  UNL A   1      31.858  26.344  26.307  1.00  0.00    -0.084 Cl
ATOM     23  C   UNL A   1      34.873  24.150  24.976  1.00  0.00     0.003 A 
ENDBRANCH  15  16
ENDBRANCH   7  15
ENDBRANCH   4   7
ENDBRANCH   2   3
ENDBRANCH   1   2
BRANCH   1  24
ATOM     24  C   UNL A   1      33.698  30.473  27.467  1.00  0.00     0.118 C 
BRANCH  24  25
ATOM     25  N   UNL A   1      34.323  31.452  28.355  1.00  0.00    -0.352 N 
ATOM     26  C   UNL A   1      35.495  31.341  29.078  1.00  0.00     0.251 C 
ATOM     27  H   UNL A   1      33.844  32.307  28.450  1.00  0.00     0.163 HD
ATOM     28  O   UNL A   1      35.859  32.261  29.805  1.00  0.00    -0.269 OA
BRANCH  26  29
ATOM     29  C   UNL A   1      36.334  30.147  28.856  1.00  0.00     0.039 A 
ATOM     30  C   UNL A   1      36.717  29.406  29.977  1.00  0.00     0.014 A 
ATOM     31  C   UNL A   1      36.973  29.978  27.629  1.00  0.00     0.014 A 
ATOM     32  C   UNL A   1      37.907  28.686  29.938  1.00  0.00     0.010 A 
ATOM     33  C   UNL A   1      38.199  29.349  27.617  1.00  0.00     0.010 A 
ATOM     34  C   UNL A   1      38.697  28.769  28.793  1.00  0.00    -0.014 A 
BRANCH  34  35
ATOM     35  C   UNL A   1      40.098  28.377  28.748  1.00  0.00     0.031 A 
ATOM     36  C   UNL A   1      40.468  26.959  28.577  1.00  0.00     0.074 A 
ATOM     37  C   UNL A   1      41.059  29.327  28.768  1.00  0.00     0.049 A 
ATOM     38  N   UNL A   1      41.639  26.482  28.834  1.00  0.00    -0.248 NA
ATOM     39  C   UNL A   1      39.499  25.945  28.184  1.00  0.00     0.031 C 
ATOM     40  C   UNL A   1      42.454  29.173  28.369  1.00  0.00     0.029 A 
ATOM     41  N   UNL A   1      41.017  30.575  29.399  1.00  0.00    -0.354 N 
ATOM     42  C   UNL A   1      41.664  25.187  28.368  1.00  0.00     0.074 A 
ATOM     43  C   UNL A   1      40.282  24.866  28.119  1.00  0.00     0.031 C 
ATOM     44  C   UNL A   1      43.183  30.105  28.999  1.00  0.00     0.029 A 
ATOM     45  C   UNL A   1      42.301  30.782  29.932  1.00  0.00     0.049 A 
ATOM     46  H   UNL A   1      40.245  31.184  29.458  1.00  0.00     0.167 HD
ATOM     47  C   UNL A   1      42.869  24.609  28.103  1.00  0.00     0.034 A 
ATOM     48  C   UNL A   1      42.560  31.001  31.253  1.00  0.00     0.034 A 
ATOM     49  C   UNL A   1      43.969  25.408  28.665  1.00  0.00     0.049 A 
ATOM     50  C   UNL A   1      43.564  30.031  31.846  1.00  0.00     0.074 A 
ATOM     51  C   UNL A   1      44.899  26.274  28.115  1.00  0.00     0.029 A 
ATOM     52  N   UNL A   1      44.069  25.554  30.045  1.00  0.00    -0.354 N 
ATOM     53  N   UNL A   1      44.033  28.986  31.221  1.00  0.00    -0.248 NA
ATOM     54  C   UNL A   1      44.088  30.139  33.205  1.00  0.00     0.031 C 
ATOM     55  C   UNL A   1      45.498  27.007  29.176  1.00  0.00     0.029 A 
ATOM     56  C   UNL A   1      44.955  26.567  30.372  1.00  0.00     0.049 A 
ATOM     57  H   UNL A   1      43.575  25.009  30.702  1.00  0.00     0.167 HD
ATOM     58  C   UNL A   1      44.760  28.213  32.092  1.00  0.00     0.074 A 
ATOM     59  C   UNL A   1      44.843  29.028  33.292  1.00  0.00     0.031 C 
ATOM     60  C   UNL A   1      45.161  26.943  31.769  1.00  0.00     0.034 A 
BRANCH  47  61
ATOM     61  C   UNL A   1      43.113  23.466  27.118  1.00  0.00     0.023 A 
ATOM     62  C   UNL A   1      43.761  23.792  25.903  1.00  0.00     0.012 A 
ATOM     63  C   UNL A   1      42.653  22.130  27.218  1.00  0.00     0.148 A 
ATOM     64  C   UNL A   1      43.875  22.888  24.838  1.00  0.00     0.002 A 
ATOM     65  C   UNL A   1      42.768  21.223  26.160  1.00  0.00     0.091 A 
ATOM     66  F   UNL A   1      42.080  21.694  28.335  1.00  0.00    -0.205 F 
ATOM     67  C   UNL A   1      43.365  21.604  24.960  1.00  0.00     0.022 A 
BRANCH  65  68
ATOM     68  S   UNL A   1      42.118  19.541  26.255  1.00  0.00     0.127 S 
ATOM     69  O   UNL A   1      42.996  18.822  25.330  1.00  0.00    -0.237 OA
ATOM     70  O   UNL A   1      42.315  19.209  27.665  1.00  0.00    -0.237 OA
ATOM     71  O   UNL A   1      40.723  19.606  25.834  1.00  0.00    -0.744 OA
ENDBRANCH  65  68
ENDBRANCH  47  61
BRANCH  48  72
ATOM     72  C   UNL A   1      41.441  31.647  31.995  1.00  0.00     0.023 A 
ATOM     73  C   UNL A   1      41.151  32.993  31.667  1.00  0.00     0.012 A 
ATOM     74  C   UNL A   1      40.480  30.897  32.695  1.00  0.00     0.148 A 
ATOM     75  C   UNL A   1      39.895  33.543  31.928  1.00  0.00     0.002 A 
ATOM     76  C   UNL A   1      39.227  31.453  32.951  1.00  0.00     0.091 A 
ATOM     77  F   UNL A   1      40.771  29.633  33.028  1.00  0.00    -0.205 F 
ATOM     78  C   UNL A   1      38.923  32.763  32.542  1.00  0.00     0.022 A 
BRANCH  76  79
ATOM     79  S   UNL A   1      37.898  30.486  33.679  1.00  0.00     0.127 S 
ATOM     80  O   UNL A   1      38.001  30.861  35.085  1.00  0.00    -0.237 OA
ATOM     81  O   UNL A   1      36.719  31.005  32.986  1.00  0.00    -0.237 OA
ATOM     82  O   UNL A   1      38.222  29.106  33.348  1.00  0.00    -0.744 OA
ENDBRANCH  76  79
ENDBRANCH  48  72
BRANCH  60  83
ATOM     83  C   UNL A   1      45.751  25.923  32.732  1.00  0.00     0.023 A 
ATOM     84  C   UNL A   1      47.139  25.751  32.899  1.00  0.00     0.012 A 
ATOM     85  C   UNL A   1      44.917  25.197  33.624  1.00  0.00     0.148 A 
ATOM     86  C   UNL A   1      47.674  24.873  33.851  1.00  0.00     0.002 A 
ATOM     87  C   UNL A   1      45.456  24.405  34.640  1.00  0.00     0.091 A 
ATOM     88  F   UNL A   1      43.584  25.252  33.490  1.00  0.00    -0.205 F 
ATOM     89  C   UNL A   1      46.834  24.216  34.739  1.00  0.00     0.022 A 
BRANCH  87  90
ATOM     90  S   UNL A   1      44.399  23.740  35.935  1.00  0.00     0.127 S 
ATOM     91  O   UNL A   1      43.431  22.956  35.172  1.00  0.00    -0.237 OA
ATOM     92  O   UNL A   1      45.331  22.940  36.734  1.00  0.00    -0.237 OA
ATOM     93  O   UNL A   1      43.885  24.916  36.625  1.00  0.00    -0.744 OA
ENDBRANCH  87  90
ENDBRANCH  60  83
ENDBRANCH  34  35
ENDBRANCH  26  29
ENDBRANCH  24  25
ENDBRANCH   1  24
TORSDOF 16
ENDMDL
MODEL 3
REMARK VINA RESULT:     -13.2      4.138      9.491
REMARK SMILES Cc1ccccc1[C@@H](Cc1c(Cl)cccc1Cl)C(=O)NCCCNC(=O)c1ccc(-c2c3nc(c(-c4cccc(S(=O)(=O)[O-])c4F)c4ccc([nH]4)c(-c4cccc(S(=O)(=O)[O-])c4F)c4nc(c(-c5cccc(S(=O)(=O)[O-])c5F)c5ccc2[nH]5)C=C4)C=C3)cc1
REMARK SMILES IDX 22 1 21 2 20 3 18 4 19 5 8 7 7 8 1 9 2 10 3 11 4 12 6 13
REMARK SMILES IDX 5 14 9 15 10 16 11 17 16 18 12 19 13 20 15 21 17 22 14 23
REMARK SMILES IDX 23 24 24 25 25 26 26 28 27 29 28 30 89 31 29 32 88 33 30 34
REMARK SMILES IDX 31 35 32 36 82 37 33 38 87 39 81 40 83 41 34 42 86 43 80 44
REMARK SMILES IDX 79 45 35 47 67 48 47 49 66 50 48 51 51 52 65 53 84 54 49 55
REMARK SMILES IDX 50 56 64 58 85 59 52 60 36 61 37 62 45 63 38 64 40 65 46 66
REMARK SMILES IDX 39 67 41 68 42 69 43 70 44 71 68 72 69 73 77 74 70 75 72 76
REMARK SMILES IDX 78 77 71 78 73 79 74 80 75 81 76 82 53 83 54 84 62 85 55 86
REMARK SMILES IDX 57 87 63 88 56 89 58 90 59 91 60 92 61 93
REMARK H PARENT 20 6 24 27 83 46 51 57
REMARK Flexibility Score: inf
ROOT
ATOM      1  C   UNL A   1      32.421  30.712  27.088  1.00  0.00     0.042 C 
ENDROOT
BRANCH   1   2
ATOM      2  C   UNL A   1      31.769  29.746  26.109  1.00  0.00     0.117 C 
BRANCH   2   3
ATOM      3  N   UNL A   1      32.385  29.813  24.799  1.00  0.00    -0.355 N 
ATOM      4  C   UNL A   1      33.037  28.885  24.050  1.00  0.00     0.227 C 
ATOM      5  O   UNL A   1      33.667  29.323  23.079  1.00  0.00    -0.274 OA
ATOM      6  H   UNL A   1      32.319  30.697  24.372  1.00  0.00     0.163 HD
BRANCH   4   7
ATOM      7  C   UNL A   1      33.044  27.364  24.328  1.00  0.00     0.113 C 
BRANCH   7   8
ATOM      8  C   UNL A   1      31.616  26.784  24.324  1.00  0.00    -0.032 A 
ATOM      9  C   UNL A   1      31.912  25.396  26.487  1.00  0.00     0.044 C 
ATOM     10  C   UNL A   1      31.090  26.014  25.387  1.00  0.00    -0.047 A 
ATOM     11  C   UNL A   1      29.698  25.794  25.458  1.00  0.00     0.004 A 
ATOM     12  C   UNL A   1      28.836  26.260  24.471  1.00  0.00     0.000 A 
ATOM     13  C   UNL A   1      30.739  27.123  23.277  1.00  0.00     0.005 A 
ATOM     14  C   UNL A   1      29.364  26.894  23.359  1.00  0.00     0.000 A 
ENDBRANCH   7   8
BRANCH   7  15
ATOM     15  C   UNL A   1      34.112  26.479  23.635  1.00  0.00     0.057 C 
BRANCH  15  16
ATOM     16  C   UNL A   1      33.840  25.000  23.367  1.00  0.00    -0.010 A 
ATOM     17  C   UNL A   1      34.333  24.017  24.261  1.00  0.00     0.045 A 
ATOM     18  C   UNL A   1      33.135  24.520  22.244  1.00  0.00     0.045 A 
ATOM     19  Cl  UNL A   1      35.390  24.402  25.582  1.00  0.00    -0.084 Cl
ATOM     20  C   UNL A   1      34.018  22.660  24.114  1.00  0.00     0.021 A 
ATOM     21  C   UNL A   1      32.791  23.164  22.121  1.00  0.00     0.021 A 
ATOM     22  Cl  UNL A   1      32.735  25.505  20.882  1.00  0.00    -0.084 Cl
ATOM     23  C   UNL A   1      33.215  22.236  23.064  1.00  0.00     0.003 A 
ENDBRANCH  15  16
ENDBRANCH   7  15
ENDBRANCH   4   7
ENDBRANCH   2   3
ENDBRANCH   1   2
BRANCH   1  24
ATOM     24  C   UNL A   1      33.883  30.417  27.372  1.00  0.00     0.118 C 
BRANCH  24  25
ATOM     25  N   UNL A   1      34.472  31.395  28.286  1.00  0.00    -0.352 N 
ATOM     26  C   UNL A   1      35.614  31.282  29.055  1.00  0.00     0.251 C 
ATOM     27  H   UNL A   1      33.989  32.250  28.363  1.00  0.00     0.163 HD
ATOM     28  O   UNL A   1      35.948  32.201  29.798  1.00  0.00    -0.269 OA
BRANCH  26  29
ATOM     29  C   UNL A   1      36.461  30.089  28.865  1.00  0.00     0.039 A 
ATOM     30  C   UNL A   1      36.846  29.378  30.005  1.00  0.00     0.014 A 
ATOM     31  C   UNL A   1      37.105  29.895  27.645  1.00  0.00     0.014 A 
ATOM     32  C   UNL A   1      38.041  28.666  29.987  1.00  0.00     0.010 A 
ATOM     33  C   UNL A   1      38.336  29.273  27.651  1.00  0.00     0.010 A 
ATOM     34  C   UNL A   1      38.834  28.726  28.842  1.00  0.00    -0.014 A 
BRANCH  34  35
ATOM     35  C   UNL A   1      40.238  28.342  28.811  1.00  0.00     0.031 A 
ATOM     36  C   UNL A   1      40.618  26.926  28.654  1.00  0.00     0.074 A 
ATOM     37  C   UNL A   1      41.193  29.299  28.831  1.00  0.00     0.049 A 
ATOM     38  N   UNL A   1      41.790  26.458  28.923  1.00  0.00    -0.248 NA
ATOM     39  C   UNL A   1      39.658  25.903  28.261  1.00  0.00     0.031 C 
ATOM     40  C   UNL A   1      42.591  29.150  28.445  1.00  0.00     0.029 A 
ATOM     41  N   UNL A   1      41.137  30.551  29.453  1.00  0.00    -0.354 N 
ATOM     42  C   UNL A   1      41.826  25.160  28.467  1.00  0.00     0.074 A 
ATOM     43  C   UNL A   1      40.448  24.828  28.210  1.00  0.00     0.031 C 
ATOM     44  C   UNL A   1      43.310  30.091  29.073  1.00  0.00     0.029 A 
ATOM     45  C   UNL A   1      42.416  30.770  29.995  1.00  0.00     0.049 A 
ATOM     46  H   UNL A   1      40.361  31.156  29.501  1.00  0.00     0.167 HD
ATOM     47  C   UNL A   1      43.037  24.588  28.215  1.00  0.00     0.034 A 
ATOM     48  C   UNL A   1      42.663  31.000  31.315  1.00  0.00     0.034 A 
ATOM     49  C   UNL A   1      44.128  25.397  28.780  1.00  0.00     0.049 A 
ATOM     50  C   UNL A   1      43.669  30.041  31.923  1.00  0.00     0.074 A 
ATOM     51  C   UNL A   1      45.057  26.265  28.231  1.00  0.00     0.029 A 
ATOM     52  N   UNL A   1      44.216  25.554  30.160  1.00  0.00    -0.354 N 
ATOM     53  N   UNL A   1      44.149  28.994  31.310  1.00  0.00    -0.248 NA
ATOM     54  C   UNL A   1      44.182  30.162  33.286  1.00  0.00     0.031 C 
ATOM     55  C   UNL A   1      45.642  27.010  29.291  1.00  0.00     0.029 A 
ATOM     56  C   UNL A   1      45.093  26.575  30.486  1.00  0.00     0.049 A 
ATOM     57  H   UNL A   1      43.721  25.011  30.817  1.00  0.00     0.167 HD
ATOM     58  C   UNL A   1      44.875  28.233  32.192  1.00  0.00     0.074 A 
ATOM     59  C   UNL A   1      44.943  29.057  33.387  1.00  0.00     0.031 C 
ATOM     60  C   UNL A   1      45.286  26.963  31.881  1.00  0.00     0.034 A 
BRANCH  47  61
ATOM     61  C   UNL A   1      43.295  23.438  27.240  1.00  0.00     0.023 A 
ATOM     62  C   UNL A   1      44.108  23.720  26.117  1.00  0.00     0.012 A 
ATOM     63  C   UNL A   1      42.713  22.147  27.257  1.00  0.00     0.148 A 
ATOM     64  C   UNL A   1      44.269  22.822  25.053  1.00  0.00     0.002 A 
ATOM     65  C   UNL A   1      42.873  21.246  26.200  1.00  0.00     0.091 A 
ATOM     66  F   UNL A   1      41.978  21.751  28.291  1.00  0.00    -0.205 F 
ATOM     67  C   UNL A   1      43.639  21.587  25.087  1.00  0.00     0.022 A 
BRANCH  65  68
ATOM     68  S   UNL A   1      42.074  19.627  26.182  1.00  0.00     0.127 S 
ATOM     69  O   UNL A   1      42.658  19.012  24.989  1.00  0.00    -0.237 OA
ATOM     70  O   UNL A   1      42.519  19.045  27.447  1.00  0.00    -0.237 OA
ATOM     71  O   UNL A   1      40.639  19.869  26.095  1.00  0.00    -0.744 OA
ENDBRANCH  65  68
ENDBRANCH  47  61
BRANCH  48  72
ATOM     72  C   UNL A   1      41.535  31.644  32.044  1.00  0.00     0.023 A 
ATOM     73  C   UNL A   1      41.224  32.979  31.688  1.00  0.00     0.012 A 
ATOM     74  C   UNL A   1      40.585  30.895  32.760  1.00  0.00     0.148 A 
ATOM     75  C   UNL A   1      39.960  33.515  31.937  1.00  0.00     0.002 A 
ATOM     76  C   UNL A   1      39.324  31.438  33.005  1.00  0.00     0.091 A 
ATOM     77  F   UNL A   1      40.896  29.643  33.119  1.00  0.00    -0.205 F 
ATOM     78  C   UNL A   1      39.001  32.733  32.568  1.00  0.00     0.022 A 
BRANCH  76  79
ATOM     79  S   UNL A   1      38.010  30.466  33.753  1.00  0.00     0.127 S 
ATOM     80  O   UNL A   1      38.229  30.722  35.172  1.00  0.00    -0.237 OA
ATOM     81  O   UNL A   1      36.807  31.083  33.193  1.00  0.00    -0.237 OA
ATOM     82  O   UNL A   1      38.249  29.106  33.293  1.00  0.00    -0.744 OA
ENDBRANCH  76  79
ENDBRANCH  48  72
BRANCH  60  83
ATOM     83  C   UNL A   1      45.875  25.954  32.857  1.00  0.00     0.023 A 
ATOM     84  C   UNL A   1      47.261  25.830  33.077  1.00  0.00     0.012 A 
ATOM     85  C   UNL A   1      45.033  25.187  33.707  1.00  0.00     0.148 A 
ATOM     86  C   UNL A   1      47.789  24.961  34.041  1.00  0.00     0.002 A 
ATOM     87  C   UNL A   1      45.561  24.403  34.735  1.00  0.00     0.091 A 
ATOM     88  F   UNL A   1      43.706  25.195  33.521  1.00  0.00    -0.205 F 
ATOM     89  C   UNL A   1      46.940  24.264  34.887  1.00  0.00     0.022 A 
BRANCH  87  90
ATOM     90  S   UNL A   1      44.479  23.685  35.980  1.00  0.00     0.127 S 
ATOM     91  O   UNL A   1      43.946  24.868  36.648  1.00  0.00    -0.237 OA
ATOM     92  O   UNL A   1      43.501  22.951  35.173  1.00  0.00    -0.237 OA
ATOM     93  O   UNL A   1      45.354  22.829  36.772  1.00  0.00    -0.744 OA
ENDBRANCH  87  90
ENDBRANCH  60  83
ENDBRANCH  34  35
ENDBRANCH  26  29
ENDBRANCH  24  25
ENDBRANCH   1  24
TORSDOF 16
ENDMDL
