MODEL 1
REMARK VINA RESULT:     -11.7      0.000      0.000
REMARK SMILES CC(C)C[C@H](CNC(=O)[C@]1([NH3+])CCC[C@@H](C)C1)C(=O)NCCCNC(=O)c1ccc(-c2c3nc(c(-c4cccc(S(=O)(=O)[O-])c4F)c4ccc([nH]4)c(-c4cccc(S(=O)(=O)[O-])c4F)c4nc(c(-c5cccc(S(=O)(=O)[O-])c5F)c5ccc2[nH]5)C=C4)C=C3)cc1
REMARK SMILES IDX 21 1 20 2 18 3 19 4 5 6 4 7 2 8 1 9 3 10 6 11 7 12 8 13 9 15
REMARK SMILES IDX 10 16 12 17 17 18 13 19 15 20 14 21 16 22 11 23 22 27 23 28
REMARK SMILES IDX 24 29 25 30 26 32 27 33 28 34 89 35 29 36 88 37 30 38 31 39
REMARK SMILES IDX 32 40 82 41 33 42 87 43 81 44 83 45 34 46 86 47 80 48 79 49
REMARK SMILES IDX 35 51 67 52 47 53 66 54 48 55 51 56 65 57 84 58 49 59 50 60
REMARK SMILES IDX 64 62 85 63 52 64 36 65 37 66 45 67 38 68 40 69 46 70 39 71
REMARK SMILES IDX 41 72 42 73 43 74 44 75 68 76 69 77 77 78 70 79 72 80 78 81
REMARK SMILES IDX 71 82 73 83 74 84 75 85 76 86 53 87 54 88 62 89 55 90 57 91
REMARK SMILES IDX 63 92 56 93 58 94 59 95 60 96 61 97
REMARK H PARENT 20 5 7 14 11 24 11 25 11 26 24 31 83 50 51 61
REMARK Flexibility Score: inf
ROOT
ATOM      1  C   UNL A   1      35.393  23.207  24.229  1.00  0.00     0.117 C 
ENDROOT
BRANCH   1   2
ATOM      2  N   UNL A   1      34.724  23.413  22.961  1.00  0.00    -0.356 N 
ATOM      3  C   UNL A   1      33.394  23.315  22.654  1.00  0.00     0.224 C 
ATOM      4  O   UNL A   1      33.011  23.834  21.603  1.00  0.00    -0.275 OA
ATOM      5  H   UNL A   1      35.310  23.660  22.211  1.00  0.00     0.163 HD
BRANCH   3   6
ATOM      6  C   UNL A   1      32.426  22.474  23.507  1.00  0.00     0.098 C 
BRANCH   6   7
ATOM      7  C   UNL A   1      32.350  20.997  23.051  1.00  0.00     0.018 C 
BRANCH   7   8
ATOM      8  C   UNL A   1      32.956  19.834  23.879  1.00  0.00    -0.017 C 
ATOM      9  C   UNL A   1      32.598  19.767  25.368  1.00  0.00     0.007 C 
ATOM     10  C   UNL A   1      32.455  18.513  23.262  1.00  0.00     0.007 C 
ENDBRANCH   7   8
ENDBRANCH   6   7
BRANCH   6  11
ATOM     11  C   UNL A   1      31.173  23.330  23.661  1.00  0.00     0.129 C 
BRANCH  11  12
ATOM     12  N   UNL A   1      30.578  23.406  24.979  1.00  0.00    -0.350 N 
ATOM     13  C   UNL A   1      30.565  24.483  25.840  1.00  0.00     0.281 C 
ATOM     14  H   UNL A   1      30.128  22.591  25.299  1.00  0.00     0.163 HD
ATOM     15  O   UNL A   1      29.916  24.344  26.881  1.00  0.00    -0.268 OA
BRANCH  13  16
ATOM     16  C   UNL A   1      31.474  25.761  25.583  1.00  0.00     0.174 C 
ATOM     17  C   UNL A   1      31.267  26.270  24.132  1.00  0.00     0.079 C 
ATOM     18  C   UNL A   1      32.990  25.485  25.733  1.00  0.00     0.082 C 
ATOM     19  C   UNL A   1      32.164  27.461  23.763  1.00  0.00     0.007 C 
ATOM     20  C   UNL A   1      33.930  26.655  25.410  1.00  0.00    -0.008 C 
ATOM     21  C   UNL A   1      33.646  27.182  24.006  1.00  0.00     0.004 C 
ATOM     22  C   UNL A   1      33.905  27.761  26.473  1.00  0.00     0.008 C 
BRANCH  16  23
ATOM     23  N   UNL A   1      30.974  26.821  26.498  1.00  0.00    -0.345 N 
ATOM     24  H   UNL A   1      30.033  27.097  26.216  1.00  0.00     0.345 HD
ATOM     25  H   UNL A   1      31.593  27.630  26.452  1.00  0.00     0.345 HD
ATOM     26  H   UNL A   1      30.951  26.463  27.453  1.00  0.00     0.345 HD
ENDBRANCH  16  23
ENDBRANCH  13  16
ENDBRANCH  11  12
ENDBRANCH   6  11
ENDBRANCH   3   6
ENDBRANCH   1   2
BRANCH   1  27
ATOM     27  C   UNL A   1      36.029  21.837  24.415  1.00  0.00     0.042 C 
BRANCH  27  28
ATOM     28  C   UNL A   1      36.691  21.648  25.771  1.00  0.00     0.118 C 
BRANCH  28  29
ATOM     29  N   UNL A   1      37.746  20.638  25.746  1.00  0.00    -0.352 N 
ATOM     30  C   UNL A   1      39.094  20.735  26.003  1.00  0.00     0.251 C 
ATOM     31  H   UNL A   1      37.441  19.735  25.503  1.00  0.00     0.163 HD
ATOM     32  O   UNL A   1      39.818  19.779  25.766  1.00  0.00    -0.269 OA
BRANCH  30  33
ATOM     33  C   UNL A   1      39.668  21.989  26.540  1.00  0.00     0.039 A 
ATOM     34  C   UNL A   1      40.694  21.912  27.489  1.00  0.00     0.014 A 
ATOM     35  C   UNL A   1      39.200  23.233  26.121  1.00  0.00     0.014 A 
ATOM     36  C   UNL A   1      41.300  23.083  27.952  1.00  0.00     0.010 A 
ATOM     37  C   UNL A   1      39.869  24.389  26.504  1.00  0.00     0.010 A 
ATOM     38  C   UNL A   1      40.922  24.329  27.428  1.00  0.00    -0.014 A 
BRANCH  38  39
ATOM     39  C   UNL A   1      41.603  25.590  27.816  1.00  0.00     0.031 A 
ATOM     40  C   UNL A   1      40.842  26.647  28.570  1.00  0.00     0.074 A 
ATOM     41  C   UNL A   1      42.854  25.836  27.379  1.00  0.00     0.049 A 
ATOM     42  N   UNL A   1      41.197  27.870  28.861  1.00  0.00    -0.248 NA
ATOM     43  C   UNL A   1      39.484  26.295  29.023  1.00  0.00     0.031 C 
ATOM     44  C   UNL A   1      43.670  24.920  26.579  1.00  0.00     0.029 A 
ATOM     45  N   UNL A   1      43.645  26.952  27.512  1.00  0.00    -0.354 N 
ATOM     46  C   UNL A   1      40.095  28.448  29.482  1.00  0.00     0.074 A 
ATOM     47  C   UNL A   1      39.047  27.453  29.496  1.00  0.00     0.031 C 
ATOM     48  C   UNL A   1      44.841  25.509  26.290  1.00  0.00     0.029 A 
ATOM     49  C   UNL A   1      44.845  26.859  26.845  1.00  0.00     0.049 A 
ATOM     50  H   UNL A   1      43.378  27.742  28.034  1.00  0.00     0.167 HD
ATOM     51  C   UNL A   1      39.975  29.687  30.015  1.00  0.00     0.034 A 
ATOM     52  C   UNL A   1      45.829  27.766  26.679  1.00  0.00     0.034 A 
ATOM     53  C   UNL A   1      41.039  30.652  30.044  1.00  0.00     0.049 A 
ATOM     54  C   UNL A   1      45.685  29.122  27.315  1.00  0.00     0.074 A 
ATOM     55  C   UNL A   1      41.051  31.898  30.645  1.00  0.00     0.029 A 
ATOM     56  N   UNL A   1      42.277  30.482  29.446  1.00  0.00    -0.354 N 
ATOM     57  N   UNL A   1      44.691  29.597  28.023  1.00  0.00    -0.248 NA
ATOM     58  C   UNL A   1      46.810  30.054  27.157  1.00  0.00     0.031 C 
ATOM     59  C   UNL A   1      42.288  32.494  30.386  1.00  0.00     0.029 A 
ATOM     60  C   UNL A   1      43.059  31.603  29.654  1.00  0.00     0.049 A 
ATOM     61  H   UNL A   1      42.557  29.681  28.946  1.00  0.00     0.167 HD
ATOM     62  C   UNL A   1      45.086  30.866  28.433  1.00  0.00     0.074 A 
ATOM     63  C   UNL A   1      46.417  31.080  27.901  1.00  0.00     0.031 C 
ATOM     64  C   UNL A   1      44.406  31.774  29.173  1.00  0.00     0.034 A 
BRANCH  51  65
ATOM     65  C   UNL A   1      38.660  30.052  30.654  1.00  0.00     0.023 A 
ATOM     66  C   UNL A   1      38.384  29.632  31.972  1.00  0.00     0.012 A 
ATOM     67  C   UNL A   1      37.724  30.858  29.977  1.00  0.00     0.148 A 
ATOM     68  C   UNL A   1      37.183  29.974  32.591  1.00  0.00     0.002 A 
ATOM     69  C   UNL A   1      36.551  31.236  30.619  1.00  0.00     0.091 A 
ATOM     70  F   UNL A   1      37.994  31.232  28.718  1.00  0.00    -0.205 F 
ATOM     71  C   UNL A   1      36.272  30.784  31.919  1.00  0.00     0.022 A 
BRANCH  69  72
ATOM     72  S   UNL A   1      35.351  32.345  29.871  1.00  0.00     0.127 S 
ATOM     73  O   UNL A   1      36.187  33.496  29.530  1.00  0.00    -0.237 OA
ATOM     74  O   UNL A   1      34.887  31.567  28.723  1.00  0.00    -0.237 OA
ATOM     75  O   UNL A   1      34.339  32.588  30.890  1.00  0.00    -0.744 OA
ENDBRANCH  69  72
ENDBRANCH  51  65
BRANCH  52  76
ATOM     76  C   UNL A   1      47.061  27.399  25.924  1.00  0.00     0.023 A 
ATOM     77  C   UNL A   1      48.091  26.700  26.584  1.00  0.00     0.012 A 
ATOM     78  C   UNL A   1      47.208  27.709  24.559  1.00  0.00     0.148 A 
ATOM     79  C   UNL A   1      49.259  26.346  25.906  1.00  0.00     0.002 A 
ATOM     80  C   UNL A   1      48.348  27.305  23.875  1.00  0.00     0.091 A 
ATOM     81  F   UNL A   1      46.220  28.382  23.951  1.00  0.00    -0.205 F 
ATOM     82  C   UNL A   1      49.384  26.640  24.552  1.00  0.00     0.022 A 
BRANCH  80  83
ATOM     83  S   UNL A   1      48.536  27.518  22.102  1.00  0.00     0.127 S 
ATOM     84  O   UNL A   1      49.788  28.264  22.021  1.00  0.00    -0.237 OA
ATOM     85  O   UNL A   1      48.612  26.132  21.639  1.00  0.00    -0.237 OA
ATOM     86  O   UNL A   1      47.343  28.231  21.665  1.00  0.00    -0.744 OA
ENDBRANCH  80  83
ENDBRANCH  52  76
BRANCH  64  87
ATOM     87  C   UNL A   1      45.098  33.067  29.514  1.00  0.00     0.023 A 
ATOM     88  C   UNL A   1      45.924  33.145  30.652  1.00  0.00     0.012 A 
ATOM     89  C   UNL A   1      45.012  34.169  28.641  1.00  0.00     0.148 A 
ATOM     90  C   UNL A   1      46.638  34.311  30.926  1.00  0.00     0.002 A 
ATOM     91  C   UNL A   1      45.765  35.308  28.893  1.00  0.00     0.091 A 
ATOM     92  F   UNL A   1      44.206  34.076  27.573  1.00  0.00    -0.205 F 
ATOM     93  C   UNL A   1      46.570  35.385  30.041  1.00  0.00     0.022 A 
BRANCH  91  94
ATOM     94  S   UNL A   1      45.823  36.699  27.757  1.00  0.00     0.127 S 
ATOM     95  O   UNL A   1      46.293  36.060  26.529  1.00  0.00    -0.237 OA
ATOM     96  O   UNL A   1      44.426  37.130  27.726  1.00  0.00    -0.237 OA
ATOM     97  O   UNL A   1      46.742  37.663  28.346  1.00  0.00    -0.744 OA
ENDBRANCH  91  94
ENDBRANCH  64  87
ENDBRANCH  38  39
ENDBRANCH  30  33
ENDBRANCH  28  29
ENDBRANCH  27  28
ENDBRANCH   1  27
TORSDOF 19
ENDMDL
MODEL 2
REMARK VINA RESULT:     -11.3      1.630      2.299
REMARK SMILES CC(C)C[C@H](CNC(=O)[C@]1([NH3+])CCC[C@@H](C)C1)C(=O)NCCCNC(=O)c1ccc(-c2c3nc(c(-c4cccc(S(=O)(=O)[O-])c4F)c4ccc([nH]4)c(-c4cccc(S(=O)(=O)[O-])c4F)c4nc(c(-c5cccc(S(=O)(=O)[O-])c5F)c5ccc2[nH]5)C=C4)C=C3)cc1
REMARK SMILES IDX 21 1 20 2 18 3 19 4 5 6 4 7 2 8 1 9 3 10 6 11 7 12 8 13 9 15
REMARK SMILES IDX 10 16 12 17 17 18 13 19 15 20 14 21 16 22 11 23 22 27 23 28
REMARK SMILES IDX 24 29 25 30 26 32 27 33 28 34 89 35 29 36 88 37 30 38 31 39
REMARK SMILES IDX 32 40 82 41 33 42 87 43 81 44 83 45 34 46 86 47 80 48 79 49
REMARK SMILES IDX 35 51 67 52 47 53 66 54 48 55 51 56 65 57 84 58 49 59 50 60
REMARK SMILES IDX 64 62 85 63 52 64 36 65 37 66 45 67 38 68 40 69 46 70 39 71
REMARK SMILES IDX 41 72 42 73 43 74 44 75 68 76 69 77 77 78 70 79 72 80 78 81
REMARK SMILES IDX 71 82 73 83 74 84 75 85 76 86 53 87 54 88 62 89 55 90 57 91
REMARK SMILES IDX 63 92 56 93 58 94 59 95 60 96 61 97
REMARK H PARENT 20 5 7 14 11 24 11 25 11 26 24 31 83 50 51 61
REMARK Flexibility Score: inf
ROOT
ATOM      1  C   UNL A   1      36.681  20.844  24.965  1.00  0.00     0.117 C 
ENDROOT
BRANCH   1   2
ATOM      2  N   UNL A   1      36.839  21.863  23.948  1.00  0.00    -0.356 N 
ATOM      3  C   UNL A   1      36.085  22.979  23.711  1.00  0.00     0.224 C 
ATOM      4  O   UNL A   1      36.578  23.863  23.005  1.00  0.00    -0.275 OA
ATOM      5  H   UNL A   1      37.602  21.735  23.340  1.00  0.00     0.163 HD
BRANCH   3   6
ATOM      6  C   UNL A   1      34.622  23.084  24.182  1.00  0.00     0.098 C 
BRANCH   6   7
ATOM      7  C   UNL A   1      33.603  22.878  23.035  1.00  0.00     0.018 C 
BRANCH   7   8
ATOM      8  C   UNL A   1      32.187  22.295  23.271  1.00  0.00    -0.017 C 
ATOM      9  C   UNL A   1      31.012  23.280  23.290  1.00  0.00     0.007 C 
ATOM     10  C   UNL A   1      31.893  21.308  22.125  1.00  0.00     0.007 C 
ENDBRANCH   7   8
ENDBRANCH   6   7
BRANCH   6  11
ATOM     11  C   UNL A   1      34.575  24.311  25.086  1.00  0.00     0.129 C 
BRANCH  11  12
ATOM     12  N   UNL A   1      33.458  24.421  26.001  1.00  0.00    -0.350 N 
ATOM     13  C   UNL A   1      32.503  25.415  26.054  1.00  0.00     0.281 C 
ATOM     14  H   UNL A   1      33.370  23.700  26.667  1.00  0.00     0.163 HD
ATOM     15  O   UNL A   1      31.588  25.251  26.867  1.00  0.00    -0.268 OA
BRANCH  13  16
ATOM     16  C   UNL A   1      32.667  26.767  25.237  1.00  0.00     0.174 C 
ATOM     17  C   UNL A   1      31.424  27.670  25.459  1.00  0.00     0.079 C 
ATOM     18  C   UNL A   1      32.783  26.559  23.708  1.00  0.00     0.082 C 
ATOM     19  C   UNL A   1      31.456  28.973  24.647  1.00  0.00     0.007 C 
ATOM     20  C   UNL A   1      32.853  27.831  22.851  1.00  0.00    -0.008 C 
ATOM     21  C   UNL A   1      31.658  28.732  23.152  1.00  0.00     0.004 C 
ATOM     22  C   UNL A   1      34.193  28.567  22.972  1.00  0.00     0.008 C 
BRANCH  16  23
ATOM     23  N   UNL A   1      33.836  27.473  25.827  1.00  0.00    -0.345 N 
ATOM     24  H   UNL A   1      33.666  27.642  26.819  1.00  0.00     0.345 HD
ATOM     25  H   UNL A   1      33.972  28.363  25.349  1.00  0.00     0.345 HD
ATOM     26  H   UNL A   1      34.671  26.897  25.718  1.00  0.00     0.345 HD
ENDBRANCH  16  23
ENDBRANCH  13  16
ENDBRANCH  11  12
ENDBRANCH   6  11
ENDBRANCH   3   6
ENDBRANCH   1   2
BRANCH   1  27
ATOM     27  C   UNL A   1      37.806  19.822  25.044  1.00  0.00     0.042 C 
BRANCH  27  28
ATOM     28  C   UNL A   1      39.045  20.329  25.765  1.00  0.00     0.118 C 
BRANCH  28  29
ATOM     29  N   UNL A   1      40.079  19.305  25.895  1.00  0.00    -0.352 N 
ATOM     30  C   UNL A   1      41.431  19.413  26.121  1.00  0.00     0.251 C 
ATOM     31  H   UNL A   1      39.751  18.382  25.805  1.00  0.00     0.163 HD
ATOM     32  O   UNL A   1      42.133  18.414  26.036  1.00  0.00    -0.269 OA
BRANCH  30  33
ATOM     33  C   UNL A   1      42.038  20.724  26.443  1.00  0.00     0.039 A 
ATOM     34  C   UNL A   1      42.313  21.616  25.402  1.00  0.00     0.014 A 
ATOM     35  C   UNL A   1      42.339  21.074  27.758  1.00  0.00     0.014 A 
ATOM     36  C   UNL A   1      42.816  22.888  25.692  1.00  0.00     0.010 A 
ATOM     37  C   UNL A   1      42.740  22.371  28.054  1.00  0.00     0.010 A 
ATOM     38  C   UNL A   1      42.990  23.291  27.025  1.00  0.00    -0.014 A 
BRANCH  38  39
ATOM     39  C   UNL A   1      43.427  24.663  27.387  1.00  0.00     0.031 A 
ATOM     40  C   UNL A   1      42.449  25.616  28.019  1.00  0.00     0.074 A 
ATOM     41  C   UNL A   1      44.656  25.089  27.030  1.00  0.00     0.049 A 
ATOM     42  N   UNL A   1      42.581  26.893  28.262  1.00  0.00    -0.248 NA
ATOM     43  C   UNL A   1      41.131  25.069  28.389  1.00  0.00     0.031 C 
ATOM     44  C   UNL A   1      45.669  24.281  26.348  1.00  0.00     0.029 A 
ATOM     45  N   UNL A   1      45.246  26.323  27.155  1.00  0.00    -0.354 N 
ATOM     46  C   UNL A   1      41.354  27.313  28.763  1.00  0.00     0.074 A 
ATOM     47  C   UNL A   1      40.479  26.162  28.759  1.00  0.00     0.031 C 
ATOM     48  C   UNL A   1      46.752  25.038  26.113  1.00  0.00     0.029 A 
ATOM     49  C   UNL A   1      46.496  26.395  26.585  1.00  0.00     0.049 A 
ATOM     50  H   UNL A   1      44.815  27.082  27.608  1.00  0.00     0.167 HD
ATOM     51  C   UNL A   1      40.995  28.538  29.212  1.00  0.00     0.034 A 
ATOM     52  C   UNL A   1      47.335  27.441  26.440  1.00  0.00     0.034 A 
ATOM     53  C   UNL A   1      41.886  29.664  29.263  1.00  0.00     0.049 A 
ATOM     54  C   UNL A   1      46.926  28.784  26.981  1.00  0.00     0.074 A 
ATOM     55  C   UNL A   1      41.651  30.922  29.788  1.00  0.00     0.029 A 
ATOM     56  N   UNL A   1      43.181  29.670  28.769  1.00  0.00    -0.354 N 
ATOM     57  N   UNL A   1      45.814  29.124  27.584  1.00  0.00    -0.248 NA
ATOM     58  C   UNL A   1      47.899  29.878  26.853  1.00  0.00     0.031 C 
ATOM     59  C   UNL A   1      42.796  31.698  29.586  1.00  0.00     0.029 A 
ATOM     60  C   UNL A   1      43.756  30.912  28.968  1.00  0.00     0.049 A 
ATOM     61  H   UNL A   1      43.625  28.903  28.340  1.00  0.00     0.167 HD
ATOM     62  C   UNL A   1      45.968  30.458  27.947  1.00  0.00     0.074 A 
ATOM     63  C   UNL A   1      47.288  30.860  27.504  1.00  0.00     0.031 C 
ATOM     64  C   UNL A   1      45.094  31.277  28.579  1.00  0.00     0.034 A 
BRANCH  51  65
ATOM     65  C   UNL A   1      39.591  28.715  29.729  1.00  0.00     0.023 A 
ATOM     66  C   UNL A   1      39.281  28.333  31.051  1.00  0.00     0.012 A 
ATOM     67  C   UNL A   1      38.594  29.310  28.931  1.00  0.00     0.148 A 
ATOM     68  C   UNL A   1      37.993  28.505  31.558  1.00  0.00     0.002 A 
ATOM     69  C   UNL A   1      37.326  29.522  29.460  1.00  0.00     0.091 A 
ATOM     70  F   UNL A   1      38.901  29.648  27.671  1.00  0.00    -0.205 F 
ATOM     71  C   UNL A   1      37.020  29.108  30.766  1.00  0.00     0.022 A 
BRANCH  69  72
ATOM     72  S   UNL A   1      36.026  30.367  28.551  1.00  0.00     0.127 S 
ATOM     73  O   UNL A   1      35.216  29.243  28.083  1.00  0.00    -0.237 OA
ATOM     74  O   UNL A   1      35.398  31.177  29.595  1.00  0.00    -0.237 OA
ATOM     75  O   UNL A   1      36.696  31.132  27.509  1.00  0.00    -0.744 OA
ENDBRANCH  69  72
ENDBRANCH  51  65
BRANCH  52  76
ATOM     76  C   UNL A   1      48.668  27.244  25.802  1.00  0.00     0.023 A 
ATOM     77  C   UNL A   1      49.740  26.760  26.578  1.00  0.00     0.012 A 
ATOM     78  C   UNL A   1      48.874  27.504  24.434  1.00  0.00     0.148 A 
ATOM     79  C   UNL A   1      51.000  26.570  26.011  1.00  0.00     0.002 A 
ATOM     80  C   UNL A   1      50.117  27.259  23.862  1.00  0.00     0.091 A 
ATOM     81  F   UNL A   1      47.845  27.973  23.714  1.00  0.00    -0.205 F 
ATOM     82  C   UNL A   1      51.187  26.810  24.653  1.00  0.00     0.022 A 
BRANCH  80  83
ATOM     83  S   UNL A   1      50.414  27.409  22.097  1.00  0.00     0.127 S 
ATOM     84  O   UNL A   1      51.795  26.948  21.985  1.00  0.00    -0.237 OA
ATOM     85  O   UNL A   1      49.411  26.497  21.545  1.00  0.00    -0.237 OA
ATOM     86  O   UNL A   1      50.185  28.813  21.779  1.00  0.00    -0.744 OA
ENDBRANCH  80  83
ENDBRANCH  52  76
BRANCH  64  87
ATOM     87  C   UNL A   1      45.541  32.679  28.894  1.00  0.00     0.023 A 
ATOM     88  C   UNL A   1      46.337  32.927  30.029  1.00  0.00     0.012 A 
ATOM     89  C   UNL A   1      45.262  33.730  27.998  1.00  0.00     0.148 A 
ATOM     90  C   UNL A   1      46.830  34.208  30.278  1.00  0.00     0.002 A 
ATOM     91  C   UNL A   1      45.798  34.990  28.226  1.00  0.00     0.091 A 
ATOM     92  F   UNL A   1      44.488  33.473  26.933  1.00  0.00    -0.205 F 
ATOM     93  C   UNL A   1      46.573  35.234  29.372  1.00  0.00     0.022 A 
BRANCH  91  94
ATOM     94  S   UNL A   1      45.608  36.346  27.063  1.00  0.00     0.127 S 
ATOM     95  O   UNL A   1      44.155  36.413  26.918  1.00  0.00    -0.237 OA
ATOM     96  O   UNL A   1      46.201  37.465  27.793  1.00  0.00    -0.237 OA
ATOM     97  O   UNL A   1      46.333  35.953  25.862  1.00  0.00    -0.744 OA
ENDBRANCH  91  94
ENDBRANCH  64  87
ENDBRANCH  38  39
ENDBRANCH  30  33
ENDBRANCH  28  29
ENDBRANCH  27  28
ENDBRANCH   1  27
TORSDOF 19
ENDMDL
MODEL 3
REMARK VINA RESULT:     -11.2      1.744      7.766
REMARK SMILES CC(C)C[C@H](CNC(=O)[C@]1([NH3+])CCC[C@@H](C)C1)C(=O)NCCCNC(=O)c1ccc(-c2c3nc(c(-c4cccc(S(=O)(=O)[O-])c4F)c4ccc([nH]4)c(-c4cccc(S(=O)(=O)[O-])c4F)c4nc(c(-c5cccc(S(=O)(=O)[O-])c5F)c5ccc2[nH]5)C=C4)C=C3)cc1
REMARK SMILES IDX 21 1 20 2 18 3 19 4 5 6 4 7 2 8 1 9 3 10 6 11 7 12 8 13 9 15
REMARK SMILES IDX 10 16 12 17 17 18 13 19 15 20 14 21 16 22 11 23 22 27 23 28
REMARK SMILES IDX 24 29 25 30 26 32 27 33 28 34 89 35 29 36 88 37 30 38 31 39
REMARK SMILES IDX 32 40 82 41 33 42 87 43 81 44 83 45 34 46 86 47 80 48 79 49
REMARK SMILES IDX 35 51 67 52 47 53 66 54 48 55 51 56 65 57 84 58 49 59 50 60
REMARK SMILES IDX 64 62 85 63 52 64 36 65 37 66 45 67 38 68 40 69 46 70 39 71
REMARK SMILES IDX 41 72 42 73 43 74 44 75 68 76 69 77 77 78 70 79 72 80 78 81
REMARK SMILES IDX 71 82 73 83 74 84 75 85 76 86 53 87 54 88 62 89 55 90 57 91
REMARK SMILES IDX 63 92 56 93 58 94 59 95 60 96 61 97
REMARK H PARENT 20 5 7 14 11 24 11 25 11 26 24 31 83 50 51 61
REMARK Flexibility Score: inf
ROOT
ATOM      1  C   UNL A   1      36.007  21.743  25.159  1.00  0.00     0.117 C 
ENDROOT
BRANCH   1   2
ATOM      2  N   UNL A   1      35.200  21.935  26.347  1.00  0.00    -0.356 N 
ATOM      3  C   UNL A   1      34.023  21.338  26.704  1.00  0.00     0.224 C 
ATOM      4  O   UNL A   1      33.678  21.416  27.886  1.00  0.00    -0.275 OA
ATOM      5  H   UNL A   1      35.551  22.591  26.991  1.00  0.00     0.163 HD
BRANCH   3   6
ATOM      6  C   UNL A   1      33.083  20.711  25.658  1.00  0.00     0.098 C 
BRANCH   6   7
ATOM      7  C   UNL A   1      33.840  19.911  24.570  1.00  0.00     0.018 C 
BRANCH   7   8
ATOM      8  C   UNL A   1      33.600  18.399  24.326  1.00  0.00    -0.017 C 
ATOM      9  C   UNL A   1      34.822  17.474  24.375  1.00  0.00     0.007 C 
ATOM     10  C   UNL A   1      32.644  17.895  25.425  1.00  0.00     0.007 C 
ENDBRANCH   7   8
ENDBRANCH   6   7
BRANCH   6  11
ATOM     11  C   UNL A   1      32.087  21.808  25.297  1.00  0.00     0.129 C 
BRANCH  11  12
ATOM     12  N   UNL A   1      31.081  22.144  26.283  1.00  0.00    -0.350 N 
ATOM     13  C   UNL A   1      30.565  23.389  26.574  1.00  0.00     0.281 C 
ATOM     14  H   UNL A   1      30.723  21.392  26.809  1.00  0.00     0.163 HD
ATOM     15  O   UNL A   1      29.645  23.421  27.398  1.00  0.00    -0.268 OA
BRANCH  13  16
ATOM     16  C   UNL A   1      31.232  24.716  26.010  1.00  0.00     0.174 C 
ATOM     17  C   UNL A   1      31.010  24.805  24.477  1.00  0.00     0.079 C 
ATOM     18  C   UNL A   1      32.762  24.784  26.231  1.00  0.00     0.082 C 
ATOM     19  C   UNL A   1      31.687  26.020  23.826  1.00  0.00     0.007 C 
ATOM     20  C   UNL A   1      33.484  25.999  25.630  1.00  0.00    -0.008 C 
ATOM     21  C   UNL A   1      33.181  26.101  24.137  1.00  0.00     0.004 C 
ATOM     22  C   UNL A   1      33.197  27.304  26.382  1.00  0.00     0.008 C 
BRANCH  16  23
ATOM     23  N   UNL A   1      30.495  25.850  26.628  1.00  0.00    -0.345 N 
ATOM     24  H   UNL A   1      29.511  25.601  26.731  1.00  0.00     0.345 HD
ATOM     25  H   UNL A   1      30.576  26.673  26.032  1.00  0.00     0.345 HD
ATOM     26  H   UNL A   1      30.892  26.053  27.546  1.00  0.00     0.345 HD
ENDBRANCH  16  23
ENDBRANCH  13  16
ENDBRANCH  11  12
ENDBRANCH   6  11
ENDBRANCH   3   6
ENDBRANCH   1   2
BRANCH   1  27
ATOM     27  C   UNL A   1      37.029  20.618  25.242  1.00  0.00     0.042 C 
BRANCH  27  28
ATOM     28  C   UNL A   1      38.472  21.099  25.210  1.00  0.00     0.118 C 
BRANCH  28  29
ATOM     29  N   UNL A   1      39.359  20.271  26.024  1.00  0.00    -0.352 N 
ATOM     30  C   UNL A   1      40.400  20.613  26.856  1.00  0.00     0.251 C 
ATOM     31  H   UNL A   1      39.181  19.305  25.967  1.00  0.00     0.163 HD
ATOM     32  O   UNL A   1      41.109  19.730  27.319  1.00  0.00    -0.269 OA
BRANCH  30  33
ATOM     33  C   UNL A   1      40.675  22.032  27.171  1.00  0.00     0.039 A 
ATOM     34  C   UNL A   1      41.544  22.335  28.225  1.00  0.00     0.014 A 
ATOM     35  C   UNL A   1      40.080  23.060  26.442  1.00  0.00     0.014 A 
ATOM     36  C   UNL A   1      41.876  23.667  28.490  1.00  0.00     0.010 A 
ATOM     37  C   UNL A   1      40.488  24.374  26.639  1.00  0.00     0.010 A 
ATOM     38  C   UNL A   1      41.385  24.694  27.669  1.00  0.00    -0.014 A 
BRANCH  38  39
ATOM     39  C   UNL A   1      41.785  26.112  27.850  1.00  0.00     0.031 A 
ATOM     40  C   UNL A   1      43.174  26.551  27.468  1.00  0.00     0.074 A 
ATOM     41  C   UNL A   1      40.951  26.968  28.474  1.00  0.00     0.049 A 
ATOM     42  N   UNL A   1      43.769  27.692  27.691  1.00  0.00    -0.248 NA
ATOM     43  C   UNL A   1      44.019  25.559  26.779  1.00  0.00     0.031 C 
ATOM     44  C   UNL A   1      39.606  26.643  28.956  1.00  0.00     0.029 A 
ATOM     45  N   UNL A   1      41.128  28.278  28.847  1.00  0.00    -0.354 N 
ATOM     46  C   UNL A   1      45.068  27.541  27.220  1.00  0.00     0.074 A 
ATOM     47  C   UNL A   1      45.185  26.187  26.728  1.00  0.00     0.031 C 
ATOM     48  C   UNL A   1      39.083  27.720  29.562  1.00  0.00     0.029 A 
ATOM     49  C   UNL A   1      40.066  28.798  29.552  1.00  0.00     0.049 A 
ATOM     50  H   UNL A   1      41.936  28.795  28.631  1.00  0.00     0.167 HD
ATOM     51  C   UNL A   1      46.066  28.455  27.175  1.00  0.00     0.034 A 
ATOM     52  C   UNL A   1      39.910  29.999  30.143  1.00  0.00     0.034 A 
ATOM     53  C   UNL A   1      45.926  29.815  27.617  1.00  0.00     0.049 A 
ATOM     54  C   UNL A   1      41.021  31.010  30.045  1.00  0.00     0.074 A 
ATOM     55  C   UNL A   1      46.844  30.846  27.526  1.00  0.00     0.029 A 
ATOM     56  N   UNL A   1      44.798  30.333  28.233  1.00  0.00    -0.354 N 
ATOM     57  N   UNL A   1      42.190  30.893  29.466  1.00  0.00    -0.248 NA
ATOM     58  C   UNL A   1      40.780  32.326  30.653  1.00  0.00     0.031 C 
ATOM     59  C   UNL A   1      46.281  31.982  28.114  1.00  0.00     0.029 A 
ATOM     60  C   UNL A   1      44.998  31.667  28.538  1.00  0.00     0.049 A 
ATOM     61  H   UNL A   1      43.976  29.826  28.426  1.00  0.00     0.167 HD
ATOM     62  C   UNL A   1      42.808  32.133  29.599  1.00  0.00     0.074 A 
ATOM     63  C   UNL A   1      41.876  32.988  30.307  1.00  0.00     0.031 C 
ATOM     64  C   UNL A   1      44.037  32.522  29.184  1.00  0.00     0.034 A 
BRANCH  51  65
ATOM     65  C   UNL A   1      47.385  28.027  26.586  1.00  0.00     0.023 A 
ATOM     66  C   UNL A   1      48.443  27.654  27.441  1.00  0.00     0.012 A 
ATOM     67  C   UNL A   1      47.562  27.939  25.191  1.00  0.00     0.148 A 
ATOM     68  C   UNL A   1      49.666  27.236  26.918  1.00  0.00     0.002 A 
ATOM     69  C   UNL A   1      48.767  27.476  24.679  1.00  0.00     0.091 A 
ATOM     70  F   UNL A   1      46.552  28.318  24.394  1.00  0.00    -0.205 F 
ATOM     71  C   UNL A   1      49.824  27.137  25.539  1.00  0.00     0.022 A 
BRANCH  69  72
ATOM     72  S   UNL A   1      49.044  27.232  22.920  1.00  0.00     0.127 S 
ATOM     73  O   UNL A   1      50.500  27.103  22.866  1.00  0.00    -0.237 OA
ATOM     74  O   UNL A   1      48.312  25.992  22.663  1.00  0.00    -0.237 OA
ATOM     75  O   UNL A   1      48.496  28.409  22.260  1.00  0.00    -0.744 OA
ENDBRANCH  69  72
ENDBRANCH  51  65
BRANCH  52  76
ATOM     76  C   UNL A   1      38.629  30.331  30.830  1.00  0.00     0.023 A 
ATOM     77  C   UNL A   1      38.429  29.908  32.159  1.00  0.00     0.012 A 
ATOM     78  C   UNL A   1      37.625  31.083  30.191  1.00  0.00     0.148 A 
ATOM     79  C   UNL A   1      37.239  30.199  32.827  1.00  0.00     0.002 A 
ATOM     80  C   UNL A   1      36.466  31.418  30.881  1.00  0.00     0.091 A 
ATOM     81  F   UNL A   1      37.831  31.469  28.923  1.00  0.00    -0.205 F 
ATOM     82  C   UNL A   1      36.263  30.961  32.193  1.00  0.00     0.022 A 
BRANCH  80  83
ATOM     83  S   UNL A   1      35.216  32.509  30.193  1.00  0.00     0.127 S 
ATOM     84  O   UNL A   1      34.719  31.722  29.068  1.00  0.00    -0.237 OA
ATOM     85  O   UNL A   1      34.284  32.642  31.314  1.00  0.00    -0.237 OA
ATOM     86  O   UNL A   1      35.916  33.739  29.848  1.00  0.00    -0.744 OA
ENDBRANCH  80  83
ENDBRANCH  52  76
BRANCH  64  87
ATOM     87  C   UNL A   1      44.441  33.953  29.421  1.00  0.00     0.023 A 
ATOM     88  C   UNL A   1      44.097  34.947  28.484  1.00  0.00     0.012 A 
ATOM     89  C   UNL A   1      45.064  34.323  30.629  1.00  0.00     0.148 A 
ATOM     90  C   UNL A   1      44.389  36.287  28.738  1.00  0.00     0.002 A 
ATOM     91  C   UNL A   1      45.305  35.664  30.897  1.00  0.00     0.091 A 
ATOM     92  F   UNL A   1      45.396  33.358  31.498  1.00  0.00    -0.205 F 
ATOM     93  C   UNL A   1      44.979  36.646  29.948  1.00  0.00     0.022 A 
BRANCH  91  94
ATOM     94  S   UNL A   1      45.964  36.232  32.469  1.00  0.00     0.127 S 
ATOM     95  O   UNL A   1      44.971  35.718  33.411  1.00  0.00    -0.237 OA
ATOM     96  O   UNL A   1      47.261  35.559  32.521  1.00  0.00    -0.237 OA
ATOM     97  O   UNL A   1      46.036  37.684  32.376  1.00  0.00    -0.744 OA
ENDBRANCH  91  94
ENDBRANCH  64  87
ENDBRANCH  38  39
ENDBRANCH  30  33
ENDBRANCH  28  29
ENDBRANCH  27  28
ENDBRANCH   1  27
TORSDOF 19
ENDMDL
