MODEL 1
REMARK VINA RESULT:     -12.0      0.000      0.000
REMARK SMILES C[C@H](CCc1ccco1)NC(=O)c1cccn1CC(=O)NCCCNC(=O)c1ccc(-c2c3nc(c(-c4cccc(S(=O)(=O)[O-])c4F)c4ccc([nH]4)c(-c4cccc(S(=O)(=O)[O-])c4F)c4nc(c(-c5cccc(S(=O)(=O)[O-])c5F)c5ccc2[nH]5)C=C4)C=C3)cc1
REMARK SMILES IDX 19 1 20 2 21 3 18 5 17 6 13 7 14 8 15 9 16 10 11 11 10 12
REMARK SMILES IDX 12 14 2 15 1 16 3 17 4 18 5 19 6 20 9 21 7 22 8 23 22 24
REMARK SMILES IDX 23 25 24 26 25 27 26 28 27 30 28 31 29 32 90 33 30 34 89 35
REMARK SMILES IDX 31 36 32 37 33 38 83 39 34 40 88 41 82 42 84 43 35 44 87 45
REMARK SMILES IDX 81 46 80 47 36 49 68 50 48 51 67 52 49 53 52 54 66 55 85 56
REMARK SMILES IDX 50 57 51 58 65 60 86 61 53 62 37 63 38 64 46 65 39 66 41 67
REMARK SMILES IDX 47 68 40 69 42 70 43 71 44 72 45 73 69 74 70 75 78 76 71 77
REMARK SMILES IDX 73 78 79 79 72 80 74 81 75 82 76 83 77 84 54 85 55 86 63 87
REMARK SMILES IDX 56 88 58 89 64 90 57 91 59 92 60 93 61 94 62 95
REMARK H PARENT 21 4 10 13 25 29 84 48 52 59
REMARK Flexibility Score: inf
ROOT
ATOM      1  C   UNL A   1      34.742  22.689  26.635  1.00  0.00     0.239 C 
ATOM      2  O   UNL A   1      34.218  22.361  27.700  1.00  0.00    -0.273 OA
ATOM      3  N   UNL A   1      35.801  21.958  26.173  1.00  0.00    -0.354 N 
ATOM      4  H   UNL A   1      36.075  21.199  26.738  1.00  0.00     0.163 HD
ENDROOT
BRANCH   1   5
ATOM      5  C   UNL A   1      34.161  23.810  25.797  1.00  0.00     0.222 C 
BRANCH   5   6
ATOM      6  N   UNL A   1      33.032  23.419  24.959  1.00  0.00    -0.334 N 
ATOM      7  C   UNL A   1      31.683  23.575  25.257  1.00  0.00     0.107 A 
ATOM      8  C   UNL A   1      30.994  23.145  24.129  1.00  0.00     0.033 A 
ATOM      9  C   UNL A   1      31.922  22.649  23.188  1.00  0.00     0.020 A 
ATOM     10  C   UNL A   1      33.172  22.842  23.719  1.00  0.00     0.087 A 
BRANCH   7  11
ATOM     11  C   UNL A   1      31.174  24.120  26.508  1.00  0.00     0.268 C 
ATOM     12  N   UNL A   1      30.646  25.397  26.530  1.00  0.00    -0.348 N 
ATOM     13  H   UNL A   1      30.223  25.662  27.379  1.00  0.00     0.164 HD
ATOM     14  O   UNL A   1      31.121  23.474  27.544  1.00  0.00    -0.268 OA
BRANCH  12  15
ATOM     15  C   UNL A   1      30.623  26.412  25.481  1.00  0.00     0.079 C 
ATOM     16  C   UNL A   1      29.515  26.068  24.494  1.00  0.00     0.031 C 
BRANCH  15  17
ATOM     17  C   UNL A   1      32.029  26.670  24.893  1.00  0.00     0.032 C 
BRANCH  17  18
ATOM     18  C   UNL A   1      33.106  27.279  25.791  1.00  0.00     0.077 C 
BRANCH  18  19
ATOM     19  C   UNL A   1      32.853  28.688  26.191  1.00  0.00     0.103 A 
ATOM     20  C   UNL A   1      33.336  29.517  27.183  1.00  0.00     0.045 A 
ATOM     21  O   UNL A   1      31.928  29.355  25.443  1.00  0.00    -0.469 OA
ATOM     22  C   UNL A   1      32.629  30.738  27.065  1.00  0.00     0.042 A 
ATOM     23  C   UNL A   1      31.803  30.596  25.977  1.00  0.00     0.195 A 
ENDBRANCH  18  19
ENDBRANCH  17  18
ENDBRANCH  15  17
ENDBRANCH  12  15
ENDBRANCH   7  11
ENDBRANCH   5   6
ENDBRANCH   1   5
BRANCH   3  24
ATOM     24  C   UNL A   1      36.572  22.156  24.964  1.00  0.00     0.117 C 
BRANCH  24  25
ATOM     25  C   UNL A   1      37.400  23.441  25.025  1.00  0.00     0.042 C 
BRANCH  25  26
ATOM     26  C   UNL A   1      37.735  23.832  26.458  1.00  0.00     0.118 C 
BRANCH  26  27
ATOM     27  N   UNL A   1      39.081  23.392  26.821  1.00  0.00    -0.352 N 
ATOM     28  C   UNL A   1      40.142  24.115  27.305  1.00  0.00     0.251 C 
ATOM     29  H   UNL A   1      39.254  22.431  26.701  1.00  0.00     0.163 HD
ATOM     30  O   UNL A   1      41.255  23.595  27.325  1.00  0.00    -0.269 OA
BRANCH  28  31
ATOM     31  C   UNL A   1      39.965  25.512  27.750  1.00  0.00     0.039 A 
ATOM     32  C   UNL A   1      39.412  25.733  29.019  1.00  0.00     0.014 A 
ATOM     33  C   UNL A   1      40.324  26.590  26.939  1.00  0.00     0.014 A 
ATOM     34  C   UNL A   1      39.320  27.030  29.511  1.00  0.00     0.010 A 
ATOM     35  C   UNL A   1      40.276  27.879  27.443  1.00  0.00     0.010 A 
ATOM     36  C   UNL A   1      39.798  28.096  28.738  1.00  0.00    -0.014 A 
BRANCH  36  37
ATOM     37  C   UNL A   1      39.937  29.435  29.347  1.00  0.00     0.031 A 
ATOM     38  C   UNL A   1      38.667  30.289  29.135  1.00  0.00     0.074 A 
ATOM     39  C   UNL A   1      41.120  29.686  29.987  1.00  0.00     0.049 A 
ATOM     40  N   UNL A   1      38.539  31.571  28.958  1.00  0.00    -0.248 NA
ATOM     41  C   UNL A   1      37.352  29.605  28.974  1.00  0.00     0.031 C 
ATOM     42  C   UNL A   1      42.221  28.706  30.122  1.00  0.00     0.029 A 
ATOM     43  N   UNL A   1      41.646  30.772  30.660  1.00  0.00    -0.354 N 
ATOM     44  C   UNL A   1      37.146  31.856  28.928  1.00  0.00     0.074 A 
ATOM     45  C   UNL A   1      36.484  30.600  28.771  1.00  0.00     0.031 C 
ATOM     46  C   UNL A   1      43.283  29.249  30.753  1.00  0.00     0.029 A 
ATOM     47  C   UNL A   1      42.981  30.621  31.114  1.00  0.00     0.049 A 
ATOM     48  H   UNL A   1      41.129  31.595  30.815  1.00  0.00     0.167 HD
ATOM     49  C   UNL A   1      36.632  33.088  29.233  1.00  0.00     0.034 A 
ATOM     50  C   UNL A   1      43.809  31.540  31.704  1.00  0.00     0.034 A 
ATOM     51  C   UNL A   1      37.705  33.937  29.634  1.00  0.00     0.049 A 
ATOM     52  C   UNL A   1      42.975  32.715  31.984  1.00  0.00     0.074 A 
ATOM     53  C   UNL A   1      38.719  34.566  28.966  1.00  0.00     0.029 A 
ATOM     54  N   UNL A   1      37.974  33.917  30.983  1.00  0.00    -0.354 N 
ATOM     55  N   UNL A   1      42.069  32.769  32.914  1.00  0.00    -0.248 NA
ATOM     56  C   UNL A   1      43.075  33.886  31.103  1.00  0.00     0.031 C 
ATOM     57  C   UNL A   1      39.783  34.527  29.887  1.00  0.00     0.029 A 
ATOM     58  C   UNL A   1      39.325  34.063  31.128  1.00  0.00     0.049 A 
ATOM     59  H   UNL A   1      37.317  33.816  31.708  1.00  0.00     0.167 HD
ATOM     60  C   UNL A   1      41.265  33.785  32.465  1.00  0.00     0.074 A 
ATOM     61  C   UNL A   1      42.085  34.615  31.611  1.00  0.00     0.031 C 
ATOM     62  C   UNL A   1      39.932  33.561  32.337  1.00  0.00     0.034 A 
BRANCH  49  63
ATOM     63  C   UNL A   1      35.247  33.640  29.528  1.00  0.00     0.023 A 
ATOM     64  C   UNL A   1      34.401  33.776  28.384  1.00  0.00     0.012 A 
ATOM     65  C   UNL A   1      34.835  34.294  30.701  1.00  0.00     0.148 A 
ATOM     66  C   UNL A   1      33.311  34.642  28.347  1.00  0.00     0.002 A 
ATOM     67  C   UNL A   1      33.698  35.116  30.676  1.00  0.00     0.091 A 
ATOM     68  F   UNL A   1      35.574  34.192  31.809  1.00  0.00    -0.205 F 
ATOM     69  C   UNL A   1      32.971  35.329  29.494  1.00  0.00     0.022 A 
BRANCH  67  70
ATOM     70  S   UNL A   1      33.078  35.964  32.134  1.00  0.00     0.127 S 
ATOM     71  O   UNL A   1      32.549  37.201  31.567  1.00  0.00    -0.237 OA
ATOM     72  O   UNL A   1      32.054  35.033  32.616  1.00  0.00    -0.237 OA
ATOM     73  O   UNL A   1      34.223  36.091  33.026  1.00  0.00    -0.744 OA
ENDBRANCH  67  70
ENDBRANCH  49  63
BRANCH  50  74
ATOM     74  C   UNL A   1      45.290  31.666  31.989  1.00  0.00     0.023 A 
ATOM     75  C   UNL A   1      45.835  31.958  33.247  1.00  0.00     0.012 A 
ATOM     76  C   UNL A   1      46.233  31.346  30.967  1.00  0.00     0.148 A 
ATOM     77  C   UNL A   1      47.215  31.814  33.498  1.00  0.00     0.002 A 
ATOM     78  C   UNL A   1      47.563  31.062  31.247  1.00  0.00     0.091 A 
ATOM     79  F   UNL A   1      45.848  31.336  29.686  1.00  0.00    -0.205 F 
ATOM     80  C   UNL A   1      48.068  31.311  32.519  1.00  0.00     0.022 A 
BRANCH  78  81
ATOM     81  S   UNL A   1      48.613  30.197  30.063  1.00  0.00     0.127 S 
ATOM     82  O   UNL A   1      49.954  30.453  30.587  1.00  0.00    -0.237 OA
ATOM     83  O   UNL A   1      48.145  28.820  30.215  1.00  0.00    -0.237 OA
ATOM     84  O   UNL A   1      48.338  30.788  28.760  1.00  0.00    -0.744 OA
ENDBRANCH  78  81
ENDBRANCH  50  74
BRANCH  62  85
ATOM     85  C   UNL A   1      39.364  32.512  33.297  1.00  0.00     0.023 A 
ATOM     86  C   UNL A   1      38.972  31.277  32.738  1.00  0.00     0.012 A 
ATOM     87  C   UNL A   1      39.088  32.710  34.670  1.00  0.00     0.148 A 
ATOM     88  C   UNL A   1      38.315  30.300  33.493  1.00  0.00     0.002 A 
ATOM     89  C   UNL A   1      38.419  31.739  35.426  1.00  0.00     0.091 A 
ATOM     90  F   UNL A   1      39.470  33.851  35.238  1.00  0.00    -0.205 F 
ATOM     91  C   UNL A   1      38.036  30.531  34.834  1.00  0.00     0.022 A 
BRANCH  89  92
ATOM     92  S   UNL A   1      37.941  31.954  37.156  1.00  0.00     0.127 S 
ATOM     93  O   UNL A   1      39.212  32.303  37.794  1.00  0.00    -0.237 OA
ATOM     94  O   UNL A   1      36.988  33.059  37.078  1.00  0.00    -0.237 OA
ATOM     95  O   UNL A   1      37.385  30.683  37.601  1.00  0.00    -0.744 OA
ENDBRANCH  89  92
ENDBRANCH  62  85
ENDBRANCH  36  37
ENDBRANCH  28  31
ENDBRANCH  26  27
ENDBRANCH  25  26
ENDBRANCH  24  25
ENDBRANCH   3  24
TORSDOF 19
ENDMDL
MODEL 2
REMARK VINA RESULT:     -11.8      4.229      6.273
REMARK SMILES C[C@H](CCc1ccco1)NC(=O)c1cccn1CC(=O)NCCCNC(=O)c1ccc(-c2c3nc(c(-c4cccc(S(=O)(=O)[O-])c4F)c4ccc([nH]4)c(-c4cccc(S(=O)(=O)[O-])c4F)c4nc(c(-c5cccc(S(=O)(=O)[O-])c5F)c5ccc2[nH]5)C=C4)C=C3)cc1
REMARK SMILES IDX 19 1 20 2 21 3 18 5 17 6 13 7 14 8 15 9 16 10 11 11 10 12
REMARK SMILES IDX 12 14 2 15 1 16 3 17 4 18 5 19 6 20 9 21 7 22 8 23 22 24
REMARK SMILES IDX 23 25 24 26 25 27 26 28 27 30 28 31 29 32 90 33 30 34 89 35
REMARK SMILES IDX 31 36 32 37 33 38 83 39 34 40 88 41 82 42 84 43 35 44 87 45
REMARK SMILES IDX 81 46 80 47 36 49 68 50 48 51 67 52 49 53 52 54 66 55 85 56
REMARK SMILES IDX 50 57 51 58 65 60 86 61 53 62 37 63 38 64 46 65 39 66 41 67
REMARK SMILES IDX 47 68 40 69 42 70 43 71 44 72 45 73 69 74 70 75 78 76 71 77
REMARK SMILES IDX 73 78 79 79 72 80 74 81 75 82 76 83 77 84 54 85 55 86 63 87
REMARK SMILES IDX 56 88 58 89 64 90 57 91 59 92 60 93 61 94 62 95
REMARK H PARENT 21 4 10 13 25 29 84 48 52 59
REMARK Flexibility Score: inf
ROOT
ATOM      1  C   UNL A   1      34.735  22.025  26.452  1.00  0.00     0.239 C 
ATOM      2  O   UNL A   1      34.061  21.676  27.423  1.00  0.00    -0.273 OA
ATOM      3  N   UNL A   1      35.750  21.212  26.033  1.00  0.00    -0.354 N 
ATOM      4  H   UNL A   1      35.873  20.381  26.548  1.00  0.00     0.163 HD
ENDROOT
BRANCH   1   5
ATOM      5  C   UNL A   1      34.380  23.273  25.671  1.00  0.00     0.222 C 
BRANCH   5   6
ATOM      6  N   UNL A   1      33.214  23.136  24.804  1.00  0.00    -0.334 N 
ATOM      7  C   UNL A   1      31.985  23.768  24.960  1.00  0.00     0.107 A 
ATOM      8  C   UNL A   1      31.230  23.404  23.851  1.00  0.00     0.033 A 
ATOM      9  C   UNL A   1      31.969  22.485  23.076  1.00  0.00     0.020 A 
ATOM     10  C   UNL A   1      33.194  22.348  23.679  1.00  0.00     0.087 A 
BRANCH   7  11
ATOM     11  C   UNL A   1      31.646  24.648  26.069  1.00  0.00     0.268 C 
ATOM     12  N   UNL A   1      31.604  26.015  25.867  1.00  0.00    -0.348 N 
ATOM     13  H   UNL A   1      31.265  26.541  26.628  1.00  0.00     0.164 HD
ATOM     14  O   UNL A   1      31.322  24.235  27.173  1.00  0.00    -0.268 OA
BRANCH  12  15
ATOM     15  C   UNL A   1      31.988  26.794  24.694  1.00  0.00     0.079 C 
ATOM     16  C   UNL A   1      33.431  27.252  24.865  1.00  0.00     0.031 C 
BRANCH  15  17
ATOM     17  C   UNL A   1      30.943  27.881  24.353  1.00  0.00     0.032 C 
BRANCH  17  18
ATOM     18  C   UNL A   1      31.000  28.560  22.985  1.00  0.00     0.077 C 
BRANCH  18  19
ATOM     19  C   UNL A   1      29.933  29.569  22.750  1.00  0.00     0.103 A 
ATOM     20  C   UNL A   1      29.217  30.429  23.557  1.00  0.00     0.045 A 
ATOM     21  O   UNL A   1      29.523  29.701  21.456  1.00  0.00    -0.469 OA
ATOM     22  C   UNL A   1      28.285  31.084  22.716  1.00  0.00     0.042 A 
ATOM     23  C   UNL A   1      28.529  30.624  21.445  1.00  0.00     0.195 A 
ENDBRANCH  18  19
ENDBRANCH  17  18
ENDBRANCH  15  17
ENDBRANCH  12  15
ENDBRANCH   7  11
ENDBRANCH   5   6
ENDBRANCH   1   5
BRANCH   3  24
ATOM     24  C   UNL A   1      36.669  21.414  24.933  1.00  0.00     0.117 C 
BRANCH  24  25
ATOM     25  C   UNL A   1      37.753  20.334  24.895  1.00  0.00     0.042 C 
BRANCH  25  26
ATOM     26  C   UNL A   1      38.966  20.720  25.730  1.00  0.00     0.118 C 
BRANCH  26  27
ATOM     27  N   UNL A   1      39.887  19.593  25.870  1.00  0.00    -0.352 N 
ATOM     28  C   UNL A   1      41.241  19.586  26.089  1.00  0.00     0.251 C 
ATOM     29  H   UNL A   1      39.473  18.703  25.797  1.00  0.00     0.163 HD
ATOM     30  O   UNL A   1      41.860  18.535  25.943  1.00  0.00    -0.269 OA
BRANCH  28  31
ATOM     31  C   UNL A   1      41.956  20.827  26.446  1.00  0.00     0.039 A 
ATOM     32  C   UNL A   1      42.284  21.718  25.415  1.00  0.00     0.014 A 
ATOM     33  C   UNL A   1      42.308  21.115  27.766  1.00  0.00     0.014 A 
ATOM     34  C   UNL A   1      42.870  22.940  25.724  1.00  0.00     0.010 A 
ATOM     35  C   UNL A   1      42.850  22.350  28.082  1.00  0.00     0.010 A 
ATOM     36  C   UNL A   1      43.107  23.271  27.063  1.00  0.00    -0.014 A 
BRANCH  36  37
ATOM     37  C   UNL A   1      43.490  24.655  27.417  1.00  0.00     0.031 A 
ATOM     38  C   UNL A   1      42.251  25.529  27.708  1.00  0.00     0.074 A 
ATOM     39  C   UNL A   1      44.833  24.921  27.440  1.00  0.00     0.049 A 
ATOM     40  N   UNL A   1      42.046  26.794  27.484  1.00  0.00    -0.248 NA
ATOM     41  C   UNL A   1      41.008  24.880  28.212  1.00  0.00     0.031 C 
ATOM     42  C   UNL A   1      45.888  23.919  27.166  1.00  0.00     0.029 A 
ATOM     43  N   UNL A   1      45.593  26.044  27.703  1.00  0.00    -0.354 N 
ATOM     44  C   UNL A   1      40.782  27.123  28.047  1.00  0.00     0.074 A 
ATOM     45  C   UNL A   1      40.131  25.881  28.320  1.00  0.00     0.031 C 
ATOM     46  C   UNL A   1      47.114  24.480  27.207  1.00  0.00     0.029 A 
ATOM     47  C   UNL A   1      46.992  25.889  27.531  1.00  0.00     0.049 A 
ATOM     48  H   UNL A   1      45.191  26.895  27.991  1.00  0.00     0.167 HD
ATOM     49  C   UNL A   1      40.446  28.394  28.428  1.00  0.00     0.034 A 
ATOM     50  C   UNL A   1      47.987  26.827  27.603  1.00  0.00     0.034 A 
ATOM     51  C   UNL A   1      41.578  29.239  28.230  1.00  0.00     0.049 A 
ATOM     52  C   UNL A   1      47.354  28.051  28.109  1.00  0.00     0.074 A 
ATOM     53  C   UNL A   1      42.184  29.770  27.125  1.00  0.00     0.029 A 
ATOM     54  N   UNL A   1      42.418  29.330  29.314  1.00  0.00    -0.354 N 
ATOM     55  N   UNL A   1      46.955  28.220  29.334  1.00  0.00    -0.248 NA
ATOM     56  C   UNL A   1      47.042  29.134  27.167  1.00  0.00     0.031 C 
ATOM     57  C   UNL A   1      43.547  29.777  27.479  1.00  0.00     0.029 A 
ATOM     58  C   UNL A   1      43.691  29.442  28.832  1.00  0.00     0.049 A 
ATOM     59  H   UNL A   1      42.152  29.318  30.262  1.00  0.00     0.167 HD
ATOM     60  C   UNL A   1      46.026  29.218  29.192  1.00  0.00     0.074 A 
ATOM     61  C   UNL A   1      46.374  29.939  27.988  1.00  0.00     0.031 C 
ATOM     62  C   UNL A   1      44.776  29.030  29.689  1.00  0.00     0.034 A 
BRANCH  49  63
ATOM     63  C   UNL A   1      39.331  29.018  29.251  1.00  0.00     0.023 A 
ATOM     64  C   UNL A   1      38.656  30.106  28.617  1.00  0.00     0.012 A 
ATOM     65  C   UNL A   1      39.111  28.854  30.628  1.00  0.00     0.148 A 
ATOM     66  C   UNL A   1      37.946  31.073  29.323  1.00  0.00     0.002 A 
ATOM     67  C   UNL A   1      38.341  29.797  31.327  1.00  0.00     0.091 A 
ATOM     68  F   UNL A   1      39.700  27.847  31.278  1.00  0.00    -0.205 F 
ATOM     69  C   UNL A   1      37.805  30.927  30.688  1.00  0.00     0.022 A 
BRANCH  67  70
ATOM     70  S   UNL A   1      37.978  29.651  33.082  1.00  0.00     0.127 S 
ATOM     71  O   UNL A   1      37.130  30.816  33.316  1.00  0.00    -0.237 OA
ATOM     72  O   UNL A   1      37.274  28.367  33.141  1.00  0.00    -0.237 OA
ATOM     73  O   UNL A   1      39.275  29.641  33.747  1.00  0.00    -0.744 OA
ENDBRANCH  67  70
ENDBRANCH  49  63
BRANCH  50  74
ATOM     74  C   UNL A   1      49.440  26.927  27.189  1.00  0.00     0.023 A 
ATOM     75  C   UNL A   1      50.514  26.415  27.929  1.00  0.00     0.012 A 
ATOM     76  C   UNL A   1      49.772  27.455  25.905  1.00  0.00     0.148 A 
ATOM     77  C   UNL A   1      51.806  26.318  27.374  1.00  0.00     0.002 A 
ATOM     78  C   UNL A   1      51.003  27.228  25.306  1.00  0.00     0.091 A 
ATOM     79  F   UNL A   1      48.888  28.217  25.251  1.00  0.00    -0.205 F 
ATOM     80  C   UNL A   1      52.038  26.669  26.046  1.00  0.00     0.022 A 
BRANCH  78  81
ATOM     81  S   UNL A   1      51.246  27.460  23.533  1.00  0.00     0.127 S 
ATOM     82  O   UNL A   1      51.309  28.916  23.413  1.00  0.00    -0.237 OA
ATOM     83  O   UNL A   1      52.518  26.770  23.325  1.00  0.00    -0.237 OA
ATOM     84  O   UNL A   1      50.105  26.836  22.876  1.00  0.00    -0.744 OA
ENDBRANCH  78  81
ENDBRANCH  50  74
BRANCH  62  85
ATOM     85  C   UNL A   1      44.703  28.091  30.897  1.00  0.00     0.023 A 
ATOM     86  C   UNL A   1      44.336  26.752  30.647  1.00  0.00     0.012 A 
ATOM     87  C   UNL A   1      44.854  28.472  32.251  1.00  0.00     0.148 A 
ATOM     88  C   UNL A   1      44.104  25.844  31.685  1.00  0.00     0.002 A 
ATOM     89  C   UNL A   1      44.610  27.568  33.293  1.00  0.00     0.091 A 
ATOM     90  F   UNL A   1      45.228  29.719  32.524  1.00  0.00    -0.205 F 
ATOM     91  C   UNL A   1      44.237  26.251  33.006  1.00  0.00     0.022 A 
BRANCH  89  92
ATOM     92  S   UNL A   1      44.684  28.001  35.047  1.00  0.00     0.127 S 
ATOM     93  O   UNL A   1      43.813  26.994  35.657  1.00  0.00    -0.237 OA
ATOM     94  O   UNL A   1      46.102  27.828  35.349  1.00  0.00    -0.237 OA
ATOM     95  O   UNL A   1      44.184  29.365  35.166  1.00  0.00    -0.744 OA
ENDBRANCH  89  92
ENDBRANCH  62  85
ENDBRANCH  36  37
ENDBRANCH  28  31
ENDBRANCH  26  27
ENDBRANCH  25  26
ENDBRANCH  24  25
ENDBRANCH   3  24
TORSDOF 19
ENDMDL
MODEL 3
REMARK VINA RESULT:     -11.7      3.364      7.232
REMARK SMILES C[C@H](CCc1ccco1)NC(=O)c1cccn1CC(=O)NCCCNC(=O)c1ccc(-c2c3nc(c(-c4cccc(S(=O)(=O)[O-])c4F)c4ccc([nH]4)c(-c4cccc(S(=O)(=O)[O-])c4F)c4nc(c(-c5cccc(S(=O)(=O)[O-])c5F)c5ccc2[nH]5)C=C4)C=C3)cc1
REMARK SMILES IDX 19 1 20 2 21 3 18 5 17 6 13 7 14 8 15 9 16 10 11 11 10 12
REMARK SMILES IDX 12 14 2 15 1 16 3 17 4 18 5 19 6 20 9 21 7 22 8 23 22 24
REMARK SMILES IDX 23 25 24 26 25 27 26 28 27 30 28 31 29 32 90 33 30 34 89 35
REMARK SMILES IDX 31 36 32 37 33 38 83 39 34 40 88 41 82 42 84 43 35 44 87 45
REMARK SMILES IDX 81 46 80 47 36 49 68 50 48 51 67 52 49 53 52 54 66 55 85 56
REMARK SMILES IDX 50 57 51 58 65 60 86 61 53 62 37 63 38 64 46 65 39 66 41 67
REMARK SMILES IDX 47 68 40 69 42 70 43 71 44 72 45 73 69 74 70 75 78 76 71 77
REMARK SMILES IDX 73 78 79 79 72 80 74 81 75 82 76 83 77 84 54 85 55 86 63 87
REMARK SMILES IDX 56 88 58 89 64 90 57 91 59 92 60 93 61 94 62 95
REMARK H PARENT 21 4 10 13 25 29 84 48 52 59
REMARK Flexibility Score: inf
ROOT
ATOM      1  C   UNL A   1      44.980  22.343  25.619  1.00  0.00     0.239 C 
ATOM      2  O   UNL A   1      46.084  21.812  25.751  1.00  0.00    -0.273 OA
ATOM      3  N   UNL A   1      43.861  21.577  25.794  1.00  0.00    -0.354 N 
ATOM      4  H   UNL A   1      44.020  20.632  26.021  1.00  0.00     0.163 HD
ENDROOT
BRANCH   1   5
ATOM      5  C   UNL A   1      44.859  23.833  25.378  1.00  0.00     0.222 C 
BRANCH   5   6
ATOM      6  N   UNL A   1      44.483  24.610  26.554  1.00  0.00    -0.334 N 
ATOM      7  C   UNL A   1      43.968  25.902  26.566  1.00  0.00     0.107 A 
ATOM      8  C   UNL A   1      43.680  26.181  27.897  1.00  0.00     0.033 A 
ATOM      9  C   UNL A   1      44.103  25.097  28.695  1.00  0.00     0.020 A 
ATOM     10  C   UNL A   1      44.582  24.135  27.840  1.00  0.00     0.087 A 
BRANCH   7  11
ATOM     11  C   UNL A   1      43.766  26.719  25.378  1.00  0.00     0.268 C 
ATOM     12  N   UNL A   1      44.834  27.407  24.835  1.00  0.00    -0.348 N 
ATOM     13  H   UNL A   1      44.653  27.851  23.974  1.00  0.00     0.164 HD
ATOM     14  O   UNL A   1      42.702  26.775  24.781  1.00  0.00    -0.268 OA
BRANCH  12  15
ATOM     15  C   UNL A   1      46.191  27.574  25.348  1.00  0.00     0.079 C 
ATOM     16  C   UNL A   1      46.414  29.047  25.664  1.00  0.00     0.031 C 
BRANCH  15  17
ATOM     17  C   UNL A   1      47.240  26.884  24.446  1.00  0.00     0.032 C 
BRANCH  17  18
ATOM     18  C   UNL A   1      48.450  26.214  25.096  1.00  0.00     0.077 C 
BRANCH  18  19
ATOM     19  C   UNL A   1      49.758  26.575  24.488  1.00  0.00     0.103 A 
ATOM     20  C   UNL A   1      50.150  27.125  23.285  1.00  0.00     0.045 A 
ATOM     21  O   UNL A   1      50.856  26.307  25.252  1.00  0.00    -0.469 OA
ATOM     22  C   UNL A   1      51.565  27.146  23.296  1.00  0.00     0.042 A 
ATOM     23  C   UNL A   1      51.944  26.661  24.523  1.00  0.00     0.195 A 
ENDBRANCH  18  19
ENDBRANCH  17  18
ENDBRANCH  15  17
ENDBRANCH  12  15
ENDBRANCH   7  11
ENDBRANCH   5   6
ENDBRANCH   1   5
BRANCH   3  24
ATOM     24  C   UNL A   1      42.473  21.974  25.686  1.00  0.00     0.117 C 
BRANCH  24  25
ATOM     25  C   UNL A   1      41.725  21.783  27.007  1.00  0.00     0.042 C 
BRANCH  25  26
ATOM     26  C   UNL A   1      41.121  23.086  27.511  1.00  0.00     0.118 C 
BRANCH  26  27
ATOM     27  N   UNL A   1      39.839  23.356  26.862  1.00  0.00    -0.352 N 
ATOM     28  C   UNL A   1      38.998  24.432  26.988  1.00  0.00     0.251 C 
ATOM     29  H   UNL A   1      39.531  22.659  26.239  1.00  0.00     0.163 HD
ATOM     30  O   UNL A   1      37.861  24.354  26.531  1.00  0.00    -0.269 OA
BRANCH  28  31
ATOM     31  C   UNL A   1      39.431  25.649  27.703  1.00  0.00     0.039 A 
ATOM     32  C   UNL A   1      40.079  26.650  26.966  1.00  0.00     0.014 A 
ATOM     33  C   UNL A   1      39.216  25.809  29.073  1.00  0.00     0.014 A 
ATOM     34  C   UNL A   1      40.413  27.850  27.584  1.00  0.00     0.010 A 
ATOM     35  C   UNL A   1      39.507  27.019  29.682  1.00  0.00     0.010 A 
ATOM     36  C   UNL A   1      40.082  28.047  28.930  1.00  0.00    -0.014 A 
BRANCH  36  37
ATOM     37  C   UNL A   1      40.202  29.397  29.522  1.00  0.00     0.031 A 
ATOM     38  C   UNL A   1      38.936  30.244  29.264  1.00  0.00     0.074 A 
ATOM     39  C   UNL A   1      41.368  29.661  30.188  1.00  0.00     0.049 A 
ATOM     40  N   UNL A   1      38.811  31.523  29.063  1.00  0.00    -0.248 NA
ATOM     41  C   UNL A   1      37.628  29.554  29.080  1.00  0.00     0.031 C 
ATOM     42  C   UNL A   1      42.468  28.686  30.366  1.00  0.00     0.029 A 
ATOM     43  N   UNL A   1      41.874  30.758  30.857  1.00  0.00    -0.354 N 
ATOM     44  C   UNL A   1      37.418  31.803  28.993  1.00  0.00     0.074 A 
ATOM     45  C   UNL A   1      36.763  30.543  28.839  1.00  0.00     0.031 C 
ATOM     46  C   UNL A   1      43.511  29.241  31.016  1.00  0.00     0.029 A 
ATOM     47  C   UNL A   1      43.198  30.618  31.347  1.00  0.00     0.049 A 
ATOM     48  H   UNL A   1      41.351  31.583  30.985  1.00  0.00     0.167 HD
ATOM     49  C   UNL A   1      36.894  33.039  29.264  1.00  0.00     0.034 A 
ATOM     50  C   UNL A   1      44.008  31.548  31.944  1.00  0.00     0.034 A 
ATOM     51  C   UNL A   1      37.954  33.897  29.680  1.00  0.00     0.049 A 
ATOM     52  C   UNL A   1      43.165  32.725  32.183  1.00  0.00     0.074 A 
ATOM     53  C   UNL A   1      38.984  34.518  29.028  1.00  0.00     0.029 A 
ATOM     54  N   UNL A   1      38.189  33.899  31.035  1.00  0.00    -0.354 N 
ATOM     55  N   UNL A   1      42.235  32.792  33.089  1.00  0.00    -0.248 NA
ATOM     56  C   UNL A   1      43.284  33.883  31.287  1.00  0.00     0.031 C 
ATOM     57  C   UNL A   1      40.024  34.497  29.977  1.00  0.00     0.029 A 
ATOM     58  C   UNL A   1      39.535  34.050  31.212  1.00  0.00     0.049 A 
ATOM     59  H   UNL A   1      37.513  33.808  31.744  1.00  0.00     0.167 HD
ATOM     60  C   UNL A   1      41.441  33.799  32.603  1.00  0.00     0.074 A 
ATOM     61  C   UNL A   1      42.281  34.617  31.758  1.00  0.00     0.031 C 
ATOM     62  C   UNL A   1      40.112  33.569  32.444  1.00  0.00     0.034 A 
BRANCH  49  63
ATOM     63  C   UNL A   1      35.501  33.592  29.515  1.00  0.00     0.023 A 
ATOM     64  C   UNL A   1      34.757  33.896  28.334  1.00  0.00     0.012 A 
ATOM     65  C   UNL A   1      35.006  34.106  30.724  1.00  0.00     0.148 A 
ATOM     66  C   UNL A   1      33.691  34.793  28.319  1.00  0.00     0.002 A 
ATOM     67  C   UNL A   1      33.892  34.960  30.713  1.00  0.00     0.091 A 
ATOM     68  F   UNL A   1      35.646  33.845  31.867  1.00  0.00    -0.205 F 
ATOM     69  C   UNL A   1      33.270  35.341  29.513  1.00  0.00     0.022 A 
BRANCH  67  70
ATOM     70  S   UNL A   1      33.169  35.638  32.213  1.00  0.00     0.127 S 
ATOM     71  O   UNL A   1      32.078  36.453  31.685  1.00  0.00    -0.237 OA
ATOM     72  O   UNL A   1      32.735  34.428  32.916  1.00  0.00    -0.237 OA
ATOM     73  O   UNL A   1      34.253  36.348  32.879  1.00  0.00    -0.744 OA
ENDBRANCH  67  70
ENDBRANCH  49  63
BRANCH  50  74
ATOM     74  C   UNL A   1      45.481  31.683  32.265  1.00  0.00     0.023 A 
ATOM     75  C   UNL A   1      46.035  31.514  33.541  1.00  0.00     0.012 A 
ATOM     76  C   UNL A   1      46.419  31.864  31.204  1.00  0.00     0.148 A 
ATOM     77  C   UNL A   1      47.428  31.404  33.726  1.00  0.00     0.002 A 
ATOM     78  C   UNL A   1      47.774  31.611  31.362  1.00  0.00     0.091 A 
ATOM     79  F   UNL A   1      46.001  32.315  30.016  1.00  0.00    -0.205 F 
ATOM     80  C   UNL A   1      48.292  31.393  32.634  1.00  0.00     0.022 A 
BRANCH  78  81
ATOM     81  S   UNL A   1      48.860  31.364  29.942  1.00  0.00     0.127 S 
ATOM     82  O   UNL A   1      48.972  32.715  29.395  1.00  0.00    -0.237 OA
ATOM     83  O   UNL A   1      50.070  30.860  30.589  1.00  0.00    -0.237 OA
ATOM     84  O   UNL A   1      48.192  30.401  29.076  1.00  0.00    -0.744 OA
ENDBRANCH  78  81
ENDBRANCH  50  74
BRANCH  62  85
ATOM     85  C   UNL A   1      39.521  32.534  33.406  1.00  0.00     0.023 A 
ATOM     86  C   UNL A   1      39.162  31.284  32.860  1.00  0.00     0.012 A 
ATOM     87  C   UNL A   1      39.195  32.758  34.764  1.00  0.00     0.148 A 
ATOM     88  C   UNL A   1      38.490  30.315  33.612  1.00  0.00     0.002 A 
ATOM     89  C   UNL A   1      38.511  31.795  35.516  1.00  0.00     0.091 A 
ATOM     90  F   UNL A   1      39.545  33.915  35.321  1.00  0.00    -0.205 F 
ATOM     91  C   UNL A   1      38.161  30.571  34.937  1.00  0.00     0.022 A 
BRANCH  89  92
ATOM     92  S   UNL A   1      37.970  32.041  37.224  1.00  0.00     0.127 S 
ATOM     93  O   UNL A   1      36.967  33.098  37.088  1.00  0.00    -0.237 OA
ATOM     94  O   UNL A   1      37.417  30.732  37.565  1.00  0.00    -0.237 OA
ATOM     95  O   UNL A   1      39.147  32.437  37.986  1.00  0.00    -0.744 OA
ENDBRANCH  89  92
ENDBRANCH  62  85
ENDBRANCH  36  37
ENDBRANCH  28  31
ENDBRANCH  26  27
ENDBRANCH  25  26
ENDBRANCH  24  25
ENDBRANCH   3  24
TORSDOF 19
ENDMDL
