MODEL 1
REMARK VINA RESULT:     -12.6      0.000      0.000
REMARK SMILES C[C@H]1C[N@H+]2CCCC[C@@H]2CN1c1ccc(C(=O)NCCCNC(=O)c2ccc(-c3c4nc(c(-c5cccc(S(=O)(=O)[O-])c5F)c5ccc([nH]5)c(-c5cccc(S(=O)(=O)[O-])c5F)c5nc(c(-c6cccc(S(=O)(=O)[O-])c6F)c6ccc3[nH]6)C=C5)C=C4)cc2)cc1Cl
REMARK SMILES IDX 21 1 20 2 19 3 18 4 16 5 17 6 15 8 12 9 13 10 89 11 14 12
REMARK SMILES IDX 88 13 90 14 11 15 1 16 2 17 3 18 4 19 10 20 5 21 9 22 6 24
REMARK SMILES IDX 8 25 7 26 22 27 23 28 24 30 25 31 26 32 87 33 27 34 86 35
REMARK SMILES IDX 28 36 29 37 30 38 80 39 31 40 85 41 79 42 81 43 32 44 84 45
REMARK SMILES IDX 78 46 77 47 33 49 65 50 45 51 64 52 46 53 49 54 63 55 82 56
REMARK SMILES IDX 47 57 48 58 62 60 83 61 50 62 34 63 35 64 43 65 36 66 38 67
REMARK SMILES IDX 44 68 37 69 39 70 40 71 41 72 42 73 66 74 67 75 75 76 68 77
REMARK SMILES IDX 70 78 76 79 69 80 71 81 72 82 73 83 74 84 51 85 52 86 60 87
REMARK SMILES IDX 53 88 55 89 61 90 54 91 56 92 57 93 58 94 59 95
REMARK H PARENT 18 7 4 23 22 29 81 48 49 59
REMARK Flexibility Score: inf
ROOT
ATOM      1  C   UNL A   1      32.689  32.495  27.226  1.00  0.00     0.118 C 
ENDROOT
BRANCH   1   2
ATOM      2  C   UNL A   1      31.429  31.994  26.531  1.00  0.00     0.042 C 
BRANCH   2   3
ATOM      3  C   UNL A   1      31.559  30.581  25.961  1.00  0.00     0.118 C 
BRANCH   3   4
ATOM      4  N   UNL A   1      30.897  30.451  24.675  1.00  0.00    -0.352 N 
ATOM      5  C   UNL A   1      30.703  29.374  23.846  1.00  0.00     0.251 C 
ATOM      6  O   UNL A   1      29.974  29.529  22.866  1.00  0.00    -0.269 OA
ATOM      7  H   UNL A   1      30.516  31.292  24.333  1.00  0.00     0.163 HD
BRANCH   5   8
ATOM      8  C   UNL A   1      31.304  28.033  24.090  1.00  0.00     0.041 A 
ATOM      9  C   UNL A   1      32.626  25.556  24.571  1.00  0.00     0.056 A 
ATOM     10  C   UNL A   1      33.207  26.546  23.765  1.00  0.00     0.028 A 
ATOM     11  C   UNL A   1      31.359  25.835  25.115  1.00  0.00     0.065 A 
ATOM     12  C   UNL A   1      32.559  27.766  23.527  1.00  0.00     0.016 A 
ATOM     13  C   UNL A   1      30.730  27.063  24.905  1.00  0.00     0.036 A 
ATOM     14  Cl  UNL A   1      30.521  24.719  26.141  1.00  0.00    -0.082 Cl
BRANCH   9  15
ATOM     15  N   UNL A   1      33.318  24.397  24.851  1.00  0.00    -0.356 N 
ATOM     16  C   UNL A   1      32.179  23.191  22.961  1.00  0.00     0.037 C 
ATOM     17  C   UNL A   1      33.007  23.085  24.251  1.00  0.00     0.134 C 
ATOM     18  C   UNL A   1      34.327  22.323  23.891  1.00  0.00     0.287 C 
ATOM     19  N   UNL A   1      35.429  22.362  24.890  1.00  0.00    -0.329 N 
ATOM     20  C   UNL A   1      34.368  24.413  25.875  1.00  0.00     0.182 C 
ATOM     21  C   UNL A   1      36.652  21.819  24.267  1.00  0.00     0.262 C 
ATOM     22  C   UNL A   1      35.656  23.771  25.307  1.00  0.00     0.203 C 
ATOM     23  H   UNL A   1      35.187  21.803  25.708  1.00  0.00     0.348 HD
ATOM     24  C   UNL A   1      37.857  21.884  25.207  1.00  0.00     0.062 C 
ATOM     25  C   UNL A   1      36.795  23.855  26.331  1.00  0.00     0.067 C 
ATOM     26  C   UNL A   1      38.083  23.296  25.736  1.00  0.00     0.012 C 
ENDBRANCH   9  15
ENDBRANCH   5   8
ENDBRANCH   3   4
ENDBRANCH   2   3
ENDBRANCH   1   2
BRANCH   1  27
ATOM     27  N   UNL A   1      32.586  33.903  27.576  1.00  0.00    -0.352 N 
ATOM     28  C   UNL A   1      33.168  34.610  28.594  1.00  0.00     0.251 C 
ATOM     29  H   UNL A   1      32.002  34.434  26.987  1.00  0.00     0.163 HD
ATOM     30  O   UNL A   1      32.750  35.740  28.839  1.00  0.00    -0.269 OA
BRANCH  28  31
ATOM     31  C   UNL A   1      34.286  34.049  29.389  1.00  0.00     0.039 A 
ATOM     32  C   UNL A   1      35.594  34.352  28.998  1.00  0.00     0.014 A 
ATOM     33  C   UNL A   1      34.066  33.163  30.448  1.00  0.00     0.014 A 
ATOM     34  C   UNL A   1      36.675  33.778  29.671  1.00  0.00     0.010 A 
ATOM     35  C   UNL A   1      35.146  32.651  31.167  1.00  0.00     0.010 A 
ATOM     36  C   UNL A   1      36.460  32.926  30.766  1.00  0.00    -0.014 A 
BRANCH  36  37
ATOM     37  C   UNL A   1      37.602  32.294  31.474  1.00  0.00     0.031 A 
ATOM     38  C   UNL A   1      38.376  31.177  30.825  1.00  0.00     0.074 A 
ATOM     39  C   UNL A   1      37.908  32.687  32.725  1.00  0.00     0.049 A 
ATOM     40  N   UNL A   1      39.400  30.506  31.287  1.00  0.00    -0.248 NA
ATOM     41  C   UNL A   1      37.924  30.732  29.496  1.00  0.00     0.031 C 
ATOM     42  C   UNL A   1      37.176  33.694  33.495  1.00  0.00     0.029 A 
ATOM     43  N   UNL A   1      38.898  32.271  33.578  1.00  0.00    -0.354 N 
ATOM     44  C   UNL A   1      39.685  29.538  30.330  1.00  0.00     0.074 A 
ATOM     45  C   UNL A   1      38.708  29.687  29.276  1.00  0.00     0.031 C 
ATOM     46  C   UNL A   1      37.744  33.820  34.705  1.00  0.00     0.029 A 
ATOM     47  C   UNL A   1      38.869  32.894  34.803  1.00  0.00     0.049 A 
ATOM     48  H   UNL A   1      39.568  31.591  33.335  1.00  0.00     0.167 HD
ATOM     49  C   UNL A   1      40.690  28.628  30.315  1.00  0.00     0.034 A 
ATOM     50  C   UNL A   1      39.661  32.740  35.882  1.00  0.00     0.034 A 
ATOM     51  C   UNL A   1      41.694  28.524  31.338  1.00  0.00     0.049 A 
ATOM     52  C   UNL A   1      40.822  31.789  35.804  1.00  0.00     0.074 A 
ATOM     53  C   UNL A   1      42.814  27.713  31.367  1.00  0.00     0.029 A 
ATOM     54  N   UNL A   1      41.697  29.253  32.518  1.00  0.00    -0.354 N 
ATOM     55  N   UNL A   1      41.184  31.008  34.814  1.00  0.00    -0.248 NA
ATOM     56  C   UNL A   1      41.712  31.729  36.971  1.00  0.00     0.031 C 
ATOM     57  C   UNL A   1      43.486  27.939  32.573  1.00  0.00     0.029 A 
ATOM     58  C   UNL A   1      42.797  28.908  33.285  1.00  0.00     0.049 A 
ATOM     59  H   UNL A   1      41.018  29.919  32.772  1.00  0.00     0.167 HD
ATOM     60  C   UNL A   1      42.359  30.391  35.223  1.00  0.00     0.074 A 
ATOM     61  C   UNL A   1      42.662  30.908  36.543  1.00  0.00     0.031 C 
ATOM     62  C   UNL A   1      43.113  29.468  34.575  1.00  0.00     0.034 A 
BRANCH  49  63
ATOM     63  C   UNL A   1      40.784  27.710  29.122  1.00  0.00     0.023 A 
ATOM     64  C   UNL A   1      39.969  26.560  29.063  1.00  0.00     0.012 A 
ATOM     65  C   UNL A   1      41.639  28.005  28.042  1.00  0.00     0.148 A 
ATOM     66  C   UNL A   1      40.032  25.699  27.968  1.00  0.00     0.002 A 
ATOM     67  C   UNL A   1      41.663  27.165  26.934  1.00  0.00     0.091 A 
ATOM     68  F   UNL A   1      42.424  29.088  28.125  1.00  0.00    -0.205 F 
ATOM     69  C   UNL A   1      40.870  26.007  26.900  1.00  0.00     0.022 A 
BRANCH  67  70
ATOM     70  S   UNL A   1      42.650  27.518  25.475  1.00  0.00     0.127 S 
ATOM     71  O   UNL A   1      42.378  26.347  24.644  1.00  0.00    -0.237 OA
ATOM     72  O   UNL A   1      42.050  28.763  24.989  1.00  0.00    -0.237 OA
ATOM     73  O   UNL A   1      44.022  27.652  25.943  1.00  0.00    -0.744 OA
ENDBRANCH  67  70
ENDBRANCH  49  63
BRANCH  50  74
ATOM     74  C   UNL A   1      39.426  33.576  37.093  1.00  0.00     0.023 A 
ATOM     75  C   UNL A   1      39.892  34.905  37.118  1.00  0.00     0.012 A 
ATOM     76  C   UNL A   1      38.701  33.081  38.195  1.00  0.00     0.148 A 
ATOM     77  C   UNL A   1      39.665  35.718  38.228  1.00  0.00     0.002 A 
ATOM     78  C   UNL A   1      38.430  33.913  39.274  1.00  0.00     0.091 A 
ATOM     79  F   UNL A   1      38.274  31.811  38.155  1.00  0.00    -0.205 F 
ATOM     80  C   UNL A   1      38.925  35.227  39.300  1.00  0.00     0.022 A 
BRANCH  78  81
ATOM     81  S   UNL A   1      37.372  33.411  40.635  1.00  0.00     0.127 S 
ATOM     82  O   UNL A   1      38.185  32.389  41.287  1.00  0.00    -0.237 OA
ATOM     83  O   UNL A   1      37.231  34.660  41.387  1.00  0.00    -0.237 OA
ATOM     84  O   UNL A   1      36.136  32.942  40.019  1.00  0.00    -0.744 OA
ENDBRANCH  78  81
ENDBRANCH  50  74
BRANCH  62  85
ATOM     85  C   UNL A   1      44.356  28.973  35.265  1.00  0.00     0.023 A 
ATOM     86  C   UNL A   1      45.598  29.580  34.990  1.00  0.00     0.012 A 
ATOM     87  C   UNL A   1      44.284  27.954  36.234  1.00  0.00     0.148 A 
ATOM     88  C   UNL A   1      46.754  29.155  35.642  1.00  0.00     0.002 A 
ATOM     89  C   UNL A   1      45.433  27.570  36.916  1.00  0.00     0.091 A 
ATOM     90  F   UNL A   1      43.098  27.374  36.468  1.00  0.00    -0.205 F 
ATOM     91  C   UNL A   1      46.670  28.160  36.613  1.00  0.00     0.022 A 
BRANCH  89  92
ATOM     92  S   UNL A   1      45.394  26.364  38.248  1.00  0.00     0.127 S 
ATOM     93  O   UNL A   1      46.780  26.386  38.712  1.00  0.00    -0.237 OA
ATOM     94  O   UNL A   1      44.430  26.955  39.178  1.00  0.00    -0.237 OA
ATOM     95  O   UNL A   1      44.952  25.116  37.640  1.00  0.00    -0.744 OA
ENDBRANCH  89  92
ENDBRANCH  62  85
ENDBRANCH  36  37
ENDBRANCH  28  31
ENDBRANCH   1  27
TORSDOF 14
ENDMDL
MODEL 2
REMARK VINA RESULT:     -12.5      6.191     11.580
REMARK SMILES C[C@H]1C[N@H+]2CCCC[C@@H]2CN1c1ccc(C(=O)NCCCNC(=O)c2ccc(-c3c4nc(c(-c5cccc(S(=O)(=O)[O-])c5F)c5ccc([nH]5)c(-c5cccc(S(=O)(=O)[O-])c5F)c5nc(c(-c6cccc(S(=O)(=O)[O-])c6F)c6ccc3[nH]6)C=C5)C=C4)cc2)cc1Cl
REMARK SMILES IDX 21 1 20 2 19 3 18 4 16 5 17 6 15 8 12 9 13 10 89 11 14 12
REMARK SMILES IDX 88 13 90 14 11 15 1 16 2 17 3 18 4 19 10 20 5 21 9 22 6 24
REMARK SMILES IDX 8 25 7 26 22 27 23 28 24 30 25 31 26 32 87 33 27 34 86 35
REMARK SMILES IDX 28 36 29 37 30 38 80 39 31 40 85 41 79 42 81 43 32 44 84 45
REMARK SMILES IDX 78 46 77 47 33 49 65 50 45 51 64 52 46 53 49 54 63 55 82 56
REMARK SMILES IDX 47 57 48 58 62 60 83 61 50 62 34 63 35 64 43 65 36 66 38 67
REMARK SMILES IDX 44 68 37 69 39 70 40 71 41 72 42 73 66 74 67 75 75 76 68 77
REMARK SMILES IDX 70 78 76 79 69 80 71 81 72 82 73 83 74 84 51 85 52 86 60 87
REMARK SMILES IDX 53 88 55 89 61 90 54 91 56 92 57 93 58 94 59 95
REMARK H PARENT 18 7 4 23 22 29 81 48 49 59
REMARK Flexibility Score: inf
ROOT
ATOM      1  C   UNL A   1      38.900  20.067  25.354  1.00  0.00     0.118 C 
ENDROOT
BRANCH   1   2
ATOM      2  C   UNL A   1      37.654  19.261  25.009  1.00  0.00     0.042 C 
BRANCH   2   3
ATOM      3  C   UNL A   1      36.369  20.090  24.991  1.00  0.00     0.118 C 
BRANCH   3   4
ATOM      4  N   UNL A   1      35.187  19.256  24.860  1.00  0.00    -0.352 N 
ATOM      5  C   UNL A   1      33.858  19.563  24.713  1.00  0.00     0.251 C 
ATOM      6  O   UNL A   1      33.078  18.639  24.484  1.00  0.00    -0.269 OA
ATOM      7  H   UNL A   1      35.374  18.289  24.881  1.00  0.00     0.163 HD
BRANCH   5   8
ATOM      8  C   UNL A   1      33.323  20.952  24.790  1.00  0.00     0.041 A 
ATOM      9  C   UNL A   1      32.391  23.625  25.108  1.00  0.00     0.056 A 
ATOM     10  C   UNL A   1      32.439  22.737  26.193  1.00  0.00     0.028 A 
ATOM     11  C   UNL A   1      32.809  23.132  23.858  1.00  0.00     0.065 A 
ATOM     12  C   UNL A   1      32.897  21.421  26.039  1.00  0.00     0.016 A 
ATOM     13  C   UNL A   1      33.297  21.832  23.714  1.00  0.00     0.036 A 
ATOM     14  Cl  UNL A   1      32.822  24.111  22.429  1.00  0.00    -0.082 Cl
BRANCH   9  15
ATOM     15  N   UNL A   1      32.009  24.935  25.302  1.00  0.00    -0.356 N 
ATOM     16  C   UNL A   1      34.391  25.630  25.710  1.00  0.00     0.037 C 
ATOM     17  C   UNL A   1      32.902  25.985  25.832  1.00  0.00     0.134 C 
ATOM     18  C   UNL A   1      32.681  27.329  25.059  1.00  0.00     0.287 C 
ATOM     19  N   UNL A   1      31.277  27.724  24.766  1.00  0.00    -0.329 N 
ATOM     20  C   UNL A   1      30.614  25.321  25.070  1.00  0.00     0.182 C 
ATOM     21  C   UNL A   1      31.292  28.860  23.824  1.00  0.00     0.262 C 
ATOM     22  C   UNL A   1      30.566  26.569  24.156  1.00  0.00     0.203 C 
ATOM     23  H   UNL A   1      30.800  27.999  25.624  1.00  0.00     0.348 HD
ATOM     24  C   UNL A   1      29.882  29.289  23.415  1.00  0.00     0.062 C 
ATOM     25  C   UNL A   1      29.114  26.940  23.829  1.00  0.00     0.067 C 
ATOM     26  C   UNL A   1      29.075  28.119  22.863  1.00  0.00     0.012 C 
ENDBRANCH   9  15
ENDBRANCH   5   8
ENDBRANCH   3   4
ENDBRANCH   2   3
ENDBRANCH   1   2
BRANCH   1  27
ATOM     27  N   UNL A   1      39.923  19.238  25.971  1.00  0.00    -0.352 N 
ATOM     28  C   UNL A   1      41.138  19.576  26.506  1.00  0.00     0.251 C 
ATOM     29  H   UNL A   1      39.708  18.277  26.011  1.00  0.00     0.163 HD
ATOM     30  O   UNL A   1      41.940  18.678  26.757  1.00  0.00    -0.269 OA
BRANCH  28  31
ATOM     31  C   UNL A   1      41.495  20.985  26.792  1.00  0.00     0.039 A 
ATOM     32  C   UNL A   1      41.349  21.926  25.768  1.00  0.00     0.014 A 
ATOM     33  C   UNL A   1      42.051  21.372  28.015  1.00  0.00     0.014 A 
ATOM     34  C   UNL A   1      41.750  23.249  25.971  1.00  0.00     0.010 A 
ATOM     35  C   UNL A   1      42.379  22.708  28.243  1.00  0.00     0.010 A 
ATOM     36  C   UNL A   1      42.264  23.653  27.214  1.00  0.00    -0.014 A 
BRANCH  36  37
ATOM     37  C   UNL A   1      42.713  25.051  27.433  1.00  0.00     0.031 A 
ATOM     38  C   UNL A   1      41.788  26.057  28.065  1.00  0.00     0.074 A 
ATOM     39  C   UNL A   1      43.934  25.431  27.009  1.00  0.00     0.049 A 
ATOM     40  N   UNL A   1      42.002  27.319  28.335  1.00  0.00    -0.248 NA
ATOM     41  C   UNL A   1      40.433  25.595  28.413  1.00  0.00     0.031 C 
ATOM     42  C   UNL A   1      44.885  24.574  26.300  1.00  0.00     0.029 A 
ATOM     43  N   UNL A   1      44.573  26.642  27.092  1.00  0.00    -0.354 N 
ATOM     44  C   UNL A   1      40.804  27.810  28.842  1.00  0.00     0.074 A 
ATOM     45  C   UNL A   1      39.856  26.719  28.813  1.00  0.00     0.031 C 
ATOM     46  C   UNL A   1      45.988  25.285  26.016  1.00  0.00     0.029 A 
ATOM     47  C   UNL A   1      45.818  26.649  26.507  1.00  0.00     0.049 A 
ATOM     48  H   UNL A   1      44.179  27.431  27.530  1.00  0.00     0.167 HD
ATOM     49  C   UNL A   1      40.526  29.048  29.319  1.00  0.00     0.034 A 
ATOM     50  C   UNL A   1      46.721  27.641  26.384  1.00  0.00     0.034 A 
ATOM     51  C   UNL A   1      41.490  30.111  29.401  1.00  0.00     0.049 A 
ATOM     52  C   UNL A   1      46.422  28.979  27.001  1.00  0.00     0.074 A 
ATOM     53  C   UNL A   1      41.343  31.366  29.964  1.00  0.00     0.029 A 
ATOM     54  N   UNL A   1      42.782  30.046  28.899  1.00  0.00    -0.354 N 
ATOM     55  N   UNL A   1      45.346  29.371  27.640  1.00  0.00    -0.248 NA
ATOM     56  C   UNL A   1      47.479  29.997  26.925  1.00  0.00     0.031 C 
ATOM     57  C   UNL A   1      42.542  32.066  29.788  1.00  0.00     0.029 A 
ATOM     58  C   UNL A   1      43.442  31.240  29.135  1.00  0.00     0.049 A 
ATOM     59  H   UNL A   1      43.171  29.266  28.442  1.00  0.00     0.167 HD
ATOM     60  C   UNL A   1      45.606  30.666  28.070  1.00  0.00     0.074 A 
ATOM     61  C   UNL A   1      46.953  30.984  27.640  1.00  0.00     0.031 C 
ATOM     62  C   UNL A   1      44.800  31.523  28.745  1.00  0.00     0.034 A 
BRANCH  49  63
ATOM     63  C   UNL A   1      39.135  29.300  29.844  1.00  0.00     0.023 A 
ATOM     64  C   UNL A   1      38.805  28.909  31.158  1.00  0.00     0.012 A 
ATOM     65  C   UNL A   1      38.171  29.965  29.060  1.00  0.00     0.148 A 
ATOM     66  C   UNL A   1      37.529  29.139  31.670  1.00  0.00     0.002 A 
ATOM     67  C   UNL A   1      36.914  30.229  29.593  1.00  0.00     0.091 A 
ATOM     68  F   UNL A   1      38.493  30.309  27.806  1.00  0.00    -0.205 F 
ATOM     69  C   UNL A   1      36.588  29.807  30.892  1.00  0.00     0.022 A 
BRANCH  67  70
ATOM     70  S   UNL A   1      35.661  31.155  28.700  1.00  0.00     0.127 S 
ATOM     71  O   UNL A   1      35.134  30.138  27.791  1.00  0.00    -0.237 OA
ATOM     72  O   UNL A   1      34.743  31.548  29.771  1.00  0.00    -0.237 OA
ATOM     73  O   UNL A   1      36.359  32.264  28.065  1.00  0.00    -0.744 OA
ENDBRANCH  67  70
ENDBRANCH  49  63
BRANCH  50  74
ATOM     74  C   UNL A   1      48.026  27.370  25.720  1.00  0.00     0.023 A 
ATOM     75  C   UNL A   1      49.102  26.880  26.484  1.00  0.00     0.012 A 
ATOM     76  C   UNL A   1      48.192  27.543  24.332  1.00  0.00     0.148 A 
ATOM     77  C   UNL A   1      50.329  26.594  25.885  1.00  0.00     0.002 A 
ATOM     78  C   UNL A   1      49.398  27.204  23.732  1.00  0.00     0.091 A 
ATOM     79  F   UNL A   1      47.158  28.020  23.624  1.00  0.00    -0.205 F 
ATOM     80  C   UNL A   1      50.474  26.745  24.509  1.00  0.00     0.022 A 
BRANCH  78  81
ATOM     81  S   UNL A   1      49.631  27.237  21.951  1.00  0.00     0.127 S 
ATOM     82  O   UNL A   1      48.636  26.269  21.500  1.00  0.00    -0.237 OA
ATOM     83  O   UNL A   1      49.325  28.632  21.630  1.00  0.00    -0.237 OA
ATOM     84  O   UNL A   1      51.024  26.864  21.731  1.00  0.00    -0.744 OA
ENDBRANCH  78  81
ENDBRANCH  50  74
BRANCH  62  85
ATOM     85  C   UNL A   1      45.357  32.879  29.090  1.00  0.00     0.023 A 
ATOM     86  C   UNL A   1      46.051  33.063  30.302  1.00  0.00     0.012 A 
ATOM     87  C   UNL A   1      45.250  33.952  28.184  1.00  0.00     0.148 A 
ATOM     88  C   UNL A   1      46.599  34.304  30.624  1.00  0.00     0.002 A 
ATOM     89  C   UNL A   1      45.842  35.172  28.489  1.00  0.00     0.091 A 
ATOM     90  F   UNL A   1      44.568  33.764  27.045  1.00  0.00    -0.205 F 
ATOM     91  C   UNL A   1      46.506  35.354  29.712  1.00  0.00     0.022 A 
BRANCH  89  92
ATOM     92  S   UNL A   1      45.851  36.546  27.330  1.00  0.00     0.127 S 
ATOM     93  O   UNL A   1      44.425  36.846  27.212  1.00  0.00    -0.237 OA
ATOM     94  O   UNL A   1      46.629  37.557  28.048  1.00  0.00    -0.237 OA
ATOM     95  O   UNL A   1      46.491  36.041  26.123  1.00  0.00    -0.744 OA
ENDBRANCH  89  92
ENDBRANCH  62  85
ENDBRANCH  36  37
ENDBRANCH  28  31
ENDBRANCH   1  27
TORSDOF 14
ENDMDL
MODEL 3
REMARK VINA RESULT:     -12.5      5.597      8.955
REMARK SMILES C[C@H]1C[N@H+]2CCCC[C@@H]2CN1c1ccc(C(=O)NCCCNC(=O)c2ccc(-c3c4nc(c(-c5cccc(S(=O)(=O)[O-])c5F)c5ccc([nH]5)c(-c5cccc(S(=O)(=O)[O-])c5F)c5nc(c(-c6cccc(S(=O)(=O)[O-])c6F)c6ccc3[nH]6)C=C5)C=C4)cc2)cc1Cl
REMARK SMILES IDX 21 1 20 2 19 3 18 4 16 5 17 6 15 8 12 9 13 10 89 11 14 12
REMARK SMILES IDX 88 13 90 14 11 15 1 16 2 17 3 18 4 19 10 20 5 21 9 22 6 24
REMARK SMILES IDX 8 25 7 26 22 27 23 28 24 30 25 31 26 32 87 33 27 34 86 35
REMARK SMILES IDX 28 36 29 37 30 38 80 39 31 40 85 41 79 42 81 43 32 44 84 45
REMARK SMILES IDX 78 46 77 47 33 49 65 50 45 51 64 52 46 53 49 54 63 55 82 56
REMARK SMILES IDX 47 57 48 58 62 60 83 61 50 62 34 63 35 64 43 65 36 66 38 67
REMARK SMILES IDX 44 68 37 69 39 70 40 71 41 72 42 73 66 74 67 75 75 76 68 77
REMARK SMILES IDX 70 78 76 79 69 80 71 81 72 82 73 83 74 84 51 85 52 86 60 87
REMARK SMILES IDX 53 88 55 89 61 90 54 91 56 92 57 93 58 94 59 95
REMARK H PARENT 18 7 4 23 22 29 81 48 49 59
REMARK Flexibility Score: inf
ROOT
ATOM      1  C   UNL A   1      37.007  22.228  25.808  1.00  0.00     0.118 C 
ENDROOT
BRANCH   1   2
ATOM      2  C   UNL A   1      35.638  21.561  25.874  1.00  0.00     0.042 C 
BRANCH   2   3
ATOM      3  C   UNL A   1      35.452  20.434  24.858  1.00  0.00     0.118 C 
BRANCH   3   4
ATOM      4  N   UNL A   1      34.241  19.672  25.108  1.00  0.00    -0.352 N 
ATOM      5  C   UNL A   1      32.921  20.043  25.181  1.00  0.00     0.251 C 
ATOM      6  O   UNL A   1      32.080  19.149  25.271  1.00  0.00    -0.269 OA
ATOM      7  H   UNL A   1      34.395  18.710  25.252  1.00  0.00     0.163 HD
BRANCH   5   8
ATOM      8  C   UNL A   1      32.463  21.460  25.131  1.00  0.00     0.041 A 
ATOM      9  C   UNL A   1      31.674  24.196  25.205  1.00  0.00     0.056 A 
ATOM     10  C   UNL A   1      31.649  23.399  26.359  1.00  0.00     0.028 A 
ATOM     11  C   UNL A   1      32.090  23.579  24.011  1.00  0.00     0.065 A 
ATOM     12  C   UNL A   1      32.037  22.053  26.326  1.00  0.00     0.016 A 
ATOM     13  C   UNL A   1      32.508  22.247  23.986  1.00  0.00     0.036 A 
ATOM     14  Cl  UNL A   1      32.188  24.434  22.507  1.00  0.00    -0.082 Cl
BRANCH   9  15
ATOM     15  N   UNL A   1      31.361  25.535  25.281  1.00  0.00    -0.356 N 
ATOM     16  C   UNL A   1      33.768  26.135  25.687  1.00  0.00     0.037 C 
ATOM     17  C   UNL A   1      32.299  26.577  25.744  1.00  0.00     0.134 C 
ATOM     18  C   UNL A   1      32.168  27.861  24.858  1.00  0.00     0.287 C 
ATOM     19  N   UNL A   1      30.794  28.305  24.500  1.00  0.00    -0.329 N 
ATOM     20  C   UNL A   1      29.994  25.975  24.985  1.00  0.00     0.182 C 
ATOM     21  C   UNL A   1      30.889  29.356  23.467  1.00  0.00     0.262 C 
ATOM     22  C   UNL A   1      30.032  27.143  23.970  1.00  0.00     0.203 C 
ATOM     23  H   UNL A   1      30.315  28.676  25.320  1.00  0.00     0.348 HD
ATOM     24  C   UNL A   1      29.513  29.824  22.991  1.00  0.00     0.062 C 
ATOM     25  C   UNL A   1      28.610  27.562  23.579  1.00  0.00     0.067 C 
ATOM     26  C   UNL A   1      28.654  28.656  22.518  1.00  0.00     0.012 C 
ENDBRANCH   9  15
ENDBRANCH   5   8
ENDBRANCH   3   4
ENDBRANCH   2   3
ENDBRANCH   1   2
BRANCH   1  27
ATOM     27  N   UNL A   1      38.080  21.273  26.033  1.00  0.00    -0.352 N 
ATOM     28  C   UNL A   1      39.396  21.475  26.356  1.00  0.00     0.251 C 
ATOM     29  H   UNL A   1      37.820  20.328  25.937  1.00  0.00     0.163 HD
ATOM     30  O   UNL A   1      40.177  20.530  26.263  1.00  0.00    -0.269 OA
BRANCH  28  31
ATOM     31  C   UNL A   1      39.888  22.794  26.819  1.00  0.00     0.039 A 
ATOM     32  C   UNL A   1      39.448  23.939  26.146  1.00  0.00     0.014 A 
ATOM     33  C   UNL A   1      40.837  22.911  27.839  1.00  0.00     0.014 A 
ATOM     34  C   UNL A   1      39.949  25.193  26.499  1.00  0.00     0.010 A 
ATOM     35  C   UNL A   1      41.279  24.171  28.242  1.00  0.00     0.010 A 
ATOM     36  C   UNL A   1      40.866  25.321  27.555  1.00  0.00    -0.014 A 
BRANCH  36  37
ATOM     37  C   UNL A   1      41.421  26.648  27.924  1.00  0.00     0.031 A 
ATOM     38  C   UNL A   1      42.838  27.008  27.562  1.00  0.00     0.074 A 
ATOM     39  C   UNL A   1      40.668  27.509  28.635  1.00  0.00     0.049 A 
ATOM     40  N   UNL A   1      43.494  28.115  27.799  1.00  0.00    -0.248 NA
ATOM     41  C   UNL A   1      43.635  25.981  26.870  1.00  0.00     0.031 C 
ATOM     42  C   UNL A   1      39.315  27.240  29.125  1.00  0.00     0.029 A 
ATOM     43  N   UNL A   1      40.942  28.773  29.091  1.00  0.00    -0.354 N 
ATOM     44  C   UNL A   1      44.784  27.903  27.326  1.00  0.00     0.074 A 
ATOM     45  C   UNL A   1      44.830  26.551  26.817  1.00  0.00     0.031 C 
ATOM     46  C   UNL A   1      38.876  28.308  29.810  1.00  0.00     0.029 A 
ATOM     47  C   UNL A   1      39.918  29.330  29.821  1.00  0.00     0.049 A 
ATOM     48  H   UNL A   1      41.791  29.239  28.911  1.00  0.00     0.167 HD
ATOM     49  C   UNL A   1      45.829  28.766  27.289  1.00  0.00     0.034 A 
ATOM     50  C   UNL A   1      39.828  30.529  30.428  1.00  0.00     0.034 A 
ATOM     51  C   UNL A   1      45.760  30.129  27.743  1.00  0.00     0.049 A 
ATOM     52  C   UNL A   1      40.968  31.501  30.295  1.00  0.00     0.074 A 
ATOM     53  C   UNL A   1      46.725  31.116  27.652  1.00  0.00     0.029 A 
ATOM     54  N   UNL A   1      44.665  30.695  28.378  1.00  0.00    -0.354 N 
ATOM     55  N   UNL A   1      42.118  31.345  29.684  1.00  0.00    -0.248 NA
ATOM     56  C   UNL A   1      40.781  32.830  30.891  1.00  0.00     0.031 C 
ATOM     57  C   UNL A   1      46.218  32.276  28.248  1.00  0.00     0.029 A 
ATOM     58  C   UNL A   1      44.930  32.018  28.689  1.00  0.00     0.049 A 
ATOM     59  H   UNL A   1      43.823  30.226  28.577  1.00  0.00     0.167 HD
ATOM     60  C   UNL A   1      42.778  32.562  29.792  1.00  0.00     0.074 A 
ATOM     61  C   UNL A   1      41.887  33.455  30.507  1.00  0.00     0.031 C 
ATOM     62  C   UNL A   1      44.014  32.909  29.356  1.00  0.00     0.034 A 
BRANCH  49  63
ATOM     63  C   UNL A   1      47.121  28.276  26.686  1.00  0.00     0.023 A 
ATOM     64  C   UNL A   1      48.196  27.928  27.529  1.00  0.00     0.012 A 
ATOM     65  C   UNL A   1      47.257  28.113  25.293  1.00  0.00     0.148 A 
ATOM     66  C   UNL A   1      49.399  27.465  26.997  1.00  0.00     0.002 A 
ATOM     67  C   UNL A   1      48.444  27.609  24.772  1.00  0.00     0.091 A 
ATOM     68  F   UNL A   1      46.235  28.469  24.504  1.00  0.00    -0.205 F 
ATOM     69  C   UNL A   1      49.519  27.296  25.620  1.00  0.00     0.022 A 
BRANCH  67  70
ATOM     70  S   UNL A   1      48.668  27.279  23.021  1.00  0.00     0.127 S 
ATOM     71  O   UNL A   1      50.075  27.628  22.831  1.00  0.00    -0.237 OA
ATOM     72  O   UNL A   1      48.379  25.845  22.935  1.00  0.00    -0.237 OA
ATOM     73  O   UNL A   1      47.710  28.130  22.328  1.00  0.00    -0.744 OA
ENDBRANCH  67  70
ENDBRANCH  49  63
BRANCH  50  74
ATOM     74  C   UNL A   1      38.574  30.902  31.140  1.00  0.00     0.023 A 
ATOM     75  C   UNL A   1      38.481  30.698  32.530  1.00  0.00     0.012 A 
ATOM     76  C   UNL A   1      37.497  31.503  30.460  1.00  0.00     0.148 A 
ATOM     77  C   UNL A   1      37.328  31.059  33.227  1.00  0.00     0.002 A 
ATOM     78  C   UNL A   1      36.374  31.912  31.169  1.00  0.00     0.091 A 
ATOM     79  F   UNL A   1      37.602  31.680  29.135  1.00  0.00    -0.205 F 
ATOM     80  C   UNL A   1      36.280  31.676  32.550  1.00  0.00     0.022 A 
BRANCH  78  81
ATOM     81  S   UNL A   1      35.036  32.835  30.405  1.00  0.00     0.127 S 
ATOM     82  O   UNL A   1      34.126  33.032  31.529  1.00  0.00    -0.237 OA
ATOM     83  O   UNL A   1      35.723  34.044  29.948  1.00  0.00    -0.237 OA
ATOM     84  O   UNL A   1      34.539  31.986  29.328  1.00  0.00    -0.744 OA
ENDBRANCH  78  81
ENDBRANCH  50  74
BRANCH  62  85
ATOM     85  C   UNL A   1      44.474  34.320  29.610  1.00  0.00     0.023 A 
ATOM     86  C   UNL A   1      45.106  34.641  30.828  1.00  0.00     0.012 A 
ATOM     87  C   UNL A   1      44.340  35.310  28.618  1.00  0.00     0.148 A 
ATOM     88  C   UNL A   1      45.565  35.935  31.068  1.00  0.00     0.002 A 
ATOM     89  C   UNL A   1      44.845  36.585  28.845  1.00  0.00     0.091 A 
ATOM     90  F   UNL A   1      43.718  34.992  27.473  1.00  0.00    -0.205 F 
ATOM     91  C   UNL A   1      45.446  36.903  30.073  1.00  0.00     0.022 A 
BRANCH  89  92
ATOM     92  S   UNL A   1      44.819  37.862  27.581  1.00  0.00     0.127 S 
ATOM     93  O   UNL A   1      45.271  39.033  28.329  1.00  0.00    -0.237 OA
ATOM     94  O   UNL A   1      45.783  37.355  26.603  1.00  0.00    -0.237 OA
ATOM     95  O   UNL A   1      43.445  37.913  27.098  1.00  0.00    -0.744 OA
ENDBRANCH  89  92
ENDBRANCH  62  85
ENDBRANCH  36  37
ENDBRANCH  28  31
ENDBRANCH   1  27
TORSDOF 14
ENDMDL
