MODEL 1
REMARK VINA RESULT:     -12.4      0.000      0.000
REMARK SMILES C[N@H+]1[C@H]2CC[C@@H]1[C@@H](C(=O)NCCCNC(=O)c1ccc(-c3c4nc(c(-c5cccc(S(=O)(=O)[O-])c5F)c5ccc([nH]5)c(-c5cccc(S(=O)(=O)[O-])c5F)c5nc(c(-c6cccc(S(=O)(=O)[O-])c6F)c6ccc3[nH]6)C=C5)C=C4)cc1)[C@@H](OC(=O)c1ccccc1)C2
REMARK SMILES IDX 12 1 11 2 10 3 8 4 9 5 7 7 1 8 2 9 3 10 6 11 4 13 90 14 5 15
REMARK SMILES IDX 80 16 81 17 82 18 83 19 84 20 85 21 89 22 86 23 88 24 87 25
REMARK SMILES IDX 13 26 14 27 15 28 16 30 17 31 18 32 79 33 19 34 78 35 20 36
REMARK SMILES IDX 21 37 22 38 72 39 23 40 77 41 71 42 73 43 24 44 76 45 70 46
REMARK SMILES IDX 69 47 25 49 57 50 37 51 56 52 38 53 41 54 55 55 74 56 39 57
REMARK SMILES IDX 40 58 54 60 75 61 42 62 26 63 27 64 35 65 28 66 30 67 36 68
REMARK SMILES IDX 29 69 31 70 32 71 33 72 34 73 58 74 59 75 67 76 60 77 62 78
REMARK SMILES IDX 68 79 61 80 63 81 64 82 65 83 66 84 43 85 44 86 52 87 45 88
REMARK SMILES IDX 47 89 53 90 46 91 48 92 49 93 50 94 51 95
REMARK H PARENT 10 6 2 12 14 29 73 48 41 59
REMARK Flexibility Score: inf
ROOT
ATOM      1  C   UNL A   1      37.628  19.569  24.780  1.00  0.00     0.042 C 
ENDROOT
BRANCH   1   2
ATOM      2  C   UNL A   1      36.218  20.089  24.980  1.00  0.00     0.117 C 
BRANCH   2   3
ATOM      3  N   UNL A   1      36.033  21.346  25.700  1.00  0.00    -0.355 N 
ATOM      4  C   UNL A   1      35.118  22.354  25.606  1.00  0.00     0.232 C 
ATOM      5  O   UNL A   1      34.972  23.023  26.643  1.00  0.00    -0.274 OA
ATOM      6  H   UNL A   1      36.710  21.498  26.399  1.00  0.00     0.163 HD
BRANCH   4   7
ATOM      7  C   UNL A   1      34.296  22.762  24.367  1.00  0.00     0.177 C 
ATOM      8  C   UNL A   1      34.005  26.152  25.579  1.00  0.00     0.333 C 
ATOM      9  N   UNL A   1      33.543  24.877  25.087  1.00  0.00    -0.332 N 
ATOM     10  C   UNL A   1      32.140  24.650  24.747  1.00  0.00     0.188 C 
ATOM     11  C   UNL A   1      34.321  24.265  24.038  1.00  0.00     0.200 C 
ATOM     12  H   UNL A   1      33.689  24.433  25.993  1.00  0.00     0.348 HD
ATOM     13  C   UNL A   1      32.118  25.043  23.283  1.00  0.00     0.071 C 
ATOM     14  C   UNL A   1      31.816  23.126  24.953  1.00  0.00     0.111 C 
ATOM     15  C   UNL A   1      33.518  24.665  22.780  1.00  0.00     0.072 C 
ATOM     16  C   UNL A   1      32.877  22.173  24.337  1.00  0.00     0.201 C 
BRANCH  16  17
ATOM     17  O   UNL A   1      32.945  20.745  24.663  1.00  0.00    -0.457 OA
BRANCH  17  18
ATOM     18  C   UNL A   1      32.630  19.785  23.770  1.00  0.00     0.338 C 
ATOM     19  O   UNL A   1      32.090  19.974  22.691  1.00  0.00    -0.246 OA
BRANCH  18  20
ATOM     20  C   UNL A   1      32.923  18.397  24.226  1.00  0.00     0.060 A 
ATOM     21  C   UNL A   1      33.794  17.636  23.424  1.00  0.00     0.015 A 
ATOM     22  C   UNL A   1      32.410  17.825  25.396  1.00  0.00     0.015 A 
ATOM     23  C   UNL A   1      34.168  16.341  23.788  1.00  0.00     0.001 A 
ATOM     24  C   UNL A   1      32.793  16.525  25.763  1.00  0.00     0.001 A 
ATOM     25  C   UNL A   1      33.673  15.789  24.965  1.00  0.00     0.000 A 
ENDBRANCH  18  20
ENDBRANCH  17  18
ENDBRANCH  16  17
ENDBRANCH   4   7
ENDBRANCH   2   3
ENDBRANCH   1   2
BRANCH   1  26
ATOM     26  C   UNL A   1      38.648  20.254  25.649  1.00  0.00     0.118 C 
BRANCH  26  27
ATOM     27  N   UNL A   1      39.762  19.346  25.901  1.00  0.00    -0.352 N 
ATOM     28  C   UNL A   1      41.087  19.678  26.076  1.00  0.00     0.251 C 
ATOM     29  H   UNL A   1      39.541  18.388  25.953  1.00  0.00     0.163 HD
ATOM     30  O   UNL A   1      41.965  18.854  25.840  1.00  0.00    -0.269 OA
BRANCH  28  31
ATOM     31  C   UNL A   1      41.437  21.041  26.537  1.00  0.00     0.039 A 
ATOM     32  C   UNL A   1      41.874  21.251  27.847  1.00  0.00     0.014 A 
ATOM     33  C   UNL A   1      41.335  22.118  25.654  1.00  0.00     0.014 A 
ATOM     34  C   UNL A   1      42.273  22.531  28.243  1.00  0.00     0.010 A 
ATOM     35  C   UNL A   1      41.847  23.357  26.009  1.00  0.00     0.010 A 
ATOM     36  C   UNL A   1      42.302  23.584  27.314  1.00  0.00    -0.014 A 
BRANCH  36  37
ATOM     37  C   UNL A   1      42.797  24.941  27.662  1.00  0.00     0.031 A 
ATOM     38  C   UNL A   1      41.858  25.945  28.276  1.00  0.00     0.074 A 
ATOM     39  C   UNL A   1      44.048  25.305  27.312  1.00  0.00     0.049 A 
ATOM     40  N   UNL A   1      42.054  27.212  28.530  1.00  0.00    -0.248 NA
ATOM     41  C   UNL A   1      40.504  25.472  28.617  1.00  0.00     0.031 C 
ATOM     42  C   UNL A   1      45.022  24.446  26.636  1.00  0.00     0.029 A 
ATOM     43  N   UNL A   1      44.697  26.507  27.437  1.00  0.00    -0.354 N 
ATOM     44  C   UNL A   1      40.842  27.695  29.010  1.00  0.00     0.074 A 
ATOM     45  C   UNL A   1      39.904  26.596  28.979  1.00  0.00     0.031 C 
ATOM     46  C   UNL A   1      46.145  25.146  26.408  1.00  0.00     0.029 A 
ATOM     47  C   UNL A   1      45.954  26.514  26.875  1.00  0.00     0.049 A 
ATOM     48  H   UNL A   1      44.304  27.290  27.886  1.00  0.00     0.167 HD
ATOM     49  C   UNL A   1      40.544  28.935  29.461  1.00  0.00     0.034 A 
ATOM     50  C   UNL A   1      46.843  27.517  26.727  1.00  0.00     0.034 A 
ATOM     51  C   UNL A   1      41.494  30.011  29.528  1.00  0.00     0.049 A 
ATOM     52  C   UNL A   1      46.493  28.882  27.254  1.00  0.00     0.074 A 
ATOM     53  C   UNL A   1      41.326  31.273  30.066  1.00  0.00     0.029 A 
ATOM     54  N   UNL A   1      42.784  29.958  29.023  1.00  0.00    -0.354 N 
ATOM     55  N   UNL A   1      45.400  29.276  27.864  1.00  0.00    -0.248 NA
ATOM     56  C   UNL A   1      47.505  29.936  27.097  1.00  0.00     0.031 C 
ATOM     57  C   UNL A   1      42.501  31.999  29.848  1.00  0.00     0.029 A 
ATOM     58  C   UNL A   1      43.414  31.175  29.209  1.00  0.00     0.049 A 
ATOM     59  H   UNL A   1      43.191  29.170  28.595  1.00  0.00     0.167 HD
ATOM     60  C   UNL A   1      45.601  30.613  28.181  1.00  0.00     0.074 A 
ATOM     61  C   UNL A   1      46.932  30.955  27.723  1.00  0.00     0.031 C 
ATOM     62  C   UNL A   1      44.754  31.487  28.781  1.00  0.00     0.034 A 
BRANCH  49  63
ATOM     63  C   UNL A   1      39.142  29.188  29.953  1.00  0.00     0.023 A 
ATOM     64  C   UNL A   1      38.786  28.830  31.271  1.00  0.00     0.012 A 
ATOM     65  C   UNL A   1      38.194  29.829  29.132  1.00  0.00     0.148 A 
ATOM     66  C   UNL A   1      37.499  29.071  31.749  1.00  0.00     0.002 A 
ATOM     67  C   UNL A   1      36.928  30.109  29.634  1.00  0.00     0.091 A 
ATOM     68  F   UNL A   1      38.543  30.143  27.877  1.00  0.00    -0.205 F 
ATOM     69  C   UNL A   1      36.575  29.719  30.936  1.00  0.00     0.022 A 
BRANCH  67  70
ATOM     70  S   UNL A   1      35.692  31.014  28.696  1.00  0.00     0.127 S 
ATOM     71  O   UNL A   1      34.980  29.927  28.023  1.00  0.00    -0.237 OA
ATOM     72  O   UNL A   1      34.930  31.677  29.755  1.00  0.00    -0.237 OA
ATOM     73  O   UNL A   1      36.427  31.913  27.819  1.00  0.00    -0.744 OA
ENDBRANCH  67  70
ENDBRANCH  49  63
BRANCH  50  74
ATOM     74  C   UNL A   1      48.160  27.257  26.080  1.00  0.00     0.023 A 
ATOM     75  C   UNL A   1      49.228  26.764  26.853  1.00  0.00     0.012 A 
ATOM     76  C   UNL A   1      48.352  27.468  24.700  1.00  0.00     0.148 A 
ATOM     77  C   UNL A   1      50.472  26.514  26.273  1.00  0.00     0.002 A 
ATOM     78  C   UNL A   1      49.578  27.164  24.117  1.00  0.00     0.091 A 
ATOM     79  F   UNL A   1      47.327  27.947  23.982  1.00  0.00    -0.205 F 
ATOM     80  C   UNL A   1      50.644  26.704  24.905  1.00  0.00     0.022 A 
BRANCH  78  81
ATOM     81  S   UNL A   1      49.853  27.253  22.344  1.00  0.00     0.127 S 
ATOM     82  O   UNL A   1      51.235  26.790  22.233  1.00  0.00    -0.237 OA
ATOM     83  O   UNL A   1      48.848  26.317  21.836  1.00  0.00    -0.237 OA
ATOM     84  O   UNL A   1      49.623  28.642  21.976  1.00  0.00    -0.744 OA
ENDBRANCH  78  81
ENDBRANCH  50  74
BRANCH  62  85
ATOM     85  C   UNL A   1      45.237  32.897  28.993  1.00  0.00     0.023 A 
ATOM     86  C   UNL A   1      45.965  33.220  30.155  1.00  0.00     0.012 A 
ATOM     87  C   UNL A   1      45.054  33.875  27.996  1.00  0.00     0.148 A 
ATOM     88  C   UNL A   1      46.480  34.502  30.335  1.00  0.00     0.002 A 
ATOM     89  C   UNL A   1      45.615  35.136  28.158  1.00  0.00     0.091 A 
ATOM     90  F   UNL A   1      44.349  33.550  26.902  1.00  0.00    -0.205 F 
ATOM     91  C   UNL A   1      46.316  35.455  29.333  1.00  0.00     0.022 A 
BRANCH  89  92
ATOM     92  S   UNL A   1      45.543  36.400  26.884  1.00  0.00     0.127 S 
ATOM     93  O   UNL A   1      46.220  35.740  25.770  1.00  0.00    -0.237 OA
ATOM     94  O   UNL A   1      44.101  36.574  26.706  1.00  0.00    -0.237 OA
ATOM     95  O   UNL A   1      46.234  37.563  27.426  1.00  0.00    -0.744 OA
ENDBRANCH  89  92
ENDBRANCH  62  85
ENDBRANCH  36  37
ENDBRANCH  28  31
ENDBRANCH  26  27
ENDBRANCH   1  26
TORSDOF 16
ENDMDL
MODEL 2
REMARK VINA RESULT:     -12.4      6.649     11.934
REMARK SMILES C[N@H+]1[C@H]2CC[C@@H]1[C@@H](C(=O)NCCCNC(=O)c1ccc(-c3c4nc(c(-c5cccc(S(=O)(=O)[O-])c5F)c5ccc([nH]5)c(-c5cccc(S(=O)(=O)[O-])c5F)c5nc(c(-c6cccc(S(=O)(=O)[O-])c6F)c6ccc3[nH]6)C=C5)C=C4)cc1)[C@@H](OC(=O)c1ccccc1)C2
REMARK SMILES IDX 12 1 11 2 10 3 8 4 9 5 7 7 1 8 2 9 3 10 6 11 4 13 90 14 5 15
REMARK SMILES IDX 80 16 81 17 82 18 83 19 84 20 85 21 89 22 86 23 88 24 87 25
REMARK SMILES IDX 13 26 14 27 15 28 16 30 17 31 18 32 79 33 19 34 78 35 20 36
REMARK SMILES IDX 21 37 22 38 72 39 23 40 77 41 71 42 73 43 24 44 76 45 70 46
REMARK SMILES IDX 69 47 25 49 57 50 37 51 56 52 38 53 41 54 55 55 74 56 39 57
REMARK SMILES IDX 40 58 54 60 75 61 42 62 26 63 27 64 35 65 28 66 30 67 36 68
REMARK SMILES IDX 29 69 31 70 32 71 33 72 34 73 58 74 59 75 67 76 60 77 62 78
REMARK SMILES IDX 68 79 61 80 63 81 64 82 65 83 66 84 43 85 44 86 52 87 45 88
REMARK SMILES IDX 47 89 53 90 46 91 48 92 49 93 50 94 51 95
REMARK H PARENT 10 6 2 12 14 29 73 48 41 59
REMARK Flexibility Score: inf
ROOT
ATOM      1  C   UNL A   1      31.407  32.152  26.407  1.00  0.00     0.042 C 
ENDROOT
BRANCH   1   2
ATOM      2  C   UNL A   1      31.285  30.665  26.136  1.00  0.00     0.117 C 
BRANCH   2   3
ATOM      3  N   UNL A   1      32.134  30.071  25.108  1.00  0.00    -0.355 N 
ATOM      4  C   UNL A   1      31.995  28.989  24.288  1.00  0.00     0.232 C 
ATOM      5  O   UNL A   1      32.663  29.038  23.242  1.00  0.00    -0.274 OA
ATOM      6  H   UNL A   1      32.984  30.551  24.978  1.00  0.00     0.163 HD
BRANCH   4   7
ATOM      7  C   UNL A   1      31.145  27.725  24.537  1.00  0.00     0.177 C 
ATOM      8  C   UNL A   1      34.104  25.778  25.243  1.00  0.00     0.333 C 
ATOM      9  N   UNL A   1      32.863  26.112  24.587  1.00  0.00    -0.332 N 
ATOM     10  C   UNL A   1      32.217  25.190  23.656  1.00  0.00     0.188 C 
ATOM     11  C   UNL A   1      31.816  26.655  25.416  1.00  0.00     0.200 C 
ATOM     12  H   UNL A   1      33.316  26.822  24.011  1.00  0.00     0.348 HD
ATOM     13  C   UNL A   1      31.324  24.396  24.589  1.00  0.00     0.071 C 
ATOM     14  C   UNL A   1      31.387  26.028  22.617  1.00  0.00     0.111 C 
ATOM     15  C   UNL A   1      30.950  25.404  25.685  1.00  0.00     0.072 C 
ATOM     16  C   UNL A   1      30.513  27.138  23.266  1.00  0.00     0.201 C 
BRANCH  16  17
ATOM     17  O   UNL A   1      29.903  28.221  22.490  1.00  0.00    -0.457 OA
BRANCH  17  18
ATOM     18  C   UNL A   1      28.686  28.723  22.784  1.00  0.00     0.338 C 
ATOM     19  O   UNL A   1      27.743  28.080  23.217  1.00  0.00    -0.246 OA
BRANCH  18  20
ATOM     20  C   UNL A   1      28.521  30.169  22.463  1.00  0.00     0.060 A 
ATOM     21  C   UNL A   1      28.849  31.086  23.479  1.00  0.00     0.015 A 
ATOM     22  C   UNL A   1      28.086  30.659  21.227  1.00  0.00     0.015 A 
ATOM     23  C   UNL A   1      28.773  32.463  23.264  1.00  0.00     0.001 A 
ATOM     24  C   UNL A   1      28.016  32.044  21.010  1.00  0.00     0.001 A 
ATOM     25  C   UNL A   1      28.364  32.943  22.024  1.00  0.00     0.000 A 
ENDBRANCH  18  20
ENDBRANCH  17  18
ENDBRANCH  16  17
ENDBRANCH   4   7
ENDBRANCH   2   3
ENDBRANCH   1   2
BRANCH   1  26
ATOM     26  C   UNL A   1      32.635  32.519  27.195  1.00  0.00     0.118 C 
BRANCH  26  27
ATOM     27  N   UNL A   1      32.536  33.906  27.634  1.00  0.00    -0.352 N 
ATOM     28  C   UNL A   1      33.154  34.485  28.720  1.00  0.00     0.251 C 
ATOM     29  H   UNL A   1      31.963  34.495  27.092  1.00  0.00     0.163 HD
ATOM     30  O   UNL A   1      32.675  35.487  29.241  1.00  0.00    -0.269 OA
BRANCH  28  31
ATOM     31  C   UNL A   1      34.393  33.877  29.256  1.00  0.00     0.039 A 
ATOM     32  C   UNL A   1      35.644  34.349  28.848  1.00  0.00     0.014 A 
ATOM     33  C   UNL A   1      34.308  32.832  30.179  1.00  0.00     0.014 A 
ATOM     34  C   UNL A   1      36.802  33.815  29.422  1.00  0.00     0.010 A 
ATOM     35  C   UNL A   1      35.448  32.393  30.835  1.00  0.00     0.010 A 
ATOM     36  C   UNL A   1      36.710  32.863  30.450  1.00  0.00    -0.014 A 
BRANCH  36  37
ATOM     37  C   UNL A   1      37.906  32.328  31.149  1.00  0.00     0.031 A 
ATOM     38  C   UNL A   1      38.671  31.177  30.550  1.00  0.00     0.074 A 
ATOM     39  C   UNL A   1      38.225  32.791  32.375  1.00  0.00     0.049 A 
ATOM     40  N   UNL A   1      39.654  30.484  31.060  1.00  0.00    -0.248 NA
ATOM     41  C   UNL A   1      38.250  30.720  29.213  1.00  0.00     0.031 C 
ATOM     42  C   UNL A   1      37.508  33.846  33.095  1.00  0.00     0.029 A 
ATOM     43  N   UNL A   1      39.210  32.404  33.250  1.00  0.00    -0.354 N 
ATOM     44  C   UNL A   1      39.934  29.485  30.136  1.00  0.00     0.074 A 
ATOM     45  C   UNL A   1      38.995  29.637  29.048  1.00  0.00     0.031 C 
ATOM     46  C   UNL A   1      38.076  34.023  34.299  1.00  0.00     0.029 A 
ATOM     47  C   UNL A   1      39.163  33.065  34.457  1.00  0.00     0.049 A 
ATOM     48  H   UNL A   1      39.884  31.720  33.035  1.00  0.00     0.167 HD
ATOM     49  C   UNL A   1      40.904  28.541  30.175  1.00  0.00     0.034 A 
ATOM     50  C   UNL A   1      39.897  32.898  35.576  1.00  0.00     0.034 A 
ATOM     51  C   UNL A   1      41.861  28.423  31.240  1.00  0.00     0.049 A 
ATOM     52  C   UNL A   1      40.981  31.854  35.586  1.00  0.00     0.074 A 
ATOM     53  C   UNL A   1      42.948  27.574  31.328  1.00  0.00     0.029 A 
ATOM     54  N   UNL A   1      41.833  29.164  32.412  1.00  0.00    -0.354 N 
ATOM     55  N   UNL A   1      41.343  31.032  34.631  1.00  0.00    -0.248 NA
ATOM     56  C   UNL A   1      41.773  31.730  36.817  1.00  0.00     0.031 C 
ATOM     57  C   UNL A   1      43.553  27.771  32.573  1.00  0.00     0.029 A 
ATOM     58  C   UNL A   1      42.866  28.770  33.243  1.00  0.00     0.049 A 
ATOM     59  H   UNL A   1      41.175  29.866  32.622  1.00  0.00     0.167 HD
ATOM     60  C   UNL A   1      42.417  30.309  35.136  1.00  0.00     0.074 A 
ATOM     61  C   UNL A   1      42.665  30.811  36.472  1.00  0.00     0.031 C 
ATOM     62  C   UNL A   1      43.123  29.307  34.555  1.00  0.00     0.034 A 
BRANCH  49  63
ATOM     63  C   UNL A   1      41.003  27.584  29.015  1.00  0.00     0.023 A 
ATOM     64  C   UNL A   1      40.171  26.446  28.972  1.00  0.00     0.012 A 
ATOM     65  C   UNL A   1      41.878  27.841  27.942  1.00  0.00     0.148 A 
ATOM     66  C   UNL A   1      40.237  25.558  27.899  1.00  0.00     0.002 A 
ATOM     67  C   UNL A   1      41.902  26.977  26.853  1.00  0.00     0.091 A 
ATOM     68  F   UNL A   1      42.676  28.916  28.010  1.00  0.00    -0.205 F 
ATOM     69  C   UNL A   1      41.093  25.829  26.836  1.00  0.00     0.022 A 
BRANCH  67  70
ATOM     70  S   UNL A   1      42.910  27.279  25.397  1.00  0.00     0.127 S 
ATOM     71  O   UNL A   1      42.189  28.385  24.766  1.00  0.00    -0.237 OA
ATOM     72  O   UNL A   1      44.196  27.649  25.988  1.00  0.00    -0.237 OA
ATOM     73  O   UNL A   1      42.919  26.033  24.645  1.00  0.00    -0.744 OA
ENDBRANCH  67  70
ENDBRANCH  49  63
BRANCH  50  74
ATOM     74  C   UNL A   1      39.650  33.762  36.765  1.00  0.00     0.023 A 
ATOM     75  C   UNL A   1      40.012  35.122  36.721  1.00  0.00     0.012 A 
ATOM     76  C   UNL A   1      39.034  33.252  37.925  1.00  0.00     0.148 A 
ATOM     77  C   UNL A   1      39.795  35.953  37.821  1.00  0.00     0.002 A 
ATOM     78  C   UNL A   1      38.768  34.098  38.997  1.00  0.00     0.091 A 
ATOM     79  F   UNL A   1      38.705  31.954  37.952  1.00  0.00    -0.205 F 
ATOM     80  C   UNL A   1      39.164  35.444  38.954  1.00  0.00     0.022 A 
BRANCH  78  81
ATOM     81  S   UNL A   1      37.845  33.566  40.443  1.00  0.00     0.127 S 
ATOM     82  O   UNL A   1      37.730  34.811  41.199  1.00  0.00    -0.237 OA
ATOM     83  O   UNL A   1      36.597  33.091  39.845  1.00  0.00    -0.237 OA
ATOM     84  O   UNL A   1      38.650  32.525  41.065  1.00  0.00    -0.744 OA
ENDBRANCH  78  81
ENDBRANCH  50  74
BRANCH  62  85
ATOM     85  C   UNL A   1      44.243  28.689  35.349  1.00  0.00     0.023 A 
ATOM     86  C   UNL A   1      45.547  29.212  35.243  1.00  0.00     0.012 A 
ATOM     87  C   UNL A   1      43.983  27.655  36.270  1.00  0.00     0.148 A 
ATOM     88  C   UNL A   1      46.581  28.698  36.022  1.00  0.00     0.002 A 
ATOM     89  C   UNL A   1      45.008  27.183  37.081  1.00  0.00     0.091 A 
ATOM     90  F   UNL A   1      42.738  27.165  36.347  1.00  0.00    -0.205 F 
ATOM     91  C   UNL A   1      46.310  27.694  36.949  1.00  0.00     0.022 A 
BRANCH  89  92
ATOM     92  S   UNL A   1      44.739  25.962  38.370  1.00  0.00     0.127 S 
ATOM     93  O   UNL A   1      44.074  24.891  37.632  1.00  0.00    -0.237 OA
ATOM     94  O   UNL A   1      46.107  25.656  38.792  1.00  0.00    -0.237 OA
ATOM     95  O   UNL A   1      43.922  26.616  39.384  1.00  0.00    -0.744 OA
ENDBRANCH  89  92
ENDBRANCH  62  85
ENDBRANCH  36  37
ENDBRANCH  28  31
ENDBRANCH  26  27
ENDBRANCH   1  26
TORSDOF 16
ENDMDL
MODEL 3
REMARK VINA RESULT:     -12.2      5.815     11.042
REMARK SMILES C[N@H+]1[C@H]2CC[C@@H]1[C@@H](C(=O)NCCCNC(=O)c1ccc(-c3c4nc(c(-c5cccc(S(=O)(=O)[O-])c5F)c5ccc([nH]5)c(-c5cccc(S(=O)(=O)[O-])c5F)c5nc(c(-c6cccc(S(=O)(=O)[O-])c6F)c6ccc3[nH]6)C=C5)C=C4)cc1)[C@@H](OC(=O)c1ccccc1)C2
REMARK SMILES IDX 12 1 11 2 10 3 8 4 9 5 7 7 1 8 2 9 3 10 6 11 4 13 90 14 5 15
REMARK SMILES IDX 80 16 81 17 82 18 83 19 84 20 85 21 89 22 86 23 88 24 87 25
REMARK SMILES IDX 13 26 14 27 15 28 16 30 17 31 18 32 79 33 19 34 78 35 20 36
REMARK SMILES IDX 21 37 22 38 72 39 23 40 77 41 71 42 73 43 24 44 76 45 70 46
REMARK SMILES IDX 69 47 25 49 57 50 37 51 56 52 38 53 41 54 55 55 74 56 39 57
REMARK SMILES IDX 40 58 54 60 75 61 42 62 26 63 27 64 35 65 28 66 30 67 36 68
REMARK SMILES IDX 29 69 31 70 32 71 33 72 34 73 58 74 59 75 67 76 60 77 62 78
REMARK SMILES IDX 68 79 61 80 63 81 64 82 65 83 66 84 43 85 44 86 52 87 45 88
REMARK SMILES IDX 47 89 53 90 46 91 48 92 49 93 50 94 51 95
REMARK H PARENT 10 6 2 12 14 29 73 48 41 59
REMARK Flexibility Score: inf
ROOT
ATOM      1  C   UNL A   1      31.805  28.948  26.862  1.00  0.00     0.042 C 
ENDROOT
BRANCH   1   2
ATOM      2  C   UNL A   1      32.112  27.464  26.902  1.00  0.00     0.117 C 
BRANCH   2   3
ATOM      3  N   UNL A   1      31.000  26.520  26.855  1.00  0.00    -0.355 N 
ATOM      4  C   UNL A   1      30.769  25.378  26.143  1.00  0.00     0.232 C 
ATOM      5  O   UNL A   1      29.965  24.590  26.670  1.00  0.00    -0.274 OA
ATOM      6  H   UNL A   1      30.263  26.755  27.464  1.00  0.00     0.163 HD
BRANCH   4   7
ATOM      7  C   UNL A   1      31.358  24.993  24.771  1.00  0.00     0.177 C 
ATOM      8  C   UNL A   1      34.262  23.527  26.339  1.00  0.00     0.333 C 
ATOM      9  N   UNL A   1      33.537  24.394  25.442  1.00  0.00    -0.332 N 
ATOM     10  C   UNL A   1      34.222  25.196  24.432  1.00  0.00     0.188 C 
ATOM     11  C   UNL A   1      32.372  23.836  24.801  1.00  0.00     0.200 C 
ATOM     12  H   UNL A   1      33.298  25.036  26.198  1.00  0.00     0.348 HD
ATOM     13  C   UNL A   1      34.230  24.246  23.249  1.00  0.00     0.071 C 
ATOM     14  C   UNL A   1      33.364  26.482  24.148  1.00  0.00     0.111 C 
ATOM     15  C   UNL A   1      32.937  23.436  23.420  1.00  0.00     0.072 C 
ATOM     16  C   UNL A   1      31.851  26.191  23.944  1.00  0.00     0.201 C 
BRANCH  16  17
ATOM     17  O   UNL A   1      30.831  27.243  23.971  1.00  0.00    -0.457 OA
BRANCH  17  18
ATOM     18  C   UNL A   1      30.375  27.836  22.849  1.00  0.00     0.338 C 
ATOM     19  O   UNL A   1      30.654  27.498  21.709  1.00  0.00    -0.246 OA
BRANCH  18  20
ATOM     20  C   UNL A   1      29.527  29.039  23.086  1.00  0.00     0.060 A 
ATOM     21  C   UNL A   1      28.166  28.933  22.746  1.00  0.00     0.015 A 
ATOM     22  C   UNL A   1      29.995  30.238  23.636  1.00  0.00     0.015 A 
ATOM     23  C   UNL A   1      27.279  29.987  22.973  1.00  0.00     0.001 A 
ATOM     24  C   UNL A   1      29.099  31.294  23.869  1.00  0.00     0.001 A 
ATOM     25  C   UNL A   1      27.746  31.166  23.543  1.00  0.00     0.000 A 
ENDBRANCH  18  20
ENDBRANCH  17  18
ENDBRANCH  16  17
ENDBRANCH   4   7
ENDBRANCH   2   3
ENDBRANCH   1   2
BRANCH   1  26
ATOM     26  C   UNL A   1      32.827  29.752  26.106  1.00  0.00     0.118 C 
BRANCH  26  27
ATOM     27  N   UNL A   1      32.576  31.174  26.307  1.00  0.00    -0.352 N 
ATOM     28  C   UNL A   1      33.146  31.999  27.251  1.00  0.00     0.251 C 
ATOM     29  H   UNL A   1      31.925  31.593  25.698  1.00  0.00     0.163 HD
ATOM     30  O   UNL A   1      32.564  33.016  27.614  1.00  0.00    -0.269 OA
BRANCH  28  31
ATOM     31  C   UNL A   1      34.461  31.636  27.829  1.00  0.00     0.039 A 
ATOM     32  C   UNL A   1      35.461  32.601  27.966  1.00  0.00     0.014 A 
ATOM     33  C   UNL A   1      34.695  30.323  28.244  1.00  0.00     0.014 A 
ATOM     34  C   UNL A   1      36.668  32.259  28.584  1.00  0.00     0.010 A 
ATOM     35  C   UNL A   1      35.839  30.019  28.966  1.00  0.00     0.010 A 
ATOM     36  C   UNL A   1      36.849  30.976  29.126  1.00  0.00    -0.014 A 
BRANCH  36  37
ATOM     37  C   UNL A   1      38.078  30.590  29.865  1.00  0.00     0.031 A 
ATOM     38  C   UNL A   1      39.034  29.597  29.259  1.00  0.00     0.074 A 
ATOM     39  C   UNL A   1      38.265  31.031  31.126  1.00  0.00     0.049 A 
ATOM     40  N   UNL A   1      40.086  29.032  29.791  1.00  0.00    -0.248 NA
ATOM     41  C   UNL A   1      38.751  29.152  27.882  1.00  0.00     0.031 C 
ATOM     42  C   UNL A   1      37.364  31.930  31.851  1.00  0.00     0.029 A 
ATOM     43  N   UNL A   1      39.254  30.750  32.035  1.00  0.00    -0.354 N 
ATOM     44  C   UNL A   1      40.556  28.134  28.840  1.00  0.00     0.074 A 
ATOM     45  C   UNL A   1      39.657  28.201  27.711  1.00  0.00     0.031 C 
ATOM     46  C   UNL A   1      37.841  32.128  33.090  1.00  0.00     0.029 A 
ATOM     47  C   UNL A   1      39.051  31.334  33.265  1.00  0.00     0.049 A 
ATOM     48  H   UNL A   1      40.033  30.186  31.828  1.00  0.00     0.167 HD
ATOM     49  C   UNL A   1      41.654  27.344  28.891  1.00  0.00     0.034 A 
ATOM     50  C   UNL A   1      39.748  31.221  34.414  1.00  0.00     0.034 A 
ATOM     51  C   UNL A   1      42.566  27.315  30.001  1.00  0.00     0.049 A 
ATOM     52  C   UNL A   1      40.975  30.350  34.437  1.00  0.00     0.074 A 
ATOM     53  C   UNL A   1      43.764  26.633  30.111  1.00  0.00     0.029 A 
ATOM     54  N   UNL A   1      42.372  27.982  31.201  1.00  0.00    -0.354 N 
ATOM     55  N   UNL A   1      41.502  29.641  33.468  1.00  0.00    -0.248 NA
ATOM     56  C   UNL A   1      41.718  30.282  35.704  1.00  0.00     0.031 C 
ATOM     57  C   UNL A   1      44.273  26.853  31.394  1.00  0.00     0.029 A 
ATOM     58  C   UNL A   1      43.412  27.704  32.069  1.00  0.00     0.049 A 
ATOM     59  H   UNL A   1      41.607  28.567  31.404  1.00  0.00     0.167 HD
ATOM     60  C   UNL A   1      42.647  29.061  33.999  1.00  0.00     0.074 A 
ATOM     61  C   UNL A   1      42.754  29.525  35.367  1.00  0.00     0.031 C 
ATOM     62  C   UNL A   1      43.523  28.205  33.415  1.00  0.00     0.034 A 
BRANCH  49  63
ATOM     63  C   UNL A   1      41.951  26.473  27.698  1.00  0.00     0.023 A 
ATOM     64  C   UNL A   1      42.634  27.013  26.588  1.00  0.00     0.012 A 
ATOM     65  C   UNL A   1      41.605  25.108  27.698  1.00  0.00     0.148 A 
ATOM     66  C   UNL A   1      42.933  26.219  25.482  1.00  0.00     0.002 A 
ATOM     67  C   UNL A   1      41.949  24.312  26.612  1.00  0.00     0.091 A 
ATOM     68  F   UNL A   1      40.937  24.617  28.751  1.00  0.00    -0.205 F 
ATOM     69  C   UNL A   1      42.601  24.868  25.499  1.00  0.00     0.022 A 
BRANCH  67  70
ATOM     70  S   UNL A   1      41.640  22.543  26.569  1.00  0.00     0.127 S 
ATOM     71  O   UNL A   1      40.178  22.500  26.547  1.00  0.00    -0.237 OA
ATOM     72  O   UNL A   1      42.280  22.151  25.313  1.00  0.00    -0.237 OA
ATOM     73  O   UNL A   1      42.260  21.995  27.767  1.00  0.00    -0.744 OA
ENDBRANCH  67  70
ENDBRANCH  49  63
BRANCH  50  74
ATOM     74  C   UNL A   1      39.318  31.977  35.624  1.00  0.00     0.023 A 
ATOM     75  C   UNL A   1      39.676  33.332  35.760  1.00  0.00     0.012 A 
ATOM     76  C   UNL A   1      38.533  31.371  36.626  1.00  0.00     0.148 A 
ATOM     77  C   UNL A   1      39.289  34.062  36.884  1.00  0.00     0.002 A 
ATOM     78  C   UNL A   1      38.103  32.120  37.716  1.00  0.00     0.091 A 
ATOM     79  F   UNL A   1      38.210  30.078  36.484  1.00  0.00    -0.205 F 
ATOM     80  C   UNL A   1      38.494  33.460  37.856  1.00  0.00     0.022 A 
BRANCH  78  81
ATOM     81  S   UNL A   1      36.971  31.468  38.949  1.00  0.00     0.127 S 
ATOM     82  O   UNL A   1      36.771  30.099  38.478  1.00  0.00    -0.237 OA
ATOM     83  O   UNL A   1      37.762  31.588  40.176  1.00  0.00    -0.237 OA
ATOM     84  O   UNL A   1      35.797  32.327  38.903  1.00  0.00    -0.744 OA
ENDBRANCH  78  81
ENDBRANCH  50  74
BRANCH  62  85
ATOM     85  C   UNL A   1      44.685  27.720  34.241  1.00  0.00     0.023 A 
ATOM     86  C   UNL A   1      45.865  28.487  34.306  1.00  0.00     0.012 A 
ATOM     87  C   UNL A   1      44.569  26.556  35.026  1.00  0.00     0.148 A 
ATOM     88  C   UNL A   1      46.923  28.090  35.120  1.00  0.00     0.002 A 
ATOM     89  C   UNL A   1      45.608  26.194  35.875  1.00  0.00     0.091 A 
ATOM     90  F   UNL A   1      43.442  25.836  34.940  1.00  0.00    -0.205 F 
ATOM     91  C   UNL A   1      46.791  26.952  35.913  1.00  0.00     0.022 A 
BRANCH  89  92
ATOM     92  S   UNL A   1      45.495  24.803  37.005  1.00  0.00     0.127 S 
ATOM     93  O   UNL A   1      45.149  23.710  36.099  1.00  0.00    -0.237 OA
ATOM     94  O   UNL A   1      46.852  24.740  37.550  1.00  0.00    -0.237 OA
ATOM     95  O   UNL A   1      44.466  25.152  37.976  1.00  0.00    -0.744 OA
ENDBRANCH  89  92
ENDBRANCH  62  85
ENDBRANCH  36  37
ENDBRANCH  28  31
ENDBRANCH  26  27
ENDBRANCH   1  26
TORSDOF 16
ENDMDL
