MODEL 1
REMARK VINA RESULT:     -11.8      0.000      0.000
REMARK SMILES CN1CCN(C(=O)N2CCC[C@H]2CC(=O)NCCCNC(=O)c2ccc(-c3c4nc(c(-c5cccc(S(=O)(=O)[O-])c5F)c5ccc([nH]5)c(-c5cccc(S(=O)(=O)[O-])c5F)c5nc(c(-c6cccc(S(=O)(=O)[O-])c6F)c6ccc3[nH]6)C=C5)C=C4)cc2)C(C)(C)C1=O
REMARK SMILES IDX 18 1 17 2 16 3 14 4 15 5 13 7 12 8 8 9 9 10 10 11 11 12 6 13
REMARK SMILES IDX 7 14 5 15 1 16 2 17 3 18 89 19 4 20 86 21 90 22 87 23 88 24
REMARK SMILES IDX 19 25 20 26 21 27 22 29 23 30 24 31 85 32 25 33 84 34 26 35
REMARK SMILES IDX 27 36 28 37 78 38 29 39 83 40 77 41 79 42 30 43 82 44 76 45
REMARK SMILES IDX 75 46 31 48 63 49 43 50 62 51 44 52 47 53 61 54 80 55 45 56
REMARK SMILES IDX 46 57 60 59 81 60 48 61 32 62 33 63 41 64 34 65 36 66 42 67
REMARK SMILES IDX 35 68 37 69 38 70 39 71 40 72 64 73 65 74 73 75 66 76 68 77
REMARK SMILES IDX 74 78 67 79 69 80 70 81 71 82 72 83 49 84 50 85 58 86 51 87
REMARK SMILES IDX 53 88 59 89 52 90 54 91 55 92 56 93 57 94
REMARK H PARENT 16 6 20 28 79 47 47 58
REMARK Flexibility Score: inf
ROOT
ATOM      1  C   UNL A   1      35.554  23.368  26.522  1.00  0.00     0.042 C 
ENDROOT
BRANCH   1   2
ATOM      2  C   UNL A   1      34.607  22.163  26.497  1.00  0.00     0.117 C 
BRANCH   2   3
ATOM      3  N   UNL A   1      33.292  22.423  27.069  1.00  0.00    -0.356 N 
ATOM      4  C   UNL A   1      32.352  23.375  26.790  1.00  0.00     0.222 C 
ATOM      5  O   UNL A   1      31.232  23.245  27.290  1.00  0.00    -0.275 OA
ATOM      6  H   UNL A   1      33.034  21.799  27.786  1.00  0.00     0.163 HD
BRANCH   4   7
ATOM      7  C   UNL A   1      32.644  24.518  25.841  1.00  0.00     0.125 C 
BRANCH   7   8
ATOM      8  C   UNL A   1      32.065  24.334  24.426  1.00  0.00     0.096 C 
ATOM      9  N   UNL A   1      33.041  24.544  23.366  1.00  0.00    -0.321 N 
ATOM     10  C   UNL A   1      33.827  23.335  23.231  1.00  0.00     0.122 C 
ATOM     11  C   UNL A   1      32.775  22.243  23.338  1.00  0.00     0.024 C 
ATOM     12  C   UNL A   1      31.659  22.863  24.202  1.00  0.00     0.027 C 
BRANCH   9  13
ATOM     13  C   UNL A   1      33.074  25.740  22.695  1.00  0.00     0.321 C 
ATOM     14  O   UNL A   1      33.757  25.856  21.675  1.00  0.00    -0.248 OA
BRANCH  13  15
ATOM     15  N   UNL A   1      32.243  26.769  23.096  1.00  0.00    -0.309 N 
ATOM     16  C   UNL A   1      29.719  30.175  23.739  1.00  0.00     0.146 C 
ATOM     17  N   UNL A   1      30.493  28.968  23.572  1.00  0.00    -0.342 N 
ATOM     18  C   UNL A   1      30.094  27.979  22.596  1.00  0.00     0.140 C 
ATOM     19  C   UNL A   1      31.475  28.648  24.500  1.00  0.00     0.247 C 
ATOM     20  C   UNL A   1      31.226  27.095  22.081  1.00  0.00     0.144 C 
ATOM     21  C   UNL A   1      32.719  27.981  23.853  1.00  0.00     0.118 C 
ATOM     22  O   UNL A   1      31.425  28.993  25.673  1.00  0.00    -0.272 OA
ATOM     23  C   UNL A   1      33.328  29.022  22.871  1.00  0.00     0.045 C 
ATOM     24  C   UNL A   1      33.782  27.797  24.941  1.00  0.00     0.045 C 
ENDBRANCH  13  15
ENDBRANCH   9  13
ENDBRANCH   7   8
ENDBRANCH   4   7
ENDBRANCH   2   3
ENDBRANCH   1   2
BRANCH   1  25
ATOM     25  C   UNL A   1      36.704  23.324  25.516  1.00  0.00     0.118 C 
BRANCH  25  26
ATOM     26  N   UNL A   1      37.740  22.382  25.901  1.00  0.00    -0.352 N 
ATOM     27  C   UNL A   1      39.026  22.592  26.345  1.00  0.00     0.251 C 
ATOM     28  H   UNL A   1      37.479  21.435  25.832  1.00  0.00     0.163 HD
ATOM     29  O   UNL A   1      39.795  21.631  26.360  1.00  0.00    -0.269 OA
BRANCH  27  30
ATOM     30  C   UNL A   1      39.526  23.919  26.810  1.00  0.00     0.039 A 
ATOM     31  C   UNL A   1      39.309  24.283  28.143  1.00  0.00     0.014 A 
ATOM     32  C   UNL A   1      40.085  24.865  25.950  1.00  0.00     0.014 A 
ATOM     33  C   UNL A   1      39.664  25.560  28.616  1.00  0.00     0.010 A 
ATOM     34  C   UNL A   1      40.509  26.115  26.447  1.00  0.00     0.010 A 
ATOM     35  C   UNL A   1      40.300  26.498  27.787  1.00  0.00    -0.014 A 
BRANCH  35  36
ATOM     36  C   UNL A   1      40.741  27.847  28.312  1.00  0.00     0.031 A 
ATOM     37  C   UNL A   1      42.206  28.151  28.585  1.00  0.00     0.074 A 
ATOM     38  C   UNL A   1      39.836  28.805  28.632  1.00  0.00     0.049 A 
ATOM     39  N   UNL A   1      42.747  29.236  29.090  1.00  0.00    -0.248 NA
ATOM     40  C   UNL A   1      43.188  27.102  28.268  1.00  0.00     0.031 C 
ATOM     41  C   UNL A   1      38.380  28.684  28.514  1.00  0.00     0.029 A 
ATOM     42  N   UNL A   1      40.006  30.056  29.191  1.00  0.00    -0.354 N 
ATOM     43  C   UNL A   1      44.120  29.002  29.142  1.00  0.00     0.074 A 
ATOM     44  C   UNL A   1      44.319  27.636  28.707  1.00  0.00     0.031 C 
ATOM     45  C   UNL A   1      37.795  29.777  29.031  1.00  0.00     0.029 A 
ATOM     46  C   UNL A   1      38.823  30.692  29.512  1.00  0.00     0.049 A 
ATOM     47  H   UNL A   1      40.891  30.459  29.347  1.00  0.00     0.167 HD
ATOM     48  C   UNL A   1      45.136  29.848  29.447  1.00  0.00     0.034 A 
ATOM     49  C   UNL A   1      38.575  31.868  30.126  1.00  0.00     0.034 A 
ATOM     50  C   UNL A   1      44.975  31.226  29.831  1.00  0.00     0.049 A 
ATOM     51  C   UNL A   1      39.716  32.786  30.482  1.00  0.00     0.074 A 
ATOM     52  C   UNL A   1      45.958  32.177  30.059  1.00  0.00     0.029 A 
ATOM     53  N   UNL A   1      43.762  31.856  30.046  1.00  0.00    -0.354 N 
ATOM     54  N   UNL A   1      41.003  32.599  30.331  1.00  0.00    -0.248 NA
ATOM     55  C   UNL A   1      39.363  34.111  31.019  1.00  0.00     0.031 C 
ATOM     56  C   UNL A   1      45.340  33.376  30.428  1.00  0.00     0.029 A 
ATOM     57  C   UNL A   1      43.970  33.180  30.403  1.00  0.00     0.049 A 
ATOM     58  H   UNL A   1      42.880  31.427  29.958  1.00  0.00     0.167 HD
ATOM     59  C   UNL A   1      41.605  33.804  30.683  1.00  0.00     0.074 A 
ATOM     60  C   UNL A   1      40.543  34.714  31.051  1.00  0.00     0.031 C 
ATOM     61  C   UNL A   1      42.922  34.120  30.697  1.00  0.00     0.034 A 
BRANCH  48  62
ATOM     62  C   UNL A   1      46.548  29.341  29.262  1.00  0.00     0.023 A 
ATOM     63  C   UNL A   1      47.218  28.779  30.369  1.00  0.00     0.012 A 
ATOM     64  C   UNL A   1      47.175  29.331  28.000  1.00  0.00     0.148 A 
ATOM     65  C   UNL A   1      48.502  28.253  30.236  1.00  0.00     0.002 A 
ATOM     66  C   UNL A   1      48.439  28.763  27.866  1.00  0.00     0.091 A 
ATOM     67  F   UNL A   1      46.528  29.871  26.959  1.00  0.00    -0.205 F 
ATOM     68  C   UNL A   1      49.107  28.237  28.984  1.00  0.00     0.022 A 
BRANCH  66  69
ATOM     69  S   UNL A   1      49.278  28.609  26.285  1.00  0.00     0.127 S 
ATOM     70  O   UNL A   1      49.960  29.900  26.189  1.00  0.00    -0.237 OA
ATOM     71  O   UNL A   1      50.164  27.468  26.518  1.00  0.00    -0.237 OA
ATOM     72  O   UNL A   1      48.237  28.382  25.295  1.00  0.00    -0.744 OA
ENDBRANCH  66  69
ENDBRANCH  48  62
BRANCH  49  73
ATOM     73  C   UNL A   1      37.171  32.311  30.379  1.00  0.00     0.023 A 
ATOM     74  C   UNL A   1      36.557  31.990  31.607  1.00  0.00     0.012 A 
ATOM     75  C   UNL A   1      36.428  32.995  29.398  1.00  0.00     0.148 A 
ATOM     76  C   UNL A   1      35.213  32.289  31.832  1.00  0.00     0.002 A 
ATOM     77  C   UNL A   1      35.100  33.331  29.646  1.00  0.00     0.091 A 
ATOM     78  F   UNL A   1      37.028  33.285  28.234  1.00  0.00    -0.205 F 
ATOM     79  C   UNL A   1      34.487  32.962  30.853  1.00  0.00     0.022 A 
BRANCH  77  80
ATOM     80  S   UNL A   1      34.101  34.266  28.481  1.00  0.00     0.127 S 
ATOM     81  O   UNL A   1      34.069  33.366  27.329  1.00  0.00    -0.237 OA
ATOM     82  O   UNL A   1      32.831  34.383  29.201  1.00  0.00    -0.237 OA
ATOM     83  O   UNL A   1      34.803  35.521  28.277  1.00  0.00    -0.744 OA
ENDBRANCH  77  80
ENDBRANCH  49  73
BRANCH  61  84
ATOM     84  C   UNL A   1      43.309  35.536  31.045  1.00  0.00     0.023 A 
ATOM     85  C   UNL A   1      43.599  35.887  32.379  1.00  0.00     0.012 A 
ATOM     86  C   UNL A   1      43.436  36.512  30.035  1.00  0.00     0.148 A 
ATOM     87  C   UNL A   1      43.966  37.193  32.706  1.00  0.00     0.002 A 
ATOM     88  C   UNL A   1      43.854  37.797  30.360  1.00  0.00     0.091 A 
ATOM     89  F   UNL A   1      43.138  36.167  28.773  1.00  0.00    -0.205 F 
ATOM     90  C   UNL A   1      44.104  38.143  31.698  1.00  0.00     0.022 A 
BRANCH  88  91
ATOM     91  S   UNL A   1      44.153  39.060  29.119  1.00  0.00     0.127 S 
ATOM     92  O   UNL A   1      45.051  39.970  29.828  1.00  0.00    -0.237 OA
ATOM     93  O   UNL A   1      44.785  38.295  28.044  1.00  0.00    -0.237 OA
ATOM     94  O   UNL A   1      42.847  39.611  28.782  1.00  0.00    -0.744 OA
ENDBRANCH  88  91
ENDBRANCH  61  84
ENDBRANCH  35  36
ENDBRANCH  27  30
ENDBRANCH  25  26
ENDBRANCH   1  25
TORSDOF 16
ENDMDL
MODEL 2
REMARK VINA RESULT:     -11.8      4.788      9.747
REMARK SMILES CN1CCN(C(=O)N2CCC[C@H]2CC(=O)NCCCNC(=O)c2ccc(-c3c4nc(c(-c5cccc(S(=O)(=O)[O-])c5F)c5ccc([nH]5)c(-c5cccc(S(=O)(=O)[O-])c5F)c5nc(c(-c6cccc(S(=O)(=O)[O-])c6F)c6ccc3[nH]6)C=C5)C=C4)cc2)C(C)(C)C1=O
REMARK SMILES IDX 18 1 17 2 16 3 14 4 15 5 13 7 12 8 8 9 9 10 10 11 11 12 6 13
REMARK SMILES IDX 7 14 5 15 1 16 2 17 3 18 89 19 4 20 86 21 90 22 87 23 88 24
REMARK SMILES IDX 19 25 20 26 21 27 22 29 23 30 24 31 85 32 25 33 84 34 26 35
REMARK SMILES IDX 27 36 28 37 78 38 29 39 83 40 77 41 79 42 30 43 82 44 76 45
REMARK SMILES IDX 75 46 31 48 63 49 43 50 62 51 44 52 47 53 61 54 80 55 45 56
REMARK SMILES IDX 46 57 60 59 81 60 48 61 32 62 33 63 41 64 34 65 36 66 42 67
REMARK SMILES IDX 35 68 37 69 38 70 39 71 40 72 64 73 65 74 73 75 66 76 68 77
REMARK SMILES IDX 74 78 67 79 69 80 70 81 71 82 72 83 49 84 50 85 58 86 51 87
REMARK SMILES IDX 53 88 59 89 52 90 54 91 55 92 56 93 57 94
REMARK H PARENT 16 6 20 28 79 47 47 58
REMARK Flexibility Score: inf
ROOT
ATOM      1  C   UNL A   1      33.653  28.881  24.552  1.00  0.00     0.042 C 
ENDROOT
BRANCH   1   2
ATOM      2  C   UNL A   1      33.363  29.238  23.090  1.00  0.00     0.117 C 
BRANCH   2   3
ATOM      3  N   UNL A   1      32.388  28.370  22.444  1.00  0.00    -0.356 N 
ATOM      4  C   UNL A   1      32.346  27.014  22.281  1.00  0.00     0.222 C 
ATOM      5  O   UNL A   1      31.297  26.514  21.867  1.00  0.00    -0.275 OA
ATOM      6  H   UNL A   1      31.619  28.847  22.053  1.00  0.00     0.163 HD
BRANCH   4   7
ATOM      7  C   UNL A   1      33.519  26.137  22.663  1.00  0.00     0.125 C 
BRANCH   7   8
ATOM      8  C   UNL A   1      33.141  24.886  23.479  1.00  0.00     0.096 C 
ATOM      9  N   UNL A   1      34.283  24.227  24.096  1.00  0.00    -0.321 N 
ATOM     10  C   UNL A   1      34.621  24.948  25.305  1.00  0.00     0.122 C 
ATOM     11  C   UNL A   1      33.256  25.231  25.914  1.00  0.00     0.024 C 
ATOM     12  C   UNL A   1      32.299  25.286  24.708  1.00  0.00     0.027 C 
BRANCH   9  13
ATOM     13  C   UNL A   1      34.825  23.112  23.510  1.00  0.00     0.321 C 
ATOM     14  O   UNL A   1      35.787  23.222  22.746  1.00  0.00    -0.248 OA
BRANCH  13  15
ATOM     15  N   UNL A   1      34.370  21.860  23.877  1.00  0.00    -0.309 N 
ATOM     16  C   UNL A   1      32.531  18.288  25.375  1.00  0.00     0.146 C 
ATOM     17  N   UNL A   1      33.144  19.447  24.771  1.00  0.00    -0.342 N 
ATOM     18  C   UNL A   1      32.343  20.373  24.003  1.00  0.00     0.140 C 
ATOM     19  C   UNL A   1      34.527  19.548  24.729  1.00  0.00     0.247 C 
ATOM     20  C   UNL A   1      32.898  21.793  23.931  1.00  0.00     0.144 C 
ATOM     21  C   UNL A   1      35.030  21.004  24.926  1.00  0.00     0.118 C 
ATOM     22  O   UNL A   1      35.268  18.575  24.691  1.00  0.00    -0.272 OA
ATOM     23  C   UNL A   1      34.574  21.448  26.345  1.00  0.00     0.045 C 
ATOM     24  C   UNL A   1      36.560  20.976  24.994  1.00  0.00     0.045 C 
ENDBRANCH  13  15
ENDBRANCH   9  13
ENDBRANCH   7   8
ENDBRANCH   4   7
ENDBRANCH   2   3
ENDBRANCH   1   2
BRANCH   1  25
ATOM     25  C   UNL A   1      32.489  29.082  25.524  1.00  0.00     0.118 C 
BRANCH  25  26
ATOM     26  N   UNL A   1      32.269  30.483  25.840  1.00  0.00    -0.352 N 
ATOM     27  C   UNL A   1      32.876  31.301  26.765  1.00  0.00     0.251 C 
ATOM     28  H   UNL A   1      31.568  30.919  25.303  1.00  0.00     0.163 HD
ATOM     29  O   UNL A   1      32.339  32.378  27.022  1.00  0.00    -0.269 OA
BRANCH  27  30
ATOM     30  C   UNL A   1      34.147  30.948  27.463  1.00  0.00     0.039 A 
ATOM     31  C   UNL A   1      34.277  29.664  28.003  1.00  0.00     0.014 A 
ATOM     32  C   UNL A   1      35.159  31.875  27.715  1.00  0.00     0.014 A 
ATOM     33  C   UNL A   1      35.407  29.304  28.760  1.00  0.00     0.010 A 
ATOM     34  C   UNL A   1      36.324  31.486  28.410  1.00  0.00     0.010 A 
ATOM     35  C   UNL A   1      36.472  30.197  28.958  1.00  0.00    -0.014 A 
BRANCH  35  36
ATOM     36  C   UNL A   1      37.716  29.788  29.717  1.00  0.00     0.031 A 
ATOM     37  C   UNL A   1      38.072  30.420  31.054  1.00  0.00     0.074 A 
ATOM     38  C   UNL A   1      38.597  28.900  29.194  1.00  0.00     0.049 A 
ATOM     39  N   UNL A   1      39.130  30.224  31.808  1.00  0.00    -0.248 NA
ATOM     40  C   UNL A   1      37.133  31.406  31.611  1.00  0.00     0.031 C 
ATOM     41  C   UNL A   1      38.476  28.237  27.892  1.00  0.00     0.029 A 
ATOM     42  N   UNL A   1      39.814  28.449  29.667  1.00  0.00    -0.354 N 
ATOM     43  C   UNL A   1      38.979  31.052  32.918  1.00  0.00     0.074 A 
ATOM     44  C   UNL A   1      37.774  31.822  32.695  1.00  0.00     0.031 C 
ATOM     45  C   UNL A   1      39.585  27.518  27.649  1.00  0.00     0.029 A 
ATOM     46  C   UNL A   1      40.501  27.651  28.775  1.00  0.00     0.049 A 
ATOM     47  H   UNL A   1      40.160  28.678  30.560  1.00  0.00     0.167 HD
ATOM     48  C   UNL A   1      39.716  31.125  34.056  1.00  0.00     0.034 A 
ATOM     49  C   UNL A   1      41.727  27.089  28.835  1.00  0.00     0.034 A 
ATOM     50  C   UNL A   1      40.888  30.336  34.332  1.00  0.00     0.049 A 
ATOM     51  C   UNL A   1      42.544  27.201  30.096  1.00  0.00     0.074 A 
ATOM     52  C   UNL A   1      41.632  30.280  35.501  1.00  0.00     0.029 A 
ATOM     53  N   UNL A   1      41.490  29.467  33.440  1.00  0.00    -0.354 N 
ATOM     54  N   UNL A   1      42.269  27.841  31.204  1.00  0.00    -0.248 NA
ATOM     55  C   UNL A   1      43.808  26.446  30.141  1.00  0.00     0.031 C 
ATOM     56  C   UNL A   1      42.693  29.390  35.309  1.00  0.00     0.029 A 
ATOM     57  C   UNL A   1      42.595  28.871  34.030  1.00  0.00     0.049 A 
ATOM     58  H   UNL A   1      41.180  29.296  32.521  1.00  0.00     0.167 HD
ATOM     59  C   UNL A   1      43.282  27.506  32.098  1.00  0.00     0.074 A 
ATOM     60  C   UNL A   1      44.175  26.605  31.405  1.00  0.00     0.031 C 
ATOM     61  C   UNL A   1      43.449  27.913  33.379  1.00  0.00     0.034 A 
BRANCH  48  62
ATOM     62  C   UNL A   1      39.207  32.021  35.163  1.00  0.00     0.023 A 
ATOM     63  C   UNL A   1      38.244  31.512  36.059  1.00  0.00     0.012 A 
ATOM     64  C   UNL A   1      39.733  33.310  35.377  1.00  0.00     0.148 A 
ATOM     65  C   UNL A   1      37.781  32.281  37.124  1.00  0.00     0.002 A 
ATOM     66  C   UNL A   1      39.301  34.055  36.471  1.00  0.00     0.091 A 
ATOM     67  F   UNL A   1      40.646  33.780  34.517  1.00  0.00    -0.205 F 
ATOM     68  C   UNL A   1      38.317  33.548  37.335  1.00  0.00     0.022 A 
BRANCH  66  69
ATOM     69  S   UNL A   1      39.983  35.663  36.889  1.00  0.00     0.127 S 
ATOM     70  O   UNL A   1      41.404  35.351  37.036  1.00  0.00    -0.237 OA
ATOM     71  O   UNL A   1      39.653  36.454  35.702  1.00  0.00    -0.237 OA
ATOM     72  O   UNL A   1      39.309  36.082  38.109  1.00  0.00    -0.744 OA
ENDBRANCH  66  69
ENDBRANCH  48  62
BRANCH  49  73
ATOM     73  C   UNL A   1      42.248  26.280  27.693  1.00  0.00     0.023 A 
ATOM     74  C   UNL A   1      43.026  26.909  26.700  1.00  0.00     0.012 A 
ATOM     75  C   UNL A   1      41.934  24.914  27.557  1.00  0.00     0.148 A 
ATOM     76  C   UNL A   1      43.433  26.209  25.564  1.00  0.00     0.002 A 
ATOM     77  C   UNL A   1      42.381  24.209  26.443  1.00  0.00     0.091 A 
ATOM     78  F   UNL A   1      41.187  24.336  28.509  1.00  0.00    -0.205 F 
ATOM     79  C   UNL A   1      43.114  24.859  25.438  1.00  0.00     0.022 A 
BRANCH  77  80
ATOM     80  S   UNL A   1      42.090  22.450  26.224  1.00  0.00     0.127 S 
ATOM     81  O   UNL A   1      42.656  21.901  27.457  1.00  0.00    -0.237 OA
ATOM     82  O   UNL A   1      40.628  22.394  26.145  1.00  0.00    -0.237 OA
ATOM     83  O   UNL A   1      42.780  22.083  25.000  1.00  0.00    -0.744 OA
ENDBRANCH  77  80
ENDBRANCH  49  73
BRANCH  61  84
ATOM     84  C   UNL A   1      44.599  27.333  34.165  1.00  0.00     0.023 A 
ATOM     85  C   UNL A   1      45.871  27.937  34.116  1.00  0.00     0.012 A 
ATOM     86  C   UNL A   1      44.403  26.211  34.997  1.00  0.00     0.148 A 
ATOM     87  C   UNL A   1      46.937  27.411  34.847  1.00  0.00     0.002 A 
ATOM     88  C   UNL A   1      45.455  25.724  35.763  1.00  0.00     0.091 A 
ATOM     89  F   UNL A   1      43.192  25.636  35.018  1.00  0.00    -0.205 F 
ATOM     90  C   UNL A   1      46.727  26.313  35.677  1.00  0.00     0.022 A 
BRANCH  88  91
ATOM     91  S   UNL A   1      45.256  24.376  36.934  1.00  0.00     0.127 S 
ATOM     92  O   UNL A   1      44.888  23.268  36.055  1.00  0.00    -0.237 OA
ATOM     93  O   UNL A   1      46.593  24.273  37.519  1.00  0.00    -0.237 OA
ATOM     94  O   UNL A   1      44.221  24.803  37.867  1.00  0.00    -0.744 OA
ENDBRANCH  88  91
ENDBRANCH  61  84
ENDBRANCH  35  36
ENDBRANCH  27  30
ENDBRANCH  25  26
ENDBRANCH   1  25
TORSDOF 16
ENDMDL
MODEL 3
REMARK VINA RESULT:     -11.6      2.842      7.995
REMARK SMILES CN1CCN(C(=O)N2CCC[C@H]2CC(=O)NCCCNC(=O)c2ccc(-c3c4nc(c(-c5cccc(S(=O)(=O)[O-])c5F)c5ccc([nH]5)c(-c5cccc(S(=O)(=O)[O-])c5F)c5nc(c(-c6cccc(S(=O)(=O)[O-])c6F)c6ccc3[nH]6)C=C5)C=C4)cc2)C(C)(C)C1=O
REMARK SMILES IDX 18 1 17 2 16 3 14 4 15 5 13 7 12 8 8 9 9 10 10 11 11 12 6 13
REMARK SMILES IDX 7 14 5 15 1 16 2 17 3 18 89 19 4 20 86 21 90 22 87 23 88 24
REMARK SMILES IDX 19 25 20 26 21 27 22 29 23 30 24 31 85 32 25 33 84 34 26 35
REMARK SMILES IDX 27 36 28 37 78 38 29 39 83 40 77 41 79 42 30 43 82 44 76 45
REMARK SMILES IDX 75 46 31 48 63 49 43 50 62 51 44 52 47 53 61 54 80 55 45 56
REMARK SMILES IDX 46 57 60 59 81 60 48 61 32 62 33 63 41 64 34 65 36 66 42 67
REMARK SMILES IDX 35 68 37 69 38 70 39 71 40 72 64 73 65 74 73 75 66 76 68 77
REMARK SMILES IDX 74 78 67 79 69 80 70 81 71 82 72 83 49 84 50 85 58 86 51 87
REMARK SMILES IDX 53 88 59 89 52 90 54 91 55 92 56 93 57 94
REMARK H PARENT 16 6 20 28 79 47 47 58
REMARK Flexibility Score: inf
ROOT
ATOM      1  C   UNL A   1      34.869  22.000  26.515  1.00  0.00     0.042 C 
ENDROOT
BRANCH   1   2
ATOM      2  C   UNL A   1      33.490  21.363  26.314  1.00  0.00     0.117 C 
BRANCH   2   3
ATOM      3  N   UNL A   1      32.397  22.090  26.947  1.00  0.00    -0.356 N 
ATOM      4  C   UNL A   1      31.865  23.325  26.701  1.00  0.00     0.222 C 
ATOM      5  O   UNL A   1      30.804  23.618  27.258  1.00  0.00    -0.275 OA
ATOM      6  H   UNL A   1      31.962  21.603  27.684  1.00  0.00     0.163 HD
BRANCH   4   7
ATOM      7  C   UNL A   1      32.512  24.282  25.723  1.00  0.00     0.125 C 
BRANCH   7   8
ATOM      8  C   UNL A   1      31.828  24.344  24.345  1.00  0.00     0.096 C 
ATOM      9  N   UNL A   1      32.761  24.506  23.239  1.00  0.00    -0.321 N 
ATOM     10  C   UNL A   1      33.325  23.209  22.932  1.00  0.00     0.122 C 
ATOM     11  C   UNL A   1      32.114  22.292  23.014  1.00  0.00     0.024 C 
ATOM     12  C   UNL A   1      31.171  22.988  24.014  1.00  0.00     0.027 C 
BRANCH   9  13
ATOM     13  C   UNL A   1      32.951  25.745  22.683  1.00  0.00     0.321 C 
ATOM     14  O   UNL A   1      33.728  25.883  21.735  1.00  0.00    -0.248 OA
BRANCH  13  15
ATOM     15  N   UNL A   1      32.179  26.809  23.109  1.00  0.00    -0.309 N 
ATOM     16  C   UNL A   1      29.859  30.340  23.837  1.00  0.00     0.146 C 
ATOM     17  N   UNL A   1      30.559  29.094  23.638  1.00  0.00    -0.342 N 
ATOM     18  C   UNL A   1      30.119  28.170  22.618  1.00  0.00     0.140 C 
ATOM     19  C   UNL A   1      31.501  28.680  24.570  1.00  0.00     0.247 C 
ATOM     20  C   UNL A   1      31.204  27.236  22.089  1.00  0.00     0.144 C 
ATOM     21  C   UNL A   1      32.714  27.960  23.920  1.00  0.00     0.118 C 
ATOM     22  O   UNL A   1      31.448  28.983  25.754  1.00  0.00    -0.272 OA
ATOM     23  C   UNL A   1      33.405  28.996  22.990  1.00  0.00     0.045 C 
ATOM     24  C   UNL A   1      33.741  27.669  25.018  1.00  0.00     0.045 C 
ENDBRANCH  13  15
ENDBRANCH   9  13
ENDBRANCH   7   8
ENDBRANCH   4   7
ENDBRANCH   2   3
ENDBRANCH   1   2
BRANCH   1  25
ATOM     25  C   UNL A   1      35.796  21.962  25.299  1.00  0.00     0.118 C 
BRANCH  25  26
ATOM     26  N   UNL A   1      36.710  20.833  25.336  1.00  0.00    -0.352 N 
ATOM     27  C   UNL A   1      38.067  20.783  25.555  1.00  0.00     0.251 C 
ATOM     28  H   UNL A   1      36.286  19.959  25.176  1.00  0.00     0.163 HD
ATOM     29  O   UNL A   1      38.657  19.738  25.280  1.00  0.00    -0.269 OA
BRANCH  27  30
ATOM     30  C   UNL A   1      38.851  21.925  26.110  1.00  0.00     0.039 A 
ATOM     31  C   UNL A   1      38.456  23.227  25.781  1.00  0.00     0.014 A 
ATOM     32  C   UNL A   1      40.032  21.757  26.834  1.00  0.00     0.014 A 
ATOM     33  C   UNL A   1      39.213  24.341  26.188  1.00  0.00     0.010 A 
ATOM     34  C   UNL A   1      40.745  22.880  27.304  1.00  0.00     0.010 A 
ATOM     35  C   UNL A   1      40.361  24.198  26.984  1.00  0.00    -0.014 A 
BRANCH  35  36
ATOM     36  C   UNL A   1      41.137  25.400  27.475  1.00  0.00     0.031 A 
ATOM     37  C   UNL A   1      40.460  26.518  28.251  1.00  0.00     0.074 A 
ATOM     38  C   UNL A   1      42.450  25.558  27.173  1.00  0.00     0.049 A 
ATOM     39  N   UNL A   1      40.968  27.646  28.695  1.00  0.00    -0.248 NA
ATOM     40  C   UNL A   1      39.029  26.364  28.555  1.00  0.00     0.031 C 
ATOM     41  C   UNL A   1      43.264  24.635  26.377  1.00  0.00     0.029 A 
ATOM     42  N   UNL A   1      43.320  26.596  27.443  1.00  0.00    -0.354 N 
ATOM     43  C   UNL A   1      39.928  28.322  29.329  1.00  0.00     0.074 A 
ATOM     44  C   UNL A   1      38.738  27.523  29.130  1.00  0.00     0.031 C 
ATOM     45  C   UNL A   1      44.483  25.167  26.179  1.00  0.00     0.029 A 
ATOM     46  C   UNL A   1      44.554  26.465  26.838  1.00  0.00     0.049 A 
ATOM     47  H   UNL A   1      43.082  27.360  28.017  1.00  0.00     0.167 HD
ATOM     48  C   UNL A   1      39.954  29.457  30.073  1.00  0.00     0.034 A 
ATOM     49  C   UNL A   1      45.625  27.285  26.800  1.00  0.00     0.034 A 
ATOM     50  C   UNL A   1      41.130  30.245  30.335  1.00  0.00     0.049 A 
ATOM     51  C   UNL A   1      45.629  28.555  27.612  1.00  0.00     0.074 A 
ATOM     52  C   UNL A   1      41.259  31.352  31.160  1.00  0.00     0.029 A 
ATOM     53  N   UNL A   1      42.379  30.019  29.783  1.00  0.00    -0.354 N 
ATOM     54  N   UNL A   1      44.681  29.060  28.359  1.00  0.00    -0.248 NA
ATOM     55  C   UNL A   1      46.883  29.328  27.635  1.00  0.00     0.031 C 
ATOM     56  C   UNL A   1      42.580  31.805  31.093  1.00  0.00     0.029 A 
ATOM     57  C   UNL A   1      43.282  30.963  30.248  1.00  0.00     0.049 A 
ATOM     58  H   UNL A   1      42.594  29.294  29.153  1.00  0.00     0.167 HD
ATOM     59  C   UNL A   1      45.245  30.160  28.997  1.00  0.00     0.074 A 
ATOM     60  C   UNL A   1      46.618  30.248  28.551  1.00  0.00     0.031 C 
ATOM     61  C   UNL A   1      44.670  31.018  29.874  1.00  0.00     0.034 A 
BRANCH  48  62
ATOM     62  C   UNL A   1      38.677  29.865  30.772  1.00  0.00     0.023 A 
ATOM     63  C   UNL A   1      38.453  29.418  32.091  1.00  0.00     0.012 A 
ATOM     64  C   UNL A   1      37.755  30.749  30.179  1.00  0.00     0.148 A 
ATOM     65  C   UNL A   1      37.315  29.808  32.794  1.00  0.00     0.002 A 
ATOM     66  C   UNL A   1      36.644  31.171  30.904  1.00  0.00     0.091 A 
ATOM     67  F   UNL A   1      37.980  31.163  28.925  1.00  0.00    -0.205 F 
ATOM     68  C   UNL A   1      36.417  30.691  32.205  1.00  0.00     0.022 A 
BRANCH  66  69
ATOM     69  S   UNL A   1      35.466  32.373  30.277  1.00  0.00     0.127 S 
ATOM     70  O   UNL A   1      34.545  32.499  31.406  1.00  0.00    -0.237 OA
ATOM     71  O   UNL A   1      36.314  33.544  30.049  1.00  0.00    -0.237 OA
ATOM     72  O   UNL A   1      34.896  31.788  29.072  1.00  0.00    -0.744 OA
ENDBRANCH  66  69
ENDBRANCH  48  62
BRANCH  49  73
ATOM     73  C   UNL A   1      46.847  26.903  26.031  1.00  0.00     0.023 A 
ATOM     74  C   UNL A   1      47.841  26.122  26.656  1.00  0.00     0.012 A 
ATOM     75  C   UNL A   1      47.054  27.350  24.711  1.00  0.00     0.148 A 
ATOM     76  C   UNL A   1      49.043  25.843  26.005  1.00  0.00     0.002 A 
ATOM     77  C   UNL A   1      48.237  27.029  24.051  1.00  0.00     0.091 A 
ATOM     78  F   UNL A   1      46.099  28.096  24.137  1.00  0.00    -0.205 F 
ATOM     79  C   UNL A   1      49.238  26.293  24.702  1.00  0.00     0.022 A 
BRANCH  77  80
ATOM     80  S   UNL A   1      48.553  27.495  22.344  1.00  0.00     0.127 S 
ATOM     81  O   UNL A   1      47.391  28.333  22.046  1.00  0.00    -0.237 OA
ATOM     82  O   UNL A   1      49.819  28.223  22.461  1.00  0.00    -0.237 OA
ATOM     83  O   UNL A   1      48.634  26.249  21.602  1.00  0.00    -0.744 OA
ENDBRANCH  77  80
ENDBRANCH  49  73
BRANCH  61  84
ATOM     84  C   UNL A   1      45.533  32.092  30.488  1.00  0.00     0.023 A 
ATOM     85  C   UNL A   1      45.636  33.358  29.877  1.00  0.00     0.012 A 
ATOM     86  C   UNL A   1      46.206  31.860  31.705  1.00  0.00     0.148 A 
ATOM     87  C   UNL A   1      46.426  34.359  30.444  1.00  0.00     0.002 A 
ATOM     88  C   UNL A   1      46.948  32.879  32.293  1.00  0.00     0.091 A 
ATOM     89  F   UNL A   1      46.114  30.645  32.264  1.00  0.00    -0.205 F 
ATOM     90  C   UNL A   1      47.072  34.123  31.655  1.00  0.00     0.022 A 
BRANCH  88  91
ATOM     91  S   UNL A   1      47.735  32.700  33.898  1.00  0.00     0.127 S 
ATOM     92  O   UNL A   1      48.776  31.714  33.613  1.00  0.00    -0.237 OA
ATOM     93  O   UNL A   1      48.229  34.053  34.153  1.00  0.00    -0.237 OA
ATOM     94  O   UNL A   1      46.689  32.257  34.811  1.00  0.00    -0.744 OA
ENDBRANCH  88  91
ENDBRANCH  61  84
ENDBRANCH  35  36
ENDBRANCH  27  30
ENDBRANCH  25  26
ENDBRANCH   1  25
TORSDOF 16
ENDMDL
