MODEL 1
REMARK VINA RESULT:     -13.0      0.000      0.000
REMARK SMILES O=C(CC[NH+]1CCN(C(=O)c2n[nH]c3ccccc23)CC1)NCCCNC(=O)c1ccc(-c2c3nc(c(-c4cccc(S(=O)(=O)[O-])c4F)c4ccc([nH]4)c(-c4cccc(S(=O)(=O)[O-])c4F)c4nc(c(-c5cccc(S(=O)(=O)[O-])c5F)c5ccc2[nH]5)C=C4)C=C3)cc1
REMARK SMILES IDX 24 1 23 2 22 3 1 4 2 5 3 7 4 8 5 9 6 10 21 11 7 13 20 14
REMARK SMILES IDX 8 15 9 16 10 17 11 18 12 19 19 20 13 21 14 22 18 23 15 25
REMARK SMILES IDX 17 26 16 27 25 28 26 29 27 30 28 32 29 33 30 34 91 35 31 36
REMARK SMILES IDX 90 37 32 38 33 39 34 40 84 41 35 42 89 43 83 44 85 45 36 46
REMARK SMILES IDX 88 47 82 48 81 49 37 51 69 52 49 53 68 54 50 55 53 56 67 57
REMARK SMILES IDX 86 58 51 59 52 60 66 62 87 63 54 64 38 65 39 66 47 67 40 68
REMARK SMILES IDX 42 69 48 70 41 71 43 72 44 73 45 74 46 75 70 76 71 77 79 78
REMARK SMILES IDX 72 79 74 80 80 81 73 82 75 83 76 84 77 85 78 86 55 87 56 88
REMARK SMILES IDX 64 89 57 90 59 91 65 92 58 93 60 94 61 95 62 96 63 97
REMARK H PARENT 22 6 5 12 13 24 26 31 85 50 53 61
REMARK Flexibility Score: inf
ROOT
ATOM      1  C   UNL A   1      36.361  22.607  23.465  1.00  0.00     0.042 C 
ENDROOT
BRANCH   1   2
ATOM      2  C   UNL A   1      34.930  23.070  23.185  1.00  0.00     0.117 C 
BRANCH   2   3
ATOM      3  N   UNL A   1      34.697  24.502  23.270  1.00  0.00    -0.356 N 
ATOM      4  O   UNL A   1      33.199  24.455  21.531  1.00  0.00    -0.275 OA
ATOM      5  C   UNL A   1      33.791  25.088  22.404  1.00  0.00     0.225 C 
ATOM      6  H   UNL A   1      35.178  25.046  23.935  1.00  0.00     0.163 HD
BRANCH   5   7
ATOM      7  C   UNL A   1      33.602  26.580  22.561  1.00  0.00     0.161 C 
BRANCH   7   8
ATOM      8  C   UNL A   1      32.337  26.957  23.350  1.00  0.00     0.272 C 
BRANCH   8   9
ATOM      9  N   UNL A   1      32.384  27.355  24.765  1.00  0.00    -0.332 N 
ATOM     10  C   UNL A   1      31.094  27.411  25.453  1.00  0.00     0.284 C 
ATOM     11  C   UNL A   1      33.367  26.669  25.603  1.00  0.00     0.284 C 
ATOM     12  H   UNL A   1      32.718  28.313  24.652  1.00  0.00     0.348 HD
ATOM     13  C   UNL A   1      30.545  26.078  25.960  1.00  0.00     0.181 C 
ATOM     14  C   UNL A   1      32.963  25.283  26.119  1.00  0.00     0.181 C 
ATOM     15  N   UNL A   1      31.535  25.083  26.368  1.00  0.00    -0.326 N 
ATOM     16  C   UNL A   1      31.030  23.878  26.854  1.00  0.00     0.275 C 
ATOM     17  O   UNL A   1      29.852  23.751  27.176  1.00  0.00    -0.267 OA
BRANCH  16  18
ATOM     18  C   UNL A   1      31.960  22.748  26.941  1.00  0.00     0.157 A 
ATOM     19  N   UNL A   1      32.700  22.514  28.047  1.00  0.00    -0.169 NA
ATOM     20  C   UNL A   1      32.262  21.835  25.900  1.00  0.00     0.033 A 
ATOM     21  N   UNL A   1      33.561  21.551  27.648  1.00  0.00    -0.277 N 
ATOM     22  C   UNL A   1      33.322  21.078  26.384  1.00  0.00     0.066 A 
ATOM     23  C   UNL A   1      31.776  21.594  24.604  1.00  0.00     0.013 A 
ATOM     24  H   UNL A   1      34.295  21.221  28.213  1.00  0.00     0.190 HD
ATOM     25  C   UNL A   1      33.952  20.088  25.626  1.00  0.00     0.028 A 
ATOM     26  C   UNL A   1      32.371  20.587  23.840  1.00  0.00     0.001 A 
ATOM     27  C   UNL A   1      33.447  19.854  24.342  1.00  0.00     0.002 A 
ENDBRANCH  16  18
ENDBRANCH   8   9
ENDBRANCH   7   8
ENDBRANCH   5   7
ENDBRANCH   2   3
ENDBRANCH   1   2
BRANCH   1  28
ATOM     28  C   UNL A   1      36.676  22.247  24.919  1.00  0.00     0.118 C 
BRANCH  28  29
ATOM     29  N   UNL A   1      37.668  21.194  25.084  1.00  0.00    -0.352 N 
ATOM     30  C   UNL A   1      38.843  21.220  25.804  1.00  0.00     0.251 C 
ATOM     31  H   UNL A   1      37.472  20.349  24.619  1.00  0.00     0.163 HD
ATOM     32  O   UNL A   1      39.585  20.239  25.804  1.00  0.00    -0.269 OA
BRANCH  30  33
ATOM     33  C   UNL A   1      39.266  22.456  26.503  1.00  0.00     0.039 A 
ATOM     34  C   UNL A   1      40.376  22.394  27.348  1.00  0.00     0.014 A 
ATOM     35  C   UNL A   1      38.602  23.670  26.323  1.00  0.00     0.014 A 
ATOM     36  C   UNL A   1      40.886  23.569  27.910  1.00  0.00     0.010 A 
ATOM     37  C   UNL A   1      39.128  24.850  26.853  1.00  0.00     0.010 A 
ATOM     38  C   UNL A   1      40.305  24.816  27.611  1.00  0.00    -0.014 A 
BRANCH  38  39
ATOM     39  C   UNL A   1      41.047  26.070  27.904  1.00  0.00     0.031 A 
ATOM     40  C   UNL A   1      42.459  26.308  27.456  1.00  0.00     0.074 A 
ATOM     41  C   UNL A   1      40.438  26.985  28.686  1.00  0.00     0.049 A 
ATOM     42  N   UNL A   1      43.183  27.391  27.589  1.00  0.00    -0.248 NA
ATOM     43  C   UNL A   1      43.157  25.194  26.798  1.00  0.00     0.031 C 
ATOM     44  C   UNL A   1      39.117  26.820  29.298  1.00  0.00     0.029 A 
ATOM     45  N   UNL A   1      40.848  28.223  29.114  1.00  0.00    -0.354 N 
ATOM     46  C   UNL A   1      44.424  27.093  27.043  1.00  0.00     0.074 A 
ATOM     47  C   UNL A   1      44.363  25.714  26.599  1.00  0.00     0.031 C 
ATOM     48  C   UNL A   1      38.817  27.920  30.003  1.00  0.00     0.029 A 
ATOM     49  C   UNL A   1      39.924  28.865  29.904  1.00  0.00     0.049 A 
ATOM     50  H   UNL A   1      41.720  28.613  28.877  1.00  0.00     0.167 HD
ATOM     51  C   UNL A   1      45.501  27.903  26.898  1.00  0.00     0.034 A 
ATOM     52  C   UNL A   1      39.948  30.086  30.473  1.00  0.00     0.034 A 
ATOM     53  C   UNL A   1      45.546  29.285  27.306  1.00  0.00     0.049 A 
ATOM     54  C   UNL A   1      41.121  30.989  30.229  1.00  0.00     0.074 A 
ATOM     55  C   UNL A   1      46.551  30.214  27.086  1.00  0.00     0.029 A 
ATOM     56  N   UNL A   1      44.557  29.935  28.025  1.00  0.00    -0.354 N 
ATOM     57  N   UNL A   1      42.196  30.764  29.514  1.00  0.00    -0.248 NA
ATOM     58  C   UNL A   1      41.068  32.326  30.836  1.00  0.00     0.031 C 
ATOM     59  C   UNL A   1      46.172  31.423  27.682  1.00  0.00     0.029 A 
ATOM     60  C   UNL A   1      44.931  31.247  28.272  1.00  0.00     0.049 A 
ATOM     61  H   UNL A   1      43.711  29.525  28.317  1.00  0.00     0.167 HD
ATOM     62  C   UNL A   1      42.940  31.935  29.569  1.00  0.00     0.074 A 
ATOM     63  C   UNL A   1      42.179  32.878  30.364  1.00  0.00     0.031 C 
ATOM     64  C   UNL A   1      44.155  32.196  29.027  1.00  0.00     0.034 A 
BRANCH  51  65
ATOM     65  C   UNL A   1      46.705  27.348  26.187  1.00  0.00     0.023 A 
ATOM     66  C   UNL A   1      46.834  27.559  24.800  1.00  0.00     0.012 A 
ATOM     67  C   UNL A   1      47.748  26.711  26.890  1.00  0.00     0.148 A 
ATOM     68  C   UNL A   1      47.973  27.131  24.119  1.00  0.00     0.002 A 
ATOM     69  C   UNL A   1      48.893  26.313  26.208  1.00  0.00     0.091 A 
ATOM     70  F   UNL A   1      47.598  26.496  28.204  1.00  0.00    -0.205 F 
ATOM     71  C   UNL A   1      49.007  26.520  24.823  1.00  0.00     0.022 A 
BRANCH  69  72
ATOM     72  S   UNL A   1      50.297  25.572  27.050  1.00  0.00     0.127 S 
ATOM     73  O   UNL A   1      50.639  26.610  28.021  1.00  0.00    -0.237 OA
ATOM     74  O   UNL A   1      49.717  24.361  27.631  1.00  0.00    -0.237 OA
ATOM     75  O   UNL A   1      51.289  25.324  26.013  1.00  0.00    -0.744 OA
ENDBRANCH  69  72
ENDBRANCH  51  65
BRANCH  52  76
ATOM     76  C   UNL A   1      38.765  30.551  31.243  1.00  0.00     0.023 A 
ATOM     77  C   UNL A   1      38.761  30.418  32.644  1.00  0.00     0.012 A 
ATOM     78  C   UNL A   1      37.682  31.188  30.608  1.00  0.00     0.148 A 
ATOM     79  C   UNL A   1      37.692  30.898  33.400  1.00  0.00     0.002 A 
ATOM     80  C   UNL A   1      36.644  31.709  31.370  1.00  0.00     0.091 A 
ATOM     81  F   UNL A   1      37.695  31.289  29.271  1.00  0.00    -0.205 F 
ATOM     82  C   UNL A   1      36.639  31.555  32.766  1.00  0.00     0.022 A 
BRANCH  80  83
ATOM     83  S   UNL A   1      35.336  32.690  30.626  1.00  0.00     0.127 S 
ATOM     84  O   UNL A   1      36.051  33.902  30.239  1.00  0.00    -0.237 OA
ATOM     85  O   UNL A   1      34.903  31.846  29.512  1.00  0.00    -0.237 OA
ATOM     86  O   UNL A   1      34.336  32.842  31.677  1.00  0.00    -0.744 OA
ENDBRANCH  80  83
ENDBRANCH  52  76
BRANCH  64  87
ATOM     87  C   UNL A   1      44.751  33.553  29.286  1.00  0.00     0.023 A 
ATOM     88  C   UNL A   1      45.478  33.767  30.474  1.00  0.00     0.012 A 
ATOM     89  C   UNL A   1      44.643  34.594  28.344  1.00  0.00     0.148 A 
ATOM     90  C   UNL A   1      46.069  35.004  30.731  1.00  0.00     0.002 A 
ATOM     91  C   UNL A   1      45.265  35.813  28.591  1.00  0.00     0.091 A 
ATOM     92  F   UNL A   1      43.924  34.382  27.231  1.00  0.00    -0.205 F 
ATOM     93  C   UNL A   1      45.972  36.022  29.786  1.00  0.00     0.022 A 
BRANCH  91  94
ATOM     94  S   UNL A   1      45.250  37.150  27.390  1.00  0.00     0.127 S 
ATOM     95  O   UNL A   1      45.919  38.221  28.127  1.00  0.00    -0.237 OA
ATOM     96  O   UNL A   1      46.029  36.592  26.284  1.00  0.00    -0.237 OA
ATOM     97  O   UNL A   1      43.846  37.378  27.076  1.00  0.00    -0.744 OA
ENDBRANCH  91  94
ENDBRANCH  64  87
ENDBRANCH  38  39
ENDBRANCH  30  33
ENDBRANCH  28  29
ENDBRANCH   1  28
TORSDOF 16
ENDMDL
MODEL 2
REMARK VINA RESULT:     -12.9      4.569     10.008
REMARK SMILES O=C(CC[NH+]1CCN(C(=O)c2n[nH]c3ccccc23)CC1)NCCCNC(=O)c1ccc(-c2c3nc(c(-c4cccc(S(=O)(=O)[O-])c4F)c4ccc([nH]4)c(-c4cccc(S(=O)(=O)[O-])c4F)c4nc(c(-c5cccc(S(=O)(=O)[O-])c5F)c5ccc2[nH]5)C=C4)C=C3)cc1
REMARK SMILES IDX 24 1 23 2 22 3 1 4 2 5 3 7 4 8 5 9 6 10 21 11 7 13 20 14
REMARK SMILES IDX 8 15 9 16 10 17 11 18 12 19 19 20 13 21 14 22 18 23 15 25
REMARK SMILES IDX 17 26 16 27 25 28 26 29 27 30 28 32 29 33 30 34 91 35 31 36
REMARK SMILES IDX 90 37 32 38 33 39 34 40 84 41 35 42 89 43 83 44 85 45 36 46
REMARK SMILES IDX 88 47 82 48 81 49 37 51 69 52 49 53 68 54 50 55 53 56 67 57
REMARK SMILES IDX 86 58 51 59 52 60 66 62 87 63 54 64 38 65 39 66 47 67 40 68
REMARK SMILES IDX 42 69 48 70 41 71 43 72 44 73 45 74 46 75 70 76 71 77 79 78
REMARK SMILES IDX 72 79 74 80 80 81 73 82 75 83 76 84 77 85 78 86 55 87 56 88
REMARK SMILES IDX 64 89 57 90 59 91 65 92 58 93 60 94 61 95 62 96 63 97
REMARK H PARENT 22 6 5 12 13 24 26 31 85 50 53 61
REMARK Flexibility Score: inf
ROOT
ATOM      1  C   UNL A   1      31.701  28.424  27.292  1.00  0.00     0.042 C 
ENDROOT
BRANCH   1   2
ATOM      2  C   UNL A   1      31.137  27.180  26.603  1.00  0.00     0.117 C 
BRANCH   2   3
ATOM      3  N   UNL A   1      31.740  25.914  26.983  1.00  0.00    -0.356 N 
ATOM      4  O   UNL A   1      30.267  24.718  25.690  1.00  0.00    -0.275 OA
ATOM      5  C   UNL A   1      31.236  24.741  26.448  1.00  0.00     0.225 C 
ATOM      6  H   UNL A   1      32.496  25.891  27.614  1.00  0.00     0.163 HD
BRANCH   5   7
ATOM      7  C   UNL A   1      31.922  23.468  26.889  1.00  0.00     0.161 C 
BRANCH   7   8
ATOM      8  C   UNL A   1      32.481  22.637  25.721  1.00  0.00     0.272 C 
BRANCH   8   9
ATOM      9  N   UNL A   1      33.846  22.825  25.208  1.00  0.00    -0.332 N 
ATOM     10  C   UNL A   1      34.117  22.239  23.895  1.00  0.00     0.284 C 
ATOM     11  C   UNL A   1      34.387  24.182  25.270  1.00  0.00     0.284 C 
ATOM     12  H   UNL A   1      34.356  22.278  25.903  1.00  0.00     0.348 HD
ATOM     13  C   UNL A   1      33.669  23.063  22.688  1.00  0.00     0.181 C 
ATOM     14  C   UNL A   1      33.951  25.133  24.149  1.00  0.00     0.181 C 
ATOM     15  N   UNL A   1      33.697  24.515  22.847  1.00  0.00    -0.326 N 
ATOM     16  C   UNL A   1      33.311  25.263  21.736  1.00  0.00     0.275 C 
ATOM     17  O   UNL A   1      33.216  24.762  20.618  1.00  0.00    -0.267 OA
BRANCH  16  18
ATOM     18  C   UNL A   1      32.994  26.676  21.956  1.00  0.00     0.157 A 
ATOM     19  N   UNL A   1      33.913  27.651  21.785  1.00  0.00    -0.169 NA
ATOM     20  C   UNL A   1      31.763  27.189  22.435  1.00  0.00     0.033 A 
ATOM     21  N   UNL A   1      33.304  28.746  22.293  1.00  0.00    -0.277 N 
ATOM     22  C   UNL A   1      32.001  28.539  22.662  1.00  0.00     0.066 A 
ATOM     23  C   UNL A   1      30.497  26.652  22.726  1.00  0.00     0.013 A 
ATOM     24  H   UNL A   1      33.757  29.614  22.391  1.00  0.00     0.190 HD
ATOM     25  C   UNL A   1      31.036  29.398  23.193  1.00  0.00     0.028 A 
ATOM     26  C   UNL A   1      29.507  27.501  23.229  1.00  0.00     0.001 A 
ATOM     27  C   UNL A   1      29.778  28.849  23.466  1.00  0.00     0.002 A 
ENDBRANCH  16  18
ENDBRANCH   8   9
ENDBRANCH   7   8
ENDBRANCH   5   7
ENDBRANCH   2   3
ENDBRANCH   1   2
BRANCH   1  28
ATOM     28  C   UNL A   1      32.413  29.428  26.381  1.00  0.00     0.118 C 
BRANCH  28  29
ATOM     29  N   UNL A   1      32.206  30.824  26.736  1.00  0.00    -0.352 N 
ATOM     30  C   UNL A   1      33.096  31.712  27.301  1.00  0.00     0.251 C 
ATOM     31  H   UNL A   1      31.309  31.183  26.548  1.00  0.00     0.163 HD
ATOM     32  O   UNL A   1      32.736  32.858  27.568  1.00  0.00    -0.269 OA
BRANCH  30  33
ATOM     33  C   UNL A   1      34.459  31.269  27.676  1.00  0.00     0.039 A 
ATOM     34  C   UNL A   1      35.406  32.242  28.005  1.00  0.00     0.014 A 
ATOM     35  C   UNL A   1      34.810  29.920  27.727  1.00  0.00     0.014 A 
ATOM     36  C   UNL A   1      36.656  31.854  28.498  1.00  0.00     0.010 A 
ATOM     37  C   UNL A   1      36.043  29.528  28.253  1.00  0.00     0.010 A 
ATOM     38  C   UNL A   1      36.958  30.493  28.691  1.00  0.00    -0.014 A 
BRANCH  38  39
ATOM     39  C   UNL A   1      38.116  30.102  29.536  1.00  0.00     0.031 A 
ATOM     40  C   UNL A   1      38.329  30.630  30.924  1.00  0.00     0.074 A 
ATOM     41  C   UNL A   1      39.053  29.306  28.980  1.00  0.00     0.049 A 
ATOM     42  N   UNL A   1      39.262  30.304  31.784  1.00  0.00    -0.248 NA
ATOM     43  C   UNL A   1      37.402  31.663  31.405  1.00  0.00     0.031 C 
ATOM     44  C   UNL A   1      39.034  28.829  27.594  1.00  0.00     0.029 A 
ATOM     45  N   UNL A   1      40.205  28.771  29.498  1.00  0.00    -0.354 N 
ATOM     46  C   UNL A   1      39.045  31.095  32.904  1.00  0.00     0.074 A 
ATOM     47  C   UNL A   1      37.905  31.939  32.604  1.00  0.00     0.031 C 
ATOM     48  C   UNL A   1      40.108  28.058  27.378  1.00  0.00     0.029 A 
ATOM     49  C   UNL A   1      40.899  27.991  28.603  1.00  0.00     0.049 A 
ATOM     50  H   UNL A   1      40.506  28.929  30.421  1.00  0.00     0.167 HD
ATOM     51  C   UNL A   1      39.716  31.094  34.082  1.00  0.00     0.034 A 
ATOM     52  C   UNL A   1      42.035  27.281  28.748  1.00  0.00     0.034 A 
ATOM     53  C   UNL A   1      40.825  30.229  34.392  1.00  0.00     0.049 A 
ATOM     54  C   UNL A   1      42.710  27.239  30.087  1.00  0.00     0.074 A 
ATOM     55  C   UNL A   1      41.483  30.074  35.602  1.00  0.00     0.029 A 
ATOM     56  N   UNL A   1      41.450  29.382  33.491  1.00  0.00    -0.354 N 
ATOM     57  N   UNL A   1      42.355  27.824  31.204  1.00  0.00    -0.248 NA
ATOM     58  C   UNL A   1      43.918  26.410  30.196  1.00  0.00     0.031 C 
ATOM     59  C   UNL A   1      42.513  29.140  35.428  1.00  0.00     0.029 A 
ATOM     60  C   UNL A   1      42.495  28.714  34.111  1.00  0.00     0.049 A 
ATOM     61  H   UNL A   1      41.188  29.270  32.549  1.00  0.00     0.167 HD
ATOM     62  C   UNL A   1      43.285  27.420  32.155  1.00  0.00     0.074 A 
ATOM     63  C   UNL A   1      44.201  26.518  31.488  1.00  0.00     0.031 C 
ATOM     64  C   UNL A   1      43.380  27.785  33.457  1.00  0.00     0.034 A 
BRANCH  51  65
ATOM     65  C   UNL A   1      39.216  32.002  35.174  1.00  0.00     0.023 A 
ATOM     66  C   UNL A   1      38.249  31.514  36.075  1.00  0.00     0.012 A 
ATOM     67  C   UNL A   1      39.760  33.287  35.371  1.00  0.00     0.148 A 
ATOM     68  C   UNL A   1      37.819  32.295  37.147  1.00  0.00     0.002 A 
ATOM     69  C   UNL A   1      39.347  34.048  36.460  1.00  0.00     0.091 A 
ATOM     70  F   UNL A   1      40.660  33.745  34.490  1.00  0.00    -0.205 F 
ATOM     71  C   UNL A   1      38.376  33.556  37.347  1.00  0.00     0.022 A 
BRANCH  69  72
ATOM     72  S   UNL A   1      40.058  35.658  36.824  1.00  0.00     0.127 S 
ATOM     73  O   UNL A   1      41.485  35.345  36.877  1.00  0.00    -0.237 OA
ATOM     74  O   UNL A   1      39.651  36.455  35.666  1.00  0.00    -0.237 OA
ATOM     75  O   UNL A   1      39.455  36.077  38.082  1.00  0.00    -0.744 OA
ENDBRANCH  69  72
ENDBRANCH  51  65
BRANCH  52  76
ATOM     76  C   UNL A   1      42.536  26.471  27.607  1.00  0.00     0.023 A 
ATOM     77  C   UNL A   1      43.513  27.016  26.753  1.00  0.00     0.012 A 
ATOM     78  C   UNL A   1      42.107  25.145  27.407  1.00  0.00     0.148 A 
ATOM     79  C   UNL A   1      44.045  26.260  25.709  1.00  0.00     0.002 A 
ATOM     80  C   UNL A   1      42.678  24.380  26.396  1.00  0.00     0.091 A 
ATOM     81  F   UNL A   1      41.162  24.649  28.218  1.00  0.00    -0.205 F 
ATOM     82  C   UNL A   1      43.638  24.939  25.538  1.00  0.00     0.022 A 
BRANCH  80  83
ATOM     83  S   UNL A   1      42.303  22.633  26.218  1.00  0.00     0.127 S 
ATOM     84  O   UNL A   1      42.812  22.085  27.471  1.00  0.00    -0.237 OA
ATOM     85  O   UNL A   1      40.845  22.635  26.092  1.00  0.00    -0.237 OA
ATOM     86  O   UNL A   1      43.000  22.220  25.006  1.00  0.00    -0.744 OA
ENDBRANCH  80  83
ENDBRANCH  52  76
BRANCH  64  87
ATOM     87  C   UNL A   1      44.526  27.219  34.251  1.00  0.00     0.023 A 
ATOM     88  C   UNL A   1      45.771  27.881  34.226  1.00  0.00     0.012 A 
ATOM     89  C   UNL A   1      44.367  26.077  35.059  1.00  0.00     0.148 A 
ATOM     90  C   UNL A   1      46.845  27.401  34.973  1.00  0.00     0.002 A 
ATOM     91  C   UNL A   1      45.432  25.625  35.830  1.00  0.00     0.091 A 
ATOM     92  F   UNL A   1      43.184  25.444  35.051  1.00  0.00    -0.205 F 
ATOM     93  C   UNL A   1      46.673  26.281  35.783  1.00  0.00     0.022 A 
BRANCH  91  94
ATOM     94  S   UNL A   1      45.270  24.234  36.956  1.00  0.00     0.127 S 
ATOM     95  O   UNL A   1      44.174  24.673  37.818  1.00  0.00    -0.237 OA
ATOM     96  O   UNL A   1      44.932  23.132  36.054  1.00  0.00    -0.237 OA
ATOM     97  O   UNL A   1      46.569  24.100  37.602  1.00  0.00    -0.744 OA
ENDBRANCH  91  94
ENDBRANCH  64  87
ENDBRANCH  38  39
ENDBRANCH  30  33
ENDBRANCH  28  29
ENDBRANCH   1  28
TORSDOF 16
ENDMDL
MODEL 3
REMARK VINA RESULT:     -12.7      4.642      9.746
REMARK SMILES O=C(CC[NH+]1CCN(C(=O)c2n[nH]c3ccccc23)CC1)NCCCNC(=O)c1ccc(-c2c3nc(c(-c4cccc(S(=O)(=O)[O-])c4F)c4ccc([nH]4)c(-c4cccc(S(=O)(=O)[O-])c4F)c4nc(c(-c5cccc(S(=O)(=O)[O-])c5F)c5ccc2[nH]5)C=C4)C=C3)cc1
REMARK SMILES IDX 24 1 23 2 22 3 1 4 2 5 3 7 4 8 5 9 6 10 21 11 7 13 20 14
REMARK SMILES IDX 8 15 9 16 10 17 11 18 12 19 19 20 13 21 14 22 18 23 15 25
REMARK SMILES IDX 17 26 16 27 25 28 26 29 27 30 28 32 29 33 30 34 91 35 31 36
REMARK SMILES IDX 90 37 32 38 33 39 34 40 84 41 35 42 89 43 83 44 85 45 36 46
REMARK SMILES IDX 88 47 82 48 81 49 37 51 69 52 49 53 68 54 50 55 53 56 67 57
REMARK SMILES IDX 86 58 51 59 52 60 66 62 87 63 54 64 38 65 39 66 47 67 40 68
REMARK SMILES IDX 42 69 48 70 41 71 43 72 44 73 45 74 46 75 70 76 71 77 79 78
REMARK SMILES IDX 72 79 74 80 80 81 73 82 75 83 76 84 77 85 78 86 55 87 56 88
REMARK SMILES IDX 64 89 57 90 59 91 65 92 58 93 60 94 61 95 62 96 63 97
REMARK H PARENT 22 6 5 12 13 24 26 31 85 50 53 61
REMARK Flexibility Score: inf
ROOT
ATOM      1  C   UNL A   1      30.966  30.470  25.406  1.00  0.00     0.042 C 
ENDROOT
BRANCH   1   2
ATOM      2  C   UNL A   1      31.371  29.500  24.294  1.00  0.00     0.117 C 
BRANCH   2   3
ATOM      3  N   UNL A   1      31.564  28.117  24.696  1.00  0.00    -0.356 N 
ATOM      4  O   UNL A   1      33.850  28.318  24.618  1.00  0.00    -0.275 OA
ATOM      5  C   UNL A   1      32.853  27.636  24.848  1.00  0.00     0.225 C 
ATOM      6  H   UNL A   1      30.789  27.532  24.857  1.00  0.00     0.163 HD
BRANCH   5   7
ATOM      7  C   UNL A   1      32.969  26.190  25.273  1.00  0.00     0.161 C 
BRANCH   7   8
ATOM      8  C   UNL A   1      31.992  25.801  26.396  1.00  0.00     0.272 C 
BRANCH   8   9
ATOM      9  N   UNL A   1      30.844  24.913  26.163  1.00  0.00    -0.332 N 
ATOM     10  C   UNL A   1      30.363  24.845  24.783  1.00  0.00     0.284 C 
ATOM     11  C   UNL A   1      30.933  23.567  26.727  1.00  0.00     0.284 C 
ATOM     12  H   UNL A   1      30.141  25.411  26.712  1.00  0.00     0.348 HD
ATOM     13  C   UNL A   1      31.133  23.910  23.850  1.00  0.00     0.181 C 
ATOM     14  C   UNL A   1      31.745  22.549  25.917  1.00  0.00     0.181 C 
ATOM     15  N   UNL A   1      31.726  22.724  24.464  1.00  0.00    -0.326 N 
ATOM     16  C   UNL A   1      32.406  21.862  23.606  1.00  0.00     0.275 C 
ATOM     17  O   UNL A   1      32.291  21.938  22.386  1.00  0.00    -0.267 OA
BRANCH  16  18
ATOM     18  C   UNL A   1      33.293  20.869  24.218  1.00  0.00     0.157 A 
ATOM     19  N   UNL A   1      34.283  21.221  25.068  1.00  0.00    -0.169 NA
ATOM     20  C   UNL A   1      33.294  19.477  23.955  1.00  0.00     0.033 A 
ATOM     21  N   UNL A   1      34.986  20.076  25.219  1.00  0.00    -0.277 N 
ATOM     22  C   UNL A   1      34.420  18.989  24.607  1.00  0.00     0.066 A 
ATOM     23  C   UNL A   1      32.487  18.595  23.215  1.00  0.00     0.013 A 
ATOM     24  H   UNL A   1      35.830  20.028  25.723  1.00  0.00     0.190 HD
ATOM     25  C   UNL A   1      34.806  17.648  24.547  1.00  0.00     0.028 A 
ATOM     26  C   UNL A   1      32.838  17.243  23.167  1.00  0.00     0.001 A 
ATOM     27  C   UNL A   1      33.985  16.783  23.816  1.00  0.00     0.002 A 
ENDBRANCH  16  18
ENDBRANCH   8   9
ENDBRANCH   7   8
ENDBRANCH   5   7
ENDBRANCH   2   3
ENDBRANCH   1   2
BRANCH   1  28
ATOM     28  C   UNL A   1      32.055  30.807  26.429  1.00  0.00     0.118 C 
BRANCH  28  29
ATOM     29  N   UNL A   1      31.995  32.163  26.955  1.00  0.00    -0.352 N 
ATOM     30  C   UNL A   1      32.967  32.870  27.629  1.00  0.00     0.251 C 
ATOM     31  H   UNL A   1      31.146  32.639  26.810  1.00  0.00     0.163 HD
ATOM     32  O   UNL A   1      32.730  34.007  28.036  1.00  0.00    -0.269 OA
BRANCH  30  33
ATOM     33  C   UNL A   1      34.268  32.237  27.950  1.00  0.00     0.039 A 
ATOM     34  C   UNL A   1      35.407  33.044  27.993  1.00  0.00     0.014 A 
ATOM     35  C   UNL A   1      34.377  30.874  28.226  1.00  0.00     0.014 A 
ATOM     36  C   UNL A   1      36.622  32.507  28.430  1.00  0.00     0.010 A 
ATOM     37  C   UNL A   1      35.579  30.341  28.697  1.00  0.00     0.010 A 
ATOM     38  C   UNL A   1      36.700  31.166  28.852  1.00  0.00    -0.014 A 
BRANCH  38  39
ATOM     39  C   UNL A   1      37.871  30.703  29.642  1.00  0.00     0.031 A 
ATOM     40  C   UNL A   1      38.158  31.185  31.034  1.00  0.00     0.074 A 
ATOM     41  C   UNL A   1      38.750  29.883  29.031  1.00  0.00     0.049 A 
ATOM     42  N   UNL A   1      39.108  30.797  31.848  1.00  0.00    -0.248 NA
ATOM     43  C   UNL A   1      37.296  32.244  31.575  1.00  0.00     0.031 C 
ATOM     44  C   UNL A   1      38.658  29.444  27.635  1.00  0.00     0.029 A 
ATOM     45  N   UNL A   1      39.897  29.285  29.490  1.00  0.00    -0.354 N 
ATOM     46  C   UNL A   1      38.968  31.567  32.995  1.00  0.00     0.074 A 
ATOM     47  C   UNL A   1      37.855  32.466  32.759  1.00  0.00     0.031 C 
ATOM     48  C   UNL A   1      39.689  28.633  27.360  1.00  0.00     0.029 A 
ATOM     49  C   UNL A   1      40.521  28.499  28.550  1.00  0.00     0.049 A 
ATOM     50  H   UNL A   1      40.238  29.406  30.405  1.00  0.00     0.167 HD
ATOM     51  C   UNL A   1      39.681  31.506  34.146  1.00  0.00     0.034 A 
ATOM     52  C   UNL A   1      41.630  27.738  28.634  1.00  0.00     0.034 A 
ATOM     53  C   UNL A   1      40.762  30.586  34.392  1.00  0.00     0.049 A 
ATOM     54  C   UNL A   1      42.352  27.632  29.945  1.00  0.00     0.074 A 
ATOM     55  C   UNL A   1      41.458  30.372  35.571  1.00  0.00     0.029 A 
ATOM     56  N   UNL A   1      41.315  29.737  33.447  1.00  0.00    -0.354 N 
ATOM     57  N   UNL A   1      42.066  28.203  31.089  1.00  0.00    -0.248 NA
ATOM     58  C   UNL A   1      43.526  26.749  29.987  1.00  0.00     0.031 C 
ATOM     59  C   UNL A   1      42.439  29.400  35.335  1.00  0.00     0.029 A 
ATOM     60  C   UNL A   1      42.352  29.009  34.009  1.00  0.00     0.049 A 
ATOM     61  H   UNL A   1      41.014  29.662  32.513  1.00  0.00     0.167 HD
ATOM     62  C   UNL A   1      43.011  27.735  31.993  1.00  0.00     0.074 A 
ATOM     63  C   UNL A   1      43.862  26.811  31.270  1.00  0.00     0.031 C 
ATOM     64  C   UNL A   1      43.171  28.060  33.299  1.00  0.00     0.034 A 
BRANCH  51  65
ATOM     65  C   UNL A   1      39.263  32.406  35.278  1.00  0.00     0.023 A 
ATOM     66  C   UNL A   1      38.390  31.901  36.262  1.00  0.00     0.012 A 
ATOM     67  C   UNL A   1      39.798  33.702  35.426  1.00  0.00     0.148 A 
ATOM     68  C   UNL A   1      38.043  32.674  37.368  1.00  0.00     0.002 A 
ATOM     69  C   UNL A   1      39.469  34.456  36.548  1.00  0.00     0.091 A 
ATOM     70  F   UNL A   1      40.606  34.176  34.468  1.00  0.00    -0.205 F 
ATOM     71  C   UNL A   1      38.590  33.946  37.518  1.00  0.00     0.022 A 
BRANCH  69  72
ATOM     72  S   UNL A   1      40.177  36.081  36.848  1.00  0.00     0.127 S 
ATOM     73  O   UNL A   1      39.812  36.791  35.623  1.00  0.00    -0.237 OA
ATOM     74  O   UNL A   1      39.462  36.523  38.045  1.00  0.00    -0.237 OA
ATOM     75  O   UNL A   1      41.602  35.855  37.048  1.00  0.00    -0.744 OA
ENDBRANCH  69  72
ENDBRANCH  51  65
BRANCH  52  76
ATOM     76  C   UNL A   1      42.051  26.938  27.455  1.00  0.00     0.023 A 
ATOM     77  C   UNL A   1      42.771  27.564  26.421  1.00  0.00     0.012 A 
ATOM     78  C   UNL A   1      41.810  25.553  27.387  1.00  0.00     0.148 A 
ATOM     79  C   UNL A   1      43.231  26.828  25.329  1.00  0.00     0.002 A 
ATOM     80  C   UNL A   1      42.315  24.816  26.322  1.00  0.00     0.091 A 
ATOM     81  F   UNL A   1      41.107  24.977  28.373  1.00  0.00    -0.205 F 
ATOM     82  C   UNL A   1      43.015  25.453  25.285  1.00  0.00     0.022 A 
BRANCH  80  83
ATOM     83  S   UNL A   1      42.196  23.023  26.282  1.00  0.00     0.127 S 
ATOM     84  O   UNL A   1      42.967  22.644  27.463  1.00  0.00    -0.237 OA
ATOM     85  O   UNL A   1      40.754  22.801  26.389  1.00  0.00    -0.237 OA
ATOM     86  O   UNL A   1      42.761  22.637  24.995  1.00  0.00    -0.744 OA
ENDBRANCH  80  83
ENDBRANCH  52  76
BRANCH  64  87
ATOM     87  C   UNL A   1      44.320  27.425  34.034  1.00  0.00     0.023 A 
ATOM     88  C   UNL A   1      45.598  28.014  33.949  1.00  0.00     0.012 A 
ATOM     89  C   UNL A   1      44.135  26.290  34.846  1.00  0.00     0.148 A 
ATOM     90  C   UNL A   1      46.678  27.469  34.642  1.00  0.00     0.002 A 
ATOM     91  C   UNL A   1      45.209  25.774  35.563  1.00  0.00     0.091 A 
ATOM     92  F   UNL A   1      42.918  25.727  34.895  1.00  0.00    -0.205 F 
ATOM     93  C   UNL A   1      46.482  26.357  35.456  1.00  0.00     0.022 A 
BRANCH  91  94
ATOM     94  S   UNL A   1      45.022  24.388  36.692  1.00  0.00     0.127 S 
ATOM     95  O   UNL A   1      44.556  23.333  35.796  1.00  0.00    -0.237 OA
ATOM     96  O   UNL A   1      46.384  24.203  37.196  1.00  0.00    -0.237 OA
ATOM     97  O   UNL A   1      44.068  24.832  37.701  1.00  0.00    -0.744 OA
ENDBRANCH  91  94
ENDBRANCH  64  87
ENDBRANCH  38  39
ENDBRANCH  30  33
ENDBRANCH  28  29
ENDBRANCH   1  28
TORSDOF 16
ENDMDL
