MODEL 1
REMARK VINA RESULT:     -12.4      0.000      0.000
REMARK SMILES C[C@@H](C(=O)NCCCNC(=O)c1ccc(-c2c3nc(c(-c4cccc(S(=O)(=O)[O-])c4F)c4ccc([nH]4)c(-c4cccc(S(=O)(=O)[O-])c4F)c4nc(c(-c5cccc(S(=O)(=O)[O-])c5F)c5ccc2[nH]5)C=C4)C=C3)cc1)c1cc(/C=C/S(C)(=O)=O)cc(C(=O)c2ccccc2)c1
REMARK SMILES IDX 7 1 6 2 5 3 3 4 4 5 2 7 1 8 75 9 76 10 94 11 77 12 85 13
REMARK SMILES IDX 84 14 78 15 79 16 80 17 81 18 82 19 83 20 86 21 87 22 88 23
REMARK SMILES IDX 89 24 93 25 90 26 92 27 91 28 8 29 9 30 10 31 11 33 12 34
REMARK SMILES IDX 13 35 74 36 14 37 73 38 15 39 16 40 17 41 67 42 18 43 72 44
REMARK SMILES IDX 66 45 68 46 19 47 71 48 65 49 64 50 20 52 52 53 32 54 51 55
REMARK SMILES IDX 33 56 36 57 50 58 69 59 34 60 35 61 49 63 70 64 37 65 21 66
REMARK SMILES IDX 22 67 30 68 23 69 25 70 31 71 24 72 26 73 27 74 28 75 29 76
REMARK SMILES IDX 53 77 54 78 62 79 55 80 57 81 63 82 56 83 58 84 59 85 60 86
REMARK SMILES IDX 61 87 38 88 39 89 47 90 40 91 42 92 48 93 41 94 43 95 44 96
REMARK SMILES IDX 45 97 46 98
REMARK H PARENT 5 6 9 32 68 51 36 62
REMARK Flexibility Score: inf
ROOT
ATOM      1  C   UNL A   1      38.628  20.105  24.997  1.00  0.00     0.042 C 
ENDROOT
BRANCH   1   2
ATOM      2  C   UNL A   1      37.922  21.450  25.142  1.00  0.00     0.117 C 
BRANCH   2   3
ATOM      3  N   UNL A   1      37.466  21.952  23.860  1.00  0.00    -0.356 N 
ATOM      4  C   UNL A   1      36.506  22.879  23.575  1.00  0.00     0.227 C 
ATOM      5  O   UNL A   1      36.250  23.080  22.387  1.00  0.00    -0.274 OA
ATOM      6  H   UNL A   1      37.919  21.566  23.075  1.00  0.00     0.163 HD
BRANCH   4   7
ATOM      7  C   UNL A   1      35.842  23.657  24.718  1.00  0.00     0.105 C 
ATOM      8  C   UNL A   1      36.791  23.875  25.906  1.00  0.00     0.023 C 
BRANCH   7   9
ATOM      9  C   UNL A   1      34.540  23.006  25.174  1.00  0.00    -0.035 A 
ATOM     10  C   UNL A   1      34.342  21.626  25.012  1.00  0.00     0.012 A 
ATOM     11  C   UNL A   1      33.509  23.768  25.730  1.00  0.00     0.016 A 
ATOM     12  C   UNL A   1      33.117  21.018  25.329  1.00  0.00    -0.024 A 
ATOM     13  C   UNL A   1      32.253  23.210  25.970  1.00  0.00     0.023 A 
ATOM     14  C   UNL A   1      32.067  21.832  25.788  1.00  0.00     0.020 A 
BRANCH  12  15
ATOM     15  C   UNL A   1      32.869  19.573  25.140  1.00  0.00     0.020 C 
ATOM     16  C   UNL A   1      33.744  18.701  24.613  1.00  0.00     0.106 C 
BRANCH  16  17
ATOM     17  S   UNL A   1      33.305  17.038  24.380  1.00  0.00     0.168 S 
ATOM     18  C   UNL A   1      34.621  16.212  25.246  1.00  0.00     0.163 C 
ATOM     19  O   UNL A   1      32.086  16.777  25.118  1.00  0.00    -0.225 OA
ATOM     20  O   UNL A   1      33.418  16.664  22.982  1.00  0.00    -0.225 OA
ENDBRANCH  16  17
ENDBRANCH  12  15
BRANCH  13  21
ATOM     21  C   UNL A   1      31.109  24.073  26.392  1.00  0.00     0.193 C 
ATOM     22  O   UNL A   1      30.322  23.685  27.250  1.00  0.00    -0.289 OA
BRANCH  21  23
ATOM     23  C   UNL A   1      30.917  25.416  25.783  1.00  0.00     0.022 A 
ATOM     24  C   UNL A   1      31.474  26.526  26.424  1.00  0.00     0.012 A 
ATOM     25  C   UNL A   1      30.243  25.572  24.562  1.00  0.00     0.012 A 
ATOM     26  C   UNL A   1      31.404  27.782  25.816  1.00  0.00     0.001 A 
ATOM     27  C   UNL A   1      30.184  26.829  23.957  1.00  0.00     0.001 A 
ATOM     28  C   UNL A   1      30.771  27.930  24.581  1.00  0.00     0.000 A 
ENDBRANCH  21  23
ENDBRANCH  13  21
ENDBRANCH   7   9
ENDBRANCH   4   7
ENDBRANCH   2   3
ENDBRANCH   1   2
BRANCH   1  29
ATOM     29  C   UNL A   1      39.147  19.539  26.313  1.00  0.00     0.118 C 
BRANCH  29  30
ATOM     30  N   UNL A   1      40.406  18.827  26.150  1.00  0.00    -0.352 N 
ATOM     31  C   UNL A   1      41.686  19.310  26.056  1.00  0.00     0.251 C 
ATOM     32  H   UNL A   1      40.326  17.847  26.100  1.00  0.00     0.163 HD
ATOM     33  O   UNL A   1      42.588  18.556  25.701  1.00  0.00    -0.269 OA
BRANCH  31  34
ATOM     34  C   UNL A   1      41.977  20.728  26.363  1.00  0.00     0.039 A 
ATOM     35  C   UNL A   1      42.322  21.076  27.671  1.00  0.00     0.014 A 
ATOM     36  C   UNL A   1      41.887  21.714  25.377  1.00  0.00     0.014 A 
ATOM     37  C   UNL A   1      42.633  22.402  27.976  1.00  0.00     0.010 A 
ATOM     38  C   UNL A   1      42.276  23.020  25.664  1.00  0.00     0.010 A 
ATOM     39  C   UNL A   1      42.648  23.380  26.967  1.00  0.00    -0.014 A 
BRANCH  39  40
ATOM     40  C   UNL A   1      43.070  24.775  27.255  1.00  0.00     0.031 A 
ATOM     41  C   UNL A   1      42.125  25.738  27.921  1.00  0.00     0.074 A 
ATOM     42  C   UNL A   1      44.283  25.198  26.842  1.00  0.00     0.049 A 
ATOM     43  N   UNL A   1      42.303  27.003  28.204  1.00  0.00    -0.248 NA
ATOM     44  C   UNL A   1      40.798  25.222  28.299  1.00  0.00     0.031 C 
ATOM     45  C   UNL A   1      45.262  24.382  26.120  1.00  0.00     0.029 A 
ATOM     46  N   UNL A   1      44.890  26.424  26.948  1.00  0.00    -0.354 N 
ATOM     47  C   UNL A   1      41.106  27.442  28.759  1.00  0.00     0.074 A 
ATOM     48  C   UNL A   1      40.197  26.317  28.745  1.00  0.00     0.031 C 
ATOM     49  C   UNL A   1      46.346  25.126  25.852  1.00  0.00     0.029 A 
ATOM     50  C   UNL A   1      46.126  26.482  26.347  1.00  0.00     0.049 A 
ATOM     51  H   UNL A   1      44.479  27.191  27.408  1.00  0.00     0.167 HD
ATOM     52  C   UNL A   1      40.799  28.663  29.256  1.00  0.00     0.034 A 
ATOM     53  C   UNL A   1      46.982  27.511  26.195  1.00  0.00     0.034 A 
ATOM     54  C   UNL A   1      41.716  29.770  29.298  1.00  0.00     0.049 A 
ATOM     55  C   UNL A   1      46.622  28.852  26.779  1.00  0.00     0.074 A 
ATOM     56  C   UNL A   1      41.527  31.021  29.859  1.00  0.00     0.029 A 
ATOM     57  N   UNL A   1      42.987  29.769  28.746  1.00  0.00    -0.354 N 
ATOM     58  N   UNL A   1      45.545  29.202  27.439  1.00  0.00    -0.248 NA
ATOM     59  C   UNL A   1      47.611  29.929  26.629  1.00  0.00     0.031 C 
ATOM     60  C   UNL A   1      42.670  31.788  29.613  1.00  0.00     0.029 A 
ATOM     61  C   UNL A   1      43.588  31.001  28.939  1.00  0.00     0.049 A 
ATOM     62  H   UNL A   1      43.402  29.004  28.285  1.00  0.00     0.167 HD
ATOM     63  C   UNL A   1      45.744  30.525  27.817  1.00  0.00     0.074 A 
ATOM     64  C   UNL A   1      47.054  30.906  27.331  1.00  0.00     0.031 C 
ATOM     65  C   UNL A   1      44.913  31.353  28.496  1.00  0.00     0.034 A 
BRANCH  52  66
ATOM     66  C   UNL A   1      39.422  28.865  29.836  1.00  0.00     0.023 A 
ATOM     67  C   UNL A   1      39.138  28.404  31.138  1.00  0.00     0.012 A 
ATOM     68  C   UNL A   1      38.438  29.580  29.125  1.00  0.00     0.148 A 
ATOM     69  C   UNL A   1      37.886  28.625  31.711  1.00  0.00     0.002 A 
ATOM     70  C   UNL A   1      37.209  29.837  29.722  1.00  0.00     0.091 A 
ATOM     71  F   UNL A   1      38.721  29.993  27.882  1.00  0.00    -0.205 F 
ATOM     72  C   UNL A   1      36.928  29.350  31.009  1.00  0.00     0.022 A 
BRANCH  70  73
ATOM     73  S   UNL A   1      35.938  30.833  28.936  1.00  0.00     0.127 S 
ATOM     74  O   UNL A   1      35.153  31.272  30.089  1.00  0.00    -0.237 OA
ATOM     75  O   UNL A   1      36.727  31.888  28.299  1.00  0.00    -0.237 OA
ATOM     76  O   UNL A   1      35.245  29.948  28.012  1.00  0.00    -0.744 OA
ENDBRANCH  70  73
ENDBRANCH  52  66
BRANCH  53  77
ATOM     77  C   UNL A   1      48.284  27.310  25.498  1.00  0.00     0.023 A 
ATOM     78  C   UNL A   1      49.421  26.934  26.240  1.00  0.00     0.012 A 
ATOM     79  C   UNL A   1      48.399  27.480  24.105  1.00  0.00     0.148 A 
ATOM     80  C   UNL A   1      50.657  26.776  25.614  1.00  0.00     0.002 A 
ATOM     81  C   UNL A   1      49.621  27.262  23.479  1.00  0.00     0.091 A 
ATOM     82  F   UNL A   1      47.308  27.846  23.417  1.00  0.00    -0.205 F 
ATOM     83  C   UNL A   1      50.756  26.931  24.235  1.00  0.00     0.022 A 
BRANCH  81  84
ATOM     84  S   UNL A   1      49.808  27.305  21.694  1.00  0.00     0.127 S 
ATOM     85  O   UNL A   1      51.150  26.755  21.520  1.00  0.00    -0.237 OA
ATOM     86  O   UNL A   1      48.720  26.431  21.254  1.00  0.00    -0.237 OA
ATOM     87  O   UNL A   1      49.642  28.701  21.314  1.00  0.00    -0.744 OA
ENDBRANCH  81  84
ENDBRANCH  53  77
BRANCH  65  88
ATOM     88  C   UNL A   1      45.407  32.742  28.805  1.00  0.00     0.023 A 
ATOM     89  C   UNL A   1      46.130  32.991  29.988  1.00  0.00     0.012 A 
ATOM     90  C   UNL A   1      45.212  33.789  27.880  1.00  0.00     0.148 A 
ATOM     91  C   UNL A   1      46.617  34.268  30.266  1.00  0.00     0.002 A 
ATOM     92  C   UNL A   1      45.749  35.044  28.137  1.00  0.00     0.091 A 
ATOM     93  F   UNL A   1      44.508  33.535  26.767  1.00  0.00    -0.205 F 
ATOM     94  C   UNL A   1      46.438  35.289  29.335  1.00  0.00     0.022 A 
BRANCH  92  95
ATOM     95  S   UNL A   1      45.655  36.393  26.954  1.00  0.00     0.127 S 
ATOM     96  O   UNL A   1      46.284  35.799  25.776  1.00  0.00    -0.237 OA
ATOM     97  O   UNL A   1      44.211  36.599  26.837  1.00  0.00    -0.237 OA
ATOM     98  O   UNL A   1      46.379  37.506  27.554  1.00  0.00    -0.744 OA
ENDBRANCH  92  95
ENDBRANCH  65  88
ENDBRANCH  39  40
ENDBRANCH  31  34
ENDBRANCH  29  30
ENDBRANCH   1  29
TORSDOF 18
ENDMDL
MODEL 2
REMARK VINA RESULT:     -12.0      5.257      8.297
REMARK SMILES C[C@@H](C(=O)NCCCNC(=O)c1ccc(-c2c3nc(c(-c4cccc(S(=O)(=O)[O-])c4F)c4ccc([nH]4)c(-c4cccc(S(=O)(=O)[O-])c4F)c4nc(c(-c5cccc(S(=O)(=O)[O-])c5F)c5ccc2[nH]5)C=C4)C=C3)cc1)c1cc(/C=C/S(C)(=O)=O)cc(C(=O)c2ccccc2)c1
REMARK SMILES IDX 7 1 6 2 5 3 3 4 4 5 2 7 1 8 75 9 76 10 94 11 77 12 85 13
REMARK SMILES IDX 84 14 78 15 79 16 80 17 81 18 82 19 83 20 86 21 87 22 88 23
REMARK SMILES IDX 89 24 93 25 90 26 92 27 91 28 8 29 9 30 10 31 11 33 12 34
REMARK SMILES IDX 13 35 74 36 14 37 73 38 15 39 16 40 17 41 67 42 18 43 72 44
REMARK SMILES IDX 66 45 68 46 19 47 71 48 65 49 64 50 20 52 52 53 32 54 51 55
REMARK SMILES IDX 33 56 36 57 50 58 69 59 34 60 35 61 49 63 70 64 37 65 21 66
REMARK SMILES IDX 22 67 30 68 23 69 25 70 31 71 24 72 26 73 27 74 28 75 29 76
REMARK SMILES IDX 53 77 54 78 62 79 55 80 57 81 63 82 56 83 58 84 59 85 60 86
REMARK SMILES IDX 61 87 38 88 39 89 47 90 40 91 42 92 48 93 41 94 43 95 44 96
REMARK SMILES IDX 45 97 46 98
REMARK H PARENT 5 6 9 32 68 51 36 62
REMARK Flexibility Score: inf
ROOT
ATOM      1  C   UNL A   1      31.650  28.155  25.674  1.00  0.00     0.042 C 
ENDROOT
BRANCH   1   2
ATOM      2  C   UNL A   1      31.845  26.642  25.713  1.00  0.00     0.117 C 
BRANCH   2   3
ATOM      3  N   UNL A   1      31.145  25.988  24.624  1.00  0.00    -0.356 N 
ATOM      4  C   UNL A   1      30.928  24.660  24.396  1.00  0.00     0.227 C 
ATOM      5  O   UNL A   1      30.363  24.353  23.346  1.00  0.00    -0.274 OA
ATOM      6  H   UNL A   1      30.768  26.595  23.946  1.00  0.00     0.163 HD
BRANCH   4   7
ATOM      7  C   UNL A   1      31.335  23.633  25.460  1.00  0.00     0.105 C 
ATOM      8  C   UNL A   1      31.687  24.290  26.803  1.00  0.00     0.023 C 
BRANCH   7   9
ATOM      9  C   UNL A   1      32.469  22.731  24.981  1.00  0.00    -0.035 A 
ATOM     10  C   UNL A   1      32.318  21.336  24.994  1.00  0.00     0.012 A 
ATOM     11  C   UNL A   1      33.685  23.269  24.553  1.00  0.00     0.016 A 
ATOM     12  C   UNL A   1      33.380  20.480  24.656  1.00  0.00    -0.024 A 
ATOM     13  C   UNL A   1      34.783  22.446  24.297  1.00  0.00     0.023 A 
ATOM     14  C   UNL A   1      34.621  21.054  24.330  1.00  0.00     0.020 A 
BRANCH  12  15
ATOM     15  C   UNL A   1      33.261  19.008  24.691  1.00  0.00     0.020 C 
ATOM     16  C   UNL A   1      34.255  18.145  24.425  1.00  0.00     0.106 C 
BRANCH  16  17
ATOM     17  S   UNL A   1      33.968  16.433  24.432  1.00  0.00     0.168 S 
ATOM     18  C   UNL A   1      35.377  15.853  25.347  1.00  0.00     0.163 C 
ATOM     19  O   UNL A   1      32.799  16.167  25.244  1.00  0.00    -0.225 OA
ATOM     20  O   UNL A   1      34.078  15.886  23.092  1.00  0.00    -0.225 OA
ENDBRANCH  16  17
ENDBRANCH  12  15
BRANCH  13  21
ATOM     21  C   UNL A   1      36.125  23.039  24.017  1.00  0.00     0.193 C 
ATOM     22  O   UNL A   1      36.364  23.545  22.925  1.00  0.00    -0.289 OA
BRANCH  21  23
ATOM     23  C   UNL A   1      37.183  23.030  25.062  1.00  0.00     0.022 A 
ATOM     24  C   UNL A   1      37.992  21.897  25.183  1.00  0.00     0.012 A 
ATOM     25  C   UNL A   1      37.411  24.149  25.878  1.00  0.00     0.012 A 
ATOM     26  C   UNL A   1      39.063  21.905  26.081  1.00  0.00     0.001 A 
ATOM     27  C   UNL A   1      38.487  24.153  26.767  1.00  0.00     0.001 A 
ATOM     28  C   UNL A   1      39.316  23.034  26.861  1.00  0.00     0.000 A 
ENDBRANCH  21  23
ENDBRANCH  13  21
ENDBRANCH   7   9
ENDBRANCH   4   7
ENDBRANCH   2   3
ENDBRANCH   1   2
BRANCH   1  29
ATOM     29  C   UNL A   1      32.942  28.944  25.847  1.00  0.00     0.118 C 
BRANCH  29  30
ATOM     30  N   UNL A   1      32.696  30.350  26.136  1.00  0.00    -0.352 N 
ATOM     31  C   UNL A   1      33.333  31.194  27.010  1.00  0.00     0.251 C 
ATOM     32  H   UNL A   1      31.961  30.758  25.623  1.00  0.00     0.163 HD
ATOM     33  O   UNL A   1      32.831  32.286  27.263  1.00  0.00    -0.269 OA
BRANCH  31  34
ATOM     34  C   UNL A   1      34.602  30.790  27.654  1.00  0.00     0.039 A 
ATOM     35  C   UNL A   1      35.587  31.758  27.863  1.00  0.00     0.014 A 
ATOM     36  C   UNL A   1      34.833  29.463  28.026  1.00  0.00     0.014 A 
ATOM     37  C   UNL A   1      36.780  31.406  28.499  1.00  0.00     0.010 A 
ATOM     38  C   UNL A   1      35.986  29.132  28.732  1.00  0.00     0.010 A 
ATOM     39  C   UNL A   1      36.975  30.097  28.972  1.00  0.00    -0.014 A 
BRANCH  39  40
ATOM     40  C   UNL A   1      38.195  29.730  29.736  1.00  0.00     0.031 A 
ATOM     41  C   UNL A   1      38.432  30.287  31.113  1.00  0.00     0.074 A 
ATOM     42  C   UNL A   1      39.131  28.953  29.153  1.00  0.00     0.049 A 
ATOM     43  N   UNL A   1      39.461  30.117  31.904  1.00  0.00    -0.248 NA
ATOM     44  C   UNL A   1      37.392  31.170  31.668  1.00  0.00     0.031 C 
ATOM     45  C   UNL A   1      39.053  28.411  27.794  1.00  0.00     0.029 A 
ATOM     46  N   UNL A   1      40.343  28.506  29.616  1.00  0.00    -0.354 N 
ATOM     47  C   UNL A   1      39.209  30.894  33.029  1.00  0.00     0.074 A 
ATOM     48  C   UNL A   1      37.945  31.561  32.807  1.00  0.00     0.031 C 
ATOM     49  C   UNL A   1      40.163  27.702  27.537  1.00  0.00     0.029 A 
ATOM     50  C   UNL A   1      41.050  27.770  28.694  1.00  0.00     0.049 A 
ATOM     51  H   UNL A   1      40.676  28.695  30.523  1.00  0.00     0.167 HD
ATOM     52  C   UNL A   1      39.951  31.021  34.155  1.00  0.00     0.034 A 
ATOM     53  C   UNL A   1      42.279  27.223  28.762  1.00  0.00     0.034 A 
ATOM     54  C   UNL A   1      41.191  30.331  34.385  1.00  0.00     0.049 A 
ATOM     55  C   UNL A   1      43.070  27.363  30.036  1.00  0.00     0.074 A 
ATOM     56  C   UNL A   1      41.973  30.327  35.528  1.00  0.00     0.029 A 
ATOM     57  N   UNL A   1      41.840  29.533  33.456  1.00  0.00    -0.354 N 
ATOM     58  N   UNL A   1      42.743  27.975  31.148  1.00  0.00    -0.248 NA
ATOM     59  C   UNL A   1      44.385  26.707  30.076  1.00  0.00     0.031 C 
ATOM     60  C   UNL A   1      43.114  29.559  35.275  1.00  0.00     0.029 A 
ATOM     61  C   UNL A   1      43.020  29.046  33.992  1.00  0.00     0.049 A 
ATOM     62  H   UNL A   1      41.510  29.341  32.548  1.00  0.00     0.167 HD
ATOM     63  C   UNL A   1      43.790  27.743  32.032  1.00  0.00     0.074 A 
ATOM     64  C   UNL A   1      44.752  26.917  31.333  1.00  0.00     0.031 C 
ATOM     65  C   UNL A   1      43.946  28.182  33.305  1.00  0.00     0.034 A 
BRANCH  52  66
ATOM     66  C   UNL A   1      39.426  31.914  35.250  1.00  0.00     0.023 A 
ATOM     67  C   UNL A   1      38.523  31.396  36.202  1.00  0.00     0.012 A 
ATOM     68  C   UNL A   1      39.888  33.238  35.386  1.00  0.00     0.148 A 
ATOM     69  C   UNL A   1      38.065  32.191  37.251  1.00  0.00     0.002 A 
ATOM     70  C   UNL A   1      39.464  34.008  36.461  1.00  0.00     0.091 A 
ATOM     71  F   UNL A   1      40.732  33.717  34.461  1.00  0.00    -0.205 F 
ATOM     72  C   UNL A   1      38.543  33.491  37.387  1.00  0.00     0.022 A 
BRANCH  70  73
ATOM     73  S   UNL A   1      40.084  35.664  36.774  1.00  0.00     0.127 S 
ATOM     74  O   UNL A   1      39.545  36.402  35.632  1.00  0.00    -0.237 OA
ATOM     75  O   UNL A   1      39.459  35.987  38.057  1.00  0.00    -0.237 OA
ATOM     76  O   UNL A   1      41.535  35.552  36.814  1.00  0.00    -0.744 OA
ENDBRANCH  70  73
ENDBRANCH  52  66
BRANCH  53  77
ATOM     77  C   UNL A   1      42.825  26.455  27.608  1.00  0.00     0.023 A 
ATOM     78  C   UNL A   1      43.473  27.139  26.560  1.00  0.00     0.012 A 
ATOM     79  C   UNL A   1      42.713  25.053  27.545  1.00  0.00     0.148 A 
ATOM     80  C   UNL A   1      43.960  26.445  25.452  1.00  0.00     0.002 A 
ATOM     81  C   UNL A   1      43.253  24.362  26.468  1.00  0.00     0.091 A 
ATOM     82  F   UNL A   1      42.086  24.421  28.548  1.00  0.00    -0.205 F 
ATOM     83  C   UNL A   1      43.858  25.058  25.409  1.00  0.00     0.022 A 
BRANCH  81  84
ATOM     84  S   UNL A   1      43.289  22.568  26.397  1.00  0.00     0.127 S 
ATOM     85  O   UNL A   1      42.654  22.205  27.661  1.00  0.00    -0.237 OA
ATOM     86  O   UNL A   1      42.489  22.296  25.203  1.00  0.00    -0.237 OA
ATOM     87  O   UNL A   1      44.695  22.207  26.269  1.00  0.00    -0.744 OA
ENDBRANCH  81  84
ENDBRANCH  53  77
BRANCH  65  88
ATOM     88  C   UNL A   1      45.178  27.743  34.052  1.00  0.00     0.023 A 
ATOM     89  C   UNL A   1      46.337  28.543  34.040  1.00  0.00     0.012 A 
ATOM     90  C   UNL A   1      45.158  26.565  34.827  1.00  0.00     0.148 A 
ATOM     91  C   UNL A   1      47.471  28.158  34.755  1.00  0.00     0.002 A 
ATOM     92  C   UNL A   1      46.272  26.218  35.581  1.00  0.00     0.091 A 
ATOM     93  F   UNL A   1      44.050  25.809  34.813  1.00  0.00    -0.205 F 
ATOM     94  C   UNL A   1      47.433  27.004  35.534  1.00  0.00     0.022 A 
BRANCH  92  95
ATOM     95  S   UNL A   1      46.282  24.805  36.690  1.00  0.00     0.127 S 
ATOM     96  O   UNL A   1      46.114  23.693  35.757  1.00  0.00    -0.237 OA
ATOM     97  O   UNL A   1      47.610  24.899  37.296  1.00  0.00    -0.237 OA
ATOM     98  O   UNL A   1      45.177  25.012  37.617  1.00  0.00    -0.744 OA
ENDBRANCH  92  95
ENDBRANCH  65  88
ENDBRANCH  39  40
ENDBRANCH  31  34
ENDBRANCH  29  30
ENDBRANCH   1  29
TORSDOF 18
ENDMDL
MODEL 3
REMARK VINA RESULT:     -11.9      3.131      8.879
REMARK SMILES C[C@@H](C(=O)NCCCNC(=O)c1ccc(-c2c3nc(c(-c4cccc(S(=O)(=O)[O-])c4F)c4ccc([nH]4)c(-c4cccc(S(=O)(=O)[O-])c4F)c4nc(c(-c5cccc(S(=O)(=O)[O-])c5F)c5ccc2[nH]5)C=C4)C=C3)cc1)c1cc(/C=C/S(C)(=O)=O)cc(C(=O)c2ccccc2)c1
REMARK SMILES IDX 7 1 6 2 5 3 3 4 4 5 2 7 1 8 75 9 76 10 94 11 77 12 85 13
REMARK SMILES IDX 84 14 78 15 79 16 80 17 81 18 82 19 83 20 86 21 87 22 88 23
REMARK SMILES IDX 89 24 93 25 90 26 92 27 91 28 8 29 9 30 10 31 11 33 12 34
REMARK SMILES IDX 13 35 74 36 14 37 73 38 15 39 16 40 17 41 67 42 18 43 72 44
REMARK SMILES IDX 66 45 68 46 19 47 71 48 65 49 64 50 20 52 52 53 32 54 51 55
REMARK SMILES IDX 33 56 36 57 50 58 69 59 34 60 35 61 49 63 70 64 37 65 21 66
REMARK SMILES IDX 22 67 30 68 23 69 25 70 31 71 24 72 26 73 27 74 28 75 29 76
REMARK SMILES IDX 53 77 54 78 62 79 55 80 57 81 63 82 56 83 58 84 59 85 60 86
REMARK SMILES IDX 61 87 38 88 39 89 47 90 40 91 42 92 48 93 41 94 43 95 44 96
REMARK SMILES IDX 45 97 46 98
REMARK H PARENT 5 6 9 32 68 51 36 62
REMARK Flexibility Score: inf
ROOT
ATOM      1  C   UNL A   1      36.149  22.803  24.429  1.00  0.00     0.042 C 
ENDROOT
BRANCH   1   2
ATOM      2  C   UNL A   1      35.444  24.110  24.078  1.00  0.00     0.117 C 
BRANCH   2   3
ATOM      3  N   UNL A   1      34.036  23.897  23.807  1.00  0.00    -0.356 N 
ATOM      4  C   UNL A   1      32.941  24.260  24.537  1.00  0.00     0.227 C 
ATOM      5  O   UNL A   1      31.840  23.893  24.123  1.00  0.00    -0.274 OA
ATOM      6  H   UNL A   1      33.839  23.419  22.969  1.00  0.00     0.163 HD
BRANCH   4   7
ATOM      7  C   UNL A   1      33.117  25.141  25.779  1.00  0.00     0.105 C 
ATOM      8  C   UNL A   1      32.102  24.806  26.883  1.00  0.00     0.023 C 
BRANCH   7   9
ATOM      9  C   UNL A   1      33.077  26.628  25.437  1.00  0.00    -0.035 A 
ATOM     10  C   UNL A   1      33.720  27.563  26.263  1.00  0.00     0.012 A 
ATOM     11  C   UNL A   1      32.378  27.092  24.320  1.00  0.00     0.016 A 
ATOM     12  C   UNL A   1      33.614  28.944  26.029  1.00  0.00    -0.024 A 
ATOM     13  C   UNL A   1      32.181  28.458  24.112  1.00  0.00     0.023 A 
ATOM     14  C   UNL A   1      32.817  29.380  24.956  1.00  0.00     0.020 A 
BRANCH  12  15
ATOM     15  C   UNL A   1      34.254  29.952  26.899  1.00  0.00     0.020 C 
ATOM     16  C   UNL A   1      33.693  31.111  27.283  1.00  0.00     0.106 C 
BRANCH  16  17
ATOM     17  S   UNL A   1      34.578  32.246  28.252  1.00  0.00     0.168 S 
ATOM     18  C   UNL A   1      33.542  33.685  28.128  1.00  0.00     0.163 C 
ATOM     19  O   UNL A   1      34.529  31.808  29.632  1.00  0.00    -0.225 OA
ATOM     20  O   UNL A   1      35.845  32.581  27.628  1.00  0.00    -0.225 OA
ENDBRANCH  16  17
ENDBRANCH  12  15
BRANCH  13  21
ATOM     21  C   UNL A   1      31.283  28.936  23.020  1.00  0.00     0.193 C 
ATOM     22  O   UNL A   1      31.754  29.384  21.979  1.00  0.00    -0.289 OA
BRANCH  21  23
ATOM     23  C   UNL A   1      29.806  28.868  23.179  1.00  0.00     0.022 A 
ATOM     24  C   UNL A   1      29.063  30.043  23.035  1.00  0.00     0.012 A 
ATOM     25  C   UNL A   1      29.154  27.648  23.412  1.00  0.00     0.012 A 
ATOM     26  C   UNL A   1      27.668  29.988  23.070  1.00  0.00     0.001 A 
ATOM     27  C   UNL A   1      27.759  27.599  23.439  1.00  0.00     0.001 A 
ATOM     28  C   UNL A   1      27.018  28.767  23.259  1.00  0.00     0.000 A 
ENDBRANCH  21  23
ENDBRANCH  13  21
ENDBRANCH   7   9
ENDBRANCH   4   7
ENDBRANCH   2   3
ENDBRANCH   1   2
BRANCH   1  29
ATOM     29  C   UNL A   1      36.717  22.773  25.843  1.00  0.00     0.118 C 
BRANCH  29  30
ATOM     30  N   UNL A   1      37.674  21.691  26.031  1.00  0.00    -0.352 N 
ATOM     31  C   UNL A   1      39.022  21.741  26.278  1.00  0.00     0.251 C 
ATOM     32  H   UNL A   1      37.294  20.785  25.973  1.00  0.00     0.163 HD
ATOM     33  O   UNL A   1      39.688  20.714  26.187  1.00  0.00    -0.269 OA
BRANCH  31  34
ATOM     34  C   UNL A   1      39.673  23.021  26.636  1.00  0.00     0.039 A 
ATOM     35  C   UNL A   1      40.696  23.013  27.586  1.00  0.00     0.014 A 
ATOM     36  C   UNL A   1      39.262  24.226  26.060  1.00  0.00     0.014 A 
ATOM     37  C   UNL A   1      41.347  24.204  27.915  1.00  0.00     0.010 A 
ATOM     38  C   UNL A   1      39.966  25.398  26.327  1.00  0.00     0.010 A 
ATOM     39  C   UNL A   1      41.012  25.402  27.261  1.00  0.00    -0.014 A 
BRANCH  39  40
ATOM     40  C   UNL A   1      41.758  26.658  27.528  1.00  0.00     0.031 A 
ATOM     41  C   UNL A   1      43.198  26.795  27.112  1.00  0.00     0.074 A 
ATOM     42  C   UNL A   1      41.158  27.650  28.217  1.00  0.00     0.049 A 
ATOM     43  N   UNL A   1      44.019  27.795  27.307  1.00  0.00    -0.248 NA
ATOM     44  C   UNL A   1      43.805  25.652  26.408  1.00  0.00     0.031 C 
ATOM     45  C   UNL A   1      39.790  27.609  28.739  1.00  0.00     0.029 A 
ATOM     46  N   UNL A   1      41.629  28.875  28.621  1.00  0.00    -0.354 N 
ATOM     47  C   UNL A   1      45.242  27.392  26.783  1.00  0.00     0.074 A 
ATOM     48  C   UNL A   1      45.066  26.044  26.289  1.00  0.00     0.031 C 
ATOM     49  C   UNL A   1      39.531  28.755  29.388  1.00  0.00     0.029 A 
ATOM     50  C   UNL A   1      40.723  29.596  29.364  1.00  0.00     0.049 A 
ATOM     51  H   UNL A   1      42.530  29.205  28.401  1.00  0.00     0.167 HD
ATOM     52  C   UNL A   1      46.400  28.089  26.699  1.00  0.00     0.034 A 
ATOM     53  C   UNL A   1      40.841  30.793  29.972  1.00  0.00     0.034 A 
ATOM     54  C   UNL A   1      46.562  29.441  27.162  1.00  0.00     0.049 A 
ATOM     55  C   UNL A   1      42.133  31.554  29.840  1.00  0.00     0.074 A 
ATOM     56  C   UNL A   1      47.671  30.262  27.043  1.00  0.00     0.029 A 
ATOM     57  N   UNL A   1      45.599  30.168  27.843  1.00  0.00    -0.354 N 
ATOM     58  N   UNL A   1      43.229  31.217  29.204  1.00  0.00    -0.248 NA
ATOM     59  C   UNL A   1      42.194  32.875  30.481  1.00  0.00     0.031 C 
ATOM     60  C   UNL A   1      47.390  31.471  27.687  1.00  0.00     0.029 A 
ATOM     61  C   UNL A   1      46.092  31.420  28.166  1.00  0.00     0.049 A 
ATOM     62  H   UNL A   1      44.697  29.841  28.064  1.00  0.00     0.167 HD
ATOM     63  C   UNL A   1      44.092  32.299  29.332  1.00  0.00     0.074 A 
ATOM     64  C   UNL A   1      43.384  33.310  30.089  1.00  0.00     0.031 C 
ATOM     65  C   UNL A   1      45.360  32.439  28.874  1.00  0.00     0.034 A 
BRANCH  52  66
ATOM     66  C   UNL A   1      47.582  27.419  26.046  1.00  0.00     0.023 A 
ATOM     67  C   UNL A   1      47.808  27.592  24.664  1.00  0.00     0.012 A 
ATOM     68  C   UNL A   1      48.512  26.689  26.812  1.00  0.00     0.148 A 
ATOM     69  C   UNL A   1      48.923  27.023  24.051  1.00  0.00     0.002 A 
ATOM     70  C   UNL A   1      49.646  26.165  26.203  1.00  0.00     0.091 A 
ATOM     71  F   UNL A   1      48.269  26.521  28.120  1.00  0.00    -0.205 F 
ATOM     72  C   UNL A   1      49.846  26.320  24.822  1.00  0.00     0.022 A 
BRANCH  70  73
ATOM     73  S   UNL A   1      50.936  25.317  27.119  1.00  0.00     0.127 S 
ATOM     74  O   UNL A   1      50.184  24.238  27.758  1.00  0.00    -0.237 OA
ATOM     75  O   UNL A   1      51.835  24.883  26.049  1.00  0.00    -0.237 OA
ATOM     76  O   UNL A   1      51.502  26.304  28.028  1.00  0.00    -0.744 OA
ENDBRANCH  70  73
ENDBRANCH  52  66
BRANCH  53  77
ATOM     77  C   UNL A   1      39.691  31.370  30.724  1.00  0.00     0.023 A 
ATOM     78  C   UNL A   1      38.677  32.055  30.027  1.00  0.00     0.012 A 
ATOM     79  C   UNL A   1      39.593  31.237  32.122  1.00  0.00     0.148 A 
ATOM     80  C   UNL A   1      37.610  32.636  30.714  1.00  0.00     0.002 A 
ATOM     81  C   UNL A   1      38.497  31.765  32.793  1.00  0.00     0.091 A 
ATOM     82  F   UNL A   1      40.573  30.588  32.768  1.00  0.00    -0.205 F 
ATOM     83  C   UNL A   1      37.515  32.483  32.094  1.00  0.00     0.022 A 
BRANCH  81  84
ATOM     84  S   UNL A   1      38.225  31.498  34.548  1.00  0.00     0.127 S 
ATOM     85  O   UNL A   1      36.956  32.190  34.763  1.00  0.00    -0.237 OA
ATOM     86  O   UNL A   1      38.153  30.038  34.625  1.00  0.00    -0.237 OA
ATOM     87  O   UNL A   1      39.382  32.076  35.219  1.00  0.00    -0.744 OA
ENDBRANCH  81  84
ENDBRANCH  53  77
BRANCH  65  88
ATOM     88  C   UNL A   1      46.056  33.750  29.130  1.00  0.00     0.023 A 
ATOM     89  C   UNL A   1      46.850  33.918  30.282  1.00  0.00     0.012 A 
ATOM     90  C   UNL A   1      45.978  34.793  28.185  1.00  0.00     0.148 A 
ATOM     91  C   UNL A   1      47.523  35.118  30.509  1.00  0.00     0.002 A 
ATOM     92  C   UNL A   1      46.696  35.964  28.391  1.00  0.00     0.091 A 
ATOM     93  F   UNL A   1      45.205  34.620  27.103  1.00  0.00    -0.205 F 
ATOM     94  C   UNL A   1      47.457  36.135  29.558  1.00  0.00     0.022 A 
BRANCH  92  95
ATOM     95  S   UNL A   1      46.751  37.288  27.177  1.00  0.00     0.127 S 
ATOM     96  O   UNL A   1      47.110  36.561  25.961  1.00  0.00    -0.237 OA
ATOM     97  O   UNL A   1      45.377  37.789  27.206  1.00  0.00    -0.237 OA
ATOM     98  O   UNL A   1      47.751  38.233  27.656  1.00  0.00    -0.744 OA
ENDBRANCH  92  95
ENDBRANCH  65  88
ENDBRANCH  39  40
ENDBRANCH  31  34
ENDBRANCH  29  30
ENDBRANCH   1  29
TORSDOF 18
ENDMDL
