MODEL 1
REMARK VINA RESULT:     -11.7      0.000      0.000
REMARK SMILES Cn1cccc1C[NH2+]Cc1ccc(C(=O)NCCCNC(=O)c2ccc(-c3c4nc(c(-c5cccc(S(=O)(=O)[O-])c5F)c5ccc([nH]5)c(-c5cccc(S(=O)(=O)[O-])c5F)c5nc(c(-c6cccc(S(=O)(=O)[O-])c6F)c6ccc3[nH]6)C=C5)C=C4)cc2)cc1
REMARK SMILES IDX 17 1 16 2 14 3 15 4 13 6 10 7 11 8 87 9 12 10 86 11 9 12
REMARK SMILES IDX 8 13 7 16 6 17 1 18 2 19 3 20 4 21 5 22 18 23 19 24 20 25
REMARK SMILES IDX 21 26 22 28 23 29 24 30 85 31 25 32 84 33 26 34 27 35 28 36
REMARK SMILES IDX 78 37 29 38 83 39 77 40 79 41 30 42 82 43 76 44 75 45 31 47
REMARK SMILES IDX 63 48 43 49 62 50 44 51 47 52 61 53 80 54 45 55 46 56 60 58
REMARK SMILES IDX 81 59 48 60 32 61 33 62 41 63 34 64 36 65 42 66 35 67 37 68
REMARK SMILES IDX 38 69 39 70 40 71 64 72 65 73 73 74 66 75 68 76 74 77 67 78
REMARK SMILES IDX 69 79 70 80 71 81 72 82 49 83 50 84 58 85 51 86 53 87 59 88
REMARK SMILES IDX 52 89 54 90 55 91 56 92 57 93
REMARK H PARENT 16 5 8 14 8 15 20 27 79 46 47 57
REMARK Flexibility Score: inf
ROOT
ATOM      1  C   UNL A   1      35.409  20.448  24.997  1.00  0.00     0.118 C 
ENDROOT
BRANCH   1   2
ATOM      2  N   UNL A   1      34.336  19.528  25.337  1.00  0.00    -0.352 N 
ATOM      3  C   UNL A   1      32.975  19.647  25.195  1.00  0.00     0.251 C 
ATOM      4  O   UNL A   1      32.265  18.670  25.421  1.00  0.00    -0.269 OA
ATOM      5  H   UNL A   1      34.634  18.679  25.735  1.00  0.00     0.163 HD
BRANCH   3   6
ATOM      6  C   UNL A   1      32.353  20.902  24.705  1.00  0.00     0.039 A 
ATOM      7  C   UNL A   1      31.357  23.327  23.670  1.00  0.00     0.006 A 
ATOM      8  C   UNL A   1      31.829  22.321  22.812  1.00  0.00     0.010 A 
ATOM      9  C   UNL A   1      31.286  23.048  25.043  1.00  0.00     0.010 A 
ATOM     10  C   UNL A   1      32.324  21.119  23.324  1.00  0.00     0.014 A 
ATOM     11  C   UNL A   1      31.775  21.845  25.554  1.00  0.00     0.014 A 
BRANCH   7  12
ATOM     12  C   UNL A   1      30.896  24.646  23.085  1.00  0.00     0.297 C 
BRANCH  12  13
ATOM     13  N   UNL A   1      31.747  25.204  22.037  1.00  0.00    -0.338 N 
ATOM     14  H   UNL A   1      32.160  24.434  21.513  1.00  0.00     0.346 HD
ATOM     15  H   UNL A   1      31.152  25.798  21.459  1.00  0.00     0.346 HD
BRANCH  13  16
ATOM     16  C   UNL A   1      32.826  26.049  22.540  1.00  0.00     0.316 C 
BRANCH  16  17
ATOM     17  C   UNL A   1      32.225  27.171  23.331  1.00  0.00     0.072 A 
ATOM     18  C   UNL A   1      33.086  26.539  25.644  1.00  0.00     0.149 C 
ATOM     19  N   UNL A   1      32.360  27.352  24.693  1.00  0.00    -0.350 N 
ATOM     20  C   UNL A   1      31.664  28.476  25.076  1.00  0.00     0.085 A 
ATOM     21  C   UNL A   1      31.069  29.019  23.963  1.00  0.00     0.020 A 
ATOM     22  C   UNL A   1      31.424  28.204  22.867  1.00  0.00     0.029 A 
ENDBRANCH  16  17
ENDBRANCH  13  16
ENDBRANCH  12  13
ENDBRANCH   7  12
ENDBRANCH   3   6
ENDBRANCH   1   2
BRANCH   1  23
ATOM     23  C   UNL A   1      35.422  21.671  25.913  1.00  0.00     0.042 C 
BRANCH  23  24
ATOM     24  C   UNL A   1      36.788  22.340  26.029  1.00  0.00     0.118 C 
BRANCH  24  25
ATOM     25  N   UNL A   1      37.869  21.369  26.084  1.00  0.00    -0.352 N 
ATOM     26  C   UNL A   1      39.211  21.551  26.292  1.00  0.00     0.251 C 
ATOM     27  H   UNL A   1      37.592  20.433  25.950  1.00  0.00     0.163 HD
ATOM     28  O   UNL A   1      39.973  20.609  26.081  1.00  0.00    -0.269 OA
BRANCH  26  29
ATOM     29  C   UNL A   1      39.754  22.849  26.759  1.00  0.00     0.039 A 
ATOM     30  C   UNL A   1      39.337  24.016  26.110  1.00  0.00     0.014 A 
ATOM     31  C   UNL A   1      40.716  22.929  27.770  1.00  0.00     0.014 A 
ATOM     32  C   UNL A   1      39.865  25.254  26.486  1.00  0.00     0.010 A 
ATOM     33  C   UNL A   1      41.184  24.172  28.197  1.00  0.00     0.010 A 
ATOM     34  C   UNL A   1      40.786  25.345  27.542  1.00  0.00    -0.014 A 
BRANCH  34  35
ATOM     35  C   UNL A   1      41.356  26.658  27.943  1.00  0.00     0.031 A 
ATOM     36  C   UNL A   1      42.790  26.997  27.628  1.00  0.00     0.074 A 
ATOM     37  C   UNL A   1      40.597  27.530  28.634  1.00  0.00     0.049 A 
ATOM     38  N   UNL A   1      43.454  28.096  27.884  1.00  0.00    -0.248 NA
ATOM     39  C   UNL A   1      43.593  25.959  26.961  1.00  0.00     0.031 C 
ATOM     40  C   UNL A   1      39.222  27.287  29.078  1.00  0.00     0.029 A 
ATOM     41  N   UNL A   1      40.876  28.790  29.098  1.00  0.00    -0.354 N 
ATOM     42  C   UNL A   1      44.752  27.871  27.442  1.00  0.00     0.074 A 
ATOM     43  C   UNL A   1      44.795  26.516  26.938  1.00  0.00     0.031 C 
ATOM     44  C   UNL A   1      38.775  28.367  29.739  1.00  0.00     0.029 A 
ATOM     45  C   UNL A   1      39.834  29.372  29.781  1.00  0.00     0.049 A 
ATOM     46  H   UNL A   1      41.743  29.236  28.957  1.00  0.00     0.167 HD
ATOM     47  C   UNL A   1      45.806  28.722  27.426  1.00  0.00     0.034 A 
ATOM     48  C   UNL A   1      39.737  30.582  30.366  1.00  0.00     0.034 A 
ATOM     49  C   UNL A   1      45.747  30.084  27.883  1.00  0.00     0.049 A 
ATOM     50  C   UNL A   1      40.896  31.537  30.263  1.00  0.00     0.074 A 
ATOM     51  C   UNL A   1      46.733  31.053  27.835  1.00  0.00     0.029 A 
ATOM     52  N   UNL A   1      44.639  30.672  28.473  1.00  0.00    -0.354 N 
ATOM     53  N   UNL A   1      42.064  31.360  29.694  1.00  0.00    -0.248 NA
ATOM     54  C   UNL A   1      40.706  32.875  30.841  1.00  0.00     0.031 C 
ATOM     55  C   UNL A   1      46.225  32.225  28.407  1.00  0.00     0.029 A 
ATOM     56  C   UNL A   1      44.914  31.991  28.791  1.00  0.00     0.049 A 
ATOM     57  H   UNL A   1      43.782  30.219  28.641  1.00  0.00     0.167 HD
ATOM     58  C   UNL A   1      42.731  32.574  29.808  1.00  0.00     0.074 A 
ATOM     59  C   UNL A   1      41.826  33.485  30.480  1.00  0.00     0.031 C 
ATOM     60  C   UNL A   1      43.985  32.902  29.408  1.00  0.00     0.034 A 
BRANCH  47  61
ATOM     61  C   UNL A   1      47.100  28.221  26.836  1.00  0.00     0.023 A 
ATOM     62  C   UNL A   1      48.151  27.835  27.695  1.00  0.00     0.012 A 
ATOM     63  C   UNL A   1      47.263  28.082  25.443  1.00  0.00     0.148 A 
ATOM     64  C   UNL A   1      49.353  27.355  27.180  1.00  0.00     0.002 A 
ATOM     65  C   UNL A   1      48.449  27.560  24.938  1.00  0.00     0.091 A 
ATOM     66  F   UNL A   1      46.264  28.473  24.640  1.00  0.00    -0.205 F 
ATOM     67  C   UNL A   1      49.499  27.207  25.803  1.00  0.00     0.022 A 
BRANCH  65  68
ATOM     68  S   UNL A   1      48.706  27.257  23.186  1.00  0.00     0.127 S 
ATOM     69  O   UNL A   1      50.151  27.439  23.063  1.00  0.00    -0.237 OA
ATOM     70  O   UNL A   1      48.253  25.873  23.042  1.00  0.00    -0.237 OA
ATOM     71  O   UNL A   1      47.888  28.238  22.486  1.00  0.00    -0.744 OA
ENDBRANCH  65  68
ENDBRANCH  47  61
BRANCH  48  72
ATOM     72  C   UNL A   1      38.460  30.993  31.015  1.00  0.00     0.023 A 
ATOM     73  C   UNL A   1      38.298  30.805  32.401  1.00  0.00     0.012 A 
ATOM     74  C   UNL A   1      37.423  31.596  30.277  1.00  0.00     0.148 A 
ATOM     75  C   UNL A   1      37.112  31.177  33.036  1.00  0.00     0.002 A 
ATOM     76  C   UNL A   1      36.268  32.016  30.925  1.00  0.00     0.091 A 
ATOM     77  F   UNL A   1      37.592  31.757  28.957  1.00  0.00    -0.205 F 
ATOM     78  C   UNL A   1      36.102  31.791  32.300  1.00  0.00     0.022 A 
BRANCH  76  79
ATOM     79  S   UNL A   1      34.975  32.936  30.084  1.00  0.00     0.127 S 
ATOM     80  O   UNL A   1      34.076  33.267  31.185  1.00  0.00    -0.237 OA
ATOM     81  O   UNL A   1      35.719  34.068  29.531  1.00  0.00    -0.237 OA
ATOM     82  O   UNL A   1      34.440  32.026  29.078  1.00  0.00    -0.744 OA
ENDBRANCH  76  79
ENDBRANCH  48  72
BRANCH  60  83
ATOM     83  C   UNL A   1      44.443  34.317  29.649  1.00  0.00     0.023 A 
ATOM     84  C   UNL A   1      45.035  34.664  30.879  1.00  0.00     0.012 A 
ATOM     85  C   UNL A   1      44.330  35.292  28.638  1.00  0.00     0.148 A 
ATOM     86  C   UNL A   1      45.469  35.968  31.114  1.00  0.00     0.002 A 
ATOM     87  C   UNL A   1      44.810  36.577  28.862  1.00  0.00     0.091 A 
ATOM     88  F   UNL A   1      43.743  34.952  27.480  1.00  0.00    -0.205 F 
ATOM     89  C   UNL A   1      45.368  36.921  30.104  1.00  0.00     0.022 A 
BRANCH  87  90
ATOM     90  S   UNL A   1      44.802  37.832  27.577  1.00  0.00     0.127 S 
ATOM     91  O   UNL A   1      45.297  39.002  28.298  1.00  0.00    -0.237 OA
ATOM     92  O   UNL A   1      45.736  37.282  26.593  1.00  0.00    -0.237 OA
ATOM     93  O   UNL A   1      43.423  37.910  27.113  1.00  0.00    -0.744 OA
ENDBRANCH  87  90
ENDBRANCH  60  83
ENDBRANCH  34  35
ENDBRANCH  26  29
ENDBRANCH  24  25
ENDBRANCH  23  24
ENDBRANCH   1  23
TORSDOF 17
ENDMDL
MODEL 2
REMARK VINA RESULT:     -11.7      5.079     10.344
REMARK SMILES Cn1cccc1C[NH2+]Cc1ccc(C(=O)NCCCNC(=O)c2ccc(-c3c4nc(c(-c5cccc(S(=O)(=O)[O-])c5F)c5ccc([nH]5)c(-c5cccc(S(=O)(=O)[O-])c5F)c5nc(c(-c6cccc(S(=O)(=O)[O-])c6F)c6ccc3[nH]6)C=C5)C=C4)cc2)cc1
REMARK SMILES IDX 17 1 16 2 14 3 15 4 13 6 10 7 11 8 87 9 12 10 86 11 9 12
REMARK SMILES IDX 8 13 7 16 6 17 1 18 2 19 3 20 4 21 5 22 18 23 19 24 20 25
REMARK SMILES IDX 21 26 22 28 23 29 24 30 85 31 25 32 84 33 26 34 27 35 28 36
REMARK SMILES IDX 78 37 29 38 83 39 77 40 79 41 30 42 82 43 76 44 75 45 31 47
REMARK SMILES IDX 63 48 43 49 62 50 44 51 47 52 61 53 80 54 45 55 46 56 60 58
REMARK SMILES IDX 81 59 48 60 32 61 33 62 41 63 34 64 36 65 42 66 35 67 37 68
REMARK SMILES IDX 38 69 39 70 40 71 64 72 65 73 73 74 66 75 68 76 74 77 67 78
REMARK SMILES IDX 69 79 70 80 71 81 72 82 49 83 50 84 58 85 51 86 53 87 59 88
REMARK SMILES IDX 52 89 54 90 55 91 56 92 57 93
REMARK H PARENT 16 5 8 14 8 15 20 27 79 46 47 57
REMARK Flexibility Score: inf
ROOT
ATOM      1  C   UNL A   1      31.223  27.559  24.947  1.00  0.00     0.118 C 
ENDROOT
BRANCH   1   2
ATOM      2  N   UNL A   1      32.059  27.246  23.801  1.00  0.00    -0.352 N 
ATOM      3  C   UNL A   1      32.799  26.126  23.511  1.00  0.00     0.251 C 
ATOM      4  O   UNL A   1      33.317  26.025  22.401  1.00  0.00    -0.269 OA
ATOM      5  H   UNL A   1      32.103  27.954  23.119  1.00  0.00     0.163 HD
BRANCH   3   6
ATOM      6  C   UNL A   1      32.923  25.006  24.476  1.00  0.00     0.039 A 
ATOM      7  C   UNL A   1      33.348  22.829  26.214  1.00  0.00     0.006 A 
ATOM      8  C   UNL A   1      34.282  23.873  26.131  1.00  0.00     0.010 A 
ATOM      9  C   UNL A   1      32.147  22.954  25.500  1.00  0.00     0.010 A 
ATOM     10  C   UNL A   1      34.073  24.952  25.268  1.00  0.00     0.014 A 
ATOM     11  C   UNL A   1      31.935  24.035  24.643  1.00  0.00     0.014 A 
BRANCH   7  12
ATOM     12  C   UNL A   1      33.642  21.638  27.104  1.00  0.00     0.297 C 
BRANCH  12  13
ATOM     13  N   UNL A   1      33.477  20.327  26.483  1.00  0.00    -0.338 N 
ATOM     14  H   UNL A   1      33.698  19.613  27.176  1.00  0.00     0.346 HD
ATOM     15  H   UNL A   1      32.511  20.274  26.158  1.00  0.00     0.346 HD
BRANCH  13  16
ATOM     16  C   UNL A   1      34.327  20.114  25.316  1.00  0.00     0.316 C 
BRANCH  16  17
ATOM     17  C   UNL A   1      33.577  19.278  24.325  1.00  0.00     0.072 A 
ATOM     18  C   UNL A   1      34.804  17.069  24.650  1.00  0.00     0.149 C 
ATOM     19  N   UNL A   1      33.816  17.945  24.058  1.00  0.00    -0.350 N 
ATOM     20  C   UNL A   1      32.946  17.510  23.085  1.00  0.00     0.085 A 
ATOM     21  C   UNL A   1      32.149  18.565  22.711  1.00  0.00     0.020 A 
ATOM     22  C   UNL A   1      32.541  19.673  23.491  1.00  0.00     0.029 A 
ENDBRANCH  16  17
ENDBRANCH  13  16
ENDBRANCH  12  13
ENDBRANCH   7  12
ENDBRANCH   3   6
ENDBRANCH   1   2
BRANCH   1  23
ATOM     23  C   UNL A   1      32.006  28.278  26.044  1.00  0.00     0.042 C 
BRANCH  23  24
ATOM     24  C   UNL A   1      33.001  29.308  25.517  1.00  0.00     0.118 C 
BRANCH  24  25
ATOM     25  N   UNL A   1      32.655  30.660  25.923  1.00  0.00    -0.352 N 
ATOM     26  C   UNL A   1      33.126  31.420  26.963  1.00  0.00     0.251 C 
ATOM     27  H   UNL A   1      31.974  31.100  25.363  1.00  0.00     0.163 HD
ATOM     28  O   UNL A   1      32.534  32.458  27.250  1.00  0.00    -0.269 OA
BRANCH  26  29
ATOM     29  C   UNL A   1      34.322  31.013  27.739  1.00  0.00     0.039 A 
ATOM     30  C   UNL A   1      35.345  31.949  27.924  1.00  0.00     0.014 A 
ATOM     31  C   UNL A   1      34.485  29.710  28.219  1.00  0.00     0.014 A 
ATOM     32  C   UNL A   1      36.511  31.588  28.605  1.00  0.00     0.010 A 
ATOM     33  C   UNL A   1      35.614  29.373  28.966  1.00  0.00     0.010 A 
ATOM     34  C   UNL A   1      36.652  30.299  29.143  1.00  0.00    -0.014 A 
BRANCH  34  35
ATOM     35  C   UNL A   1      37.892  29.906  29.862  1.00  0.00     0.031 A 
ATOM     36  C   UNL A   1      38.170  30.427  31.248  1.00  0.00     0.074 A 
ATOM     37  C   UNL A   1      38.795  29.116  29.249  1.00  0.00     0.049 A 
ATOM     38  N   UNL A   1      39.187  30.182  32.034  1.00  0.00    -0.248 NA
ATOM     39  C   UNL A   1      37.191  31.368  31.819  1.00  0.00     0.031 C 
ATOM     40  C   UNL A   1      38.687  28.617  27.876  1.00  0.00     0.029 A 
ATOM     41  N   UNL A   1      39.988  28.607  29.693  1.00  0.00    -0.354 N 
ATOM     42  C   UNL A   1      38.989  30.957  33.171  1.00  0.00     0.074 A 
ATOM     43  C   UNL A   1      37.774  31.713  32.957  1.00  0.00     0.031 C 
ATOM     44  C   UNL A   1      39.763  27.864  27.596  1.00  0.00     0.029 A 
ATOM     45  C   UNL A   1      40.645  27.839  28.760  1.00  0.00     0.049 A 
ATOM     46  H   UNL A   1      40.343  28.776  30.597  1.00  0.00     0.167 HD
ATOM     47  C   UNL A   1      39.730  31.012  34.304  1.00  0.00     0.034 A 
ATOM     48  C   UNL A   1      41.818  27.182  28.835  1.00  0.00     0.034 A 
ATOM     49  C   UNL A   1      40.910  30.223  34.533  1.00  0.00     0.049 A 
ATOM     50  C   UNL A   1      42.580  27.196  30.133  1.00  0.00     0.074 A 
ATOM     51  C   UNL A   1      41.686  30.144  35.675  1.00  0.00     0.029 A 
ATOM     52  N   UNL A   1      41.486  29.374  33.600  1.00  0.00    -0.354 N 
ATOM     53  N   UNL A   1      42.289  27.808  31.255  1.00  0.00    -0.248 NA
ATOM     54  C   UNL A   1      43.809  26.391  30.189  1.00  0.00     0.031 C 
ATOM     55  C   UNL A   1      42.739  29.255  35.429  1.00  0.00     0.029 A 
ATOM     56  C   UNL A   1      42.605  28.764  34.140  1.00  0.00     0.049 A 
ATOM     57  H   UNL A   1      41.149  29.226  32.687  1.00  0.00     0.167 HD
ATOM     58  C   UNL A   1      43.272  27.429  32.162  1.00  0.00     0.074 A 
ATOM     59  C   UNL A   1      44.154  26.517  31.463  1.00  0.00     0.031 C 
ATOM     60  C   UNL A   1      43.440  27.814  33.452  1.00  0.00     0.034 A 
BRANCH  47  61
ATOM     61  C   UNL A   1      39.248  31.915  35.411  1.00  0.00     0.023 A 
ATOM     62  C   UNL A   1      38.307  31.427  36.343  1.00  0.00     0.012 A 
ATOM     63  C   UNL A   1      39.757  33.220  35.565  1.00  0.00     0.148 A 
ATOM     64  C   UNL A   1      37.854  32.234  37.386  1.00  0.00     0.002 A 
ATOM     65  C   UNL A   1      39.334  34.002  36.634  1.00  0.00     0.091 A 
ATOM     66  F   UNL A   1      40.633  33.675  34.659  1.00  0.00    -0.205 F 
ATOM     67  C   UNL A   1      38.374  33.516  37.538  1.00  0.00     0.022 A 
BRANCH  65  68
ATOM     68  S   UNL A   1      40.001  35.637  36.962  1.00  0.00     0.127 S 
ATOM     69  O   UNL A   1      39.321  35.989  38.207  1.00  0.00    -0.237 OA
ATOM     70  O   UNL A   1      41.431  35.365  37.106  1.00  0.00    -0.237 OA
ATOM     71  O   UNL A   1      39.653  36.451  35.806  1.00  0.00    -0.744 OA
ENDBRANCH  65  68
ENDBRANCH  47  61
BRANCH  48  72
ATOM     72  C   UNL A   1      42.292  26.374  27.676  1.00  0.00     0.023 A 
ATOM     73  C   UNL A   1      43.190  26.948  26.755  1.00  0.00     0.012 A 
ATOM     74  C   UNL A   1      41.887  25.037  27.499  1.00  0.00     0.148 A 
ATOM     75  C   UNL A   1      43.649  26.218  25.659  1.00  0.00     0.002 A 
ATOM     76  C   UNL A   1      42.393  24.297  26.436  1.00  0.00     0.091 A 
ATOM     77  F   UNL A   1      41.025  24.512  28.380  1.00  0.00    -0.205 F 
ATOM     78  C   UNL A   1      43.259  24.891  25.505  1.00  0.00     0.022 A 
BRANCH  76  79
ATOM     79  S   UNL A   1      42.052  22.545  26.238  1.00  0.00     0.127 S 
ATOM     80  O   UNL A   1      42.764  22.238  25.002  1.00  0.00    -0.237 OA
ATOM     81  O   UNL A   1      42.647  21.981  27.450  1.00  0.00    -0.237 OA
ATOM     82  O   UNL A   1      40.599  22.435  26.180  1.00  0.00    -0.744 OA
ENDBRANCH  76  79
ENDBRANCH  48  72
BRANCH  60  83
ATOM     83  C   UNL A   1      44.600  27.220  34.208  1.00  0.00     0.023 A 
ATOM     84  C   UNL A   1      45.853  27.862  34.191  1.00  0.00     0.012 A 
ATOM     85  C   UNL A   1      44.434  26.050  34.976  1.00  0.00     0.148 A 
ATOM     86  C   UNL A   1      46.934  27.327  34.891  1.00  0.00     0.002 A 
ATOM     87  C   UNL A   1      45.502  25.550  35.711  1.00  0.00     0.091 A 
ATOM     88  F   UNL A   1      43.240  25.438  34.964  1.00  0.00    -0.205 F 
ATOM     89  C   UNL A   1      46.756  26.179  35.660  1.00  0.00     0.022 A 
BRANCH  87  90
ATOM     90  S   UNL A   1      45.327  24.132  36.800  1.00  0.00     0.127 S 
ATOM     91  O   UNL A   1      44.367  24.627  37.784  1.00  0.00    -0.237 OA
ATOM     92  O   UNL A   1      44.801  23.105  35.898  1.00  0.00    -0.237 OA
ATOM     93  O   UNL A   1      46.666  23.856  37.304  1.00  0.00    -0.744 OA
ENDBRANCH  87  90
ENDBRANCH  60  83
ENDBRANCH  34  35
ENDBRANCH  26  29
ENDBRANCH  24  25
ENDBRANCH  23  24
ENDBRANCH   1  23
TORSDOF 17
ENDMDL
MODEL 3
REMARK VINA RESULT:     -11.6      5.109     10.170
REMARK SMILES Cn1cccc1C[NH2+]Cc1ccc(C(=O)NCCCNC(=O)c2ccc(-c3c4nc(c(-c5cccc(S(=O)(=O)[O-])c5F)c5ccc([nH]5)c(-c5cccc(S(=O)(=O)[O-])c5F)c5nc(c(-c6cccc(S(=O)(=O)[O-])c6F)c6ccc3[nH]6)C=C5)C=C4)cc2)cc1
REMARK SMILES IDX 17 1 16 2 14 3 15 4 13 6 10 7 11 8 87 9 12 10 86 11 9 12
REMARK SMILES IDX 8 13 7 16 6 17 1 18 2 19 3 20 4 21 5 22 18 23 19 24 20 25
REMARK SMILES IDX 21 26 22 28 23 29 24 30 85 31 25 32 84 33 26 34 27 35 28 36
REMARK SMILES IDX 78 37 29 38 83 39 77 40 79 41 30 42 82 43 76 44 75 45 31 47
REMARK SMILES IDX 63 48 43 49 62 50 44 51 47 52 61 53 80 54 45 55 46 56 60 58
REMARK SMILES IDX 81 59 48 60 32 61 33 62 41 63 34 64 36 65 42 66 35 67 37 68
REMARK SMILES IDX 38 69 39 70 40 71 64 72 65 73 73 74 66 75 68 76 74 77 67 78
REMARK SMILES IDX 69 79 70 80 71 81 72 82 49 83 50 84 58 85 51 86 53 87 59 88
REMARK SMILES IDX 52 89 54 90 55 91 56 92 57 93
REMARK H PARENT 16 5 8 14 8 15 20 27 79 46 47 57
REMARK Flexibility Score: inf
ROOT
ATOM      1  C   UNL A   1      31.333  28.328  24.341  1.00  0.00     0.118 C 
ENDROOT
BRANCH   1   2
ATOM      2  N   UNL A   1      32.376  28.666  23.387  1.00  0.00    -0.352 N 
ATOM      3  C   UNL A   1      33.269  27.868  22.716  1.00  0.00     0.251 C 
ATOM      4  O   UNL A   1      33.971  28.366  21.839  1.00  0.00    -0.269 OA
ATOM      5  H   UNL A   1      32.456  29.627  23.190  1.00  0.00     0.163 HD
BRANCH   3   6
ATOM      6  C   UNL A   1      33.351  26.409  22.972  1.00  0.00     0.039 A 
ATOM      7  C   UNL A   1      33.723  23.660  23.468  1.00  0.00     0.006 A 
ATOM      8  C   UNL A   1      34.199  24.622  24.373  1.00  0.00     0.010 A 
ATOM      9  C   UNL A   1      32.959  24.095  22.377  1.00  0.00     0.010 A 
ATOM     10  C   UNL A   1      34.017  25.985  24.127  1.00  0.00     0.014 A 
ATOM     11  C   UNL A   1      32.771  25.457  22.134  1.00  0.00     0.014 A 
BRANCH   7  12
ATOM     12  C   UNL A   1      34.004  22.194  23.730  1.00  0.00     0.297 C 
BRANCH  12  13
ATOM     13  N   UNL A   1      32.869  21.291  23.554  1.00  0.00    -0.338 N 
ATOM     14  H   UNL A   1      32.141  21.786  23.040  1.00  0.00     0.346 HD
ATOM     15  H   UNL A   1      33.217  20.474  23.053  1.00  0.00     0.346 HD
BRANCH  13  16
ATOM     16  C   UNL A   1      32.299  20.807  24.807  1.00  0.00     0.316 C 
BRANCH  16  17
ATOM     17  C   UNL A   1      31.840  21.986  25.610  1.00  0.00     0.072 A 
ATOM     18  C   UNL A   1      33.558  21.889  27.489  1.00  0.00     0.149 C 
ATOM     19  N   UNL A   1      32.417  22.430  26.783  1.00  0.00    -0.350 N 
ATOM     20  C   UNL A   1      31.726  23.526  27.247  1.00  0.00     0.085 A 
ATOM     21  C   UNL A   1      30.693  23.787  26.379  1.00  0.00     0.020 A 
ATOM     22  C   UNL A   1      30.766  22.825  25.350  1.00  0.00     0.029 A 
ENDBRANCH  16  17
ENDBRANCH  13  16
ENDBRANCH  12  13
ENDBRANCH   7  12
ENDBRANCH   3   6
ENDBRANCH   1   2
BRANCH   1  23
ATOM     23  C   UNL A   1      31.682  28.792  25.754  1.00  0.00     0.042 C 
BRANCH  23  24
ATOM     24  C   UNL A   1      32.951  29.634  25.831  1.00  0.00     0.118 C 
BRANCH  24  25
ATOM     25  N   UNL A   1      32.674  31.005  26.227  1.00  0.00    -0.352 N 
ATOM     26  C   UNL A   1      33.268  31.788  27.183  1.00  0.00     0.251 C 
ATOM     27  H   UNL A   1      31.944  31.441  25.729  1.00  0.00     0.163 HD
ATOM     28  O   UNL A   1      32.727  32.847  27.497  1.00  0.00    -0.269 OA
BRANCH  26  29
ATOM     29  C   UNL A   1      34.534  31.382  27.839  1.00  0.00     0.039 A 
ATOM     30  C   UNL A   1      34.623  30.092  28.373  1.00  0.00     0.014 A 
ATOM     31  C   UNL A   1      35.601  32.270  28.002  1.00  0.00     0.014 A 
ATOM     32  C   UNL A   1      35.780  29.690  29.045  1.00  0.00     0.010 A 
ATOM     33  C   UNL A   1      36.785  31.843  28.603  1.00  0.00     0.010 A 
ATOM     34  C   UNL A   1      36.877  30.558  29.157  1.00  0.00    -0.014 A 
BRANCH  34  35
ATOM     35  C   UNL A   1      38.109  30.139  29.876  1.00  0.00     0.031 A 
ATOM     36  C   UNL A   1      38.405  30.664  31.256  1.00  0.00     0.074 A 
ATOM     37  C   UNL A   1      38.988  29.320  29.267  1.00  0.00     0.049 A 
ATOM     38  N   UNL A   1      39.418  30.398  32.041  1.00  0.00    -0.248 NA
ATOM     39  C   UNL A   1      37.453  31.635  31.822  1.00  0.00     0.031 C 
ATOM     40  C   UNL A   1      38.863  28.811  27.899  1.00  0.00     0.029 A 
ATOM     41  N   UNL A   1      40.169  28.782  29.712  1.00  0.00    -0.354 N 
ATOM     42  C   UNL A   1      39.244  31.188  33.172  1.00  0.00     0.074 A 
ATOM     43  C   UNL A   1      38.050  31.974  32.955  1.00  0.00     0.031 C 
ATOM     44  C   UNL A   1      39.917  28.027  27.622  1.00  0.00     0.029 A 
ATOM     45  C   UNL A   1      40.802  27.989  28.783  1.00  0.00     0.049 A 
ATOM     46  H   UNL A   1      40.531  28.949  30.613  1.00  0.00     0.167 HD
ATOM     47  C   UNL A   1      39.990  31.233  34.302  1.00  0.00     0.034 A 
ATOM     48  C   UNL A   1      41.957  27.301  28.861  1.00  0.00     0.034 A 
ATOM     49  C   UNL A   1      41.149  30.415  34.534  1.00  0.00     0.049 A 
ATOM     50  C   UNL A   1      42.724  27.306  30.156  1.00  0.00     0.074 A 
ATOM     51  C   UNL A   1      41.927  30.324  35.675  1.00  0.00     0.029 A 
ATOM     52  N   UNL A   1      41.699  29.542  33.608  1.00  0.00    -0.354 N 
ATOM     53  N   UNL A   1      42.452  27.935  31.274  1.00  0.00    -0.248 NA
ATOM     54  C   UNL A   1      43.930  26.468  30.216  1.00  0.00     0.031 C 
ATOM     55  C   UNL A   1      42.954  29.406  35.434  1.00  0.00     0.029 A 
ATOM     56  C   UNL A   1      42.803  28.908  34.150  1.00  0.00     0.049 A 
ATOM     57  H   UNL A   1      41.355  29.396  32.697  1.00  0.00     0.167 HD
ATOM     58  C   UNL A   1      43.428  27.538  32.181  1.00  0.00     0.074 A 
ATOM     59  C   UNL A   1      44.283  26.596  31.488  1.00  0.00     0.031 C 
ATOM     60  C   UNL A   1      43.611  27.929  33.467  1.00  0.00     0.034 A 
BRANCH  47  61
ATOM     61  C   UNL A   1      39.536  32.158  35.403  1.00  0.00     0.023 A 
ATOM     62  C   UNL A   1      38.683  31.667  36.413  1.00  0.00     0.012 A 
ATOM     63  C   UNL A   1      39.989  33.491  35.471  1.00  0.00     0.148 A 
ATOM     64  C   UNL A   1      38.258  32.494  37.452  1.00  0.00     0.002 A 
ATOM     65  C   UNL A   1      39.597  34.296  36.535  1.00  0.00     0.091 A 
ATOM     66  F   UNL A   1      40.782  33.948  34.493  1.00  0.00    -0.205 F 
ATOM     67  C   UNL A   1      38.722  33.804  37.519  1.00  0.00     0.022 A 
BRANCH  65  68
ATOM     68  S   UNL A   1      40.202  35.974  36.755  1.00  0.00     0.127 S 
ATOM     69  O   UNL A   1      41.632  35.749  36.952  1.00  0.00    -0.237 OA
ATOM     70  O   UNL A   1      39.855  36.598  35.477  1.00  0.00    -0.237 OA
ATOM     71  O   UNL A   1      39.486  36.510  37.904  1.00  0.00    -0.744 OA
ENDBRANCH  65  68
ENDBRANCH  47  61
BRANCH  48  72
ATOM     72  C   UNL A   1      42.406  26.470  27.708  1.00  0.00     0.023 A 
ATOM     73  C   UNL A   1      43.246  27.041  26.731  1.00  0.00     0.012 A 
ATOM     74  C   UNL A   1      42.035  25.117  27.589  1.00  0.00     0.148 A 
ATOM     75  C   UNL A   1      43.679  26.289  25.638  1.00  0.00     0.002 A 
ATOM     76  C   UNL A   1      42.517  24.359  26.529  1.00  0.00     0.091 A 
ATOM     77  F   UNL A   1      41.227  24.596  28.523  1.00  0.00    -0.205 F 
ATOM     78  C   UNL A   1      43.323  24.947  25.543  1.00  0.00     0.022 A 
BRANCH  76  79
ATOM     79  S   UNL A   1      42.222  22.592  26.400  1.00  0.00     0.127 S 
ATOM     80  O   UNL A   1      40.764  22.532  26.378  1.00  0.00    -0.237 OA
ATOM     81  O   UNL A   1      42.873  22.267  25.131  1.00  0.00    -0.237 OA
ATOM     82  O   UNL A   1      42.866  22.004  27.568  1.00  0.00    -0.744 OA
ENDBRANCH  76  79
ENDBRANCH  48  72
BRANCH  60  83
ATOM     83  C   UNL A   1      44.756  27.311  34.225  1.00  0.00     0.023 A 
ATOM     84  C   UNL A   1      46.018  27.936  34.225  1.00  0.00     0.012 A 
ATOM     85  C   UNL A   1      44.569  26.135  34.978  1.00  0.00     0.148 A 
ATOM     86  C   UNL A   1      47.086  27.379  34.927  1.00  0.00     0.002 A 
ATOM     87  C   UNL A   1      45.625  25.612  35.715  1.00  0.00     0.091 A 
ATOM     88  F   UNL A   1      43.367  25.539  34.950  1.00  0.00    -0.205 F 
ATOM     89  C   UNL A   1      46.888  26.225  35.680  1.00  0.00     0.022 A 
BRANCH  87  90
ATOM     90  S   UNL A   1      45.422  24.184  36.786  1.00  0.00     0.127 S 
ATOM     91  O   UNL A   1      46.801  23.906  37.180  1.00  0.00    -0.237 OA
ATOM     92  O   UNL A   1      44.576  24.711  37.858  1.00  0.00    -0.237 OA
ATOM     93  O   UNL A   1      44.780  23.165  35.965  1.00  0.00    -0.744 OA
ENDBRANCH  87  90
ENDBRANCH  60  83
ENDBRANCH  34  35
ENDBRANCH  26  29
ENDBRANCH  24  25
ENDBRANCH  23  24
ENDBRANCH   1  23
TORSDOF 17
ENDMDL
