MODEL 1
REMARK VINA RESULT:     -13.4      0.000      0.000
REMARK SMILES Cc1c(CC(=O)NCCCNC(=O)c2ccc(-c3c4nc(c(-c5cccc(S(=O)(=O)[O-])c5F)c5ccc([nH]5)c(-c5cccc(S(=O)(=O)[O-])c5F)c5nc(c(-c6cccc(S(=O)(=O)[O-])c6F)c6ccc3[nH]6)C=C5)C=C4)cc2)cccc1-c1ccn(C(F)F)c(=O)c1
REMARK SMILES IDX 9 1 8 2 7 3 5 4 6 5 4 7 3 8 1 9 2 10 80 11 77 12 79 13 78 14
REMARK SMILES IDX 81 15 82 16 90 17 83 18 88 19 84 20 89 21 85 22 86 23 87 24
REMARK SMILES IDX 10 25 11 26 12 27 13 29 14 30 15 31 76 32 16 33 75 34 17 35
REMARK SMILES IDX 18 36 19 37 69 38 20 39 74 40 68 41 70 42 21 43 73 44 67 45
REMARK SMILES IDX 66 46 22 48 54 49 34 50 53 51 35 52 38 53 52 54 71 55 36 56
REMARK SMILES IDX 37 57 51 59 72 60 39 61 23 62 24 63 32 64 25 65 27 66 33 67
REMARK SMILES IDX 26 68 28 69 29 70 30 71 31 72 55 73 56 74 64 75 57 76 59 77
REMARK SMILES IDX 65 78 58 79 60 80 61 81 62 82 63 83 40 84 41 85 49 86 42 87
REMARK SMILES IDX 44 88 50 89 43 90 45 91 46 92 47 93 48 94
REMARK H PARENT 7 6 11 28 70 47 38 58
REMARK Flexibility Score: inf
ROOT
ATOM      1  C   UNL A   1      32.557  30.601  26.464  1.00  0.00     0.042 C 
ENDROOT
BRANCH   1   2
ATOM      2  C   UNL A   1      32.337  29.485  25.447  1.00  0.00     0.117 C 
BRANCH   2   3
ATOM      3  N   UNL A   1      31.437  28.445  25.925  1.00  0.00    -0.356 N 
ATOM      4  C   UNL A   1      31.704  27.147  26.265  1.00  0.00     0.224 C 
ATOM      5  O   UNL A   1      30.783  26.446  26.692  1.00  0.00    -0.275 OA
ATOM      6  H   UNL A   1      30.495  28.717  26.017  1.00  0.00     0.163 HD
BRANCH   4   7
ATOM      7  C   UNL A   1      33.115  26.576  26.141  1.00  0.00     0.135 C 
BRANCH   7   8
ATOM      8  C   UNL A   1      33.261  25.535  25.043  1.00  0.00    -0.035 A 
ATOM      9  C   UNL A   1      33.010  23.597  26.674  1.00  0.00     0.045 C 
ATOM     10  C   UNL A   1      33.300  24.136  25.293  1.00  0.00    -0.040 A 
ATOM     11  C   UNL A   1      33.617  23.256  24.222  1.00  0.00    -0.015 A 
ATOM     12  C   UNL A   1      33.442  26.006  23.727  1.00  0.00     0.004 A 
ATOM     13  C   UNL A   1      33.819  23.767  22.929  1.00  0.00     0.009 A 
ATOM     14  C   UNL A   1      33.718  25.132  22.680  1.00  0.00     0.001 A 
BRANCH  11  15
ATOM     15  C   UNL A   1      33.833  21.805  24.433  1.00  0.00    -0.011 A 
ATOM     16  C   UNL A   1      35.114  21.243  24.817  1.00  0.00     0.027 A 
ATOM     17  C   UNL A   1      32.808  20.972  24.175  1.00  0.00     0.080 A 
ATOM     18  C   UNL A   1      35.304  19.919  24.808  1.00  0.00     0.095 A 
ATOM     19  C   UNL A   1      32.984  19.495  24.243  1.00  0.00     0.255 A 
ATOM     20  N   UNL A   1      34.272  19.054  24.500  1.00  0.00    -0.258 N 
ATOM     21  O   UNL A   1      32.012  18.773  24.052  1.00  0.00    -0.269 OA
BRANCH  20  22
ATOM     22  C   UNL A   1      34.493  17.632  24.455  1.00  0.00     0.451 C 
ATOM     23  F   UNL A   1      34.358  17.150  23.197  1.00  0.00    -0.185 F 
ATOM     24  F   UNL A   1      35.730  17.309  24.904  1.00  0.00    -0.185 F 
ENDBRANCH  20  22
ENDBRANCH  11  15
ENDBRANCH   7   8
ENDBRANCH   4   7
ENDBRANCH   2   3
ENDBRANCH   1   2
BRANCH   1  25
ATOM     25  C   UNL A   1      33.453  30.218  27.629  1.00  0.00     0.118 C 
BRANCH  25  26
ATOM     26  N   UNL A   1      34.122  31.353  28.246  1.00  0.00    -0.352 N 
ATOM     27  C   UNL A   1      35.344  31.401  28.905  1.00  0.00     0.251 C 
ATOM     28  H   UNL A   1      33.639  32.210  28.188  1.00  0.00     0.163 HD
ATOM     29  O   UNL A   1      35.682  32.423  29.460  1.00  0.00    -0.269 OA
BRANCH  27  30
ATOM     30  C   UNL A   1      36.254  30.230  28.812  1.00  0.00     0.039 A 
ATOM     31  C   UNL A   1      36.596  29.573  30.000  1.00  0.00     0.014 A 
ATOM     32  C   UNL A   1      36.912  29.921  27.625  1.00  0.00     0.014 A 
ATOM     33  C   UNL A   1      37.752  28.796  30.049  1.00  0.00     0.010 A 
ATOM     34  C   UNL A   1      38.101  29.226  27.686  1.00  0.00     0.010 A 
ATOM     35  C   UNL A   1      38.553  28.724  28.913  1.00  0.00    -0.014 A 
BRANCH  35  36
ATOM     36  C   UNL A   1      39.929  28.252  28.904  1.00  0.00     0.031 A 
ATOM     37  C   UNL A   1      40.241  26.822  28.727  1.00  0.00     0.074 A 
ATOM     38  C   UNL A   1      40.911  29.176  28.825  1.00  0.00     0.049 A 
ATOM     39  N   UNL A   1      41.399  26.298  28.947  1.00  0.00    -0.248 NA
ATOM     40  C   UNL A   1      39.235  25.858  28.306  1.00  0.00     0.031 C 
ATOM     41  C   UNL A   1      42.270  28.977  28.340  1.00  0.00     0.029 A 
ATOM     42  N   UNL A   1      40.925  30.462  29.378  1.00  0.00    -0.354 N 
ATOM     43  C   UNL A   1      41.375  25.014  28.442  1.00  0.00     0.074 A 
ATOM     44  C   UNL A   1      39.986  24.768  28.129  1.00  0.00     0.031 C 
ATOM     45  C   UNL A   1      43.049  29.945  28.841  1.00  0.00     0.029 A 
ATOM     46  C   UNL A   1      42.248  30.687  29.798  1.00  0.00     0.049 A 
ATOM     47  H   UNL A   1      40.165  31.081  29.457  1.00  0.00     0.167 HD
ATOM     48  C   UNL A   1      42.555  24.368  28.210  1.00  0.00     0.034 A 
ATOM     49  C   UNL A   1      42.603  30.961  31.085  1.00  0.00     0.034 A 
ATOM     50  C   UNL A   1      43.697  25.176  28.660  1.00  0.00     0.049 A 
ATOM     51  C   UNL A   1      43.612  29.981  31.655  1.00  0.00     0.074 A 
ATOM     52  C   UNL A   1      44.574  26.023  28.000  1.00  0.00     0.029 A 
ATOM     53  N   UNL A   1      43.899  25.386  30.018  1.00  0.00    -0.354 N 
ATOM     54  N   UNL A   1      44.026  28.910  31.036  1.00  0.00    -0.248 NA
ATOM     55  C   UNL A   1      44.206  30.107  32.984  1.00  0.00     0.031 C 
ATOM     56  C   UNL A   1      45.248  26.806  28.975  1.00  0.00     0.029 A 
ATOM     57  C   UNL A   1      44.802  26.417  30.227  1.00  0.00     0.049 A 
ATOM     58  H   UNL A   1      43.461  24.872  30.734  1.00  0.00     0.167 HD
ATOM     59  C   UNL A   1      44.771  28.138  31.889  1.00  0.00     0.074 A 
ATOM     60  C   UNL A   1      44.937  28.981  33.061  1.00  0.00     0.031 C 
ATOM     61  C   UNL A   1      45.117  26.848  31.585  1.00  0.00     0.034 A 
BRANCH  48  62
ATOM     62  C   UNL A   1      42.718  23.164  27.292  1.00  0.00     0.023 A 
ATOM     63  C   UNL A   1      42.029  21.980  27.642  1.00  0.00     0.012 A 
ATOM     64  C   UNL A   1      43.555  23.070  26.159  1.00  0.00     0.148 A 
ATOM     65  C   UNL A   1      42.250  20.757  26.999  1.00  0.00     0.002 A 
ATOM     66  C   UNL A   1      43.842  21.835  25.566  1.00  0.00     0.091 A 
ATOM     67  F   UNL A   1      44.002  24.181  25.569  1.00  0.00    -0.205 F 
ATOM     68  C   UNL A   1      43.195  20.673  25.989  1.00  0.00     0.022 A 
BRANCH  66  69
ATOM     69  S   UNL A   1      45.127  21.648  24.315  1.00  0.00     0.127 S 
ATOM     70  O   UNL A   1      45.198  20.193  24.160  1.00  0.00    -0.237 OA
ATOM     71  O   UNL A   1      44.558  22.353  23.170  1.00  0.00    -0.237 OA
ATOM     72  O   UNL A   1      46.331  22.239  24.886  1.00  0.00    -0.744 OA
ENDBRANCH  66  69
ENDBRANCH  48  62
BRANCH  49  73
ATOM     73  C   UNL A   1      41.553  31.679  31.861  1.00  0.00     0.023 A 
ATOM     74  C   UNL A   1      41.294  33.020  31.492  1.00  0.00     0.012 A 
ATOM     75  C   UNL A   1      40.597  30.987  32.626  1.00  0.00     0.148 A 
ATOM     76  C   UNL A   1      40.067  33.619  31.775  1.00  0.00     0.002 A 
ATOM     77  C   UNL A   1      39.369  31.591  32.898  1.00  0.00     0.091 A 
ATOM     78  F   UNL A   1      40.863  29.729  32.998  1.00  0.00    -0.205 F 
ATOM     79  C   UNL A   1      39.092  32.893  32.448  1.00  0.00     0.022 A 
BRANCH  77  80
ATOM     80  S   UNL A   1      38.027  30.692  33.689  1.00  0.00     0.127 S 
ATOM     81  O   UNL A   1      38.104  31.197  35.056  1.00  0.00    -0.237 OA
ATOM     82  O   UNL A   1      36.861  31.144  32.929  1.00  0.00    -0.237 OA
ATOM     83  O   UNL A   1      38.355  29.288  33.496  1.00  0.00    -0.744 OA
ENDBRANCH  77  80
ENDBRANCH  49  73
BRANCH  61  84
ATOM     84  C   UNL A   1      45.742  25.848  32.542  1.00  0.00     0.023 A 
ATOM     85  C   UNL A   1      47.134  25.741  32.721  1.00  0.00     0.012 A 
ATOM     86  C   UNL A   1      44.929  25.084  33.420  1.00  0.00     0.148 A 
ATOM     87  C   UNL A   1      47.696  24.889  33.681  1.00  0.00     0.002 A 
ATOM     88  C   UNL A   1      45.490  24.324  34.446  1.00  0.00     0.091 A 
ATOM     89  F   UNL A   1      43.597  25.075  33.262  1.00  0.00    -0.205 F 
ATOM     90  C   UNL A   1      46.873  24.200  34.561  1.00  0.00     0.022 A 
BRANCH  88  91
ATOM     91  S   UNL A   1      44.448  23.624  35.735  1.00  0.00     0.127 S 
ATOM     92  O   UNL A   1      45.431  23.133  36.696  1.00  0.00    -0.237 OA
ATOM     93  O   UNL A   1      43.679  24.784  36.193  1.00  0.00    -0.237 OA
ATOM     94  O   UNL A   1      43.649  22.616  35.051  1.00  0.00    -0.744 OA
ENDBRANCH  88  91
ENDBRANCH  61  84
ENDBRANCH  35  36
ENDBRANCH  27  30
ENDBRANCH  25  26
ENDBRANCH   1  25
TORSDOF 16
ENDMDL
MODEL 2
REMARK VINA RESULT:     -13.1      4.174      9.723
REMARK SMILES Cc1c(CC(=O)NCCCNC(=O)c2ccc(-c3c4nc(c(-c5cccc(S(=O)(=O)[O-])c5F)c5ccc([nH]5)c(-c5cccc(S(=O)(=O)[O-])c5F)c5nc(c(-c6cccc(S(=O)(=O)[O-])c6F)c6ccc3[nH]6)C=C5)C=C4)cc2)cccc1-c1ccn(C(F)F)c(=O)c1
REMARK SMILES IDX 9 1 8 2 7 3 5 4 6 5 4 7 3 8 1 9 2 10 80 11 77 12 79 13 78 14
REMARK SMILES IDX 81 15 82 16 90 17 83 18 88 19 84 20 89 21 85 22 86 23 87 24
REMARK SMILES IDX 10 25 11 26 12 27 13 29 14 30 15 31 76 32 16 33 75 34 17 35
REMARK SMILES IDX 18 36 19 37 69 38 20 39 74 40 68 41 70 42 21 43 73 44 67 45
REMARK SMILES IDX 66 46 22 48 54 49 34 50 53 51 35 52 38 53 52 54 71 55 36 56
REMARK SMILES IDX 37 57 51 59 72 60 39 61 23 62 24 63 32 64 25 65 27 66 33 67
REMARK SMILES IDX 26 68 28 69 29 70 30 71 31 72 55 73 56 74 64 75 57 76 59 77
REMARK SMILES IDX 65 78 58 79 60 80 61 81 62 82 63 83 40 84 41 85 49 86 42 87
REMARK SMILES IDX 44 88 50 89 43 90 45 91 46 92 47 93 48 94
REMARK H PARENT 7 6 11 28 70 47 38 58
REMARK Flexibility Score: inf
ROOT
ATOM      1  C   UNL A   1      37.483  21.201  25.041  1.00  0.00     0.042 C 
ENDROOT
BRANCH   1   2
ATOM      2  C   UNL A   1      36.052  21.013  25.537  1.00  0.00     0.117 C 
BRANCH   2   3
ATOM      3  N   UNL A   1      35.378  19.878  24.924  1.00  0.00    -0.356 N 
ATOM      4  C   UNL A   1      34.041  19.632  24.776  1.00  0.00     0.224 C 
ATOM      5  O   UNL A   1      33.690  18.611  24.178  1.00  0.00    -0.275 OA
ATOM      6  H   UNL A   1      35.974  19.184  24.561  1.00  0.00     0.163 HD
BRANCH   4   7
ATOM      7  C   UNL A   1      32.997  20.605  25.320  1.00  0.00     0.135 C 
BRANCH   7   8
ATOM      8  C   UNL A   1      33.039  21.978  24.668  1.00  0.00    -0.035 A 
ATOM      9  C   UNL A   1      33.190  23.173  26.910  1.00  0.00     0.045 C 
ATOM     10  C   UNL A   1      33.042  23.192  25.407  1.00  0.00    -0.040 A 
ATOM     11  C   UNL A   1      32.904  24.422  24.706  1.00  0.00    -0.015 A 
ATOM     12  C   UNL A   1      32.995  22.027  23.260  1.00  0.00     0.004 A 
ATOM     13  C   UNL A   1      32.835  24.427  23.303  1.00  0.00     0.009 A 
ATOM     14  C   UNL A   1      32.894  23.238  22.584  1.00  0.00     0.001 A 
BRANCH  11  15
ATOM     15  C   UNL A   1      32.739  25.715  25.411  1.00  0.00    -0.011 A 
ATOM     16  C   UNL A   1      31.443  26.273  25.749  1.00  0.00     0.027 A 
ATOM     17  C   UNL A   1      33.846  26.435  25.672  1.00  0.00     0.080 A 
ATOM     18  C   UNL A   1      31.342  27.525  26.210  1.00  0.00     0.095 A 
ATOM     19  C   UNL A   1      33.752  27.799  26.264  1.00  0.00     0.255 A 
ATOM     20  N   UNL A   1      32.469  28.292  26.439  1.00  0.00    -0.258 N 
ATOM     21  O   UNL A   1      34.786  28.400  26.535  1.00  0.00    -0.269 OA
BRANCH  20  22
ATOM     22  C   UNL A   1      32.353  29.651  26.899  1.00  0.00     0.451 C 
ATOM     23  F   UNL A   1      32.425  30.529  25.871  1.00  0.00    -0.185 F 
ATOM     24  F   UNL A   1      31.182  29.853  27.551  1.00  0.00    -0.185 F 
ENDBRANCH  20  22
ENDBRANCH  11  15
ENDBRANCH   7   8
ENDBRANCH   4   7
ENDBRANCH   2   3
ENDBRANCH   1   2
BRANCH   1  25
ATOM     25  C   UNL A   1      38.178  22.436  25.587  1.00  0.00     0.118 C 
BRANCH  25  26
ATOM     26  N   UNL A   1      39.565  22.206  25.959  1.00  0.00    -0.352 N 
ATOM     27  C   UNL A   1      40.512  23.110  26.424  1.00  0.00     0.251 C 
ATOM     28  H   UNL A   1      39.878  21.276  25.868  1.00  0.00     0.163 HD
ATOM     29  O   UNL A   1      41.659  22.750  26.568  1.00  0.00    -0.269 OA
BRANCH  27  30
ATOM     30  C   UNL A   1      40.065  24.465  26.838  1.00  0.00     0.039 A 
ATOM     31  C   UNL A   1      40.630  25.567  26.185  1.00  0.00     0.014 A 
ATOM     32  C   UNL A   1      39.277  24.649  27.970  1.00  0.00     0.014 A 
ATOM     33  C   UNL A   1      40.612  26.817  26.802  1.00  0.00     0.010 A 
ATOM     34  C   UNL A   1      39.329  25.861  28.626  1.00  0.00     0.010 A 
ATOM     35  C   UNL A   1      40.056  26.923  28.073  1.00  0.00    -0.014 A 
BRANCH  35  36
ATOM     36  C   UNL A   1      40.261  28.048  28.972  1.00  0.00     0.031 A 
ATOM     37  C   UNL A   1      39.382  29.230  28.923  1.00  0.00     0.074 A 
ATOM     38  C   UNL A   1      41.121  27.883  30.000  1.00  0.00     0.049 A 
ATOM     39  N   UNL A   1      39.639  30.352  29.505  1.00  0.00    -0.248 NA
ATOM     40  C   UNL A   1      38.135  29.235  28.172  1.00  0.00     0.031 C 
ATOM     41  C   UNL A   1      41.149  28.628  31.252  1.00  0.00     0.029 A 
ATOM     42  N   UNL A   1      42.297  27.125  30.022  1.00  0.00    -0.354 N 
ATOM     43  C   UNL A   1      38.495  31.121  29.447  1.00  0.00     0.074 A 
ATOM     44  C   UNL A   1      37.621  30.412  28.541  1.00  0.00     0.031 C 
ATOM     45  C   UNL A   1      42.373  28.520  31.787  1.00  0.00     0.029 A 
ATOM     46  C   UNL A   1      43.210  27.850  30.808  1.00  0.00     0.049 A 
ATOM     47  H   UNL A   1      42.453  26.261  29.577  1.00  0.00     0.167 HD
ATOM     48  C   UNL A   1      38.366  32.187  30.289  1.00  0.00     0.034 A 
ATOM     49  C   UNL A   1      44.417  28.298  30.357  1.00  0.00     0.034 A 
ATOM     50  C   UNL A   1      39.588  32.386  31.081  1.00  0.00     0.049 A 
ATOM     51  C   UNL A   1      44.591  29.800  30.491  1.00  0.00     0.074 A 
ATOM     52  C   UNL A   1      39.952  32.015  32.367  1.00  0.00     0.029 A 
ATOM     53  N   UNL A   1      40.750  32.820  30.456  1.00  0.00    -0.354 N 
ATOM     54  N   UNL A   1      43.653  30.616  30.885  1.00  0.00    -0.248 NA
ATOM     55  C   UNL A   1      45.823  30.508  30.151  1.00  0.00     0.031 C 
ATOM     56  C   UNL A   1      41.361  32.154  32.483  1.00  0.00     0.029 A 
ATOM     57  C   UNL A   1      41.850  32.632  31.279  1.00  0.00     0.049 A 
ATOM     58  H   UNL A   1      40.786  33.209  29.553  1.00  0.00     0.167 HD
ATOM     59  C   UNL A   1      44.059  31.913  30.706  1.00  0.00     0.074 A 
ATOM     60  C   UNL A   1      45.460  31.789  30.341  1.00  0.00     0.031 C 
ATOM     61  C   UNL A   1      43.187  32.965  30.798  1.00  0.00     0.034 A 
BRANCH  48  62
ATOM     62  C   UNL A   1      37.046  32.856  30.646  1.00  0.00     0.023 A 
ATOM     63  C   UNL A   1      36.546  32.656  31.954  1.00  0.00     0.012 A 
ATOM     64  C   UNL A   1      36.211  33.600  29.782  1.00  0.00     0.148 A 
ATOM     65  C   UNL A   1      35.260  33.049  32.342  1.00  0.00     0.002 A 
ATOM     66  C   UNL A   1      34.896  33.920  30.137  1.00  0.00     0.091 A 
ATOM     67  F   UNL A   1      36.708  34.102  28.649  1.00  0.00    -0.205 F 
ATOM     68  C   UNL A   1      34.414  33.640  31.416  1.00  0.00     0.022 A 
BRANCH  66  69
ATOM     69  S   UNL A   1      33.722  34.603  28.951  1.00  0.00     0.127 S 
ATOM     70  O   UNL A   1      33.555  33.495  28.008  1.00  0.00    -0.237 OA
ATOM     71  O   UNL A   1      32.553  34.873  29.784  1.00  0.00    -0.237 OA
ATOM     72  O   UNL A   1      34.372  35.775  28.375  1.00  0.00    -0.744 OA
ENDBRANCH  66  69
ENDBRANCH  48  62
BRANCH  49  73
ATOM     73  C   UNL A   1      45.021  27.443  29.298  1.00  0.00     0.023 A 
ATOM     74  C   UNL A   1      45.484  26.167  29.697  1.00  0.00     0.012 A 
ATOM     75  C   UNL A   1      44.792  27.686  27.931  1.00  0.00     0.148 A 
ATOM     76  C   UNL A   1      45.604  25.125  28.778  1.00  0.00     0.002 A 
ATOM     77  C   UNL A   1      44.907  26.637  27.019  1.00  0.00     0.091 A 
ATOM     78  F   UNL A   1      44.385  28.905  27.558  1.00  0.00    -0.205 F 
ATOM     79  C   UNL A   1      45.283  25.352  27.445  1.00  0.00     0.022 A 
BRANCH  77  80
ATOM     80  S   UNL A   1      44.432  26.825  25.295  1.00  0.00     0.127 S 
ATOM     81  O   UNL A   1      45.724  27.062  24.660  1.00  0.00    -0.237 OA
ATOM     82  O   UNL A   1      43.826  25.527  24.997  1.00  0.00    -0.237 OA
ATOM     83  O   UNL A   1      43.492  27.936  25.288  1.00  0.00    -0.744 OA
ENDBRANCH  77  80
ENDBRANCH  49  73
BRANCH  61  84
ATOM     84  C   UNL A   1      43.485  34.401  30.405  1.00  0.00     0.023 A 
ATOM     85  C   UNL A   1      43.907  35.369  31.334  1.00  0.00     0.012 A 
ATOM     86  C   UNL A   1      43.501  34.786  29.037  1.00  0.00     0.148 A 
ATOM     87  C   UNL A   1      44.279  36.662  30.944  1.00  0.00     0.002 A 
ATOM     88  C   UNL A   1      43.977  36.036  28.645  1.00  0.00     0.091 A 
ATOM     89  F   UNL A   1      43.040  33.945  28.100  1.00  0.00    -0.205 F 
ATOM     90  C   UNL A   1      44.339  36.988  29.597  1.00  0.00     0.022 A 
BRANCH  88  91
ATOM     91  S   UNL A   1      44.288  36.388  26.908  1.00  0.00     0.127 S 
ATOM     92  O   UNL A   1      45.263  35.360  26.553  1.00  0.00    -0.237 OA
ATOM     93  O   UNL A   1      42.967  36.206  26.301  1.00  0.00    -0.237 OA
ATOM     94  O   UNL A   1      44.762  37.765  26.894  1.00  0.00    -0.744 OA
ENDBRANCH  88  91
ENDBRANCH  61  84
ENDBRANCH  35  36
ENDBRANCH  27  30
ENDBRANCH  25  26
ENDBRANCH   1  25
TORSDOF 16
ENDMDL
MODEL 3
REMARK VINA RESULT:     -12.8      4.519      9.934
REMARK SMILES Cc1c(CC(=O)NCCCNC(=O)c2ccc(-c3c4nc(c(-c5cccc(S(=O)(=O)[O-])c5F)c5ccc([nH]5)c(-c5cccc(S(=O)(=O)[O-])c5F)c5nc(c(-c6cccc(S(=O)(=O)[O-])c6F)c6ccc3[nH]6)C=C5)C=C4)cc2)cccc1-c1ccn(C(F)F)c(=O)c1
REMARK SMILES IDX 9 1 8 2 7 3 5 4 6 5 4 7 3 8 1 9 2 10 80 11 77 12 79 13 78 14
REMARK SMILES IDX 81 15 82 16 90 17 83 18 88 19 84 20 89 21 85 22 86 23 87 24
REMARK SMILES IDX 10 25 11 26 12 27 13 29 14 30 15 31 76 32 16 33 75 34 17 35
REMARK SMILES IDX 18 36 19 37 69 38 20 39 74 40 68 41 70 42 21 43 73 44 67 45
REMARK SMILES IDX 66 46 22 48 54 49 34 50 53 51 35 52 38 53 52 54 71 55 36 56
REMARK SMILES IDX 37 57 51 59 72 60 39 61 23 62 24 63 32 64 25 65 27 66 33 67
REMARK SMILES IDX 26 68 28 69 29 70 30 71 31 72 55 73 56 74 64 75 57 76 59 77
REMARK SMILES IDX 65 78 58 79 60 80 61 81 62 82 63 83 40 84 41 85 49 86 42 87
REMARK SMILES IDX 44 88 50 89 43 90 45 91 46 92 47 93 48 94
REMARK H PARENT 7 6 11 28 70 47 38 58
REMARK Flexibility Score: inf
ROOT
ATOM      1  C   UNL A   1      36.900  22.639  26.129  1.00  0.00     0.042 C 
ENDROOT
BRANCH   1   2
ATOM      2  C   UNL A   1      35.657  22.016  25.502  1.00  0.00     0.117 C 
BRANCH   2   3
ATOM      3  N   UNL A   1      35.349  22.554  24.185  1.00  0.00    -0.356 N 
ATOM      4  C   UNL A   1      34.886  23.793  23.834  1.00  0.00     0.224 C 
ATOM      5  O   UNL A   1      34.735  24.049  22.636  1.00  0.00    -0.275 OA
ATOM      6  H   UNL A   1      35.496  21.934  23.435  1.00  0.00     0.163 HD
BRANCH   4   7
ATOM      7  C   UNL A   1      34.580  24.848  24.894  1.00  0.00     0.135 C 
BRANCH   7   8
ATOM      8  C   UNL A   1      33.115  25.251  24.953  1.00  0.00    -0.035 A 
ATOM      9  C   UNL A   1      33.483  27.275  23.453  1.00  0.00     0.045 C 
ATOM     10  C   UNL A   1      32.606  26.435  24.353  1.00  0.00    -0.040 A 
ATOM     11  C   UNL A   1      31.261  26.814  24.615  1.00  0.00    -0.015 A 
ATOM     12  C   UNL A   1      32.251  24.436  25.712  1.00  0.00     0.004 A 
ATOM     13  C   UNL A   1      30.439  25.987  25.400  1.00  0.00     0.009 A 
ATOM     14  C   UNL A   1      30.927  24.799  25.933  1.00  0.00     0.001 A 
BRANCH  11  15
ATOM     15  C   UNL A   1      30.705  28.109  24.158  1.00  0.00    -0.011 A 
ATOM     16  C   UNL A   1      31.059  29.380  24.764  1.00  0.00     0.027 A 
ATOM     17  C   UNL A   1      29.767  28.087  23.193  1.00  0.00     0.080 A 
ATOM     18  C   UNL A   1      30.390  30.493  24.445  1.00  0.00     0.095 A 
ATOM     19  C   UNL A   1      29.072  29.335  22.770  1.00  0.00     0.255 A 
ATOM     20  N   UNL A   1      29.393  30.475  23.488  1.00  0.00    -0.258 N 
ATOM     21  O   UNL A   1      28.263  29.279  21.851  1.00  0.00    -0.269 OA
BRANCH  20  22
ATOM     22  C   UNL A   1      28.650  31.668  23.177  1.00  0.00     0.451 C 
ATOM     23  F   UNL A   1      27.387  31.605  23.661  1.00  0.00    -0.185 F 
ATOM     24  F   UNL A   1      29.248  32.771  23.691  1.00  0.00    -0.185 F 
ENDBRANCH  20  22
ENDBRANCH  11  15
ENDBRANCH   7   8
ENDBRANCH   4   7
ENDBRANCH   2   3
ENDBRANCH   1   2
BRANCH   1  25
ATOM     25  C   UNL A   1      38.117  22.657  25.221  1.00  0.00     0.118 C 
BRANCH  25  26
ATOM     26  N   UNL A   1      39.346  22.252  25.886  1.00  0.00    -0.352 N 
ATOM     27  C   UNL A   1      40.268  23.028  26.578  1.00  0.00     0.251 C 
ATOM     28  H   UNL A   1      39.554  21.290  25.840  1.00  0.00     0.163 HD
ATOM     29  O   UNL A   1      41.300  22.525  26.963  1.00  0.00    -0.269 OA
BRANCH  27  30
ATOM     30  C   UNL A   1      39.910  24.429  26.922  1.00  0.00     0.039 A 
ATOM     31  C   UNL A   1      40.627  25.457  26.300  1.00  0.00     0.014 A 
ATOM     32  C   UNL A   1      39.044  24.713  27.974  1.00  0.00     0.014 A 
ATOM     33  C   UNL A   1      40.667  26.721  26.887  1.00  0.00     0.010 A 
ATOM     34  C   UNL A   1      39.147  25.933  28.607  1.00  0.00     0.010 A 
ATOM     35  C   UNL A   1      40.012  26.911  28.101  1.00  0.00    -0.014 A 
BRANCH  35  36
ATOM     36  C   UNL A   1      40.238  28.040  28.991  1.00  0.00     0.031 A 
ATOM     37  C   UNL A   1      39.379  29.235  28.935  1.00  0.00     0.074 A 
ATOM     38  C   UNL A   1      41.097  27.867  30.020  1.00  0.00     0.049 A 
ATOM     39  N   UNL A   1      39.656  30.358  29.509  1.00  0.00    -0.248 NA
ATOM     40  C   UNL A   1      38.132  29.257  28.185  1.00  0.00     0.031 C 
ATOM     41  C   UNL A   1      41.138  28.620  31.266  1.00  0.00     0.029 A 
ATOM     42  N   UNL A   1      42.259  27.089  30.046  1.00  0.00    -0.354 N 
ATOM     43  C   UNL A   1      38.525  31.145  29.447  1.00  0.00     0.074 A 
ATOM     44  C   UNL A   1      37.638  30.445  28.546  1.00  0.00     0.031 C 
ATOM     45  C   UNL A   1      42.361  28.495  31.800  1.00  0.00     0.029 A 
ATOM     46  C   UNL A   1      43.185  27.804  30.825  1.00  0.00     0.049 A 
ATOM     47  H   UNL A   1      42.400  26.220  29.607  1.00  0.00     0.167 HD
ATOM     48  C   UNL A   1      38.415  32.219  30.281  1.00  0.00     0.034 A 
ATOM     49  C   UNL A   1      44.399  28.229  30.371  1.00  0.00     0.034 A 
ATOM     50  C   UNL A   1      39.642  32.403  31.071  1.00  0.00     0.049 A 
ATOM     51  C   UNL A   1      44.599  29.728  30.493  1.00  0.00     0.074 A 
ATOM     52  C   UNL A   1      40.001  32.035  32.358  1.00  0.00     0.029 A 
ATOM     53  N   UNL A   1      40.810  32.813  30.441  1.00  0.00    -0.354 N 
ATOM     54  N   UNL A   1      43.676  30.562  30.883  1.00  0.00    -0.248 NA
ATOM     55  C   UNL A   1      45.843  30.412  30.147  1.00  0.00     0.031 C 
ATOM     56  C   UNL A   1      41.412  32.150  32.472  1.00  0.00     0.029 A 
ATOM     57  C   UNL A   1      41.908  32.612  31.264  1.00  0.00     0.049 A 
ATOM     58  H   UNL A   1      40.852  33.194  29.535  1.00  0.00     0.167 HD
ATOM     59  C   UNL A   1      44.104  31.851  30.694  1.00  0.00     0.074 A 
ATOM     60  C   UNL A   1      45.502  31.700  30.329  1.00  0.00     0.031 C 
ATOM     61  C   UNL A   1      43.250  32.918  30.780  1.00  0.00     0.034 A 
BRANCH  48  62
ATOM     62  C   UNL A   1      37.107  32.914  30.634  1.00  0.00     0.023 A 
ATOM     63  C   UNL A   1      36.640  32.786  31.963  1.00  0.00     0.012 A 
ATOM     64  C   UNL A   1      36.254  33.614  29.753  1.00  0.00     0.148 A 
ATOM     65  C   UNL A   1      35.365  33.205  32.361  1.00  0.00     0.002 A 
ATOM     66  C   UNL A   1      34.950  33.960  30.123  1.00  0.00     0.091 A 
ATOM     67  F   UNL A   1      36.724  34.054  28.583  1.00  0.00    -0.205 F 
ATOM     68  C   UNL A   1      34.499  33.750  31.427  1.00  0.00     0.022 A 
BRANCH  66  69
ATOM     69  S   UNL A   1      33.750  34.586  28.933  1.00  0.00     0.127 S 
ATOM     70  O   UNL A   1      34.450  35.740  28.364  1.00  0.00    -0.237 OA
ATOM     71  O   UNL A   1      33.596  33.458  28.017  1.00  0.00    -0.237 OA
ATOM     72  O   UNL A   1      32.564  34.937  29.706  1.00  0.00    -0.744 OA
ENDBRANCH  66  69
ENDBRANCH  48  62
BRANCH  49  73
ATOM     73  C   UNL A   1      44.987  27.355  29.316  1.00  0.00     0.023 A 
ATOM     74  C   UNL A   1      45.374  26.053  29.712  1.00  0.00     0.012 A 
ATOM     75  C   UNL A   1      44.809  27.626  27.948  1.00  0.00     0.148 A 
ATOM     76  C   UNL A   1      45.465  25.017  28.782  1.00  0.00     0.002 A 
ATOM     77  C   UNL A   1      44.894  26.582  27.026  1.00  0.00     0.091 A 
ATOM     78  F   UNL A   1      44.474  28.868  27.580  1.00  0.00    -0.205 F 
ATOM     79  C   UNL A   1      45.193  25.275  27.444  1.00  0.00     0.022 A 
BRANCH  77  80
ATOM     80  S   UNL A   1      44.476  26.814  25.292  1.00  0.00     0.127 S 
ATOM     81  O   UNL A   1      43.854  25.535  24.968  1.00  0.00    -0.237 OA
ATOM     82  O   UNL A   1      43.557  27.952  25.345  1.00  0.00    -0.237 OA
ATOM     83  O   UNL A   1      45.743  27.103  24.639  1.00  0.00    -0.744 OA
ENDBRANCH  77  80
ENDBRANCH  49  73
BRANCH  61  84
ATOM     84  C   UNL A   1      43.571  34.346  30.376  1.00  0.00     0.023 A 
ATOM     85  C   UNL A   1      43.988  35.320  31.302  1.00  0.00     0.012 A 
ATOM     86  C   UNL A   1      43.616  34.716  29.005  1.00  0.00     0.148 A 
ATOM     87  C   UNL A   1      44.383  36.603  30.905  1.00  0.00     0.002 A 
ATOM     88  C   UNL A   1      44.114  35.956  28.607  1.00  0.00     0.091 A 
ATOM     89  F   UNL A   1      43.163  33.870  28.068  1.00  0.00    -0.205 F 
ATOM     90  C   UNL A   1      44.470  36.914  29.555  1.00  0.00     0.022 A 
BRANCH  88  91
ATOM     91  S   UNL A   1      44.460  36.284  26.872  1.00  0.00     0.127 S 
ATOM     92  O   UNL A   1      45.409  35.225  26.539  1.00  0.00    -0.237 OA
ATOM     93  O   UNL A   1      43.144  36.137  26.248  1.00  0.00    -0.237 OA
ATOM     94  O   UNL A   1      44.976  37.646  26.855  1.00  0.00    -0.744 OA
ENDBRANCH  88  91
ENDBRANCH  61  84
ENDBRANCH  35  36
ENDBRANCH  27  30
ENDBRANCH  25  26
ENDBRANCH   1  25
TORSDOF 16
ENDMDL
