MODEL 1
REMARK VINA RESULT:     -12.5      0.000      0.000
REMARK SMILES CS(=O)(=O)c1ccc(-c2csc(=O)n2CC(=O)NCCCNC(=O)c2ccc(-c3c4nc(c(-c5cccc(S(=O)(=O)[O-])c5F)c5ccc([nH]5)c(-c5cccc(S(=O)(=O)[O-])c5F)c5nc(c(-c6cccc(S(=O)(=O)[O-])c6F)c6ccc3[nH]6)C=C5)C=C4)cc2)cc1
REMARK SMILES IDX 20 1 19 2 18 3 16 4 17 5 15 7 14 8 9 9 10 10 11 11 12 12
REMARK SMILES IDX 13 13 8 14 5 15 6 16 89 17 7 18 88 19 2 20 1 21 3 22 4 23
REMARK SMILES IDX 21 24 22 25 23 26 24 28 25 29 26 30 87 31 27 32 86 33 28 34
REMARK SMILES IDX 29 35 30 36 80 37 31 38 85 39 79 40 81 41 32 42 84 43 78 44
REMARK SMILES IDX 77 45 33 47 65 48 45 49 64 50 46 51 49 52 63 53 82 54 47 55
REMARK SMILES IDX 48 56 62 58 83 59 50 60 34 61 35 62 43 63 36 64 38 65 44 66
REMARK SMILES IDX 37 67 39 68 40 69 41 70 42 71 66 72 67 73 75 74 68 75 70 76
REMARK SMILES IDX 76 77 69 78 71 79 72 80 73 81 74 82 51 83 52 84 60 85 53 86
REMARK SMILES IDX 55 87 61 88 54 89 56 90 57 91 58 92 59 93
REMARK H PARENT 18 6 22 27 81 46 49 57
REMARK Flexibility Score: inf
ROOT
ATOM      1  C   UNL A   1      37.645  19.895  24.670  1.00  0.00     0.042 C 
ENDROOT
BRANCH   1   2
ATOM      2  C   UNL A   1      36.278  20.464  25.053  1.00  0.00     0.117 C 
BRANCH   2   3
ATOM      3  N   UNL A   1      36.341  21.636  25.902  1.00  0.00    -0.354 N 
ATOM      4  C   UNL A   1      35.513  22.724  25.901  1.00  0.00     0.240 C 
ATOM      5  O   UNL A   1      35.362  23.319  26.971  1.00  0.00    -0.273 OA
ATOM      6  H   UNL A   1      37.071  21.650  26.562  1.00  0.00     0.163 HD
BRANCH   4   7
ATOM      7  C   UNL A   1      34.623  23.048  24.694  1.00  0.00     0.226 C 
BRANCH   7   8
ATOM      8  N   UNL A   1      33.202  23.163  24.977  1.00  0.00    -0.289 N 
ATOM      9  C   UNL A   1      32.273  22.139  25.107  1.00  0.00     0.063 A 
ATOM     10  C   UNL A   1      31.037  22.578  25.391  1.00  0.00     0.097 A 
ATOM     11  S   UNL A   1      30.970  24.300  25.551  1.00  0.00    -0.082 S 
ATOM     12  C   UNL A   1      32.706  24.439  25.251  1.00  0.00     0.308 A 
ATOM     13  O   UNL A   1      33.323  25.482  25.309  1.00  0.00    -0.257 OA
BRANCH   9  14
ATOM     14  C   UNL A   1      32.566  20.707  24.966  1.00  0.00    -0.001 A 
ATOM     15  C   UNL A   1      33.178  17.984  24.665  1.00  0.00     0.067 A 
ATOM     16  C   UNL A   1      33.201  18.564  25.935  1.00  0.00     0.021 A 
ATOM     17  C   UNL A   1      32.841  18.746  23.546  1.00  0.00     0.021 A 
ATOM     18  C   UNL A   1      32.890  19.921  26.079  1.00  0.00     0.011 A 
ATOM     19  C   UNL A   1      32.515  20.093  23.704  1.00  0.00     0.011 A 
BRANCH  15  20
ATOM     20  S   UNL A   1      33.543  16.265  24.411  1.00  0.00     0.175 S 
ATOM     21  C   UNL A   1      35.011  15.903  25.331  1.00  0.00     0.163 C 
ATOM     22  O   UNL A   1      33.877  16.112  23.007  1.00  0.00    -0.224 OA
ATOM     23  O   UNL A   1      32.450  15.523  25.007  1.00  0.00    -0.224 OA
ENDBRANCH  15  20
ENDBRANCH   9  14
ENDBRANCH   7   8
ENDBRANCH   4   7
ENDBRANCH   2   3
ENDBRANCH   1   2
BRANCH   1  24
ATOM     24  C   UNL A   1      38.740  20.284  25.639  1.00  0.00     0.118 C 
BRANCH  24  25
ATOM     25  N   UNL A   1      39.782  19.252  25.754  1.00  0.00    -0.352 N 
ATOM     26  C   UNL A   1      41.136  19.410  25.993  1.00  0.00     0.251 C 
ATOM     27  H   UNL A   1      39.475  18.323  25.644  1.00  0.00     0.163 HD
ATOM     28  O   UNL A   1      41.924  18.507  25.735  1.00  0.00    -0.269 OA
BRANCH  26  29
ATOM     29  C   UNL A   1      41.609  20.684  26.558  1.00  0.00     0.039 A 
ATOM     30  C   UNL A   1      42.216  21.674  25.780  1.00  0.00     0.014 A 
ATOM     31  C   UNL A   1      41.371  20.896  27.907  1.00  0.00     0.014 A 
ATOM     32  C   UNL A   1      42.504  22.901  26.374  1.00  0.00     0.010 A 
ATOM     33  C   UNL A   1      41.390  22.166  28.398  1.00  0.00     0.010 A 
ATOM     34  C   UNL A   1      42.068  23.138  27.685  1.00  0.00    -0.014 A 
BRANCH  34  35
ATOM     35  C   UNL A   1      42.223  24.426  28.344  1.00  0.00     0.031 A 
ATOM     36  C   UNL A   1      41.068  25.333  28.151  1.00  0.00     0.074 A 
ATOM     37  C   UNL A   1      43.199  24.648  29.256  1.00  0.00     0.049 A 
ATOM     38  N   UNL A   1      41.010  26.385  27.404  1.00  0.00    -0.248 NA
ATOM     39  C   UNL A   1      39.764  24.911  28.689  1.00  0.00     0.031 C 
ATOM     40  C   UNL A   1      44.174  23.675  29.780  1.00  0.00     0.029 A 
ATOM     41  N   UNL A   1      43.424  25.738  30.035  1.00  0.00    -0.354 N 
ATOM     42  C   UNL A   1      39.740  26.912  27.627  1.00  0.00     0.074 A 
ATOM     43  C   UNL A   1      38.956  25.837  28.167  1.00  0.00     0.031 C 
ATOM     44  C   UNL A   1      44.681  24.126  30.947  1.00  0.00     0.029 A 
ATOM     45  C   UNL A   1      44.222  25.484  31.150  1.00  0.00     0.049 A 
ATOM     46  H   UNL A   1      43.058  26.628  29.831  1.00  0.00     0.167 HD
ATOM     47  C   UNL A   1      39.551  28.261  27.681  1.00  0.00     0.034 A 
ATOM     48  C   UNL A   1      44.457  26.318  32.190  1.00  0.00     0.034 A 
ATOM     49  C   UNL A   1      40.718  28.957  27.187  1.00  0.00     0.049 A 
ATOM     50  C   UNL A   1      44.128  27.682  31.730  1.00  0.00     0.074 A 
ATOM     51  C   UNL A   1      41.422  29.000  26.002  1.00  0.00     0.029 A 
ATOM     52  N   UNL A   1      41.549  29.462  28.157  1.00  0.00    -0.354 N 
ATOM     53  N   UNL A   1      44.790  28.305  30.795  1.00  0.00    -0.248 NA
ATOM     54  C   UNL A   1      42.802  28.205  32.014  1.00  0.00     0.031 C 
ATOM     55  C   UNL A   1      42.787  29.165  26.385  1.00  0.00     0.029 A 
ATOM     56  C   UNL A   1      42.849  29.284  27.776  1.00  0.00     0.049 A 
ATOM     57  H   UNL A   1      41.254  29.885  28.996  1.00  0.00     0.167 HD
ATOM     58  C   UNL A   1      43.808  28.960  30.065  1.00  0.00     0.074 A 
ATOM     59  C   UNL A   1      42.645  28.993  30.946  1.00  0.00     0.031 C 
ATOM     60  C   UNL A   1      43.942  29.130  28.716  1.00  0.00     0.034 A 
BRANCH  47  61
ATOM     61  C   UNL A   1      38.555  28.981  28.579  1.00  0.00     0.023 A 
ATOM     62  C   UNL A   1      37.778  29.996  27.968  1.00  0.00     0.012 A 
ATOM     63  C   UNL A   1      38.537  28.941  29.992  1.00  0.00     0.148 A 
ATOM     64  C   UNL A   1      37.104  30.965  28.718  1.00  0.00     0.002 A 
ATOM     65  C   UNL A   1      37.805  29.862  30.734  1.00  0.00     0.091 A 
ATOM     66  F   UNL A   1      39.324  28.096  30.657  1.00  0.00    -0.205 F 
ATOM     67  C   UNL A   1      37.117  30.899  30.104  1.00  0.00     0.022 A 
BRANCH  65  68
ATOM     68  S   UNL A   1      37.753  29.799  32.532  1.00  0.00     0.127 S 
ATOM     69  O   UNL A   1      36.711  30.777  32.826  1.00  0.00    -0.237 OA
ATOM     70  O   UNL A   1      37.383  28.403  32.767  1.00  0.00    -0.237 OA
ATOM     71  O   UNL A   1      39.098  30.142  32.977  1.00  0.00    -0.744 OA
ENDBRANCH  65  68
ENDBRANCH  47  61
BRANCH  48  72
ATOM     72  C   UNL A   1      44.735  26.010  33.611  1.00  0.00     0.023 A 
ATOM     73  C   UNL A   1      46.066  25.910  34.063  1.00  0.00     0.012 A 
ATOM     74  C   UNL A   1      43.705  26.084  34.575  1.00  0.00     0.148 A 
ATOM     75  C   UNL A   1      46.363  25.914  35.431  1.00  0.00     0.002 A 
ATOM     76  C   UNL A   1      44.005  26.082  35.933  1.00  0.00     0.091 A 
ATOM     77  F   UNL A   1      42.443  26.244  34.152  1.00  0.00    -0.205 F 
ATOM     78  C   UNL A   1      45.336  26.011  36.366  1.00  0.00     0.022 A 
BRANCH  76  79
ATOM     79  S   UNL A   1      42.740  26.228  37.202  1.00  0.00     0.127 S 
ATOM     80  O   UNL A   1      42.003  24.974  37.032  1.00  0.00    -0.237 OA
ATOM     81  O   UNL A   1      43.542  26.305  38.420  1.00  0.00    -0.237 OA
ATOM     82  O   UNL A   1      41.982  27.426  36.868  1.00  0.00    -0.744 OA
ENDBRANCH  76  79
ENDBRANCH  48  72
BRANCH  60  83
ATOM     83  C   UNL A   1      45.310  28.923  28.114  1.00  0.00     0.023 A 
ATOM     84  C   UNL A   1      46.336  29.888  28.191  1.00  0.00     0.012 A 
ATOM     85  C   UNL A   1      45.610  27.652  27.597  1.00  0.00     0.148 A 
ATOM     86  C   UNL A   1      47.628  29.594  27.745  1.00  0.00     0.002 A 
ATOM     87  C   UNL A   1      46.905  27.348  27.202  1.00  0.00     0.091 A 
ATOM     88  F   UNL A   1      44.622  26.748  27.530  1.00  0.00    -0.205 F 
ATOM     89  C   UNL A   1      47.916  28.319  27.264  1.00  0.00     0.022 A 
BRANCH  87  90
ATOM     90  S   UNL A   1      47.361  25.688  26.698  1.00  0.00     0.127 S 
ATOM     91  O   UNL A   1      46.975  24.897  27.865  1.00  0.00    -0.237 OA
ATOM     92  O   UNL A   1      46.527  25.478  25.514  1.00  0.00    -0.237 OA
ATOM     93  O   UNL A   1      48.791  25.733  26.416  1.00  0.00    -0.744 OA
ENDBRANCH  87  90
ENDBRANCH  60  83
ENDBRANCH  34  35
ENDBRANCH  26  29
ENDBRANCH  24  25
ENDBRANCH   1  24
TORSDOF 16
ENDMDL
MODEL 2
REMARK VINA RESULT:     -11.9      4.441      9.532
REMARK SMILES CS(=O)(=O)c1ccc(-c2csc(=O)n2CC(=O)NCCCNC(=O)c2ccc(-c3c4nc(c(-c5cccc(S(=O)(=O)[O-])c5F)c5ccc([nH]5)c(-c5cccc(S(=O)(=O)[O-])c5F)c5nc(c(-c6cccc(S(=O)(=O)[O-])c6F)c6ccc3[nH]6)C=C5)C=C4)cc2)cc1
REMARK SMILES IDX 20 1 19 2 18 3 16 4 17 5 15 7 14 8 9 9 10 10 11 11 12 12
REMARK SMILES IDX 13 13 8 14 5 15 6 16 89 17 7 18 88 19 2 20 1 21 3 22 4 23
REMARK SMILES IDX 21 24 22 25 23 26 24 28 25 29 26 30 87 31 27 32 86 33 28 34
REMARK SMILES IDX 29 35 30 36 80 37 31 38 85 39 79 40 81 41 32 42 84 43 78 44
REMARK SMILES IDX 77 45 33 47 65 48 45 49 64 50 46 51 49 52 63 53 82 54 47 55
REMARK SMILES IDX 48 56 62 58 83 59 50 60 34 61 35 62 43 63 36 64 38 65 44 66
REMARK SMILES IDX 37 67 39 68 40 69 41 70 42 71 66 72 67 73 75 74 68 75 70 76
REMARK SMILES IDX 76 77 69 78 71 79 72 80 73 81 74 82 51 83 52 84 60 85 53 86
REMARK SMILES IDX 55 87 61 88 54 89 56 90 57 91 58 92 59 93
REMARK H PARENT 18 6 22 27 81 46 49 57
REMARK Flexibility Score: inf
ROOT
ATOM      1  C   UNL A   1      31.394  31.833  26.897  1.00  0.00     0.042 C 
ENDROOT
BRANCH   1   2
ATOM      2  C   UNL A   1      31.497  30.814  25.762  1.00  0.00     0.117 C 
BRANCH   2   3
ATOM      3  N   UNL A   1      32.495  29.786  25.978  1.00  0.00    -0.354 N 
ATOM      4  C   UNL A   1      33.042  28.935  25.059  1.00  0.00     0.240 C 
ATOM      5  O   UNL A   1      34.193  28.543  25.267  1.00  0.00    -0.273 OA
ATOM      6  H   UNL A   1      32.821  29.690  26.903  1.00  0.00     0.163 HD
BRANCH   4   7
ATOM      7  C   UNL A   1      32.358  28.669  23.712  1.00  0.00     0.226 C 
BRANCH   7   8
ATOM      8  N   UNL A   1      31.257  27.721  23.743  1.00  0.00    -0.289 N 
ATOM      9  C   UNL A   1      31.315  26.355  23.991  1.00  0.00     0.063 A 
ATOM     10  C   UNL A   1      30.112  25.761  23.970  1.00  0.00     0.097 A 
ATOM     11  S   UNL A   1      28.828  26.884  23.675  1.00  0.00    -0.082 S 
ATOM     12  C   UNL A   1      29.966  28.235  23.609  1.00  0.00     0.308 A 
ATOM     13  O   UNL A   1      29.634  29.395  23.490  1.00  0.00    -0.257 OA
BRANCH   9  14
ATOM     14  C   UNL A   1      32.542  25.596  24.262  1.00  0.00    -0.001 A 
ATOM     15  C   UNL A   1      34.921  24.192  24.763  1.00  0.00     0.067 A 
ATOM     16  C   UNL A   1      34.089  24.548  25.826  1.00  0.00     0.021 A 
ATOM     17  C   UNL A   1      34.573  24.520  23.452  1.00  0.00     0.021 A 
ATOM     18  C   UNL A   1      32.901  25.244  25.569  1.00  0.00     0.011 A 
ATOM     19  C   UNL A   1      33.378  25.196  23.207  1.00  0.00     0.011 A 
BRANCH  15  20
ATOM     20  S   UNL A   1      36.433  23.294  25.013  1.00  0.00     0.175 S 
ATOM     21  C   UNL A   1      36.007  21.766  25.799  1.00  0.00     0.163 C 
ATOM     22  O   UNL A   1      37.218  24.055  25.967  1.00  0.00    -0.224 OA
ATOM     23  O   UNL A   1      36.947  22.988  23.693  1.00  0.00    -0.224 OA
ENDBRANCH  15  20
ENDBRANCH   9  14
ENDBRANCH   7   8
ENDBRANCH   4   7
ENDBRANCH   2   3
ENDBRANCH   1   2
BRANCH   1  24
ATOM     24  C   UNL A   1      32.678  32.602  27.120  1.00  0.00     0.118 C 
BRANCH  24  25
ATOM     25  N   UNL A   1      32.440  33.953  27.650  1.00  0.00    -0.352 N 
ATOM     26  C   UNL A   1      33.079  34.600  28.694  1.00  0.00     0.251 C 
ATOM     27  H   UNL A   1      31.728  34.467  27.203  1.00  0.00     0.163 HD
ATOM     28  O   UNL A   1      32.564  35.573  29.233  1.00  0.00    -0.269 OA
BRANCH  26  29
ATOM     29  C   UNL A   1      34.386  34.093  29.144  1.00  0.00     0.039 A 
ATOM     30  C   UNL A   1      34.555  33.421  30.358  1.00  0.00     0.014 A 
ATOM     31  C   UNL A   1      35.453  34.257  28.274  1.00  0.00     0.014 A 
ATOM     32  C   UNL A   1      35.798  32.856  30.635  1.00  0.00     0.010 A 
ATOM     33  C   UNL A   1      36.557  33.474  28.417  1.00  0.00     0.010 A 
ATOM     34  C   UNL A   1      36.789  32.877  29.643  1.00  0.00    -0.014 A 
BRANCH  34  35
ATOM     35  C   UNL A   1      38.074  32.214  29.802  1.00  0.00     0.031 A 
ATOM     36  C   UNL A   1      38.094  30.828  29.278  1.00  0.00     0.074 A 
ATOM     37  C   UNL A   1      39.192  32.898  30.141  1.00  0.00     0.049 A 
ATOM     38  N   UNL A   1      38.107  29.731  29.959  1.00  0.00    -0.248 NA
ATOM     39  C   UNL A   1      37.867  30.634  27.837  1.00  0.00     0.031 C 
ATOM     40  C   UNL A   1      39.333  34.353  30.324  1.00  0.00     0.029 A 
ATOM     41  N   UNL A   1      40.478  32.466  30.229  1.00  0.00    -0.354 N 
ATOM     42  C   UNL A   1      38.193  28.720  29.004  1.00  0.00     0.074 A 
ATOM     43  C   UNL A   1      37.752  29.305  27.769  1.00  0.00     0.031 C 
ATOM     44  C   UNL A   1      40.634  34.698  30.228  1.00  0.00     0.029 A 
ATOM     45  C   UNL A   1      41.426  33.487  30.174  1.00  0.00     0.049 A 
ATOM     46  H   UNL A   1      40.719  31.516  30.324  1.00  0.00     0.167 HD
ATOM     47  C   UNL A   1      38.947  27.609  29.239  1.00  0.00     0.034 A 
ATOM     48  C   UNL A   1      42.766  33.348  30.050  1.00  0.00     0.034 A 
ATOM     49  C   UNL A   1      39.322  27.536  30.633  1.00  0.00     0.049 A 
ATOM     50  C   UNL A   1      43.094  31.967  30.458  1.00  0.00     0.074 A 
ATOM     51  C   UNL A   1      38.657  27.465  31.839  1.00  0.00     0.029 A 
ATOM     52  N   UNL A   1      40.603  27.946  30.914  1.00  0.00    -0.354 N 
ATOM     53  N   UNL A   1      42.938  31.520  31.672  1.00  0.00    -0.248 NA
ATOM     54  C   UNL A   1      43.206  30.951  29.425  1.00  0.00     0.031 C 
ATOM     55  C   UNL A   1      39.458  28.215  32.752  1.00  0.00     0.029 A 
ATOM     56  C   UNL A   1      40.606  28.651  32.084  1.00  0.00     0.049 A 
ATOM     57  H   UNL A   1      41.395  27.761  30.358  1.00  0.00     0.167 HD
ATOM     58  C   UNL A   1      42.457  30.229  31.498  1.00  0.00     0.074 A 
ATOM     59  C   UNL A   1      42.795  29.886  30.120  1.00  0.00     0.031 C 
ATOM     60  C   UNL A   1      41.566  29.694  32.385  1.00  0.00     0.034 A 
BRANCH  47  61
ATOM     61  C   UNL A   1      39.740  26.839  28.193  1.00  0.00     0.023 A 
ATOM     62  C   UNL A   1      39.623  25.427  28.229  1.00  0.00     0.012 A 
ATOM     63  C   UNL A   1      40.786  27.362  27.399  1.00  0.00     0.148 A 
ATOM     64  C   UNL A   1      40.545  24.591  27.590  1.00  0.00     0.002 A 
ATOM     65  C   UNL A   1      41.657  26.528  26.704  1.00  0.00     0.091 A 
ATOM     66  F   UNL A   1      41.046  28.669  27.393  1.00  0.00    -0.205 F 
ATOM     67  C   UNL A   1      41.564  25.142  26.827  1.00  0.00     0.022 A 
BRANCH  65  68
ATOM     68  S   UNL A   1      42.971  27.188  25.668  1.00  0.00     0.127 S 
ATOM     69  O   UNL A   1      43.831  27.823  26.661  1.00  0.00    -0.237 OA
ATOM     70  O   UNL A   1      43.511  25.970  25.064  1.00  0.00    -0.237 OA
ATOM     71  O   UNL A   1      42.316  28.082  24.721  1.00  0.00    -0.744 OA
ENDBRANCH  65  68
ENDBRANCH  47  61
BRANCH  48  72
ATOM     72  C   UNL A   1      43.758  34.237  29.405  1.00  0.00     0.023 A 
ATOM     73  C   UNL A   1      44.528  35.119  30.189  1.00  0.00     0.012 A 
ATOM     74  C   UNL A   1      44.140  34.028  28.061  1.00  0.00     0.148 A 
ATOM     75  C   UNL A   1      45.662  35.748  29.659  1.00  0.00     0.002 A 
ATOM     76  C   UNL A   1      45.264  34.661  27.538  1.00  0.00     0.091 A 
ATOM     77  F   UNL A   1      43.450  33.142  27.330  1.00  0.00    -0.205 F 
ATOM     78  C   UNL A   1      46.036  35.513  28.340  1.00  0.00     0.022 A 
BRANCH  76  79
ATOM     79  S   UNL A   1      45.827  34.390  25.853  1.00  0.00     0.127 S 
ATOM     80  O   UNL A   1      46.786  35.483  25.681  1.00  0.00    -0.237 OA
ATOM     81  O   UNL A   1      46.425  33.061  25.944  1.00  0.00    -0.237 OA
ATOM     82  O   UNL A   1      44.638  34.492  25.018  1.00  0.00    -0.744 OA
ENDBRANCH  76  79
ENDBRANCH  48  72
BRANCH  60  83
ATOM     83  C   UNL A   1      41.405  30.380  33.720  1.00  0.00     0.023 A 
ATOM     84  C   UNL A   1      42.321  30.220  34.781  1.00  0.00     0.012 A 
ATOM     85  C   UNL A   1      40.383  31.336  33.842  1.00  0.00     0.148 A 
ATOM     86  C   UNL A   1      42.206  30.985  35.945  1.00  0.00     0.002 A 
ATOM     87  C   UNL A   1      40.303  32.129  34.979  1.00  0.00     0.091 A 
ATOM     88  F   UNL A   1      39.521  31.473  32.825  1.00  0.00    -0.205 F 
ATOM     89  C   UNL A   1      41.206  31.950  36.038  1.00  0.00     0.022 A 
BRANCH  87  90
ATOM     90  S   UNL A   1      39.120  33.471  35.097  1.00  0.00     0.127 S 
ATOM     91  O   UNL A   1      39.463  34.069  36.387  1.00  0.00    -0.237 OA
ATOM     92  O   UNL A   1      39.457  34.292  33.933  1.00  0.00    -0.237 OA
ATOM     93  O   UNL A   1      37.802  32.852  35.024  1.00  0.00    -0.744 OA
ENDBRANCH  87  90
ENDBRANCH  60  83
ENDBRANCH  34  35
ENDBRANCH  26  29
ENDBRANCH  24  25
ENDBRANCH   1  24
TORSDOF 16
ENDMDL
MODEL 3
REMARK VINA RESULT:     -11.9      5.029     10.229
REMARK SMILES CS(=O)(=O)c1ccc(-c2csc(=O)n2CC(=O)NCCCNC(=O)c2ccc(-c3c4nc(c(-c5cccc(S(=O)(=O)[O-])c5F)c5ccc([nH]5)c(-c5cccc(S(=O)(=O)[O-])c5F)c5nc(c(-c6cccc(S(=O)(=O)[O-])c6F)c6ccc3[nH]6)C=C5)C=C4)cc2)cc1
REMARK SMILES IDX 20 1 19 2 18 3 16 4 17 5 15 7 14 8 9 9 10 10 11 11 12 12
REMARK SMILES IDX 13 13 8 14 5 15 6 16 89 17 7 18 88 19 2 20 1 21 3 22 4 23
REMARK SMILES IDX 21 24 22 25 23 26 24 28 25 29 26 30 87 31 27 32 86 33 28 34
REMARK SMILES IDX 29 35 30 36 80 37 31 38 85 39 79 40 81 41 32 42 84 43 78 44
REMARK SMILES IDX 77 45 33 47 65 48 45 49 64 50 46 51 49 52 63 53 82 54 47 55
REMARK SMILES IDX 48 56 62 58 83 59 50 60 34 61 35 62 43 63 36 64 38 65 44 66
REMARK SMILES IDX 37 67 39 68 40 69 41 70 42 71 66 72 67 73 75 74 68 75 70 76
REMARK SMILES IDX 76 77 69 78 71 79 72 80 73 81 74 82 51 83 52 84 60 85 53 86
REMARK SMILES IDX 55 87 61 88 54 89 56 90 57 91 58 92 59 93
REMARK H PARENT 18 6 22 27 81 46 49 57
REMARK Flexibility Score: inf
ROOT
ATOM      1  C   UNL A   1      31.386  31.603  26.357  1.00  0.00     0.042 C 
ENDROOT
BRANCH   1   2
ATOM      2  C   UNL A   1      31.853  30.298  25.713  1.00  0.00     0.117 C 
BRANCH   2   3
ATOM      3  N   UNL A   1      31.393  29.104  26.393  1.00  0.00    -0.354 N 
ATOM      4  C   UNL A   1      32.024  27.896  26.495  1.00  0.00     0.240 C 
ATOM      5  O   UNL A   1      31.792  27.222  27.502  1.00  0.00    -0.273 OA
ATOM      6  H   UNL A   1      30.518  29.172  26.838  1.00  0.00     0.163 HD
BRANCH   4   7
ATOM      7  C   UNL A   1      33.152  27.500  25.533  1.00  0.00     0.226 C 
BRANCH   7   8
ATOM      8  N   UNL A   1      32.863  26.377  24.657  1.00  0.00    -0.289 N 
ATOM      9  C   UNL A   1      31.922  26.310  23.638  1.00  0.00     0.063 A 
ATOM     10  C   UNL A   1      31.917  25.130  22.997  1.00  0.00     0.097 A 
ATOM     11  S   UNL A   1      33.119  24.044  23.609  1.00  0.00    -0.082 S 
ATOM     12  C   UNL A   1      33.683  25.251  24.769  1.00  0.00     0.308 A 
ATOM     13  O   UNL A   1      34.638  25.096  25.499  1.00  0.00    -0.257 OA
BRANCH   9  14
ATOM     14  C   UNL A   1      31.009  27.395  23.256  1.00  0.00    -0.001 A 
ATOM     15  C   UNL A   1      29.260  29.485  22.585  1.00  0.00     0.067 A 
ATOM     16  C   UNL A   1      30.597  29.546  22.190  1.00  0.00     0.021 A 
ATOM     17  C   UNL A   1      28.784  28.386  23.301  1.00  0.00     0.021 A 
ATOM     18  C   UNL A   1      31.464  28.499  22.524  1.00  0.00     0.011 A 
ATOM     19  C   UNL A   1      29.652  27.339  23.612  1.00  0.00     0.011 A 
BRANCH  15  20
ATOM     20  S   UNL A   1      28.100  30.769  22.182  1.00  0.00     0.175 S 
ATOM     21  C   UNL A   1      28.931  32.313  22.420  1.00  0.00     0.163 C 
ATOM     22  O   UNL A   1      27.043  30.702  23.172  1.00  0.00    -0.224 OA
ATOM     23  O   UNL A   1      27.814  30.630  20.768  1.00  0.00    -0.224 OA
ENDBRANCH  15  20
ENDBRANCH   9  14
ENDBRANCH   7   8
ENDBRANCH   4   7
ENDBRANCH   2   3
ENDBRANCH   1   2
BRANCH   1  24
ATOM     24  C   UNL A   1      32.384  32.164  27.348  1.00  0.00     0.118 C 
BRANCH  24  25
ATOM     25  N   UNL A   1      32.218  33.610  27.556  1.00  0.00    -0.352 N 
ATOM     26  C   UNL A   1      32.939  34.456  28.381  1.00  0.00     0.251 C 
ATOM     27  H   UNL A   1      31.495  34.035  27.039  1.00  0.00     0.163 HD
ATOM     28  O   UNL A   1      32.487  35.549  28.702  1.00  0.00    -0.269 OA
BRANCH  26  29
ATOM     29  C   UNL A   1      34.256  34.013  28.868  1.00  0.00     0.039 A 
ATOM     30  C   UNL A   1      34.442  33.454  30.136  1.00  0.00     0.014 A 
ATOM     31  C   UNL A   1      35.317  34.118  27.982  1.00  0.00     0.014 A 
ATOM     32  C   UNL A   1      35.695  32.937  30.455  1.00  0.00     0.010 A 
ATOM     33  C   UNL A   1      36.436  33.369  28.187  1.00  0.00     0.010 A 
ATOM     34  C   UNL A   1      36.682  32.887  29.460  1.00  0.00    -0.014 A 
BRANCH  34  35
ATOM     35  C   UNL A   1      37.979  32.263  29.671  1.00  0.00     0.031 A 
ATOM     36  C   UNL A   1      38.050  30.866  29.182  1.00  0.00     0.074 A 
ATOM     37  C   UNL A   1      39.069  32.984  30.023  1.00  0.00     0.049 A 
ATOM     38  N   UNL A   1      38.072  29.786  29.890  1.00  0.00    -0.248 NA
ATOM     39  C   UNL A   1      37.869  30.631  27.741  1.00  0.00     0.031 C 
ATOM     40  C   UNL A   1      39.166  34.446  30.175  1.00  0.00     0.029 A 
ATOM     41  N   UNL A   1      40.362  32.589  30.158  1.00  0.00    -0.354 N 
ATOM     42  C   UNL A   1      38.212  28.755  28.963  1.00  0.00     0.074 A 
ATOM     43  C   UNL A   1      37.791  29.299  27.702  1.00  0.00     0.031 C 
ATOM     44  C   UNL A   1      40.460  34.823  30.106  1.00  0.00     0.029 A 
ATOM     45  C   UNL A   1      41.284  33.633  30.103  1.00  0.00     0.049 A 
ATOM     46  H   UNL A   1      40.625  31.649  30.283  1.00  0.00     0.167 HD
ATOM     47  C   UNL A   1      38.987  27.670  29.246  1.00  0.00     0.034 A 
ATOM     48  C   UNL A   1      42.631  33.528  30.020  1.00  0.00     0.034 A 
ATOM     49  C   UNL A   1      39.325  27.641  30.651  1.00  0.00     0.049 A 
ATOM     50  C   UNL A   1      42.983  32.166  30.471  1.00  0.00     0.074 A 
ATOM     51  C   UNL A   1      38.629  27.581  31.840  1.00  0.00     0.029 A 
ATOM     52  N   UNL A   1      40.586  28.091  30.957  1.00  0.00    -0.354 N 
ATOM     53  N   UNL A   1      42.805  31.744  31.691  1.00  0.00    -0.248 NA
ATOM     54  C   UNL A   1      43.151  31.129  29.467  1.00  0.00     0.031 C 
ATOM     55  C   UNL A   1      39.383  28.374  32.755  1.00  0.00     0.029 A 
ATOM     56  C   UNL A   1      40.538  28.824  32.109  1.00  0.00     0.049 A 
ATOM     57  H   UNL A   1      41.398  27.915  30.428  1.00  0.00     0.167 HD
ATOM     58  C   UNL A   1      42.363  30.437  31.536  1.00  0.00     0.074 A 
ATOM     59  C   UNL A   1      42.748  30.070  30.176  1.00  0.00     0.031 C 
ATOM     60  C   UNL A   1      41.461  29.899  32.411  1.00  0.00     0.034 A 
BRANCH  47  61
ATOM     61  C   UNL A   1      39.830  26.897  28.241  1.00  0.00     0.023 A 
ATOM     62  C   UNL A   1      39.759  25.484  28.317  1.00  0.00     0.012 A 
ATOM     63  C   UNL A   1      40.876  27.432  27.455  1.00  0.00     0.148 A 
ATOM     64  C   UNL A   1      40.722  24.661  27.724  1.00  0.00     0.002 A 
ATOM     65  C   UNL A   1      41.790  26.608  26.805  1.00  0.00     0.091 A 
ATOM     66  F   UNL A   1      41.092  28.746  27.415  1.00  0.00    -0.205 F 
ATOM     67  C   UNL A   1      41.740  25.223  26.968  1.00  0.00     0.022 A 
BRANCH  65  68
ATOM     68  S   UNL A   1      43.105  27.281  25.778  1.00  0.00     0.127 S 
ATOM     69  O   UNL A   1      42.340  27.906  24.703  1.00  0.00    -0.237 OA
ATOM     70  O   UNL A   1      43.755  28.210  26.703  1.00  0.00    -0.237 OA
ATOM     71  O   UNL A   1      43.931  26.142  25.398  1.00  0.00    -0.744 OA
ENDBRANCH  65  68
ENDBRANCH  47  61
BRANCH  48  72
ATOM     72  C   UNL A   1      43.616  34.428  29.381  1.00  0.00     0.023 A 
ATOM     73  C   UNL A   1      43.972  34.239  28.031  1.00  0.00     0.012 A 
ATOM     74  C   UNL A   1      44.001  35.632  30.012  1.00  0.00     0.148 A 
ATOM     75  C   UNL A   1      44.662  35.231  27.323  1.00  0.00     0.002 A 
ATOM     76  C   UNL A   1      44.690  36.612  29.305  1.00  0.00     0.091 A 
ATOM     77  F   UNL A   1      43.610  35.846  31.276  1.00  0.00    -0.205 F 
ATOM     78  C   UNL A   1      45.012  36.420  27.955  1.00  0.00     0.022 A 
BRANCH  76  79
ATOM     79  S   UNL A   1      45.157  38.185  30.042  1.00  0.00     0.127 S 
ATOM     80  O   UNL A   1      45.930  38.801  28.962  1.00  0.00    -0.237 OA
ATOM     81  O   UNL A   1      43.856  38.799  30.289  1.00  0.00    -0.237 OA
ATOM     82  O   UNL A   1      45.934  37.850  31.227  1.00  0.00    -0.744 OA
ENDBRANCH  76  79
ENDBRANCH  48  72
BRANCH  60  83
ATOM     83  C   UNL A   1      41.245  30.613  33.723  1.00  0.00     0.023 A 
ATOM     84  C   UNL A   1      42.134  30.502  34.812  1.00  0.00     0.012 A 
ATOM     85  C   UNL A   1      40.196  31.543  33.794  1.00  0.00     0.148 A 
ATOM     86  C   UNL A   1      41.967  31.292  35.954  1.00  0.00     0.002 A 
ATOM     87  C   UNL A   1      40.063  32.361  34.907  1.00  0.00     0.091 A 
ATOM     88  F   UNL A   1      39.359  31.634  32.749  1.00  0.00    -0.205 F 
ATOM     89  C   UNL A   1      40.940  32.232  35.995  1.00  0.00     0.022 A 
BRANCH  87  90
ATOM     90  S   UNL A   1      38.842  33.674  34.960  1.00  0.00     0.127 S 
ATOM     91  O   UNL A   1      39.183  34.358  36.207  1.00  0.00    -0.237 OA
ATOM     92  O   UNL A   1      39.142  34.432  33.745  1.00  0.00    -0.237 OA
ATOM     93  O   UNL A   1      37.543  33.014  34.942  1.00  0.00    -0.744 OA
ENDBRANCH  87  90
ENDBRANCH  60  83
ENDBRANCH  34  35
ENDBRANCH  26  29
ENDBRANCH  24  25
ENDBRANCH   1  24
TORSDOF 16
ENDMDL
