MODEL 1
REMARK VINA RESULT:     -12.1      0.000      0.000
REMARK SMILES CCC1CN(c2cc(F)ccc2C(=O)NCCCNC(=O)c2ccc(-c3c4nc(c(-c5cccc(S(=O)(=O)[O-])c5F)c5ccc([nH]5)c(-c5cccc(S(=O)(=O)[O-])c5F)c5nc(c(-c6cccc(S(=O)(=O)[O-])c6F)c6ccc3[nH]6)C=C5)C=C4)cc2)C1
REMARK SMILES IDX 17 1 16 2 15 3 13 4 14 5 12 7 6 8 7 9 8 10 11 11 9 12 10 13
REMARK SMILES IDX 5 14 3 15 4 16 85 17 2 18 1 19 18 20 19 21 20 22 21 24 22 25
REMARK SMILES IDX 23 26 84 27 24 28 83 29 25 30 26 31 27 32 77 33 28 34 82 35
REMARK SMILES IDX 76 36 78 37 29 38 81 39 75 40 74 41 30 43 62 44 42 45 61 46
REMARK SMILES IDX 43 47 46 48 60 49 79 50 44 51 45 52 59 54 80 55 47 56 31 57
REMARK SMILES IDX 32 58 40 59 33 60 35 61 41 62 34 63 36 64 37 65 38 66 39 67
REMARK SMILES IDX 63 68 64 69 72 70 65 71 67 72 73 73 66 74 68 75 69 76 70 77
REMARK SMILES IDX 71 78 48 79 49 80 57 81 50 82 52 83 58 84 51 85 53 86 54 87
REMARK SMILES IDX 55 88 56 89
REMARK H PARENT 15 6 19 23 78 42 46 53
REMARK Flexibility Score: inf
ROOT
ATOM      1  C   UNL A   1      32.814  29.001  23.327  1.00  0.00     0.042 C 
ENDROOT
BRANCH   1   2
ATOM      2  C   UNL A   1      34.026  28.544  22.533  1.00  0.00     0.118 C 
BRANCH   2   3
ATOM      3  N   UNL A   1      33.655  27.480  21.647  1.00  0.00    -0.352 N 
ATOM      4  C   UNL A   1      33.191  26.213  21.803  1.00  0.00     0.253 C 
ATOM      5  O   UNL A   1      33.169  25.594  20.727  1.00  0.00    -0.269 OA
ATOM      6  H   UNL A   1      33.760  27.728  20.699  1.00  0.00     0.163 HD
BRANCH   4   7
ATOM      7  C   UNL A   1      32.654  25.520  23.035  1.00  0.00     0.063 A 
ATOM      8  C   UNL A   1      33.238  24.695  24.034  1.00  0.00     0.052 A 
ATOM      9  C   UNL A   1      32.389  24.186  25.061  1.00  0.00     0.066 A 
ATOM     10  C   UNL A   1      31.021  24.417  25.085  1.00  0.00     0.125 A 
ATOM     11  C   UNL A   1      31.244  25.745  23.128  1.00  0.00     0.019 A 
ATOM     12  F   UNL A   1      30.267  23.866  26.043  1.00  0.00    -0.207 F 
ATOM     13  C   UNL A   1      30.434  25.193  24.117  1.00  0.00     0.040 A 
BRANCH   8  14
ATOM     14  N   UNL A   1      34.588  24.227  24.069  1.00  0.00    -0.370 N 
ATOM     15  C   UNL A   1      35.737  22.515  24.576  1.00  0.00     0.028 C 
ATOM     16  C   UNL A   1      35.271  23.792  25.275  1.00  0.00     0.122 C 
ATOM     17  C   UNL A   1      35.014  23.039  23.331  1.00  0.00     0.122 C 
BRANCH  15  18
ATOM     18  C   UNL A   1      37.224  22.145  24.561  1.00  0.00     0.004 C 
ATOM     19  C   UNL A   1      37.538  20.729  24.999  1.00  0.00     0.004 C 
ENDBRANCH  15  18
ENDBRANCH   8  14
ENDBRANCH   4   7
ENDBRANCH   2   3
ENDBRANCH   1   2
BRANCH   1  20
ATOM     20  C   UNL A   1      33.034  29.093  24.828  1.00  0.00     0.118 C 
BRANCH  20  21
ATOM     21  N   UNL A   1      32.350  30.205  25.474  1.00  0.00    -0.352 N 
ATOM     22  C   UNL A   1      32.686  30.959  26.576  1.00  0.00     0.251 C 
ATOM     23  H   UNL A   1      31.500  30.462  25.049  1.00  0.00     0.163 HD
ATOM     24  O   UNL A   1      31.887  31.808  26.968  1.00  0.00    -0.269 OA
BRANCH  22  25
ATOM     25  C   UNL A   1      33.952  30.740  27.322  1.00  0.00     0.039 A 
ATOM     26  C   UNL A   1      34.752  31.850  27.627  1.00  0.00     0.014 A 
ATOM     27  C   UNL A   1      34.375  29.471  27.715  1.00  0.00     0.014 A 
ATOM     28  C   UNL A   1      35.930  31.692  28.367  1.00  0.00     0.010 A 
ATOM     29  C   UNL A   1      35.484  29.327  28.544  1.00  0.00     0.010 A 
ATOM     30  C   UNL A   1      36.294  30.429  28.853  1.00  0.00    -0.014 A 
BRANCH  30  31
ATOM     31  C   UNL A   1      37.552  30.199  29.609  1.00  0.00     0.031 A 
ATOM     32  C   UNL A   1      38.611  29.300  29.020  1.00  0.00     0.074 A 
ATOM     33  C   UNL A   1      37.715  30.706  30.847  1.00  0.00     0.049 A 
ATOM     34  N   UNL A   1      39.713  28.855  29.563  1.00  0.00    -0.248 NA
ATOM     35  C   UNL A   1      38.381  28.808  27.650  1.00  0.00     0.031 C 
ATOM     36  C   UNL A   1      36.747  31.545  31.554  1.00  0.00     0.029 A 
ATOM     37  N   UNL A   1      38.746  30.561  31.744  1.00  0.00    -0.354 N 
ATOM     38  C   UNL A   1      40.276  27.996  28.626  1.00  0.00     0.074 A 
ATOM     39  C   UNL A   1      39.376  27.948  27.496  1.00  0.00     0.031 C 
ATOM     40  C   UNL A   1      37.229  31.842  32.772  1.00  0.00     0.029 A 
ATOM     41  C   UNL A   1      38.522  31.186  32.949  1.00  0.00     0.049 A 
ATOM     42  H   UNL A   1      39.569  30.059  31.542  1.00  0.00     0.167 HD
ATOM     43  C   UNL A   1      41.454  27.334  28.681  1.00  0.00     0.034 A 
ATOM     44  C   UNL A   1      39.268  31.216  34.073  1.00  0.00     0.034 A 
ATOM     45  C   UNL A   1      42.381  27.437  29.773  1.00  0.00     0.049 A 
ATOM     46  C   UNL A   1      40.592  30.497  34.099  1.00  0.00     0.074 A 
ATOM     47  C   UNL A   1      43.642  26.878  29.881  1.00  0.00     0.029 A 
ATOM     48  N   UNL A   1      42.153  28.147  30.941  1.00  0.00    -0.354 N 
ATOM     49  N   UNL A   1      41.166  29.794  33.153  1.00  0.00    -0.248 NA
ATOM     50  C   UNL A   1      41.385  30.597  35.334  1.00  0.00     0.031 C 
ATOM     51  C   UNL A   1      44.165  27.226  31.126  1.00  0.00     0.029 A 
ATOM     52  C   UNL A   1      43.247  28.033  31.779  1.00  0.00     0.049 A 
ATOM     53  H   UNL A   1      41.336  28.656  31.143  1.00  0.00     0.167 HD
ATOM     54  C   UNL A   1      42.400  29.403  33.662  1.00  0.00     0.074 A 
ATOM     55  C   UNL A   1      42.498  29.957  34.996  1.00  0.00     0.031 C 
ATOM     56  C   UNL A   1      43.359  28.641  33.080  1.00  0.00     0.034 A 
BRANCH  43  57
ATOM     57  C   UNL A   1      41.849  26.487  27.500  1.00  0.00     0.023 A 
ATOM     58  C   UNL A   1      42.576  27.067  26.440  1.00  0.00     0.012 A 
ATOM     59  C   UNL A   1      41.589  25.102  27.485  1.00  0.00     0.148 A 
ATOM     60  C   UNL A   1      43.016  26.289  25.372  1.00  0.00     0.002 A 
ATOM     61  C   UNL A   1      42.076  24.324  26.443  1.00  0.00     0.091 A 
ATOM     62  F   UNL A   1      40.880  24.575  28.493  1.00  0.00    -0.205 F 
ATOM     63  C   UNL A   1      42.780  24.916  25.381  1.00  0.00     0.022 A 
BRANCH  61  64
ATOM     64  S   UNL A   1      41.907  22.537  26.402  1.00  0.00     0.127 S 
ATOM     65  O   UNL A   1      40.455  22.379  26.335  1.00  0.00    -0.237 OA
ATOM     66  O   UNL A   1      42.616  22.191  25.171  1.00  0.00    -0.237 OA
ATOM     67  O   UNL A   1      42.528  22.043  27.625  1.00  0.00    -0.744 OA
ENDBRANCH  61  64
ENDBRANCH  43  57
BRANCH  44  68
ATOM     68  C   UNL A   1      38.807  32.014  35.247  1.00  0.00     0.023 A 
ATOM     69  C   UNL A   1      38.868  33.420  35.190  1.00  0.00     0.012 A 
ATOM     70  C   UNL A   1      38.270  31.397  36.394  1.00  0.00     0.148 A 
ATOM     71  C   UNL A   1      38.426  34.198  36.261  1.00  0.00     0.002 A 
ATOM     72  C   UNL A   1      37.777  32.178  37.433  1.00  0.00     0.091 A 
ATOM     73  F   UNL A   1      38.230  30.058  36.433  1.00  0.00    -0.205 F 
ATOM     74  C   UNL A   1      37.871  33.577  37.377  1.00  0.00     0.022 A 
BRANCH  72  75
ATOM     75  S   UNL A   1      36.920  31.480  38.849  1.00  0.00     0.127 S 
ATOM     76  O   UNL A   1      37.886  31.692  39.921  1.00  0.00    -0.237 OA
ATOM     77  O   UNL A   1      35.724  32.319  38.918  1.00  0.00    -0.237 OA
ATOM     78  O   UNL A   1      36.658  30.086  38.504  1.00  0.00    -0.744 OA
ENDBRANCH  72  75
ENDBRANCH  44  68
BRANCH  56  79
ATOM     79  C   UNL A   1      44.629  28.375  33.847  1.00  0.00     0.023 A 
ATOM     80  C   UNL A   1      45.692  29.295  33.782  1.00  0.00     0.012 A 
ATOM     81  C   UNL A   1      44.705  27.290  34.744  1.00  0.00     0.148 A 
ATOM     82  C   UNL A   1      46.819  29.131  34.586  1.00  0.00     0.002 A 
ATOM     83  C   UNL A   1      45.807  27.162  35.580  1.00  0.00     0.091 A 
ATOM     84  F   UNL A   1      43.685  26.419  34.781  1.00  0.00    -0.205 F 
ATOM     85  C   UNL A   1      46.869  28.076  35.495  1.00  0.00     0.022 A 
BRANCH  83  86
ATOM     86  S   UNL A   1      45.912  25.904  36.858  1.00  0.00     0.127 S 
ATOM     87  O   UNL A   1      46.178  24.701  36.071  1.00  0.00    -0.237 OA
ATOM     88  O   UNL A   1      47.043  26.372  37.659  1.00  0.00    -0.237 OA
ATOM     89  O   UNL A   1      44.631  25.922  37.550  1.00  0.00    -0.744 OA
ENDBRANCH  83  86
ENDBRANCH  56  79
ENDBRANCH  30  31
ENDBRANCH  22  25
ENDBRANCH  20  21
ENDBRANCH   1  20
TORSDOF 15
ENDMDL
MODEL 2
REMARK VINA RESULT:     -11.7      1.705      2.935
REMARK SMILES CCC1CN(c2cc(F)ccc2C(=O)NCCCNC(=O)c2ccc(-c3c4nc(c(-c5cccc(S(=O)(=O)[O-])c5F)c5ccc([nH]5)c(-c5cccc(S(=O)(=O)[O-])c5F)c5nc(c(-c6cccc(S(=O)(=O)[O-])c6F)c6ccc3[nH]6)C=C5)C=C4)cc2)C1
REMARK SMILES IDX 17 1 16 2 15 3 13 4 14 5 12 7 6 8 7 9 8 10 11 11 9 12 10 13
REMARK SMILES IDX 5 14 3 15 4 16 85 17 2 18 1 19 18 20 19 21 20 22 21 24 22 25
REMARK SMILES IDX 23 26 84 27 24 28 83 29 25 30 26 31 27 32 77 33 28 34 82 35
REMARK SMILES IDX 76 36 78 37 29 38 81 39 75 40 74 41 30 43 62 44 42 45 61 46
REMARK SMILES IDX 43 47 46 48 60 49 79 50 44 51 45 52 59 54 80 55 47 56 31 57
REMARK SMILES IDX 32 58 40 59 33 60 35 61 41 62 34 63 36 64 37 65 38 66 39 67
REMARK SMILES IDX 63 68 64 69 72 70 65 71 67 72 73 73 66 74 68 75 69 76 70 77
REMARK SMILES IDX 71 78 48 79 49 80 57 81 50 82 52 83 58 84 51 85 53 86 54 87
REMARK SMILES IDX 55 88 56 89
REMARK H PARENT 15 6 19 23 78 42 46 53
REMARK Flexibility Score: inf
ROOT
ATOM      1  C   UNL A   1      33.663  28.935  23.656  1.00  0.00     0.042 C 
ENDROOT
BRANCH   1   2
ATOM      2  C   UNL A   1      32.470  28.673  22.754  1.00  0.00     0.118 C 
BRANCH   2   3
ATOM      3  N   UNL A   1      32.691  27.481  21.987  1.00  0.00    -0.352 N 
ATOM      4  C   UNL A   1      33.041  26.201  22.276  1.00  0.00     0.253 C 
ATOM      5  O   UNL A   1      33.280  25.546  21.248  1.00  0.00    -0.269 OA
ATOM      6  H   UNL A   1      32.556  27.626  21.022  1.00  0.00     0.163 HD
BRANCH   4   7
ATOM      7  C   UNL A   1      33.098  25.486  23.607  1.00  0.00     0.063 A 
ATOM      8  C   UNL A   1      32.134  25.193  24.609  1.00  0.00     0.052 A 
ATOM      9  C   UNL A   1      32.573  24.504  25.778  1.00  0.00     0.066 A 
ATOM     10  C   UNL A   1      33.903  24.168  25.994  1.00  0.00     0.125 A 
ATOM     11  C   UNL A   1      34.447  25.090  23.874  1.00  0.00     0.019 A 
ATOM     12  F   UNL A   1      34.263  23.573  27.137  1.00  0.00    -0.207 F 
ATOM     13  C   UNL A   1      34.853  24.462  25.049  1.00  0.00     0.040 A 
BRANCH   8  14
ATOM     14  N   UNL A   1      30.766  25.607  24.622  1.00  0.00    -0.370 N 
ATOM     15  C   UNL A   1      29.419  26.908  23.622  1.00  0.00     0.028 C 
ATOM     16  C   UNL A   1      30.329  26.974  24.849  1.00  0.00     0.122 C 
ATOM     17  C   UNL A   1      29.905  25.465  23.449  1.00  0.00     0.122 C 
BRANCH  15  18
ATOM     18  C   UNL A   1      27.932  27.259  23.747  1.00  0.00     0.004 C 
ATOM     19  C   UNL A   1      27.531  28.585  23.135  1.00  0.00     0.004 C 
ENDBRANCH  15  18
ENDBRANCH   8  14
ENDBRANCH   4   7
ENDBRANCH   2   3
ENDBRANCH   1   2
BRANCH   1  20
ATOM     20  C   UNL A   1      33.359  28.887  25.144  1.00  0.00     0.118 C 
BRANCH  20  21
ATOM     21  N   UNL A   1      32.772  30.107  25.683  1.00  0.00    -0.352 N 
ATOM     22  C   UNL A   1      33.177  30.933  26.705  1.00  0.00     0.251 C 
ATOM     23  H   UNL A   1      31.940  30.388  25.238  1.00  0.00     0.163 HD
ATOM     24  O   UNL A   1      32.452  31.877  27.016  1.00  0.00    -0.269 OA
BRANCH  22  25
ATOM     25  C   UNL A   1      34.431  30.687  27.465  1.00  0.00     0.039 A 
ATOM     26  C   UNL A   1      35.337  31.744  27.625  1.00  0.00     0.014 A 
ATOM     27  C   UNL A   1      34.739  29.442  28.010  1.00  0.00     0.014 A 
ATOM     28  C   UNL A   1      36.508  31.567  28.372  1.00  0.00     0.010 A 
ATOM     29  C   UNL A   1      35.843  29.295  28.843  1.00  0.00     0.010 A 
ATOM     30  C   UNL A   1      36.760  30.343  29.008  1.00  0.00    -0.014 A 
BRANCH  30  31
ATOM     31  C   UNL A   1      38.004  30.088  29.780  1.00  0.00     0.031 A 
ATOM     32  C   UNL A   1      39.045  29.157  29.210  1.00  0.00     0.074 A 
ATOM     33  C   UNL A   1      38.167  30.603  31.014  1.00  0.00     0.049 A 
ATOM     34  N   UNL A   1      40.130  28.689  29.768  1.00  0.00    -0.248 NA
ATOM     35  C   UNL A   1      38.816  28.657  27.842  1.00  0.00     0.031 C 
ATOM     36  C   UNL A   1      37.214  31.473  31.703  1.00  0.00     0.029 A 
ATOM     37  N   UNL A   1      39.185  30.440  31.923  1.00  0.00    -0.354 N 
ATOM     38  C   UNL A   1      40.679  27.807  28.845  1.00  0.00     0.074 A 
ATOM     39  C   UNL A   1      39.790  27.771  27.706  1.00  0.00     0.031 C 
ATOM     40  C   UNL A   1      37.692  31.769  32.924  1.00  0.00     0.029 A 
ATOM     41  C   UNL A   1      38.966  31.082  33.120  1.00  0.00     0.049 A 
ATOM     42  H   UNL A   1      39.997  29.915  31.735  1.00  0.00     0.167 HD
ATOM     43  C   UNL A   1      41.840  27.115  28.919  1.00  0.00     0.034 A 
ATOM     44  C   UNL A   1      39.700  31.103  34.252  1.00  0.00     0.034 A 
ATOM     45  C   UNL A   1      42.758  27.205  30.019  1.00  0.00     0.049 A 
ATOM     46  C   UNL A   1      41.005  30.351  34.298  1.00  0.00     0.074 A 
ATOM     47  C   UNL A   1      44.002  26.615  30.145  1.00  0.00     0.029 A 
ATOM     48  N   UNL A   1      42.537  27.931  31.177  1.00  0.00    -0.354 N 
ATOM     49  N   UNL A   1      41.571  29.625  33.364  1.00  0.00    -0.248 NA
ATOM     50  C   UNL A   1      41.788  30.442  35.540  1.00  0.00     0.031 C 
ATOM     51  C   UNL A   1      44.522  26.961  31.392  1.00  0.00     0.029 A 
ATOM     52  C   UNL A   1      43.619  27.798  32.028  1.00  0.00     0.049 A 
ATOM     53  H   UNL A   1      41.731  28.463  31.366  1.00  0.00     0.167 HD
ATOM     54  C   UNL A   1      42.789  29.206  33.889  1.00  0.00     0.074 A 
ATOM     55  C   UNL A   1      42.887  29.771  35.219  1.00  0.00     0.031 C 
ATOM     56  C   UNL A   1      43.733  28.414  33.324  1.00  0.00     0.034 A 
BRANCH  43  57
ATOM     57  C   UNL A   1      42.225  26.247  27.749  1.00  0.00     0.023 A 
ATOM     58  C   UNL A   1      43.086  26.758  26.757  1.00  0.00     0.012 A 
ATOM     59  C   UNL A   1      41.815  24.900  27.685  1.00  0.00     0.148 A 
ATOM     60  C   UNL A   1      43.515  25.952  25.706  1.00  0.00     0.002 A 
ATOM     61  C   UNL A   1      42.289  24.088  26.662  1.00  0.00     0.091 A 
ATOM     62  F   UNL A   1      40.980  24.440  28.627  1.00  0.00    -0.205 F 
ATOM     63  C   UNL A   1      43.129  24.614  25.666  1.00  0.00     0.022 A 
BRANCH  61  64
ATOM     64  S   UNL A   1      41.927  22.331  26.568  1.00  0.00     0.127 S 
ATOM     65  O   UNL A   1      42.466  21.851  27.839  1.00  0.00    -0.237 OA
ATOM     66  O   UNL A   1      40.468  22.324  26.482  1.00  0.00    -0.237 OA
ATOM     67  O   UNL A   1      42.613  21.840  25.380  1.00  0.00    -0.744 OA
ENDBRANCH  61  64
ENDBRANCH  43  57
BRANCH  44  68
ATOM     68  C   UNL A   1      39.248  31.924  35.413  1.00  0.00     0.023 A 
ATOM     69  C   UNL A   1      38.389  31.349  36.369  1.00  0.00     0.012 A 
ATOM     70  C   UNL A   1      39.696  33.247  35.601  1.00  0.00     0.148 A 
ATOM     71  C   UNL A   1      37.963  32.081  37.478  1.00  0.00     0.002 A 
ATOM     72  C   UNL A   1      39.316  33.950  36.737  1.00  0.00     0.091 A 
ATOM     73  F   UNL A   1      40.505  33.779  34.675  1.00  0.00    -0.205 F 
ATOM     74  C   UNL A   1      38.436  33.377  37.668  1.00  0.00     0.022 A 
BRANCH  72  75
ATOM     75  S   UNL A   1      39.978  35.571  37.141  1.00  0.00     0.127 S 
ATOM     76  O   UNL A   1      39.280  35.880  38.384  1.00  0.00    -0.237 OA
ATOM     77  O   UNL A   1      41.405  35.284  37.286  1.00  0.00    -0.237 OA
ATOM     78  O   UNL A   1      39.649  36.426  36.004  1.00  0.00    -0.744 OA
ENDBRANCH  72  75
ENDBRANCH  44  68
BRANCH  56  79
ATOM     79  C   UNL A   1      44.988  28.123  34.107  1.00  0.00     0.023 A 
ATOM     80  C   UNL A   1      46.065  29.028  34.064  1.00  0.00     0.012 A 
ATOM     81  C   UNL A   1      45.035  27.029  34.995  1.00  0.00     0.148 A 
ATOM     82  C   UNL A   1      47.179  28.841  34.883  1.00  0.00     0.002 A 
ATOM     83  C   UNL A   1      46.124  26.879  35.846  1.00  0.00     0.091 A 
ATOM     84  F   UNL A   1      44.003  26.174  35.011  1.00  0.00    -0.205 F 
ATOM     85  C   UNL A   1      47.201  27.777  35.784  1.00  0.00     0.022 A 
BRANCH  83  86
ATOM     86  S   UNL A   1      46.192  25.608  37.114  1.00  0.00     0.127 S 
ATOM     87  O   UNL A   1      47.490  25.874  37.732  1.00  0.00    -0.237 OA
ATOM     88  O   UNL A   1      45.039  25.944  37.949  1.00  0.00    -0.237 OA
ATOM     89  O   UNL A   1      46.086  24.334  36.417  1.00  0.00    -0.744 OA
ENDBRANCH  83  86
ENDBRANCH  56  79
ENDBRANCH  30  31
ENDBRANCH  22  25
ENDBRANCH  20  21
ENDBRANCH   1  20
TORSDOF 15
ENDMDL
MODEL 3
REMARK VINA RESULT:     -11.6      2.515      3.474
REMARK SMILES CCC1CN(c2cc(F)ccc2C(=O)NCCCNC(=O)c2ccc(-c3c4nc(c(-c5cccc(S(=O)(=O)[O-])c5F)c5ccc([nH]5)c(-c5cccc(S(=O)(=O)[O-])c5F)c5nc(c(-c6cccc(S(=O)(=O)[O-])c6F)c6ccc3[nH]6)C=C5)C=C4)cc2)C1
REMARK SMILES IDX 17 1 16 2 15 3 13 4 14 5 12 7 6 8 7 9 8 10 11 11 9 12 10 13
REMARK SMILES IDX 5 14 3 15 4 16 85 17 2 18 1 19 18 20 19 21 20 22 21 24 22 25
REMARK SMILES IDX 23 26 84 27 24 28 83 29 25 30 26 31 27 32 77 33 28 34 82 35
REMARK SMILES IDX 76 36 78 37 29 38 81 39 75 40 74 41 30 43 62 44 42 45 61 46
REMARK SMILES IDX 43 47 46 48 60 49 79 50 44 51 45 52 59 54 80 55 47 56 31 57
REMARK SMILES IDX 32 58 40 59 33 60 35 61 41 62 34 63 36 64 37 65 38 66 39 67
REMARK SMILES IDX 63 68 64 69 72 70 65 71 67 72 73 73 66 74 68 75 69 76 70 77
REMARK SMILES IDX 71 78 48 79 49 80 57 81 50 82 52 83 58 84 51 85 53 86 54 87
REMARK SMILES IDX 55 88 56 89
REMARK H PARENT 15 6 19 23 78 42 46 53
REMARK Flexibility Score: inf
ROOT
ATOM      1  C   UNL A   1      31.496  31.870  26.738  1.00  0.00     0.042 C 
ENDROOT
BRANCH   1   2
ATOM      2  C   UNL A   1      31.742  30.521  26.084  1.00  0.00     0.118 C 
BRANCH   2   3
ATOM      3  N   UNL A   1      33.067  30.066  26.390  1.00  0.00    -0.352 N 
ATOM      4  C   UNL A   1      33.851  29.035  25.981  1.00  0.00     0.253 C 
ATOM      5  O   UNL A   1      34.887  28.946  26.660  1.00  0.00    -0.269 OA
ATOM      6  H   UNL A   1      33.516  30.639  27.054  1.00  0.00     0.163 HD
BRANCH   4   7
ATOM      7  C   UNL A   1      33.675  28.083  24.820  1.00  0.00     0.063 A 
ATOM      8  C   UNL A   1      33.575  26.669  24.712  1.00  0.00     0.052 A 
ATOM      9  C   UNL A   1      33.438  26.105  23.409  1.00  0.00     0.066 A 
ATOM     10  C   UNL A   1      33.459  26.875  22.254  1.00  0.00     0.125 A 
ATOM     11  C   UNL A   1      33.662  28.825  23.596  1.00  0.00     0.019 A 
ATOM     12  F   UNL A   1      33.383  26.284  21.057  1.00  0.00    -0.207 F 
ATOM     13  C   UNL A   1      33.577  28.240  22.335  1.00  0.00     0.040 A 
BRANCH   8  14
ATOM     14  N   UNL A   1      33.699  25.724  25.777  1.00  0.00    -0.370 N 
ATOM     15  C   UNL A   1      33.620  23.637  26.159  1.00  0.00     0.028 C 
ATOM     16  C   UNL A   1      32.644  24.814  26.189  1.00  0.00     0.122 C 
ATOM     17  C   UNL A   1      34.691  24.651  25.747  1.00  0.00     0.122 C 
BRANCH  15  18
ATOM     18  C   UNL A   1      33.778  22.738  27.390  1.00  0.00     0.004 C 
ATOM     19  C   UNL A   1      33.756  21.250  27.106  1.00  0.00     0.004 C 
ENDBRANCH  15  18
ENDBRANCH   8  14
ENDBRANCH   4   7
ENDBRANCH   2   3
ENDBRANCH   1   2
BRANCH   1  20
ATOM     20  C   UNL A   1      32.755  32.645  27.089  1.00  0.00     0.118 C 
BRANCH  20  21
ATOM     21  N   UNL A   1      32.516  33.960  27.671  1.00  0.00    -0.352 N 
ATOM     22  C   UNL A   1      33.154  34.632  28.687  1.00  0.00     0.251 C 
ATOM     23  H   UNL A   1      31.765  34.452  27.266  1.00  0.00     0.163 HD
ATOM     24  O   UNL A   1      32.702  35.720  29.043  1.00  0.00    -0.269 OA
BRANCH  22  25
ATOM     25  C   UNL A   1      34.333  34.060  29.388  1.00  0.00     0.039 A 
ATOM     26  C   UNL A   1      35.615  34.446  28.973  1.00  0.00     0.014 A 
ATOM     27  C   UNL A   1      34.206  33.146  30.433  1.00  0.00     0.014 A 
ATOM     28  C   UNL A   1      36.750  33.966  29.636  1.00  0.00     0.010 A 
ATOM     29  C   UNL A   1      35.325  32.755  31.162  1.00  0.00     0.010 A 
ATOM     30  C   UNL A   1      36.613  33.132  30.754  1.00  0.00    -0.014 A 
BRANCH  30  31
ATOM     31  C   UNL A   1      37.784  32.562  31.471  1.00  0.00     0.031 A 
ATOM     32  C   UNL A   1      38.534  31.409  30.852  1.00  0.00     0.074 A 
ATOM     33  C   UNL A   1      38.120  33.001  32.700  1.00  0.00     0.049 A 
ATOM     34  N   UNL A   1      39.489  30.676  31.362  1.00  0.00    -0.248 NA
ATOM     35  C   UNL A   1      38.133  31.004  29.493  1.00  0.00     0.031 C 
ATOM     36  C   UNL A   1      37.443  34.071  33.433  1.00  0.00     0.029 A 
ATOM     37  N   UNL A   1      39.100  32.575  33.564  1.00  0.00    -0.354 N 
ATOM     38  C   UNL A   1      39.763  29.699  30.412  1.00  0.00     0.074 A 
ATOM     39  C   UNL A   1      38.849  29.904  29.312  1.00  0.00     0.031 C 
ATOM     40  C   UNL A   1      38.028  34.219  34.633  1.00  0.00     0.029 A 
ATOM     41  C   UNL A   1      39.096  33.232  34.772  1.00  0.00     0.049 A 
ATOM     42  H   UNL A   1      39.746  31.866  33.338  1.00  0.00     0.167 HD
ATOM     43  C   UNL A   1      40.715  28.738  30.433  1.00  0.00     0.034 A 
ATOM     44  C   UNL A   1      39.857  33.052  35.871  1.00  0.00     0.034 A 
ATOM     45  C   UNL A   1      41.669  28.579  31.494  1.00  0.00     0.049 A 
ATOM     46  C   UNL A   1      40.933  31.997  35.859  1.00  0.00     0.074 A 
ATOM     47  C   UNL A   1      42.731  27.694  31.563  1.00  0.00     0.029 A 
ATOM     48  N   UNL A   1      41.684  29.320  32.664  1.00  0.00    -0.354 N 
ATOM     49  N   UNL A   1      41.261  31.167  34.898  1.00  0.00    -0.248 NA
ATOM     50  C   UNL A   1      41.763  31.870  37.066  1.00  0.00     0.031 C 
ATOM     51  C   UNL A   1      43.370  27.881  32.790  1.00  0.00     0.029 A 
ATOM     52  C   UNL A   1      42.731  28.907  33.467  1.00  0.00     0.049 A 
ATOM     53  H   UNL A   1      41.045  30.033  32.890  1.00  0.00     0.167 HD
ATOM     54  C   UNL A   1      42.356  30.449  35.369  1.00  0.00     0.074 A 
ATOM     55  C   UNL A   1      42.645  30.951  36.696  1.00  0.00     0.031 C 
ATOM     56  C   UNL A   1      43.048  29.455  34.760  1.00  0.00     0.034 A 
BRANCH  43  57
ATOM     57  C   UNL A   1      40.823  27.819  29.244  1.00  0.00     0.023 A 
ATOM     58  C   UNL A   1      39.978  26.694  29.155  1.00  0.00     0.012 A 
ATOM     59  C   UNL A   1      41.687  28.123  28.174  1.00  0.00     0.148 A 
ATOM     60  C   UNL A   1      40.008  25.871  28.033  1.00  0.00     0.002 A 
ATOM     61  C   UNL A   1      41.674  27.327  27.035  1.00  0.00     0.091 A 
ATOM     62  F   UNL A   1      42.496  29.186  28.287  1.00  0.00    -0.205 F 
ATOM     63  C   UNL A   1      40.844  26.196  26.967  1.00  0.00     0.022 A 
BRANCH  61  64
ATOM     64  S   UNL A   1      42.642  27.707  25.571  1.00  0.00     0.127 S 
ATOM     65  O   UNL A   1      42.011  28.943  25.112  1.00  0.00    -0.237 OA
ATOM     66  O   UNL A   1      43.984  27.876  26.128  1.00  0.00    -0.237 OA
ATOM     67  O   UNL A   1      42.491  26.565  24.678  1.00  0.00    -0.744 OA
ENDBRANCH  61  64
ENDBRANCH  43  57
BRANCH  44  68
ATOM     68  C   UNL A   1      39.672  33.942  37.055  1.00  0.00     0.023 A 
ATOM     69  C   UNL A   1      40.052  35.295  36.965  1.00  0.00     0.012 A 
ATOM     70  C   UNL A   1      39.085  33.474  38.247  1.00  0.00     0.148 A 
ATOM     71  C   UNL A   1      39.874  36.161  38.045  1.00  0.00     0.002 A 
ATOM     72  C   UNL A   1      38.856  34.353  39.297  1.00  0.00     0.091 A 
ATOM     73  F   UNL A   1      38.740  32.180  38.316  1.00  0.00    -0.205 F 
ATOM     74  C   UNL A   1      39.266  35.692  39.206  1.00  0.00     0.022 A 
BRANCH  72  75
ATOM     75  S   UNL A   1      37.958  33.880  40.780  1.00  0.00     0.127 S 
ATOM     76  O   UNL A   1      37.717  35.173  41.411  1.00  0.00    -0.237 OA
ATOM     77  O   UNL A   1      36.772  33.234  40.218  1.00  0.00    -0.237 OA
ATOM     78  O   UNL A   1      38.845  32.979  41.509  1.00  0.00    -0.744 OA
ENDBRANCH  72  75
ENDBRANCH  44  68
BRANCH  56  79
ATOM     79  C   UNL A   1      44.220  28.848  35.488  1.00  0.00     0.023 A 
ATOM     80  C   UNL A   1      45.498  29.424  35.359  1.00  0.00     0.012 A 
ATOM     81  C   UNL A   1      44.021  27.799  36.408  1.00  0.00     0.148 A 
ATOM     82  C   UNL A   1      46.565  28.955  36.126  1.00  0.00     0.002 A 
ATOM     83  C   UNL A   1      45.075  27.373  37.207  1.00  0.00     0.091 A 
ATOM     84  F   UNL A   1      42.798  27.258  36.505  1.00  0.00    -0.205 F 
ATOM     85  C   UNL A   1      46.350  27.943  37.060  1.00  0.00     0.022 A 
BRANCH  83  86
ATOM     86  S   UNL A   1      44.870  26.156  38.513  1.00  0.00     0.127 S 
ATOM     87  O   UNL A   1      44.466  24.973  37.756  1.00  0.00    -0.237 OA
ATOM     88  O   UNL A   1      46.216  26.085  39.082  1.00  0.00    -0.237 OA
ATOM     89  O   UNL A   1      43.858  26.693  39.411  1.00  0.00    -0.744 OA
ENDBRANCH  83  86
ENDBRANCH  56  79
ENDBRANCH  30  31
ENDBRANCH  22  25
ENDBRANCH  20  21
ENDBRANCH   1  20
TORSDOF 15
ENDMDL
