MODEL 1
REMARK VINA RESULT:     -12.0      0.000      0.000
REMARK SMILES O=C(CNC(=O)N1CC(NCCCNC(=O)c2ccc(-c3c4nc(c(-c5cccc(S(=O)(=O)[O-])c5F)c5ccc([nH]5)c(-c5cccc(S(=O)(=O)[O-])c5F)c5nc(c(-c6cccc(S(=O)(=O)[O-])c6F)c6ccc3[nH]6)C=C5)C=C4)cc2)=[NH+]c2ccccc21)N[C@H](C(=O)[O-])c1ccccc1
REMARK SMILES IDX 11 1 10 2 7 3 8 4 86 5 9 6 81 7 85 8 80 9 82 10 84 11 83 14
REMARK SMILES IDX 5 15 4 16 6 18 3 19 2 20 1 21 87 22 88 24 92 25 93 26 97 27
REMARK SMILES IDX 94 28 96 29 95 30 89 31 90 32 91 33 12 34 13 35 14 36 15 37
REMARK SMILES IDX 16 39 17 40 18 41 79 42 19 43 78 44 20 45 21 46 22 47 72 48
REMARK SMILES IDX 23 49 77 50 71 51 73 52 24 53 76 54 70 55 69 56 25 58 57 59
REMARK SMILES IDX 37 60 56 61 38 62 41 63 55 64 74 65 39 66 40 67 54 69 75 70
REMARK SMILES IDX 42 71 26 72 27 73 35 74 28 75 30 76 36 77 29 78 31 79 32 80
REMARK SMILES IDX 33 81 34 82 58 83 59 84 67 85 60 86 62 87 68 88 61 89 63 90
REMARK SMILES IDX 64 91 65 92 66 93 43 94 44 95 52 96 45 97 47 98 53 99 46 100
REMARK SMILES IDX 48 101 49 102 50 103 51 104
REMARK H PARENT 10 12 80 13 4 17 87 23 14 38 73 57 41 68
REMARK Flexibility Score: inf
ROOT
ATOM      1  C   UNL A   1      31.046  30.825  26.580  1.00  0.00     0.235 C 
ENDROOT
BRANCH   1   2
ATOM      2  N   UNL A   1      32.046  29.956  26.009  1.00  0.00    -0.277 N 
ATOM      3  N   UNL A   1      30.436  27.508  23.817  1.00  0.00    -0.278 N 
ATOM      4  C   UNL A   1      30.568  28.888  24.249  1.00  0.00     0.255 C 
ATOM      5  C   UNL A   1      31.571  26.999  23.140  1.00  0.00     0.093 A 
ATOM      6  C   UNL A   1      31.910  29.070  24.968  1.00  0.00     0.268 C 
ATOM      7  C   UNL A   1      32.833  27.473  23.553  1.00  0.00     0.148 A 
ATOM      8  C   UNL A   1      31.468  26.019  22.146  1.00  0.00     0.031 A 
ATOM      9  N   UNL A   1      32.982  28.426  24.583  1.00  0.00    -0.241 N 
ATOM     10  C   UNL A   1      33.979  26.882  23.017  1.00  0.00     0.054 A 
ATOM     11  C   UNL A   1      32.623  25.455  21.606  1.00  0.00     0.002 A 
ATOM     12  H   UNL A   1      32.941  30.003  26.417  1.00  0.00     0.304 HD
ATOM     13  H   UNL A   1      33.858  28.599  24.998  1.00  0.00     0.312 HD
ATOM     14  C   UNL A   1      33.877  25.872  22.056  1.00  0.00     0.005 A 
BRANCH   3  15
ATOM     15  C   UNL A   1      29.279  26.844  24.127  1.00  0.00     0.323 C 
ATOM     16  N   UNL A   1      29.268  25.905  25.107  1.00  0.00    -0.329 N 
ATOM     17  H   UNL A   1      28.433  25.386  25.165  1.00  0.00     0.165 HD
ATOM     18  O   UNL A   1      28.199  27.150  23.614  1.00  0.00    -0.248 OA
BRANCH  16  19
ATOM     19  C   UNL A   1      30.285  25.533  26.092  1.00  0.00     0.218 C 
BRANCH  19  20
ATOM     20  C   UNL A   1      30.864  24.126  26.019  1.00  0.00     0.240 C 
ATOM     21  O   UNL A   1      30.204  23.240  25.485  1.00  0.00    -0.273 OA
ATOM     22  N   UNL A   1      32.179  24.036  26.404  1.00  0.00    -0.342 N 
ATOM     23  H   UNL A   1      32.603  24.821  26.818  1.00  0.00     0.164 HD
BRANCH  22  24
ATOM     24  C   UNL A   1      32.985  22.803  26.221  1.00  0.00     0.158 C 
BRANCH  24  25
ATOM     25  C   UNL A   1      34.213  23.029  25.314  1.00  0.00    -0.020 A 
ATOM     26  C   UNL A   1      35.345  23.761  25.720  1.00  0.00     0.006 A 
ATOM     27  C   UNL A   1      34.210  22.551  23.988  1.00  0.00     0.006 A 
ATOM     28  C   UNL A   1      36.448  23.933  24.874  1.00  0.00     0.000 A 
ATOM     29  C   UNL A   1      35.309  22.724  23.141  1.00  0.00     0.000 A 
ATOM     30  C   UNL A   1      36.435  23.404  23.588  1.00  0.00     0.000 A 
ENDBRANCH  24  25
BRANCH  24  31
ATOM     31  C   UNL A   1      33.403  22.088  27.574  1.00  0.00     0.068 C 
ATOM     32  O   UNL A   1      32.641  22.335  28.561  1.00  0.00    -0.548 OA
ATOM     33  O   UNL A   1      34.423  21.334  27.517  1.00  0.00    -0.548 OA
ENDBRANCH  24  31
ENDBRANCH  22  24
ENDBRANCH  19  20
ENDBRANCH  16  19
ENDBRANCH   3  15
ENDBRANCH   1   2
BRANCH   1  34
ATOM     34  C   UNL A   1      31.410  32.296  26.408  1.00  0.00     0.067 C 
BRANCH  34  35
ATOM     35  C   UNL A   1      32.612  32.749  27.233  1.00  0.00     0.120 C 
BRANCH  35  36
ATOM     36  N   UNL A   1      32.529  34.152  27.630  1.00  0.00    -0.352 N 
ATOM     37  C   UNL A   1      33.201  34.847  28.604  1.00  0.00     0.251 C 
ATOM     38  H   UNL A   1      31.884  34.687  27.113  1.00  0.00     0.163 HD
ATOM     39  O   UNL A   1      32.835  35.989  28.879  1.00  0.00    -0.269 OA
BRANCH  37  40
ATOM     40  C   UNL A   1      34.346  34.246  29.323  1.00  0.00     0.039 A 
ATOM     41  C   UNL A   1      34.089  33.347  30.365  1.00  0.00     0.014 A 
ATOM     42  C   UNL A   1      35.663  34.598  29.024  1.00  0.00     0.014 A 
ATOM     43  C   UNL A   1      35.150  32.773  31.070  1.00  0.00     0.010 A 
ATOM     44  C   UNL A   1      36.721  33.961  29.670  1.00  0.00     0.010 A 
ATOM     45  C   UNL A   1      36.478  33.059  30.715  1.00  0.00    -0.014 A 
BRANCH  45  46
ATOM     46  C   UNL A   1      37.623  32.443  31.438  1.00  0.00     0.031 A 
ATOM     47  C   UNL A   1      38.386  31.302  30.813  1.00  0.00     0.074 A 
ATOM     48  C   UNL A   1      37.928  32.857  32.684  1.00  0.00     0.049 A 
ATOM     49  N   UNL A   1      39.383  30.609  31.302  1.00  0.00    -0.248 NA
ATOM     50  C   UNL A   1      37.966  30.870  29.469  1.00  0.00     0.031 C 
ATOM     51  C   UNL A   1      37.217  33.898  33.430  1.00  0.00     0.029 A 
ATOM     52  N   UNL A   1      38.898  32.431  33.558  1.00  0.00    -0.354 N 
ATOM     53  C   UNL A   1      39.671  29.632  30.355  1.00  0.00     0.074 A 
ATOM     54  C   UNL A   1      38.736  29.811  29.267  1.00  0.00     0.031 C 
ATOM     55  C   UNL A   1      37.772  34.028  34.645  1.00  0.00     0.029 A 
ATOM     56  C   UNL A   1      38.855  33.060  34.782  1.00  0.00     0.049 A 
ATOM     57  H   UNL A   1      39.563  31.740  33.331  1.00  0.00     0.167 HD
ATOM     58  C   UNL A   1      40.642  28.688  30.375  1.00  0.00     0.034 A 
ATOM     59  C   UNL A   1      39.595  32.866  35.891  1.00  0.00     0.034 A 
ATOM     60  C   UNL A   1      41.598  28.543  31.439  1.00  0.00     0.049 A 
ATOM     61  C   UNL A   1      40.694  31.836  35.865  1.00  0.00     0.074 A 
ATOM     62  C   UNL A   1      42.678  27.681  31.511  1.00  0.00     0.029 A 
ATOM     63  N   UNL A   1      41.581  29.263  32.622  1.00  0.00    -0.354 N 
ATOM     64  N   UNL A   1      41.069  31.048  34.887  1.00  0.00    -0.248 NA
ATOM     65  C   UNL A   1      41.505  31.699  37.085  1.00  0.00     0.031 C 
ATOM     66  C   UNL A   1      43.299  27.862  32.751  1.00  0.00     0.029 A 
ATOM     67  C   UNL A   1      42.631  28.866  33.431  1.00  0.00     0.049 A 
ATOM     68  H   UNL A   1      40.920  29.956  32.852  1.00  0.00     0.167 HD
ATOM     69  C   UNL A   1      42.183  30.361  35.353  1.00  0.00     0.074 A 
ATOM     70  C   UNL A   1      42.438  30.841  36.695  1.00  0.00     0.031 C 
ATOM     71  C   UNL A   1      42.923  29.410  34.732  1.00  0.00     0.034 A 
BRANCH  58  72
ATOM     72  C   UNL A   1      40.765  27.767  29.188  1.00  0.00     0.023 A 
ATOM     73  C   UNL A   1      39.918  26.644  29.090  1.00  0.00     0.012 A 
ATOM     74  C   UNL A   1      41.642  28.065  28.124  1.00  0.00     0.148 A 
ATOM     75  C   UNL A   1      39.962  25.815  27.969  1.00  0.00     0.002 A 
ATOM     76  C   UNL A   1      41.643  27.263  26.988  1.00  0.00     0.091 A 
ATOM     77  F   UNL A   1      42.445  29.131  28.237  1.00  0.00    -0.205 F 
ATOM     78  C   UNL A   1      40.814  26.131  26.916  1.00  0.00     0.022 A 
BRANCH  76  79
ATOM     79  S   UNL A   1      42.620  27.636  25.527  1.00  0.00     0.127 S 
ATOM     80  O   UNL A   1      42.353  26.470  24.685  1.00  0.00    -0.237 OA
ATOM     81  O   UNL A   1      42.002  28.877  25.057  1.00  0.00    -0.237 OA
ATOM     82  O   UNL A   1      43.995  27.776  25.982  1.00  0.00    -0.744 OA
ENDBRANCH  76  79
ENDBRANCH  58  72
BRANCH  59  83
ATOM     83  C   UNL A   1      39.372  33.703  37.107  1.00  0.00     0.023 A 
ATOM     84  C   UNL A   1      39.886  35.014  37.147  1.00  0.00     0.012 A 
ATOM     85  C   UNL A   1      38.675  33.208  38.227  1.00  0.00     0.148 A 
ATOM     86  C   UNL A   1      39.760  35.798  38.295  1.00  0.00     0.002 A 
ATOM     87  C   UNL A   1      38.500  34.015  39.345  1.00  0.00     0.091 A 
ATOM     88  F   UNL A   1      38.200  31.956  38.178  1.00  0.00    -0.205 F 
ATOM     89  C   UNL A   1      39.062  35.301  39.391  1.00  0.00     0.022 A 
BRANCH  87  90
ATOM     90  S   UNL A   1      37.502  33.514  40.751  1.00  0.00     0.127 S 
ATOM     91  O   UNL A   1      37.414  34.755  41.512  1.00  0.00    -0.237 OA
ATOM     92  O   UNL A   1      36.257  33.099  40.105  1.00  0.00    -0.237 OA
ATOM     93  O   UNL A   1      38.241  32.425  41.378  1.00  0.00    -0.744 OA
ENDBRANCH  87  90
ENDBRANCH  59  83
BRANCH  71  94
ATOM     94  C   UNL A   1      44.134  28.876  35.453  1.00  0.00     0.023 A 
ATOM     95  C   UNL A   1      45.396  29.470  35.259  1.00  0.00     0.012 A 
ATOM     96  C   UNL A   1      44.000  27.826  36.384  1.00  0.00     0.148 A 
ATOM     97  C   UNL A   1      46.513  29.000  35.949  1.00  0.00     0.002 A 
ATOM     98  C   UNL A   1      45.106  27.399  37.108  1.00  0.00     0.091 A 
ATOM     99  F   UNL A   1      42.793  27.261  36.543  1.00  0.00    -0.205 F 
ATOM    100  C   UNL A   1      46.366  27.974  36.881  1.00  0.00     0.022 A 
BRANCH  98 101
ATOM    101  S   UNL A   1      44.989  26.156  38.400  1.00  0.00     0.127 S 
ATOM    102  O   UNL A   1      46.371  26.084  38.873  1.00  0.00    -0.237 OA
ATOM    103  O   UNL A   1      44.056  26.773  39.344  1.00  0.00    -0.237 OA
ATOM    104  O   UNL A   1      44.485  24.949  37.758  1.00  0.00    -0.744 OA
ENDBRANCH  98 101
ENDBRANCH  71  94
ENDBRANCH  45  46
ENDBRANCH  37  40
ENDBRANCH  35  36
ENDBRANCH  34  35
ENDBRANCH   1  34
TORSDOF 18
ENDMDL
MODEL 2
REMARK VINA RESULT:     -11.9      1.838      2.461
REMARK SMILES O=C(CNC(=O)N1CC(NCCCNC(=O)c2ccc(-c3c4nc(c(-c5cccc(S(=O)(=O)[O-])c5F)c5ccc([nH]5)c(-c5cccc(S(=O)(=O)[O-])c5F)c5nc(c(-c6cccc(S(=O)(=O)[O-])c6F)c6ccc3[nH]6)C=C5)C=C4)cc2)=[NH+]c2ccccc21)N[C@H](C(=O)[O-])c1ccccc1
REMARK SMILES IDX 11 1 10 2 7 3 8 4 86 5 9 6 81 7 85 8 80 9 82 10 84 11 83 14
REMARK SMILES IDX 5 15 4 16 6 18 3 19 2 20 1 21 87 22 88 24 92 25 93 26 97 27
REMARK SMILES IDX 94 28 96 29 95 30 89 31 90 32 91 33 12 34 13 35 14 36 15 37
REMARK SMILES IDX 16 39 17 40 18 41 79 42 19 43 78 44 20 45 21 46 22 47 72 48
REMARK SMILES IDX 23 49 77 50 71 51 73 52 24 53 76 54 70 55 69 56 25 58 57 59
REMARK SMILES IDX 37 60 56 61 38 62 41 63 55 64 74 65 39 66 40 67 54 69 75 70
REMARK SMILES IDX 42 71 26 72 27 73 35 74 28 75 30 76 36 77 29 78 31 79 32 80
REMARK SMILES IDX 33 81 34 82 58 83 59 84 67 85 60 86 62 87 68 88 61 89 63 90
REMARK SMILES IDX 64 91 65 92 66 93 43 94 44 95 52 96 45 97 47 98 53 99 46 100
REMARK SMILES IDX 48 101 49 102 50 103 51 104
REMARK H PARENT 10 12 80 13 4 17 87 23 14 38 73 57 41 68
REMARK Flexibility Score: inf
ROOT
ATOM      1  C   UNL A   1      31.633  30.194  26.878  1.00  0.00     0.235 C 
ENDROOT
BRANCH   1   2
ATOM      2  N   UNL A   1      32.374  29.607  25.788  1.00  0.00    -0.277 N 
ATOM      3  N   UNL A   1      31.084  26.255  25.092  1.00  0.00    -0.278 N 
ATOM      4  C   UNL A   1      30.814  27.656  25.361  1.00  0.00     0.255 C 
ATOM      5  C   UNL A   1      31.697  26.010  23.840  1.00  0.00     0.093 A 
ATOM      6  C   UNL A   1      32.070  28.483  25.061  1.00  0.00     0.268 C 
ATOM      7  C   UNL A   1      32.593  26.987  23.359  1.00  0.00     0.148 A 
ATOM      8  C   UNL A   1      31.485  24.824  23.126  1.00  0.00     0.031 A 
ATOM      9  N   UNL A   1      32.868  28.174  24.072  1.00  0.00    -0.241 N 
ATOM     10  C   UNL A   1      33.331  26.710  22.207  1.00  0.00     0.054 A 
ATOM     11  C   UNL A   1      32.216  24.574  21.965  1.00  0.00     0.002 A 
ATOM     12  H   UNL A   1      33.203  30.073  25.532  1.00  0.00     0.304 HD
ATOM     13  H   UNL A   1      33.633  28.747  23.834  1.00  0.00     0.312 HD
ATOM     14  C   UNL A   1      33.152  25.508  21.517  1.00  0.00     0.005 A 
BRANCH   3  15
ATOM     15  C   UNL A   1      30.761  25.340  26.059  1.00  0.00     0.323 C 
ATOM     16  N   UNL A   1      31.731  24.594  26.650  1.00  0.00    -0.329 N 
ATOM     17  H   UNL A   1      31.394  23.872  27.228  1.00  0.00     0.165 HD
ATOM     18  O   UNL A   1      29.614  25.242  26.503  1.00  0.00    -0.248 OA
BRANCH  16  19
ATOM     19  C   UNL A   1      33.189  24.682  26.572  1.00  0.00     0.218 C 
BRANCH  19  20
ATOM     20  C   UNL A   1      33.983  23.382  26.616  1.00  0.00     0.240 C 
ATOM     21  O   UNL A   1      33.882  22.658  27.602  1.00  0.00    -0.273 OA
ATOM     22  N   UNL A   1      34.601  23.057  25.434  1.00  0.00    -0.342 N 
ATOM     23  H   UNL A   1      34.611  23.724  24.709  1.00  0.00     0.164 HD
BRANCH  22  24
ATOM     24  C   UNL A   1      35.255  21.745  25.205  1.00  0.00     0.158 C 
BRANCH  24  25
ATOM     25  C   UNL A   1      34.289  20.699  24.608  1.00  0.00    -0.020 A 
ATOM     26  C   UNL A   1      34.524  19.312  24.669  1.00  0.00     0.006 A 
ATOM     27  C   UNL A   1      33.141  21.117  23.904  1.00  0.00     0.006 A 
ATOM     28  C   UNL A   1      33.617  18.392  24.128  1.00  0.00     0.000 A 
ATOM     29  C   UNL A   1      32.236  20.199  23.362  1.00  0.00     0.000 A 
ATOM     30  C   UNL A   1      32.466  18.835  23.485  1.00  0.00     0.000 A 
ENDBRANCH  24  25
BRANCH  24  31
ATOM     31  C   UNL A   1      36.598  21.821  24.365  1.00  0.00     0.068 C 
ATOM     32  O   UNL A   1      37.445  20.912  24.636  1.00  0.00    -0.548 OA
ATOM     33  O   UNL A   1      36.669  22.752  23.505  1.00  0.00    -0.548 OA
ENDBRANCH  24  31
ENDBRANCH  22  24
ENDBRANCH  19  20
ENDBRANCH  16  19
ENDBRANCH   3  15
ENDBRANCH   1   2
BRANCH   1  34
ATOM     34  C   UNL A   1      31.393  31.684  26.664  1.00  0.00     0.067 C 
BRANCH  34  35
ATOM     35  C   UNL A   1      32.665  32.527  26.615  1.00  0.00     0.120 C 
BRANCH  35  36
ATOM     36  N   UNL A   1      32.495  33.842  27.227  1.00  0.00    -0.352 N 
ATOM     37  C   UNL A   1      33.108  34.407  28.317  1.00  0.00     0.251 C 
ATOM     38  H   UNL A   1      31.832  34.419  26.783  1.00  0.00     0.163 HD
ATOM     39  O   UNL A   1      32.673  35.470  28.759  1.00  0.00    -0.269 OA
BRANCH  37  40
ATOM     40  C   UNL A   1      34.270  33.760  28.965  1.00  0.00     0.039 A 
ATOM     41  C   UNL A   1      34.043  32.692  29.841  1.00  0.00     0.014 A 
ATOM     42  C   UNL A   1      35.571  34.225  28.765  1.00  0.00     0.014 A 
ATOM     43  C   UNL A   1      35.121  32.068  30.476  1.00  0.00     0.010 A 
ATOM     44  C   UNL A   1      36.649  33.549  29.332  1.00  0.00     0.010 A 
ATOM     45  C   UNL A   1      36.437  32.478  30.211  1.00  0.00    -0.014 A 
BRANCH  45  46
ATOM     46  C   UNL A   1      37.600  31.815  30.860  1.00  0.00     0.031 A 
ATOM     47  C   UNL A   1      38.384  30.764  30.114  1.00  0.00     0.074 A 
ATOM     48  C   UNL A   1      37.906  32.103  32.140  1.00  0.00     0.049 A 
ATOM     49  N   UNL A   1      39.399  30.045  30.523  1.00  0.00    -0.248 NA
ATOM     50  C   UNL A   1      37.963  30.466  28.734  1.00  0.00     0.031 C 
ATOM     51  C   UNL A   1      37.177  33.044  32.995  1.00  0.00     0.029 A 
ATOM     52  N   UNL A   1      38.891  31.609  32.960  1.00  0.00    -0.354 N 
ATOM     53  C   UNL A   1      39.700  29.180  29.476  1.00  0.00     0.074 A 
ATOM     54  C   UNL A   1      38.754  29.451  28.418  1.00  0.00     0.031 C 
ATOM     55  C   UNL A   1      37.739  33.058  34.215  1.00  0.00     0.029 A 
ATOM     56  C   UNL A   1      38.844  32.105  34.243  1.00  0.00     0.049 A 
ATOM     57  H   UNL A   1      39.568  30.961  32.658  1.00  0.00     0.167 HD
ATOM     58  C   UNL A   1      40.692  28.260  29.393  1.00  0.00     0.034 A 
ATOM     59  C   UNL A   1      39.595  31.812  35.322  1.00  0.00     0.034 A 
ATOM     60  C   UNL A   1      41.658  28.025  30.431  1.00  0.00     0.049 A 
ATOM     61  C   UNL A   1      40.716  30.815  35.183  1.00  0.00     0.074 A 
ATOM     62  C   UNL A   1      42.757  27.185  30.407  1.00  0.00     0.029 A 
ATOM     63  N   UNL A   1      41.634  28.617  31.683  1.00  0.00    -0.354 N 
ATOM     64  N   UNL A   1      41.100  30.143  34.125  1.00  0.00    -0.248 NA
ATOM     65  C   UNL A   1      41.539  30.569  36.377  1.00  0.00     0.031 C 
ATOM     66  C   UNL A   1      43.383  27.248  31.655  1.00  0.00     0.029 A 
ATOM     67  C   UNL A   1      42.698  28.161  32.441  1.00  0.00     0.049 A 
ATOM     68  H   UNL A   1      40.960  29.267  31.988  1.00  0.00     0.167 HD
ATOM     69  C   UNL A   1      42.233  29.436  34.512  1.00  0.00     0.074 A 
ATOM     70  C   UNL A   1      42.487  29.777  35.895  1.00  0.00     0.031 C 
ATOM     71  C   UNL A   1      42.988  28.572  33.790  1.00  0.00     0.034 A 
BRANCH  58  72
ATOM     72  C   UNL A   1      40.826  27.472  28.115  1.00  0.00     0.023 A 
ATOM     73  C   UNL A   1      41.439  28.068  26.993  1.00  0.00     0.012 A 
ATOM     74  C   UNL A   1      40.442  26.117  28.053  1.00  0.00     0.148 A 
ATOM     75  C   UNL A   1      41.639  27.338  25.821  1.00  0.00     0.002 A 
ATOM     76  C   UNL A   1      40.692  25.382  26.898  1.00  0.00     0.091 A 
ATOM     77  F   UNL A   1      39.855  25.569  29.125  1.00  0.00    -0.205 F 
ATOM     78  C   UNL A   1      41.277  25.996  25.778  1.00  0.00     0.022 A 
BRANCH  76  79
ATOM     79  S   UNL A   1      40.366  23.620  26.770  1.00  0.00     0.127 S 
ATOM     80  O   UNL A   1      38.976  23.607  26.313  1.00  0.00    -0.237 OA
ATOM     81  O   UNL A   1      41.340  23.205  25.759  1.00  0.00    -0.237 OA
ATOM     82  O   UNL A   1      40.593  23.066  28.096  1.00  0.00    -0.744 OA
ENDBRANCH  76  79
ENDBRANCH  58  72
BRANCH  59  83
ATOM     83  C   UNL A   1      39.363  32.511  36.621  1.00  0.00     0.023 A 
ATOM     84  C   UNL A   1      40.101  33.674  36.920  1.00  0.00     0.012 A 
ATOM     85  C   UNL A   1      38.436  32.029  37.565  1.00  0.00     0.148 A 
ATOM     86  C   UNL A   1      39.963  34.311  38.154  1.00  0.00     0.002 A 
ATOM     87  C   UNL A   1      38.259  32.702  38.768  1.00  0.00     0.091 A 
ATOM     88  F   UNL A   1      37.749  30.916  37.270  1.00  0.00    -0.205 F 
ATOM     89  C   UNL A   1      39.038  33.829  39.075  1.00  0.00     0.022 A 
BRANCH  87  90
ATOM     90  S   UNL A   1      36.999  32.237  39.959  1.00  0.00     0.127 S 
ATOM     91  O   UNL A   1      37.491  30.947  40.427  1.00  0.00    -0.237 OA
ATOM     92  O   UNL A   1      37.091  33.322  40.936  1.00  0.00    -0.237 OA
ATOM     93  O   UNL A   1      35.749  32.216  39.207  1.00  0.00    -0.744 OA
ENDBRANCH  87  90
ENDBRANCH  59  83
BRANCH  71  94
ATOM     94  C   UNL A   1      44.215  27.992  34.445  1.00  0.00     0.023 A 
ATOM     95  C   UNL A   1      45.438  28.690  34.408  1.00  0.00     0.012 A 
ATOM     96  C   UNL A   1      44.132  26.781  35.164  1.00  0.00     0.148 A 
ATOM     97  C   UNL A   1      46.568  28.173  35.041  1.00  0.00     0.002 A 
ATOM     98  C   UNL A   1      45.247  26.299  35.837  1.00  0.00     0.091 A 
ATOM     99  F   UNL A   1      42.964  26.121  35.174  1.00  0.00    -0.205 F 
ATOM    100  C   UNL A   1      46.470  26.986  35.765  1.00  0.00     0.022 A 
BRANCH  98 101
ATOM    101  S   UNL A   1      45.185  24.835  36.876  1.00  0.00     0.127 S 
ATOM    102  O   UNL A   1      46.559  24.759  37.370  1.00  0.00    -0.237 OA
ATOM    103  O   UNL A   1      44.196  25.210  37.887  1.00  0.00    -0.237 OA
ATOM    104  O   UNL A   1      44.773  23.740  36.009  1.00  0.00    -0.744 OA
ENDBRANCH  98 101
ENDBRANCH  71  94
ENDBRANCH  45  46
ENDBRANCH  37  40
ENDBRANCH  35  36
ENDBRANCH  34  35
ENDBRANCH   1  34
TORSDOF 18
ENDMDL
MODEL 3
REMARK VINA RESULT:     -11.7      5.646      9.273
REMARK SMILES O=C(CNC(=O)N1CC(NCCCNC(=O)c2ccc(-c3c4nc(c(-c5cccc(S(=O)(=O)[O-])c5F)c5ccc([nH]5)c(-c5cccc(S(=O)(=O)[O-])c5F)c5nc(c(-c6cccc(S(=O)(=O)[O-])c6F)c6ccc3[nH]6)C=C5)C=C4)cc2)=[NH+]c2ccccc21)N[C@H](C(=O)[O-])c1ccccc1
REMARK SMILES IDX 11 1 10 2 7 3 8 4 86 5 9 6 81 7 85 8 80 9 82 10 84 11 83 14
REMARK SMILES IDX 5 15 4 16 6 18 3 19 2 20 1 21 87 22 88 24 92 25 93 26 97 27
REMARK SMILES IDX 94 28 96 29 95 30 89 31 90 32 91 33 12 34 13 35 14 36 15 37
REMARK SMILES IDX 16 39 17 40 18 41 79 42 19 43 78 44 20 45 21 46 22 47 72 48
REMARK SMILES IDX 23 49 77 50 71 51 73 52 24 53 76 54 70 55 69 56 25 58 57 59
REMARK SMILES IDX 37 60 56 61 38 62 41 63 55 64 74 65 39 66 40 67 54 69 75 70
REMARK SMILES IDX 42 71 26 72 27 73 35 74 28 75 30 76 36 77 29 78 31 79 32 80
REMARK SMILES IDX 33 81 34 82 58 83 59 84 67 85 60 86 62 87 68 88 61 89 63 90
REMARK SMILES IDX 64 91 65 92 66 93 43 94 44 95 52 96 45 97 47 98 53 99 46 100
REMARK SMILES IDX 48 101 49 102 50 103 51 104
REMARK H PARENT 10 12 80 13 4 17 87 23 14 38 73 57 41 68
REMARK Flexibility Score: inf
ROOT
ATOM      1  C   UNL A   1      37.789  23.439  25.686  1.00  0.00     0.235 C 
ENDROOT
BRANCH   1   2
ATOM      2  N   UNL A   1      37.330  22.071  25.676  1.00  0.00    -0.277 N 
ATOM      3  N   UNL A   1      33.806  21.967  24.697  1.00  0.00    -0.278 N 
ATOM      4  C   UNL A   1      35.144  22.482  24.461  1.00  0.00     0.255 C 
ATOM      5  C   UNL A   1      33.662  20.583  24.442  1.00  0.00     0.093 A 
ATOM      6  C   UNL A   1      36.167  21.567  25.147  1.00  0.00     0.268 C 
ATOM      7  C   UNL A   1      34.772  19.758  24.715  1.00  0.00     0.148 A 
ATOM      8  C   UNL A   1      32.454  20.028  24.000  1.00  0.00     0.031 A 
ATOM      9  N   UNL A   1      35.992  20.273  25.207  1.00  0.00    -0.241 N 
ATOM     10  C   UNL A   1      34.618  18.373  24.625  1.00  0.00     0.054 A 
ATOM     11  C   UNL A   1      32.325  18.644  23.895  1.00  0.00     0.002 A 
ATOM     12  H   UNL A   1      37.926  21.414  26.104  1.00  0.00     0.304 HD
ATOM     13  H   UNL A   1      36.683  19.680  25.580  1.00  0.00     0.312 HD
ATOM     14  C   UNL A   1      33.400  17.817  24.225  1.00  0.00     0.005 A 
BRANCH   3  15
ATOM     15  C   UNL A   1      32.855  22.837  25.159  1.00  0.00     0.323 C 
ATOM     16  N   UNL A   1      32.361  23.809  24.350  1.00  0.00    -0.329 N 
ATOM     17  H   UNL A   1      31.789  24.469  24.806  1.00  0.00     0.165 HD
ATOM     18  O   UNL A   1      32.338  22.702  26.272  1.00  0.00    -0.248 OA
BRANCH  16  19
ATOM     19  C   UNL A   1      32.534  24.043  22.915  1.00  0.00     0.218 C 
BRANCH  19  20
ATOM     20  C   UNL A   1      32.784  25.473  22.453  1.00  0.00     0.240 C 
ATOM     21  O   UNL A   1      33.534  25.667  21.501  1.00  0.00    -0.273 OA
ATOM     22  N   UNL A   1      31.974  26.408  23.049  1.00  0.00    -0.342 N 
ATOM     23  H   UNL A   1      31.408  26.129  23.805  1.00  0.00     0.164 HD
BRANCH  22  24
ATOM     24  C   UNL A   1      31.917  27.822  22.600  1.00  0.00     0.158 C 
BRANCH  24  25
ATOM     25  C   UNL A   1      30.483  28.393  22.625  1.00  0.00    -0.020 A 
ATOM     26  C   UNL A   1      29.397  27.716  23.212  1.00  0.00     0.006 A 
ATOM     27  C   UNL A   1      30.197  29.614  21.982  1.00  0.00     0.006 A 
ATOM     28  C   UNL A   1      28.111  28.273  23.228  1.00  0.00     0.000 A 
ATOM     29  C   UNL A   1      28.914  30.169  21.995  1.00  0.00     0.000 A 
ATOM     30  C   UNL A   1      27.872  29.505  22.630  1.00  0.00     0.000 A 
ENDBRANCH  24  25
BRANCH  24  31
ATOM     31  C   UNL A   1      32.925  28.788  23.353  1.00  0.00     0.068 C 
ATOM     32  O   UNL A   1      32.530  29.181  24.496  1.00  0.00    -0.548 OA
ATOM     33  O   UNL A   1      34.016  29.038  22.752  1.00  0.00    -0.548 OA
ENDBRANCH  24  31
ENDBRANCH  22  24
ENDBRANCH  19  20
ENDBRANCH  16  19
ENDBRANCH   3  15
ENDBRANCH   1   2
BRANCH   1  34
ATOM     34  C   UNL A   1      39.035  23.612  26.548  1.00  0.00     0.067 C 
BRANCH  34  35
ATOM     35  C   UNL A   1      39.741  22.307  26.907  1.00  0.00     0.120 C 
BRANCH  35  36
ATOM     36  N   UNL A   1      40.913  22.051  26.074  1.00  0.00    -0.352 N 
ATOM     37  C   UNL A   1      41.956  22.870  25.722  1.00  0.00     0.251 C 
ATOM     38  H   UNL A   1      40.963  21.140  25.705  1.00  0.00     0.163 HD
ATOM     39  O   UNL A   1      42.745  22.490  24.859  1.00  0.00    -0.269 OA
BRANCH  37  40
ATOM     40  C   UNL A   1      42.140  24.194  26.357  1.00  0.00     0.039 A 
ATOM     41  C   UNL A   1      42.073  25.340  25.556  1.00  0.00     0.014 A 
ATOM     42  C   UNL A   1      42.433  24.318  27.716  1.00  0.00     0.014 A 
ATOM     43  C   UNL A   1      42.255  26.602  26.126  1.00  0.00     0.010 A 
ATOM     44  C   UNL A   1      42.529  25.580  28.298  1.00  0.00     0.010 A 
ATOM     45  C   UNL A   1      42.464  26.736  27.508  1.00  0.00    -0.014 A 
BRANCH  45  46
ATOM     46  C   UNL A   1      42.638  28.072  28.139  1.00  0.00     0.031 A 
ATOM     47  C   UNL A   1      44.023  28.625  28.367  1.00  0.00     0.074 A 
ATOM     48  C   UNL A   1      41.560  28.752  28.575  1.00  0.00     0.049 A 
ATOM     49  N   UNL A   1      44.381  29.747  28.938  1.00  0.00    -0.248 NA
ATOM     50  C   UNL A   1      45.158  27.804  27.909  1.00  0.00     0.031 C 
ATOM     51  C   UNL A   1      40.172  28.290  28.484  1.00  0.00     0.029 A 
ATOM     52  N   UNL A   1      41.462  29.966  29.210  1.00  0.00    -0.354 N 
ATOM     53  C   UNL A   1      45.771  29.741  28.955  1.00  0.00     0.074 A 
ATOM     54  C   UNL A   1      46.196  28.498  28.351  1.00  0.00     0.031 C 
ATOM     55  C   UNL A   1      39.365  29.207  29.042  1.00  0.00     0.029 A 
ATOM     56  C   UNL A   1      40.174  30.304  29.561  1.00  0.00     0.049 A 
ATOM     57  H   UNL A   1      42.239  30.541  29.396  1.00  0.00     0.167 HD
ATOM     58  C   UNL A   1      46.620  30.695  29.409  1.00  0.00     0.034 A 
ATOM     59  C   UNL A   1      39.704  31.369  30.239  1.00  0.00     0.034 A 
ATOM     60  C   UNL A   1      46.193  31.948  29.970  1.00  0.00     0.049 A 
ATOM     61  C   UNL A   1      40.672  32.431  30.693  1.00  0.00     0.074 A 
ATOM     62  C   UNL A   1      46.972  33.019  30.371  1.00  0.00     0.029 A 
ATOM     63  N   UNL A   1      44.876  32.294  30.223  1.00  0.00    -0.354 N 
ATOM     64  N   UNL A   1      41.971  32.491  30.533  1.00  0.00    -0.248 NA
ATOM     65  C   UNL A   1      40.101  33.598  31.384  1.00  0.00     0.031 C 
ATOM     66  C   UNL A   1      46.127  34.002  30.893  1.00  0.00     0.029 A 
ATOM     67  C   UNL A   1      44.820  33.562  30.775  1.00  0.00     0.049 A 
ATOM     68  H   UNL A   1      44.096  31.723  30.036  1.00  0.00     0.167 HD
ATOM     69  C   UNL A   1      42.365  33.717  31.057  1.00  0.00     0.074 A 
ATOM     70  C   UNL A   1      41.164  34.379  31.519  1.00  0.00     0.031 C 
ATOM     71  C   UNL A   1      43.610  34.243  31.156  1.00  0.00     0.034 A 
BRANCH  58  72
ATOM     72  C   UNL A   1      48.102  30.453  29.272  1.00  0.00     0.023 A 
ATOM     73  C   UNL A   1      48.811  29.864  30.339  1.00  0.00     0.012 A 
ATOM     74  C   UNL A   1      48.771  30.712  28.058  1.00  0.00     0.148 A 
ATOM     75  C   UNL A   1      50.168  29.565  30.213  1.00  0.00     0.002 A 
ATOM     76  C   UNL A   1      50.111  30.364  27.923  1.00  0.00     0.091 A 
ATOM     77  F   UNL A   1      48.084  31.278  27.057  1.00  0.00    -0.205 F 
ATOM     78  C   UNL A   1      50.813  29.803  29.003  1.00  0.00     0.022 A 
BRANCH  76  79
ATOM     79  S   UNL A   1      51.013  30.525  26.377  1.00  0.00     0.127 S 
ATOM     80  O   UNL A   1      52.395  30.340  26.820  1.00  0.00    -0.237 OA
ATOM     81  O   UNL A   1      50.474  29.413  25.594  1.00  0.00    -0.237 OA
ATOM     82  O   UNL A   1      50.696  31.847  25.857  1.00  0.00    -0.744 OA
ENDBRANCH  76  79
ENDBRANCH  58  72
BRANCH  59  83
ATOM     83  C   UNL A   1      38.239  31.528  30.481  1.00  0.00     0.023 A 
ATOM     84  C   UNL A   1      37.653  30.910  31.604  1.00  0.00     0.012 A 
ATOM     85  C   UNL A   1      37.422  32.267  29.603  1.00  0.00     0.148 A 
ATOM     86  C   UNL A   1      36.276  30.977  31.820  1.00  0.00     0.002 A 
ATOM     87  C   UNL A   1      36.059  32.380  29.857  1.00  0.00     0.091 A 
ATOM     88  F   UNL A   1      37.992  32.841  28.535  1.00  0.00    -0.205 F 
ATOM     89  C   UNL A   1      35.481  31.717  30.951  1.00  0.00     0.022 A 
BRANCH  87  90
ATOM     90  S   UNL A   1      34.977  33.420  28.872  1.00  0.00     0.127 S 
ATOM     91  O   UNL A   1      34.855  32.644  27.644  1.00  0.00    -0.237 OA
ATOM     92  O   UNL A   1      33.768  33.463  29.695  1.00  0.00    -0.237 OA
ATOM     93  O   UNL A   1      35.669  34.699  28.761  1.00  0.00    -0.744 OA
ENDBRANCH  87  90
ENDBRANCH  59  83
BRANCH  71  94
ATOM     94  C   UNL A   1      43.744  35.639  31.711  1.00  0.00     0.023 A 
ATOM     95  C   UNL A   1      43.844  35.844  33.101  1.00  0.00     0.012 A 
ATOM     96  C   UNL A   1      43.843  36.742  30.840  1.00  0.00     0.148 A 
ATOM     97  C   UNL A   1      44.000  37.131  33.616  1.00  0.00     0.002 A 
ATOM     98  C   UNL A   1      44.053  38.014  31.357  1.00  0.00     0.091 A 
ATOM     99  F   UNL A   1      43.729  36.530  29.520  1.00  0.00    -0.205 F 
ATOM    100  C   UNL A   1      44.117  38.213  32.746  1.00  0.00     0.022 A 
BRANCH  98 101
ATOM    101  S   UNL A   1      44.317  39.449  30.308  1.00  0.00     0.127 S 
ATOM    102  O   UNL A   1      43.027  39.566  29.629  1.00  0.00    -0.237 OA
ATOM    103  O   UNL A   1      44.588  40.505  31.284  1.00  0.00    -0.237 OA
ATOM    104  O   UNL A   1      45.447  39.120  29.449  1.00  0.00    -0.744 OA
ENDBRANCH  98 101
ENDBRANCH  71  94
ENDBRANCH  45  46
ENDBRANCH  37  40
ENDBRANCH  35  36
ENDBRANCH  34  35
ENDBRANCH   1  34
TORSDOF 18
ENDMDL
