MODEL 1
REMARK VINA RESULT:     -12.4      0.000      0.000
REMARK SMILES O=C(COc1ccc(N2C[C@@H](C(=O)NCCCNC(=O)c3ccc(-c4c5nc(c(-c6cccc(S(=O)(=O)[O-])c6F)c6ccc([nH]6)c(-c6cccc(S(=O)(=O)[O-])c6F)c6nc(c(-c7cccc(S(=O)(=O)[O-])c7F)c7ccc4[nH]7)C=C6)C=C5)cc3)CC2=O)cc1)Nc1ccc(Cl)cc1Cl
REMARK SMILES IDX 15 1 14 2 12 3 13 4 11 6 9 7 10 8 85 9 84 10 86 11 8 12 5 13
REMARK SMILES IDX 6 14 88 15 7 16 87 17 4 18 3 19 2 20 1 21 89 22 90 24 91 25
REMARK SMILES IDX 96 26 92 27 95 28 97 29 93 30 94 31 16 32 17 33 18 34 19 35
REMARK SMILES IDX 20 37 21 38 22 39 83 40 23 41 82 42 24 43 25 44 26 45 76 46
REMARK SMILES IDX 27 47 81 48 75 49 77 50 28 51 80 52 74 53 73 54 29 56 61 57
REMARK SMILES IDX 41 58 60 59 42 60 45 61 59 62 78 63 43 64 44 65 58 67 79 68
REMARK SMILES IDX 46 69 30 70 31 71 39 72 32 73 34 74 40 75 33 76 35 77 36 78
REMARK SMILES IDX 37 79 38 80 62 81 63 82 71 83 64 84 66 85 72 86 65 87 67 88
REMARK SMILES IDX 68 89 69 90 70 91 47 92 48 93 56 94 49 95 51 96 57 97 50 98
REMARK SMILES IDX 52 99 53 100 54 101 55 102
REMARK H PARENT 14 5 89 23 18 36 77 55 45 66
REMARK Flexibility Score: inf
ROOT
ATOM      1  C   UNL A   1      31.480  30.655  25.741  1.00  0.00     0.117 C 
ENDROOT
BRANCH   1   2
ATOM      2  N   UNL A   1      30.523  30.460  24.662  1.00  0.00    -0.356 N 
ATOM      3  C   UNL A   1      30.582  29.751  23.507  1.00  0.00     0.225 C 
ATOM      4  O   UNL A   1      29.574  29.743  22.795  1.00  0.00    -0.275 OA
ATOM      5  H   UNL A   1      29.669  30.933  24.796  1.00  0.00     0.163 HD
BRANCH   3   6
ATOM      6  C   UNL A   1      31.796  28.948  23.090  1.00  0.00     0.107 C 
ATOM      7  N   UNL A   1      32.459  26.730  23.511  1.00  0.00    -0.312 N 
ATOM      8  C   UNL A   1      31.462  27.493  22.810  1.00  0.00     0.139 C 
ATOM      9  C   UNL A   1      33.330  27.525  24.255  1.00  0.00     0.227 C 
ATOM     10  C   UNL A   1      32.943  28.965  24.088  1.00  0.00     0.116 C 
ATOM     11  O   UNL A   1      34.283  27.162  24.931  1.00  0.00    -0.274 OA
BRANCH   7  12
ATOM     12  C   UNL A   1      32.462  25.320  23.533  1.00  0.00     0.044 A 
ATOM     13  C   UNL A   1      32.414  22.507  23.442  1.00  0.00     0.120 A 
ATOM     14  C   UNL A   1      31.731  23.188  24.449  1.00  0.00     0.048 A 
ATOM     15  C   UNL A   1      33.133  23.231  22.498  1.00  0.00     0.048 A 
ATOM     16  C   UNL A   1      31.785  24.590  24.518  1.00  0.00     0.030 A 
ATOM     17  C   UNL A   1      33.145  24.623  22.537  1.00  0.00     0.030 A 
BRANCH  13  18
ATOM     18  O   UNL A   1      32.218  21.155  23.324  1.00  0.00    -0.484 OA
BRANCH  18  19
ATOM     19  C   UNL A   1      32.311  20.443  24.556  1.00  0.00     0.329 C 
BRANCH  19  20
ATOM     20  C   UNL A   1      33.596  20.638  25.371  1.00  0.00     0.262 C 
ATOM     21  O   UNL A   1      33.547  20.758  26.591  1.00  0.00    -0.271 OA
ATOM     22  N   UNL A   1      34.728  20.754  24.572  1.00  0.00    -0.322 N 
ATOM     23  H   UNL A   1      34.636  20.550  23.614  1.00  0.00     0.170 HD
BRANCH  22  24
ATOM     24  C   UNL A   1      36.006  21.145  25.044  1.00  0.00     0.060 A 
ATOM     25  C   UNL A   1      36.983  20.136  25.057  1.00  0.00     0.029 A 
ATOM     26  C   UNL A   1      36.371  22.441  25.452  1.00  0.00     0.066 A 
ATOM     27  C   UNL A   1      38.313  20.431  25.371  1.00  0.00     0.023 A 
ATOM     28  C   UNL A   1      37.707  22.735  25.758  1.00  0.00     0.043 A 
ATOM     29  Cl  UNL A   1      35.218  23.685  25.804  1.00  0.00    -0.082 Cl
ATOM     30  C   UNL A   1      38.670  21.733  25.702  1.00  0.00     0.042 A 
ATOM     31  Cl  UNL A   1      40.306  22.102  26.084  1.00  0.00    -0.084 Cl
ENDBRANCH  22  24
ENDBRANCH  19  20
ENDBRANCH  18  19
ENDBRANCH  13  18
ENDBRANCH   7  12
ENDBRANCH   3   6
ENDBRANCH   1   2
BRANCH   1  32
ATOM     32  C   UNL A   1      31.323  32.009  26.422  1.00  0.00     0.042 C 
BRANCH  32  33
ATOM     33  C   UNL A   1      32.569  32.485  27.158  1.00  0.00     0.118 C 
BRANCH  33  34
ATOM     34  N   UNL A   1      32.435  33.839  27.684  1.00  0.00    -0.352 N 
ATOM     35  C   UNL A   1      33.182  34.478  28.647  1.00  0.00     0.251 C 
ATOM     36  H   UNL A   1      31.707  34.373  27.293  1.00  0.00     0.163 HD
ATOM     37  O   UNL A   1      32.823  35.568  29.080  1.00  0.00    -0.269 OA
BRANCH  35  38
ATOM     38  C   UNL A   1      34.407  33.835  29.168  1.00  0.00     0.039 A 
ATOM     39  C   UNL A   1      35.652  34.213  28.660  1.00  0.00     0.014 A 
ATOM     40  C   UNL A   1      34.320  32.877  30.181  1.00  0.00     0.014 A 
ATOM     41  C   UNL A   1      36.818  33.687  29.224  1.00  0.00     0.010 A 
ATOM     42  C   UNL A   1      35.479  32.425  30.798  1.00  0.00     0.010 A 
ATOM     43  C   UNL A   1      36.741  32.820  30.324  1.00  0.00    -0.014 A 
BRANCH  43  44
ATOM     44  C   UNL A   1      37.948  32.286  31.007  1.00  0.00     0.031 A 
ATOM     45  C   UNL A   1      38.674  31.112  30.406  1.00  0.00     0.074 A 
ATOM     46  C   UNL A   1      38.306  32.756  32.219  1.00  0.00     0.049 A 
ATOM     47  N   UNL A   1      39.615  30.368  30.925  1.00  0.00    -0.248 NA
ATOM     48  C   UNL A   1      38.256  30.697  29.056  1.00  0.00     0.031 C 
ATOM     49  C   UNL A   1      37.650  33.855  32.931  1.00  0.00     0.029 A 
ATOM     50  N   UNL A   1      39.282  32.335  33.088  1.00  0.00    -0.354 N 
ATOM     51  C   UNL A   1      39.861  29.367  29.993  1.00  0.00     0.074 A 
ATOM     52  C   UNL A   1      38.952  29.582  28.889  1.00  0.00     0.031 C 
ATOM     53  C   UNL A   1      38.234  34.013  34.130  1.00  0.00     0.029 A 
ATOM     54  C   UNL A   1      39.272  33.000  34.293  1.00  0.00     0.049 A 
ATOM     55  H   UNL A   1      39.930  31.626  32.869  1.00  0.00     0.167 HD
ATOM     56  C   UNL A   1      40.774  28.369  30.042  1.00  0.00     0.034 A 
ATOM     57  C   UNL A   1      39.994  32.797  35.413  1.00  0.00     0.034 A 
ATOM     58  C   UNL A   1      41.706  28.189  31.121  1.00  0.00     0.049 A 
ATOM     59  C   UNL A   1      41.021  31.696  35.433  1.00  0.00     0.074 A 
ATOM     60  C   UNL A   1      42.726  27.262  31.228  1.00  0.00     0.029 A 
ATOM     61  N   UNL A   1      41.727  28.948  32.281  1.00  0.00    -0.354 N 
ATOM     62  N   UNL A   1      41.324  30.835  34.493  1.00  0.00    -0.248 NA
ATOM     63  C   UNL A   1      41.830  31.558  36.654  1.00  0.00     0.031 C 
ATOM     64  C   UNL A   1      43.345  27.438  32.470  1.00  0.00     0.029 A 
ATOM     65  C   UNL A   1      42.740  28.506  33.113  1.00  0.00     0.049 A 
ATOM     66  H   UNL A   1      41.113  29.691  32.482  1.00  0.00     0.167 HD
ATOM     67  C   UNL A   1      42.389  30.090  34.987  1.00  0.00     0.074 A 
ATOM     68  C   UNL A   1      42.681  30.602  36.309  1.00  0.00     0.031 C 
ATOM     69  C   UNL A   1      43.064  29.073  34.396  1.00  0.00     0.034 A 
BRANCH  56  70
ATOM     70  C   UNL A   1      40.835  27.415  28.878  1.00  0.00     0.023 A 
ATOM     71  C   UNL A   1      39.905  26.360  28.787  1.00  0.00     0.012 A 
ATOM     72  C   UNL A   1      41.779  27.594  27.848  1.00  0.00     0.148 A 
ATOM     73  C   UNL A   1      39.939  25.474  27.711  1.00  0.00     0.002 A 
ATOM     74  C   UNL A   1      41.774  26.738  26.754  1.00  0.00     0.091 A 
ATOM     75  F   UNL A   1      42.669  28.591  27.961  1.00  0.00    -0.205 F 
ATOM     76  C   UNL A   1      40.865  25.668  26.690  1.00  0.00     0.022 A 
BRANCH  74  77
ATOM     77  S   UNL A   1      42.869  26.956  25.347  1.00  0.00     0.127 S 
ATOM     78  O   UNL A   1      44.166  27.112  26.004  1.00  0.00    -0.237 OA
ATOM     79  O   UNL A   1      42.698  25.695  24.626  1.00  0.00    -0.237 OA
ATOM     80  O   UNL A   1      42.383  28.132  24.638  1.00  0.00    -0.744 OA
ENDBRANCH  74  77
ENDBRANCH  56  70
BRANCH  57  81
ATOM     81  C   UNL A   1      39.805  33.687  36.595  1.00  0.00     0.023 A 
ATOM     82  C   UNL A   1      38.698  33.483  37.442  1.00  0.00     0.012 A 
ATOM     83  C   UNL A   1      40.718  34.715  36.894  1.00  0.00     0.148 A 
ATOM     84  C   UNL A   1      38.485  34.309  38.547  1.00  0.00     0.002 A 
ATOM     85  C   UNL A   1      40.531  35.500  38.026  1.00  0.00     0.091 A 
ATOM     86  F   UNL A   1      41.761  34.896  36.072  1.00  0.00    -0.205 F 
ATOM     87  C   UNL A   1      39.405  35.311  38.844  1.00  0.00     0.022 A 
BRANCH  85  88
ATOM     88  S   UNL A   1      41.725  36.732  38.556  1.00  0.00     0.127 S 
ATOM     89  O   UNL A   1      40.866  37.722  39.203  1.00  0.00    -0.237 OA
ATOM     90  O   UNL A   1      42.570  35.959  39.468  1.00  0.00    -0.237 OA
ATOM     91  O   UNL A   1      42.398  37.178  37.344  1.00  0.00    -0.744 OA
ENDBRANCH  85  88
ENDBRANCH  57  81
BRANCH  69  92
ATOM     92  C   UNL A   1      44.243  28.484  35.123  1.00  0.00     0.023 A 
ATOM     93  C   UNL A   1      45.533  29.015  34.940  1.00  0.00     0.012 A 
ATOM     94  C   UNL A   1      44.037  27.475  36.088  1.00  0.00     0.148 A 
ATOM     95  C   UNL A   1      46.605  28.540  35.694  1.00  0.00     0.002 A 
ATOM     96  C   UNL A   1      45.099  27.046  36.872  1.00  0.00     0.091 A 
ATOM     97  F   UNL A   1      42.802  26.973  36.233  1.00  0.00    -0.205 F 
ATOM     98  C   UNL A   1      46.386  27.569  36.669  1.00  0.00     0.022 A 
BRANCH  96  99
ATOM     99  S   UNL A   1      44.890  25.879  38.223  1.00  0.00     0.127 S 
ATOM    100  O   UNL A   1      46.271  25.680  38.660  1.00  0.00    -0.237 OA
ATOM    101  O   UNL A   1      44.057  26.637  39.157  1.00  0.00    -0.237 OA
ATOM    102  O   UNL A   1      44.246  24.706  37.649  1.00  0.00    -0.744 OA
ENDBRANCH  96  99
ENDBRANCH  69  92
ENDBRANCH  43  44
ENDBRANCH  35  38
ENDBRANCH  33  34
ENDBRANCH  32  33
ENDBRANCH   1  32
TORSDOF 18
ENDMDL
MODEL 2
REMARK VINA RESULT:     -12.3      4.930     10.880
REMARK SMILES O=C(COc1ccc(N2C[C@@H](C(=O)NCCCNC(=O)c3ccc(-c4c5nc(c(-c6cccc(S(=O)(=O)[O-])c6F)c6ccc([nH]6)c(-c6cccc(S(=O)(=O)[O-])c6F)c6nc(c(-c7cccc(S(=O)(=O)[O-])c7F)c7ccc4[nH]7)C=C6)C=C5)cc3)CC2=O)cc1)Nc1ccc(Cl)cc1Cl
REMARK SMILES IDX 15 1 14 2 12 3 13 4 11 6 9 7 10 8 85 9 84 10 86 11 8 12 5 13
REMARK SMILES IDX 6 14 88 15 7 16 87 17 4 18 3 19 2 20 1 21 89 22 90 24 91 25
REMARK SMILES IDX 96 26 92 27 95 28 97 29 93 30 94 31 16 32 17 33 18 34 19 35
REMARK SMILES IDX 20 37 21 38 22 39 83 40 23 41 82 42 24 43 25 44 26 45 76 46
REMARK SMILES IDX 27 47 81 48 75 49 77 50 28 51 80 52 74 53 73 54 29 56 61 57
REMARK SMILES IDX 41 58 60 59 42 60 45 61 59 62 78 63 43 64 44 65 58 67 79 68
REMARK SMILES IDX 46 69 30 70 31 71 39 72 32 73 34 74 40 75 33 76 35 77 36 78
REMARK SMILES IDX 37 79 38 80 62 81 63 82 71 83 64 84 66 85 72 86 65 87 67 88
REMARK SMILES IDX 68 89 69 90 70 91 47 92 48 93 56 94 49 95 51 96 57 97 50 98
REMARK SMILES IDX 52 99 53 100 54 101 55 102
REMARK H PARENT 14 5 89 23 18 36 77 55 45 66
REMARK Flexibility Score: inf
ROOT
ATOM      1  C   UNL A   1      34.520  35.292  29.190  1.00  0.00     0.117 C 
ENDROOT
BRANCH   1   2
ATOM      2  N   UNL A   1      33.507  35.129  30.223  1.00  0.00    -0.356 N 
ATOM      3  C   UNL A   1      33.588  35.051  31.574  1.00  0.00     0.225 C 
ATOM      4  O   UNL A   1      32.528  34.951  32.199  1.00  0.00    -0.275 OA
ATOM      5  H   UNL A   1      32.589  35.062  29.873  1.00  0.00     0.163 HD
BRANCH   3   6
ATOM      6  C   UNL A   1      34.896  35.127  32.332  1.00  0.00     0.107 C 
ATOM      7  N   UNL A   1      36.302  33.479  33.250  1.00  0.00    -0.312 N 
ATOM      8  C   UNL A   1      35.835  33.983  31.988  1.00  0.00     0.139 C 
ATOM      9  C   UNL A   1      35.715  34.117  34.342  1.00  0.00     0.227 C 
ATOM     10  C   UNL A   1      34.753  35.156  33.845  1.00  0.00     0.116 C 
ATOM     11  O   UNL A   1      35.930  33.917  35.530  1.00  0.00    -0.274 OA
BRANCH   7  12
ATOM     12  C   UNL A   1      37.168  32.371  33.354  1.00  0.00     0.044 A 
ATOM     13  C   UNL A   1      38.793  30.089  33.637  1.00  0.00     0.120 A 
ATOM     14  C   UNL A   1      39.239  31.330  34.094  1.00  0.00     0.048 A 
ATOM     15  C   UNL A   1      37.549  29.998  33.025  1.00  0.00     0.048 A 
ATOM     16  C   UNL A   1      38.445  32.476  33.920  1.00  0.00     0.030 A 
ATOM     17  C   UNL A   1      36.740  31.125  32.897  1.00  0.00     0.030 A 
BRANCH  13  18
ATOM     18  O   UNL A   1      39.529  28.978  33.954  1.00  0.00    -0.484 OA
BRANCH  18  19
ATOM     19  C   UNL A   1      40.837  29.264  34.443  1.00  0.00     0.329 C 
BRANCH  19  20
ATOM     20  C   UNL A   1      41.537  28.153  35.236  1.00  0.00     0.262 C 
ATOM     21  O   UNL A   1      41.620  28.217  36.458  1.00  0.00    -0.271 OA
ATOM     22  N   UNL A   1      42.110  27.187  34.417  1.00  0.00    -0.322 N 
ATOM     23  H   UNL A   1      41.892  27.211  33.457  1.00  0.00     0.170 HD
BRANCH  22  24
ATOM     24  C   UNL A   1      42.989  26.170  34.869  1.00  0.00     0.060 A 
ATOM     25  C   UNL A   1      42.384  24.940  35.178  1.00  0.00     0.029 A 
ATOM     26  C   UNL A   1      44.385  26.283  34.991  1.00  0.00     0.066 A 
ATOM     27  C   UNL A   1      43.159  23.823  35.503  1.00  0.00     0.023 A 
ATOM     28  C   UNL A   1      45.159  25.160  35.309  1.00  0.00     0.043 A 
ATOM     29  Cl  UNL A   1      45.219  27.801  34.971  1.00  0.00    -0.082 Cl
ATOM     30  C   UNL A   1      44.544  23.935  35.549  1.00  0.00     0.042 A 
ATOM     31  Cl  UNL A   1      45.502  22.563  35.943  1.00  0.00    -0.084 Cl
ENDBRANCH  22  24
ENDBRANCH  19  20
ENDBRANCH  18  19
ENDBRANCH  13  18
ENDBRANCH   7  12
ENDBRANCH   3   6
ENDBRANCH   1   2
BRANCH   1  32
ATOM     32  C   UNL A   1      34.437  34.214  28.116  1.00  0.00     0.042 C 
BRANCH  32  33
ATOM     33  C   UNL A   1      34.818  32.821  28.601  1.00  0.00     0.118 C 
BRANCH  33  34
ATOM     34  N   UNL A   1      34.034  31.766  27.969  1.00  0.00    -0.352 N 
ATOM     35  C   UNL A   1      34.417  30.495  27.606  1.00  0.00     0.251 C 
ATOM     36  H   UNL A   1      33.098  31.996  27.774  1.00  0.00     0.163 HD
ATOM     37  O   UNL A   1      33.665  29.795  26.934  1.00  0.00    -0.269 OA
BRANCH  35  38
ATOM     38  C   UNL A   1      35.743  29.986  28.013  1.00  0.00     0.039 A 
ATOM     39  C   UNL A   1      36.817  30.075  27.124  1.00  0.00     0.014 A 
ATOM     40  C   UNL A   1      35.927  29.446  29.287  1.00  0.00     0.014 A 
ATOM     41  C   UNL A   1      38.096  29.695  27.542  1.00  0.00     0.010 A 
ATOM     42  C   UNL A   1      37.210  29.153  29.731  1.00  0.00     0.010 A 
ATOM     43  C   UNL A   1      38.309  29.269  28.863  1.00  0.00    -0.014 A 
BRANCH  43  44
ATOM     44  C   UNL A   1      39.656  28.919  29.383  1.00  0.00     0.031 A 
ATOM     45  C   UNL A   1      40.468  29.972  30.089  1.00  0.00     0.074 A 
ATOM     46  C   UNL A   1      40.200  27.718  29.103  1.00  0.00     0.049 A 
ATOM     47  N   UNL A   1      41.727  29.948  30.440  1.00  0.00    -0.248 NA
ATOM     48  C   UNL A   1      39.781  31.236  30.403  1.00  0.00     0.031 C 
ATOM     49  C   UNL A   1      39.535  26.631  28.382  1.00  0.00     0.029 A 
ATOM     50  N   UNL A   1      41.458  27.227  29.354  1.00  0.00    -0.354 N 
ATOM     51  C   UNL A   1      41.996  31.207  30.964  1.00  0.00     0.074 A 
ATOM     52  C   UNL A   1      40.778  31.980  30.860  1.00  0.00     0.031 C 
ATOM     53  C   UNL A   1      40.393  25.608  28.237  1.00  0.00     0.029 A 
ATOM     54  C   UNL A   1      41.681  25.981  28.812  1.00  0.00     0.049 A 
ATOM     55  H   UNL A   1      42.136  27.718  29.873  1.00  0.00     0.167 HD
ATOM     56  C   UNL A   1      43.147  31.672  31.502  1.00  0.00     0.034 A 
ATOM     57  C   UNL A   1      42.804  25.237  28.758  1.00  0.00     0.034 A 
ATOM     58  C   UNL A   1      44.339  30.884  31.646  1.00  0.00     0.049 A 
ATOM     59  C   UNL A   1      44.066  25.767  29.386  1.00  0.00     0.074 A 
ATOM     60  C   UNL A   1      45.532  31.234  32.253  1.00  0.00     0.029 A 
ATOM     61  N   UNL A   1      44.493  29.590  31.173  1.00  0.00    -0.354 N 
ATOM     62  N   UNL A   1      44.268  26.915  29.987  1.00  0.00    -0.248 NA
ATOM     63  C   UNL A   1      45.246  24.889  29.359  1.00  0.00     0.031 C 
ATOM     64  C   UNL A   1      46.419  30.161  32.118  1.00  0.00     0.029 A 
ATOM     65  C   UNL A   1      45.762  29.128  31.469  1.00  0.00     0.049 A 
ATOM     66  H   UNL A   1      43.800  29.076  30.697  1.00  0.00     0.167 HD
ATOM     67  C   UNL A   1      45.577  26.875  30.454  1.00  0.00     0.074 A 
ATOM     68  C   UNL A   1      46.121  25.590  30.068  1.00  0.00     0.031 C 
ATOM     69  C   UNL A   1      46.265  27.819  31.141  1.00  0.00     0.034 A 
BRANCH  56  70
ATOM     70  C   UNL A   1      43.162  33.091  32.010  1.00  0.00     0.023 A 
ATOM     71  C   UNL A   1      43.559  34.137  31.153  1.00  0.00     0.012 A 
ATOM     72  C   UNL A   1      42.734  33.393  33.317  1.00  0.00     0.148 A 
ATOM     73  C   UNL A   1      43.569  35.457  31.601  1.00  0.00     0.002 A 
ATOM     74  C   UNL A   1      42.697  34.716  33.740  1.00  0.00     0.091 A 
ATOM     75  F   UNL A   1      42.378  32.383  34.124  1.00  0.00    -0.205 F 
ATOM     76  C   UNL A   1      43.129  35.748  32.889  1.00  0.00     0.022 A 
BRANCH  74  77
ATOM     77  S   UNL A   1      42.065  35.202  35.349  1.00  0.00     0.127 S 
ATOM     78  O   UNL A   1      43.216  34.937  36.211  1.00  0.00    -0.237 OA
ATOM     79  O   UNL A   1      41.768  36.620  35.147  1.00  0.00    -0.237 OA
ATOM     80  O   UNL A   1      40.898  34.366  35.592  1.00  0.00    -0.744 OA
ENDBRANCH  74  77
ENDBRANCH  56  70
BRANCH  57  81
ATOM     81  C   UNL A   1      42.775  23.887  28.124  1.00  0.00     0.023 A 
ATOM     82  C   UNL A   1      41.997  22.868  28.707  1.00  0.00     0.012 A 
ATOM     83  C   UNL A   1      43.493  23.613  26.946  1.00  0.00     0.148 A 
ATOM     84  C   UNL A   1      41.962  21.590  28.148  1.00  0.00     0.002 A 
ATOM     85  C   UNL A   1      43.412  22.353  26.362  1.00  0.00     0.091 A 
ATOM     86  F   UNL A   1      44.233  24.594  26.410  1.00  0.00    -0.205 F 
ATOM     87  C   UNL A   1      42.661  21.335  26.971  1.00  0.00     0.022 A 
BRANCH  85  88
ATOM     88  S   UNL A   1      44.179  21.968  24.785  1.00  0.00     0.127 S 
ATOM     89  O   UNL A   1      43.448  22.846  23.874  1.00  0.00    -0.237 OA
ATOM     90  O   UNL A   1      45.571  22.351  25.026  1.00  0.00    -0.237 OA
ATOM     91  O   UNL A   1      43.974  20.540  24.585  1.00  0.00    -0.744 OA
ENDBRANCH  85  88
ENDBRANCH  57  81
BRANCH  69  92
ATOM     92  C   UNL A   1      47.659  27.489  31.603  1.00  0.00     0.023 A 
ATOM     93  C   UNL A   1      47.872  26.890  32.858  1.00  0.00     0.012 A 
ATOM     94  C   UNL A   1      48.748  27.667  30.724  1.00  0.00     0.148 A 
ATOM     95  C   UNL A   1      49.151  26.487  33.240  1.00  0.00     0.002 A 
ATOM     96  C   UNL A   1      50.008  27.214  31.090  1.00  0.00     0.091 A 
ATOM     97  F   UNL A   1      48.524  28.256  29.541  1.00  0.00    -0.205 F 
ATOM     98  C   UNL A   1      50.214  26.634  32.351  1.00  0.00     0.022 A 
BRANCH  96  99
ATOM     99  S   UNL A   1      51.413  27.264  29.970  1.00  0.00     0.127 S 
ATOM    100  O   UNL A   1      52.524  26.974  30.874  1.00  0.00    -0.237 OA
ATOM    101  O   UNL A   1      51.093  26.189  29.030  1.00  0.00    -0.237 OA
ATOM    102  O   UNL A   1      51.419  28.598  29.386  1.00  0.00    -0.744 OA
ENDBRANCH  96  99
ENDBRANCH  69  92
ENDBRANCH  43  44
ENDBRANCH  35  38
ENDBRANCH  33  34
ENDBRANCH  32  33
ENDBRANCH   1  32
TORSDOF 18
ENDMDL
MODEL 3
REMARK VINA RESULT:     -11.9      4.943     10.968
REMARK SMILES O=C(COc1ccc(N2C[C@@H](C(=O)NCCCNC(=O)c3ccc(-c4c5nc(c(-c6cccc(S(=O)(=O)[O-])c6F)c6ccc([nH]6)c(-c6cccc(S(=O)(=O)[O-])c6F)c6nc(c(-c7cccc(S(=O)(=O)[O-])c7F)c7ccc4[nH]7)C=C6)C=C5)cc3)CC2=O)cc1)Nc1ccc(Cl)cc1Cl
REMARK SMILES IDX 15 1 14 2 12 3 13 4 11 6 9 7 10 8 85 9 84 10 86 11 8 12 5 13
REMARK SMILES IDX 6 14 88 15 7 16 87 17 4 18 3 19 2 20 1 21 89 22 90 24 91 25
REMARK SMILES IDX 96 26 92 27 95 28 97 29 93 30 94 31 16 32 17 33 18 34 19 35
REMARK SMILES IDX 20 37 21 38 22 39 83 40 23 41 82 42 24 43 25 44 26 45 76 46
REMARK SMILES IDX 27 47 81 48 75 49 77 50 28 51 80 52 74 53 73 54 29 56 61 57
REMARK SMILES IDX 41 58 60 59 42 60 45 61 59 62 78 63 43 64 44 65 58 67 79 68
REMARK SMILES IDX 46 69 30 70 31 71 39 72 32 73 34 74 40 75 33 76 35 77 36 78
REMARK SMILES IDX 37 79 38 80 62 81 63 82 71 83 64 84 66 85 72 86 65 87 67 88
REMARK SMILES IDX 68 89 69 90 70 91 47 92 48 93 56 94 49 95 51 96 57 97 50 98
REMARK SMILES IDX 52 99 53 100 54 101 55 102
REMARK H PARENT 14 5 89 23 18 36 77 55 45 66
REMARK Flexibility Score: inf
ROOT
ATOM      1  C   UNL A   1      34.313  34.921  28.862  1.00  0.00     0.117 C 
ENDROOT
BRANCH   1   2
ATOM      2  N   UNL A   1      33.269  35.068  29.865  1.00  0.00    -0.356 N 
ATOM      3  C   UNL A   1      33.314  35.272  31.205  1.00  0.00     0.225 C 
ATOM      4  O   UNL A   1      32.237  35.399  31.795  1.00  0.00    -0.275 OA
ATOM      5  H   UNL A   1      32.355  35.008  29.501  1.00  0.00     0.163 HD
BRANCH   3   6
ATOM      6  C   UNL A   1      34.608  35.393  31.982  1.00  0.00     0.107 C 
ATOM      7  N   UNL A   1      35.999  33.802  33.015  1.00  0.00    -0.312 N 
ATOM      8  C   UNL A   1      35.555  34.235  31.718  1.00  0.00     0.139 C 
ATOM      9  C   UNL A   1      35.391  34.497  34.059  1.00  0.00     0.227 C 
ATOM     10  C   UNL A   1      34.437  35.505  33.488  1.00  0.00     0.116 C 
ATOM     11  O   UNL A   1      35.585  34.364  35.260  1.00  0.00    -0.274 OA
BRANCH   7  12
ATOM     12  C   UNL A   1      36.866  32.704  33.196  1.00  0.00     0.044 A 
ATOM     13  C   UNL A   1      38.494  30.452  33.643  1.00  0.00     0.120 A 
ATOM     14  C   UNL A   1      38.967  31.731  33.939  1.00  0.00     0.048 A 
ATOM     15  C   UNL A   1      37.220  30.306  33.109  1.00  0.00     0.048 A 
ATOM     16  C   UNL A   1      38.170  32.858  33.681  1.00  0.00     0.030 A 
ATOM     17  C   UNL A   1      36.410  31.420  32.900  1.00  0.00     0.030 A 
BRANCH  13  18
ATOM     18  O   UNL A   1      39.241  29.375  34.043  1.00  0.00    -0.484 OA
BRANCH  18  19
ATOM     19  C   UNL A   1      40.498  29.719  34.622  1.00  0.00     0.329 C 
BRANCH  19  20
ATOM     20  C   UNL A   1      41.250  28.601  35.355  1.00  0.00     0.262 C 
ATOM     21  O   UNL A   1      41.616  28.754  36.516  1.00  0.00    -0.271 OA
ATOM     22  N   UNL A   1      41.524  27.511  34.537  1.00  0.00    -0.322 N 
ATOM     23  H   UNL A   1      41.095  27.482  33.652  1.00  0.00     0.170 HD
BRANCH  22  24
ATOM     24  C   UNL A   1      42.380  26.438  34.892  1.00  0.00     0.060 A 
ATOM     25  C   UNL A   1      41.751  25.333  35.490  1.00  0.00     0.029 A 
ATOM     26  C   UNL A   1      43.766  26.379  34.660  1.00  0.00     0.066 A 
ATOM     27  C   UNL A   1      42.465  24.161  35.759  1.00  0.00     0.023 A 
ATOM     28  C   UNL A   1      44.477  25.201  34.923  1.00  0.00     0.043 A 
ATOM     29  Cl  UNL A   1      44.718  27.767  34.248  1.00  0.00    -0.082 Cl
ATOM     30  C   UNL A   1      43.821  24.096  35.457  1.00  0.00     0.042 A 
ATOM     31  Cl  UNL A   1      44.703  22.656  35.781  1.00  0.00    -0.084 Cl
ENDBRANCH  22  24
ENDBRANCH  19  20
ENDBRANCH  18  19
ENDBRANCH  13  18
ENDBRANCH   7  12
ENDBRANCH   3   6
ENDBRANCH   1   2
BRANCH   1  32
ATOM     32  C   UNL A   1      34.051  33.757  27.914  1.00  0.00     0.042 C 
BRANCH  32  33
ATOM     33  C   UNL A   1      34.917  32.531  28.177  1.00  0.00     0.118 C 
BRANCH  33  34
ATOM     34  N   UNL A   1      34.243  31.279  27.850  1.00  0.00    -0.352 N 
ATOM     35  C   UNL A   1      34.765  30.010  27.750  1.00  0.00     0.251 C 
ATOM     36  H   UNL A   1      33.278  31.353  27.676  1.00  0.00     0.163 HD
ATOM     37  O   UNL A   1      34.076  29.097  27.305  1.00  0.00    -0.269 OA
BRANCH  35  38
ATOM     38  C   UNL A   1      36.161  29.758  28.165  1.00  0.00     0.039 A 
ATOM     39  C   UNL A   1      36.423  29.326  29.468  1.00  0.00     0.014 A 
ATOM     40  C   UNL A   1      37.204  29.923  27.253  1.00  0.00     0.014 A 
ATOM     41  C   UNL A   1      37.729  28.984  29.833  1.00  0.00     0.010 A 
ATOM     42  C   UNL A   1      38.483  29.498  27.589  1.00  0.00     0.010 A 
ATOM     43  C   UNL A   1      38.762  29.029  28.884  1.00  0.00    -0.014 A 
BRANCH  43  44
ATOM     44  C   UNL A   1      40.153  28.610  29.196  1.00  0.00     0.031 A 
ATOM     45  C   UNL A   1      41.014  29.499  30.054  1.00  0.00     0.074 A 
ATOM     46  C   UNL A   1      40.682  27.519  28.606  1.00  0.00     0.049 A 
ATOM     47  N   UNL A   1      42.298  29.433  30.285  1.00  0.00    -0.248 NA
ATOM     48  C   UNL A   1      40.345  30.639  30.704  1.00  0.00     0.031 C 
ATOM     49  C   UNL A   1      39.966  26.605  27.714  1.00  0.00     0.029 A 
ATOM     50  N   UNL A   1      41.962  27.021  28.633  1.00  0.00    -0.354 N 
ATOM     51  C   UNL A   1      42.600  30.547  31.058  1.00  0.00     0.074 A 
ATOM     52  C   UNL A   1      41.370  31.288  31.234  1.00  0.00     0.031 C 
ATOM     53  C   UNL A   1      40.818  25.667  27.269  1.00  0.00     0.029 A 
ATOM     54  C   UNL A   1      42.148  25.937  27.806  1.00  0.00     0.049 A 
ATOM     55  H   UNL A   1      42.677  27.401  29.193  1.00  0.00     0.167 HD
ATOM     56  C   UNL A   1      43.790  30.912  31.591  1.00  0.00     0.034 A 
ATOM     57  C   UNL A   1      43.269  25.258  27.490  1.00  0.00     0.034 A 
ATOM     58  C   UNL A   1      44.998  30.147  31.452  1.00  0.00     0.049 A 
ATOM     59  C   UNL A   1      44.576  25.668  28.116  1.00  0.00     0.074 A 
ATOM     60  C   UNL A   1      46.235  30.385  32.021  1.00  0.00     0.029 A 
ATOM     61  N   UNL A   1      45.121  28.998  30.685  1.00  0.00    -0.354 N 
ATOM     62  N   UNL A   1      44.818  26.655  28.943  1.00  0.00    -0.248 NA
ATOM     63  C   UNL A   1      45.757  24.854  27.792  1.00  0.00     0.031 C 
ATOM     64  C   UNL A   1      47.117  29.397  31.572  1.00  0.00     0.029 A 
ATOM     65  C   UNL A   1      46.416  28.519  30.761  1.00  0.00     0.049 A 
ATOM     66  H   UNL A   1      44.395  28.586  30.164  1.00  0.00     0.167 HD
ATOM     67  C   UNL A   1      46.164  26.549  29.279  1.00  0.00     0.074 A 
ATOM     68  C   UNL A   1      46.684  25.400  28.567  1.00  0.00     0.031 C 
ATOM     69  C   UNL A   1      46.900  27.333  30.104  1.00  0.00     0.034 A 
BRANCH  56  70
ATOM     70  C   UNL A   1      43.836  32.179  32.405  1.00  0.00     0.023 A 
ATOM     71  C   UNL A   1      44.103  33.410  31.772  1.00  0.00     0.012 A 
ATOM     72  C   UNL A   1      43.562  32.158  33.786  1.00  0.00     0.148 A 
ATOM     73  C   UNL A   1      44.139  34.594  32.507  1.00  0.00     0.002 A 
ATOM     74  C   UNL A   1      43.549  33.348  34.503  1.00  0.00     0.091 A 
ATOM     75  F   UNL A   1      43.329  30.976  34.375  1.00  0.00    -0.205 F 
ATOM     76  C   UNL A   1      43.852  34.565  33.869  1.00  0.00     0.022 A 
BRANCH  74  77
ATOM     77  S   UNL A   1      43.106  33.428  36.242  1.00  0.00     0.127 S 
ATOM     78  O   UNL A   1      42.774  32.032  36.526  1.00  0.00    -0.237 OA
ATOM     79  O   UNL A   1      44.350  33.895  36.854  1.00  0.00    -0.237 OA
ATOM     80  O   UNL A   1      41.995  34.365  36.331  1.00  0.00    -0.744 OA
ENDBRANCH  74  77
ENDBRANCH  56  70
BRANCH  57  81
ATOM     81  C   UNL A   1      43.198  24.086  26.570  1.00  0.00     0.023 A 
ATOM     82  C   UNL A   1      43.835  24.153  25.316  1.00  0.00     0.012 A 
ATOM     83  C   UNL A   1      42.523  22.905  26.934  1.00  0.00     0.148 A 
ATOM     84  C   UNL A   1      43.773  23.079  24.427  1.00  0.00     0.002 A 
ATOM     85  C   UNL A   1      42.510  21.819  26.067  1.00  0.00     0.091 A 
ATOM     86  F   UNL A   1      41.917  22.864  28.129  1.00  0.00    -0.205 F 
ATOM     87  C   UNL A   1      43.119  21.910  24.805  1.00  0.00     0.022 A 
BRANCH  85  88
ATOM     88  S   UNL A   1      41.798  20.232  26.516  1.00  0.00     0.127 S 
ATOM     89  O   UNL A   1      40.373  20.549  26.572  1.00  0.00    -0.237 OA
ATOM     90  O   UNL A   1      42.199  19.393  25.385  1.00  0.00    -0.237 OA
ATOM     91  O   UNL A   1      42.414  19.868  27.784  1.00  0.00    -0.744 OA
ENDBRANCH  85  88
ENDBRANCH  57  81
BRANCH  69  92
ATOM     92  C   UNL A   1      48.333  26.948  30.361  1.00  0.00     0.023 A 
ATOM     93  C   UNL A   1      49.380  27.605  29.690  1.00  0.00     0.012 A 
ATOM     94  C   UNL A   1      48.635  26.010  31.371  1.00  0.00     0.148 A 
ATOM     95  C   UNL A   1      50.708  27.324  30.007  1.00  0.00     0.002 A 
ATOM     96  C   UNL A   1      49.958  25.775  31.718  1.00  0.00     0.091 A 
ATOM     97  F   UNL A   1      47.620  25.384  31.984  1.00  0.00    -0.205 F 
ATOM     98  C   UNL A   1      50.996  26.423  31.030  1.00  0.00     0.022 A 
BRANCH  96  99
ATOM     99  S   UNL A   1      50.420  24.714  33.093  1.00  0.00     0.127 S 
ATOM    100  O   UNL A   1      49.208  24.741  33.909  1.00  0.00    -0.237 OA
ATOM    101  O   UNL A   1      50.678  23.439  32.423  1.00  0.00    -0.237 OA
ATOM    102  O   UNL A   1      51.592  25.327  33.703  1.00  0.00    -0.744 OA
ENDBRANCH  96  99
ENDBRANCH  69  92
ENDBRANCH  43  44
ENDBRANCH  35  38
ENDBRANCH  33  34
ENDBRANCH  32  33
ENDBRANCH   1  32
TORSDOF 18
ENDMDL
