MODEL 1
REMARK VINA RESULT:     -12.7      0.000      0.000
REMARK SMILES O=C(NCCCNC(=O)[C@H]1C[C@](O)(c2ccc(Cl)cc2)[C@@H](c2ccc(Cl)cc2)O1)c1ccc(-c2c3nc(c(-c4cccc(S(=O)(=O)[O-])c4F)c4ccc([nH]4)c(-c4cccc(S(=O)(=O)[O-])c4F)c4nc(c(-c5cccc(S(=O)(=O)[O-])c5F)c5ccc2[nH]5)C=C4)C=C3)cc1
REMARK SMILES IDX 4 1 3 2 1 3 2 4 30 6 31 7 92 8 32 9 91 10 33 11 34 12 35 13
REMARK SMILES IDX 85 14 36 15 90 16 84 17 86 18 37 19 89 20 83 21 82 22 38 24
REMARK SMILES IDX 70 25 50 26 69 27 51 28 54 29 68 30 87 31 52 32 53 33 67 35
REMARK SMILES IDX 88 36 55 37 39 38 40 39 48 40 41 41 43 42 49 43 42 44 44 45
REMARK SMILES IDX 45 46 46 47 47 48 71 49 72 50 80 51 73 52 75 53 81 54 74 55
REMARK SMILES IDX 76 56 77 57 78 58 79 59 56 60 57 61 65 62 58 63 60 64 66 65
REMARK SMILES IDX 59 66 61 67 62 68 63 69 64 70 5 71 6 72 7 73 8 74 9 76 10 77
REMARK SMILES IDX 11 78 29 79 12 80 21 81 14 82 15 83 20 84 16 85 19 86 17 87
REMARK SMILES IDX 18 88 13 89 22 91 23 92 28 93 24 94 27 95 25 96 26 97
REMARK H PARENT 3 5 86 23 54 34 7 75 13 90
REMARK Flexibility Score: inf
ROOT
ATOM      1  C   UNL A   1      39.185  20.015  25.468  1.00  0.00     0.118 C 
ENDROOT
BRANCH   1   2
ATOM      2  N   UNL A   1      40.369  19.224  25.773  1.00  0.00    -0.352 N 
ATOM      3  O   UNL A   1      42.527  18.765  26.170  1.00  0.00    -0.269 OA
ATOM      4  C   UNL A   1      41.636  19.607  26.149  1.00  0.00     0.251 C 
ATOM      5  H   UNL A   1      40.242  18.251  25.697  1.00  0.00     0.163 HD
BRANCH   4   6
ATOM      6  C   UNL A   1      41.930  21.013  26.506  1.00  0.00     0.039 A 
ATOM      7  C   UNL A   1      42.092  21.399  27.837  1.00  0.00     0.014 A 
ATOM      8  C   UNL A   1      42.108  21.952  25.484  1.00  0.00     0.014 A 
ATOM      9  C   UNL A   1      42.291  22.739  28.156  1.00  0.00     0.010 A 
ATOM     10  C   UNL A   1      42.399  23.284  25.802  1.00  0.00     0.010 A 
ATOM     11  C   UNL A   1      42.474  23.692  27.143  1.00  0.00    -0.014 A 
BRANCH  11  12
ATOM     12  C   UNL A   1      42.873  25.076  27.506  1.00  0.00     0.031 A 
ATOM     13  C   UNL A   1      41.904  26.034  28.138  1.00  0.00     0.074 A 
ATOM     14  C   UNL A   1      44.130  25.470  27.222  1.00  0.00     0.049 A 
ATOM     15  N   UNL A   1      42.098  27.279  28.493  1.00  0.00    -0.248 NA
ATOM     16  C   UNL A   1      40.541  25.545  28.402  1.00  0.00     0.031 C 
ATOM     17  C   UNL A   1      45.143  24.639  26.562  1.00  0.00     0.029 A 
ATOM     18  N   UNL A   1      44.768  26.668  27.425  1.00  0.00    -0.354 N 
ATOM     19  C   UNL A   1      40.878  27.736  28.975  1.00  0.00     0.074 A 
ATOM     20  C   UNL A   1      39.948  26.632  28.880  1.00  0.00     0.031 C 
ATOM     21  C   UNL A   1      46.269  25.348  26.414  1.00  0.00     0.029 A 
ATOM     22  C   UNL A   1      46.043  26.701  26.907  1.00  0.00     0.049 A 
ATOM     23  H   UNL A   1      44.356  27.428  27.893  1.00  0.00     0.167 HD
ATOM     24  C   UNL A   1      40.570  28.965  29.455  1.00  0.00     0.034 A 
ATOM     25  C   UNL A   1      46.921  27.716  26.798  1.00  0.00     0.034 A 
ATOM     26  C   UNL A   1      41.513  30.046  29.578  1.00  0.00     0.049 A 
ATOM     27  C   UNL A   1      46.544  29.063  27.344  1.00  0.00     0.074 A 
ATOM     28  C   UNL A   1      41.322  31.288  30.156  1.00  0.00     0.029 A 
ATOM     29  N   UNL A   1      42.809  30.029  29.088  1.00  0.00    -0.354 N 
ATOM     30  N   UNL A   1      45.446  29.421  27.962  1.00  0.00    -0.248 NA
ATOM     31  C   UNL A   1      47.533  30.139  27.198  1.00  0.00     0.031 C 
ATOM     32  C   UNL A   1      42.487  32.040  29.975  1.00  0.00     0.029 A 
ATOM     33  C   UNL A   1      43.415  31.253  29.315  1.00  0.00     0.049 A 
ATOM     34  H   UNL A   1      43.236  29.260  28.644  1.00  0.00     0.167 HD
ATOM     35  C   UNL A   1      45.617  30.760  28.292  1.00  0.00     0.074 A 
ATOM     36  C   UNL A   1      46.940  31.137  27.838  1.00  0.00     0.031 C 
ATOM     37  C   UNL A   1      44.747  31.606  28.895  1.00  0.00     0.034 A 
BRANCH  24  38
ATOM     38  C   UNL A   1      39.158  29.227  29.908  1.00  0.00     0.023 A 
ATOM     39  C   UNL A   1      38.770  28.902  31.223  1.00  0.00     0.012 A 
ATOM     40  C   UNL A   1      38.255  29.913  29.070  1.00  0.00     0.148 A 
ATOM     41  C   UNL A   1      37.501  29.242  31.692  1.00  0.00     0.002 A 
ATOM     42  C   UNL A   1      37.008  30.285  29.558  1.00  0.00     0.091 A 
ATOM     43  F   UNL A   1      38.640  30.199  27.818  1.00  0.00    -0.205 F 
ATOM     44  C   UNL A   1      36.627  29.944  30.866  1.00  0.00     0.022 A 
BRANCH  42  45
ATOM     45  S   UNL A   1      35.841  31.260  28.601  1.00  0.00     0.127 S 
ATOM     46  O   UNL A   1      34.861  31.628  29.621  1.00  0.00    -0.237 OA
ATOM     47  O   UNL A   1      36.678  32.365  28.133  1.00  0.00    -0.237 OA
ATOM     48  O   UNL A   1      35.345  30.381  27.552  1.00  0.00    -0.744 OA
ENDBRANCH  42  45
ENDBRANCH  24  38
BRANCH  25  49
ATOM     49  C   UNL A   1      48.235  27.495  26.134  1.00  0.00     0.023 A 
ATOM     50  C   UNL A   1      49.359  27.138  26.903  1.00  0.00     0.012 A 
ATOM     51  C   UNL A   1      48.371  27.618  24.737  1.00  0.00     0.148 A 
ATOM     52  C   UNL A   1      50.600  26.942  26.297  1.00  0.00     0.002 A 
ATOM     53  C   UNL A   1      49.596  27.360  24.133  1.00  0.00     0.091 A 
ATOM     54  F   UNL A   1      47.295  27.977  24.021  1.00  0.00    -0.205 F 
ATOM     55  C   UNL A   1      50.716  27.042  24.913  1.00  0.00     0.022 A 
BRANCH  53  56
ATOM     56  S   UNL A   1      49.790  27.326  22.348  1.00  0.00     0.127 S 
ATOM     57  O   UNL A   1      49.547  28.722  21.994  1.00  0.00    -0.237 OA
ATOM     58  O   UNL A   1      51.177  26.885  22.201  1.00  0.00    -0.237 OA
ATOM     59  O   UNL A   1      48.805  26.365  21.868  1.00  0.00    -0.744 OA
ENDBRANCH  53  56
ENDBRANCH  25  49
BRANCH  37  60
ATOM     60  C   UNL A   1      45.198  33.025  29.116  1.00  0.00     0.023 A 
ATOM     61  C   UNL A   1      45.913  33.352  30.286  1.00  0.00     0.012 A 
ATOM     62  C   UNL A   1      44.985  34.011  28.133  1.00  0.00     0.148 A 
ATOM     63  C   UNL A   1      46.383  34.650  30.487  1.00  0.00     0.002 A 
ATOM     64  C   UNL A   1      45.501  35.287  28.318  1.00  0.00     0.091 A 
ATOM     65  F   UNL A   1      44.290  33.679  27.036  1.00  0.00    -0.205 F 
ATOM     66  C   UNL A   1      46.189  35.612  29.499  1.00  0.00     0.022 A 
BRANCH  64  67
ATOM     67  S   UNL A   1      45.384  36.568  27.063  1.00  0.00     0.127 S 
ATOM     68  O   UNL A   1      46.144  35.977  25.963  1.00  0.00    -0.237 OA
ATOM     69  O   UNL A   1      43.941  36.646  26.837  1.00  0.00    -0.237 OA
ATOM     70  O   UNL A   1      45.973  37.765  27.650  1.00  0.00    -0.744 OA
ENDBRANCH  64  67
ENDBRANCH  37  60
ENDBRANCH  11  12
ENDBRANCH   4   6
ENDBRANCH   1   2
BRANCH   1  71
ATOM     71  C   UNL A   1      38.946  21.147  26.462  1.00  0.00     0.042 C 
BRANCH  71  72
ATOM     72  C   UNL A   1      38.377  22.422  25.857  1.00  0.00     0.117 C 
BRANCH  72  73
ATOM     73  N   UNL A   1      37.827  22.253  24.528  1.00  0.00    -0.354 N 
ATOM     74  C   UNL A   1      36.810  22.936  23.928  1.00  0.00     0.249 C 
ATOM     75  H   UNL A   1      38.246  21.549  23.981  1.00  0.00     0.163 HD
ATOM     76  O   UNL A   1      36.715  22.844  22.702  1.00  0.00    -0.272 OA
BRANCH  74  77
ATOM     77  C   UNL A   1      35.827  23.768  24.781  1.00  0.00     0.211 C 
ATOM     78  C   UNL A   1      34.759  24.461  23.933  1.00  0.00     0.085 C 
ATOM     79  O   UNL A   1      35.168  22.915  25.726  1.00  0.00    -0.357 OA
ATOM     80  C   UNL A   1      33.423  24.133  24.598  1.00  0.00     0.123 C 
ATOM     81  C   UNL A   1      33.760  22.852  25.418  1.00  0.00     0.186 C 
BRANCH  80  82
ATOM     82  C   UNL A   1      32.895  25.355  25.372  1.00  0.00    -0.013 A 
ATOM     83  C   UNL A   1      33.816  26.362  25.747  1.00  0.00     0.008 A 
ATOM     84  C   UNL A   1      31.544  25.579  25.684  1.00  0.00     0.008 A 
ATOM     85  C   UNL A   1      33.408  27.537  26.384  1.00  0.00     0.021 A 
ATOM     86  C   UNL A   1      31.130  26.765  26.307  1.00  0.00     0.021 A 
ATOM     87  C   UNL A   1      32.060  27.740  26.651  1.00  0.00     0.041 A 
ATOM     88  Cl  UNL A   1      31.543  29.201  27.396  1.00  0.00    -0.084 Cl
ENDBRANCH  80  82
BRANCH  80  89
ATOM     89  O   UNL A   1      32.412  23.906  23.604  1.00  0.00    -0.382 OA
ATOM     90  H   UNL A   1      32.780  23.366  22.886  1.00  0.00     0.212 HD
ENDBRANCH  80  89
BRANCH  81  91
ATOM     91  C   UNL A   1      33.455  21.479  24.824  1.00  0.00    -0.016 A 
ATOM     92  C   UNL A   1      32.434  21.252  23.889  1.00  0.00     0.008 A 
ATOM     93  C   UNL A   1      34.263  20.385  25.187  1.00  0.00     0.008 A 
ATOM     94  C   UNL A   1      32.234  19.987  23.326  1.00  0.00     0.021 A 
ATOM     95  C   UNL A   1      34.061  19.118  24.632  1.00  0.00     0.021 A 
ATOM     96  C   UNL A   1      33.050  18.925  23.698  1.00  0.00     0.041 A 
ATOM     97  Cl  UNL A   1      32.808  17.373  22.998  1.00  0.00    -0.084 Cl
ENDBRANCH  81  91
ENDBRANCH  74  77
ENDBRANCH  72  73
ENDBRANCH  71  72
ENDBRANCH   1  71
TORSDOF 16
ENDMDL
MODEL 2
REMARK VINA RESULT:     -12.5      5.603     10.788
REMARK SMILES O=C(NCCCNC(=O)[C@H]1C[C@](O)(c2ccc(Cl)cc2)[C@@H](c2ccc(Cl)cc2)O1)c1ccc(-c2c3nc(c(-c4cccc(S(=O)(=O)[O-])c4F)c4ccc([nH]4)c(-c4cccc(S(=O)(=O)[O-])c4F)c4nc(c(-c5cccc(S(=O)(=O)[O-])c5F)c5ccc2[nH]5)C=C4)C=C3)cc1
REMARK SMILES IDX 4 1 3 2 1 3 2 4 30 6 31 7 92 8 32 9 91 10 33 11 34 12 35 13
REMARK SMILES IDX 85 14 36 15 90 16 84 17 86 18 37 19 89 20 83 21 82 22 38 24
REMARK SMILES IDX 70 25 50 26 69 27 51 28 54 29 68 30 87 31 52 32 53 33 67 35
REMARK SMILES IDX 88 36 55 37 39 38 40 39 48 40 41 41 43 42 49 43 42 44 44 45
REMARK SMILES IDX 45 46 46 47 47 48 71 49 72 50 80 51 73 52 75 53 81 54 74 55
REMARK SMILES IDX 76 56 77 57 78 58 79 59 56 60 57 61 65 62 58 63 60 64 66 65
REMARK SMILES IDX 59 66 61 67 62 68 63 69 64 70 5 71 6 72 7 73 8 74 9 76 10 77
REMARK SMILES IDX 11 78 29 79 12 80 21 81 14 82 15 83 20 84 16 85 19 86 17 87
REMARK SMILES IDX 18 88 13 89 22 91 23 92 28 93 24 94 27 95 25 96 26 97
REMARK H PARENT 3 5 86 23 54 34 7 75 13 90
REMARK Flexibility Score: inf
ROOT
ATOM      1  C   UNL A   1      31.948  30.591  26.783  1.00  0.00     0.118 C 
ENDROOT
BRANCH   1   2
ATOM      2  N   UNL A   1      31.969  32.046  26.839  1.00  0.00    -0.352 N 
ATOM      3  O   UNL A   1      32.558  34.101  27.513  1.00  0.00    -0.269 OA
ATOM      4  C   UNL A   1      32.851  32.912  27.442  1.00  0.00     0.251 C 
ATOM      5  H   UNL A   1      31.226  32.483  26.364  1.00  0.00     0.163 HD
BRANCH   4   6
ATOM      6  C   UNL A   1      34.125  32.422  28.015  1.00  0.00     0.039 A 
ATOM      7  C   UNL A   1      35.190  33.292  28.249  1.00  0.00     0.014 A 
ATOM      8  C   UNL A   1      34.234  31.077  28.382  1.00  0.00     0.014 A 
ATOM      9  C   UNL A   1      36.405  32.798  28.715  1.00  0.00     0.010 A 
ATOM     10  C   UNL A   1      35.426  30.598  28.937  1.00  0.00     0.010 A 
ATOM     11  C   UNL A   1      36.529  31.453  29.090  1.00  0.00    -0.014 A 
BRANCH  11  12
ATOM     12  C   UNL A   1      37.772  30.993  29.761  1.00  0.00     0.031 A 
ATOM     13  C   UNL A   1      38.713  30.027  29.099  1.00  0.00     0.074 A 
ATOM     14  C   UNL A   1      38.024  31.441  31.007  1.00  0.00     0.049 A 
ATOM     15  N   UNL A   1      39.824  29.518  29.565  1.00  0.00    -0.248 NA
ATOM     16  C   UNL A   1      38.366  29.562  27.746  1.00  0.00     0.031 C 
ATOM     17  C   UNL A   1      37.154  32.342  31.769  1.00  0.00     0.029 A 
ATOM     18  N   UNL A   1      39.065  31.185  31.865  1.00  0.00    -0.354 N 
ATOM     19  C   UNL A   1      40.286  28.642  28.591  1.00  0.00     0.074 A 
ATOM     20  C   UNL A   1      39.339  28.693  27.498  1.00  0.00     0.031 C 
ATOM     21  C   UNL A   1      37.692  32.564  32.975  1.00  0.00     0.029 A 
ATOM     22  C   UNL A   1      38.910  31.773  33.100  1.00  0.00     0.049 A 
ATOM     23  H   UNL A   1      39.844  30.637  31.622  1.00  0.00     0.167 HD
ATOM     24  C   UNL A   1      41.399  27.871  28.611  1.00  0.00     0.034 A 
ATOM     25  C   UNL A   1      39.639  31.657  34.225  1.00  0.00     0.034 A 
ATOM     26  C   UNL A   1      42.352  27.853  29.690  1.00  0.00     0.049 A 
ATOM     27  C   UNL A   1      40.868  30.794  34.208  1.00  0.00     0.074 A 
ATOM     28  C   UNL A   1      43.566  27.191  29.750  1.00  0.00     0.029 A 
ATOM     29  N   UNL A   1      42.189  28.498  30.905  1.00  0.00    -0.354 N 
ATOM     30  N   UNL A   1      41.383  30.117  33.211  1.00  0.00    -0.248 NA
ATOM     31  C   UNL A   1      41.628  30.695  35.461  1.00  0.00     0.031 C 
ATOM     32  C   UNL A   1      44.114  27.397  31.020  1.00  0.00     0.029 A 
ATOM     33  C   UNL A   1      43.259  28.216  31.737  1.00  0.00     0.049 A 
ATOM     34  H   UNL A   1      41.424  29.072  31.143  1.00  0.00     0.167 HD
ATOM     35  C   UNL A   1      42.535  29.524  33.712  1.00  0.00     0.074 A 
ATOM     36  C   UNL A   1      42.662  29.952  35.090  1.00  0.00     0.031 C 
ATOM     37  C   UNL A   1      43.396  28.681  33.093  1.00  0.00     0.034 A 
BRANCH  24  38
ATOM     38  C   UNL A   1      41.678  26.980  27.429  1.00  0.00     0.023 A 
ATOM     39  C   UNL A   1      42.342  27.499  26.299  1.00  0.00     0.012 A 
ATOM     40  C   UNL A   1      41.398  25.599  27.493  1.00  0.00     0.148 A 
ATOM     41  C   UNL A   1      42.708  26.662  25.246  1.00  0.00     0.002 A 
ATOM     42  C   UNL A   1      41.803  24.765  26.459  1.00  0.00     0.091 A 
ATOM     43  F   UNL A   1      40.754  25.130  28.571  1.00  0.00    -0.205 F 
ATOM     44  C   UNL A   1      42.452  25.295  25.331  1.00  0.00     0.022 A 
BRANCH  42  45
ATOM     45  S   UNL A   1      41.591  22.982  26.509  1.00  0.00     0.127 S 
ATOM     46  O   UNL A   1      42.256  22.642  27.766  1.00  0.00    -0.237 OA
ATOM     47  O   UNL A   1      40.134  22.848  26.535  1.00  0.00    -0.237 OA
ATOM     48  O   UNL A   1      42.231  22.465  25.308  1.00  0.00    -0.744 OA
ENDBRANCH  42  45
ENDBRANCH  24  38
BRANCH  25  49
ATOM     49  C   UNL A   1      39.216  32.369  35.463  1.00  0.00     0.023 A 
ATOM     50  C   UNL A   1      39.477  33.744  35.606  1.00  0.00     0.012 A 
ATOM     51  C   UNL A   1      38.537  31.688  36.494  1.00  0.00     0.148 A 
ATOM     52  C   UNL A   1      39.100  34.422  36.766  1.00  0.00     0.002 A 
ATOM     53  C   UNL A   1      38.109  32.382  37.619  1.00  0.00     0.091 A 
ATOM     54  F   UNL A   1      38.313  30.374  36.350  1.00  0.00    -0.205 F 
ATOM     55  C   UNL A   1      38.407  33.745  37.766  1.00  0.00     0.022 A 
BRANCH  53  56
ATOM     56  S   UNL A   1      37.086  31.615  38.880  1.00  0.00     0.127 S 
ATOM     57  O   UNL A   1      37.926  31.748  40.067  1.00  0.00    -0.237 OA
ATOM     58  O   UNL A   1      35.896  32.467  38.867  1.00  0.00    -0.237 OA
ATOM     59  O   UNL A   1      36.850  30.255  38.414  1.00  0.00    -0.744 OA
ENDBRANCH  53  56
ENDBRANCH  25  49
BRANCH  37  60
ATOM     60  C   UNL A   1      44.566  28.173  33.893  1.00  0.00     0.023 A 
ATOM     61  C   UNL A   1      45.754  28.929  33.943  1.00  0.00     0.012 A 
ATOM     62  C   UNL A   1      44.462  26.992  34.653  1.00  0.00     0.148 A 
ATOM     63  C   UNL A   1      46.832  28.502  34.718  1.00  0.00     0.002 A 
ATOM     64  C   UNL A   1      45.521  26.600  35.462  1.00  0.00     0.091 A 
ATOM     65  F   UNL A   1      43.328  26.281  34.577  1.00  0.00    -0.205 F 
ATOM     66  C   UNL A   1      46.711  27.346  35.486  1.00  0.00     0.022 A 
BRANCH  64  67
ATOM     67  S   UNL A   1      45.426  25.179  36.557  1.00  0.00     0.127 S 
ATOM     68  O   UNL A   1      44.205  25.463  37.308  1.00  0.00    -0.237 OA
ATOM     69  O   UNL A   1      45.318  24.068  35.612  1.00  0.00    -0.237 OA
ATOM     70  O   UNL A   1      46.654  25.191  37.343  1.00  0.00    -0.744 OA
ENDBRANCH  64  67
ENDBRANCH  37  60
ENDBRANCH  11  12
ENDBRANCH   4   6
ENDBRANCH   1   2
BRANCH   1  71
ATOM     71  C   UNL A   1      32.035  30.042  25.362  1.00  0.00     0.042 C 
BRANCH  71  72
ATOM     72  C   UNL A   1      33.009  28.887  25.180  1.00  0.00     0.117 C 
BRANCH  72  73
ATOM     73  N   UNL A   1      33.832  28.988  23.992  1.00  0.00    -0.354 N 
ATOM     74  C   UNL A   1      33.963  28.103  22.962  1.00  0.00     0.249 C 
ATOM     75  H   UNL A   1      34.371  29.809  23.917  1.00  0.00     0.163 HD
ATOM     76  O   UNL A   1      34.468  28.523  21.919  1.00  0.00    -0.272 OA
BRANCH  74  77
ATOM     77  C   UNL A   1      33.501  26.639  23.135  1.00  0.00     0.211 C 
ATOM     78  C   UNL A   1      33.079  26.324  24.571  1.00  0.00     0.085 C 
ATOM     79  O   UNL A   1      32.387  26.380  22.271  1.00  0.00    -0.357 OA
ATOM     80  C   UNL A   1      31.715  25.643  24.464  1.00  0.00     0.123 C 
ATOM     81  C   UNL A   1      31.213  26.113  23.066  1.00  0.00     0.186 C 
BRANCH  80  82
ATOM     82  C   UNL A   1      31.854  24.127  24.697  1.00  0.00    -0.013 A 
ATOM     83  C   UNL A   1      31.930  23.277  23.568  1.00  0.00     0.008 A 
ATOM     84  C   UNL A   1      31.975  23.523  25.959  1.00  0.00     0.008 A 
ATOM     85  C   UNL A   1      32.133  21.900  23.693  1.00  0.00     0.021 A 
ATOM     86  C   UNL A   1      32.196  22.144  26.086  1.00  0.00     0.021 A 
ATOM     87  C   UNL A   1      32.278  21.339  24.954  1.00  0.00     0.041 A 
ATOM     88  Cl  UNL A   1      32.570  19.652  25.116  1.00  0.00    -0.084 Cl
ENDBRANCH  80  82
BRANCH  80  89
ATOM     89  O   UNL A   1      30.858  26.069  25.534  1.00  0.00    -0.382 OA
ATOM     90  H   UNL A   1      29.997  26.334  25.173  1.00  0.00     0.212 HD
ENDBRANCH  80  89
BRANCH  81  91
ATOM     91  C   UNL A   1      30.280  27.318  22.971  1.00  0.00    -0.016 A 
ATOM     92  C   UNL A   1      30.640  28.526  22.356  1.00  0.00     0.008 A 
ATOM     93  C   UNL A   1      28.971  27.208  23.478  1.00  0.00     0.008 A 
ATOM     94  C   UNL A   1      29.728  29.580  22.237  1.00  0.00     0.021 A 
ATOM     95  C   UNL A   1      28.060  28.263  23.368  1.00  0.00     0.021 A 
ATOM     96  C   UNL A   1      28.441  29.443  22.742  1.00  0.00     0.041 A 
ATOM     97  Cl  UNL A   1      27.319  30.737  22.588  1.00  0.00    -0.084 Cl
ENDBRANCH  81  91
ENDBRANCH  74  77
ENDBRANCH  72  73
ENDBRANCH  71  72
ENDBRANCH   1  71
TORSDOF 16
ENDMDL
MODEL 3
REMARK VINA RESULT:     -12.4      1.542      2.113
REMARK SMILES O=C(NCCCNC(=O)[C@H]1C[C@](O)(c2ccc(Cl)cc2)[C@@H](c2ccc(Cl)cc2)O1)c1ccc(-c2c3nc(c(-c4cccc(S(=O)(=O)[O-])c4F)c4ccc([nH]4)c(-c4cccc(S(=O)(=O)[O-])c4F)c4nc(c(-c5cccc(S(=O)(=O)[O-])c5F)c5ccc2[nH]5)C=C4)C=C3)cc1
REMARK SMILES IDX 4 1 3 2 1 3 2 4 30 6 31 7 92 8 32 9 91 10 33 11 34 12 35 13
REMARK SMILES IDX 85 14 36 15 90 16 84 17 86 18 37 19 89 20 83 21 82 22 38 24
REMARK SMILES IDX 70 25 50 26 69 27 51 28 54 29 68 30 87 31 52 32 53 33 67 35
REMARK SMILES IDX 88 36 55 37 39 38 40 39 48 40 41 41 43 42 49 43 42 44 44 45
REMARK SMILES IDX 45 46 46 47 47 48 71 49 72 50 80 51 73 52 75 53 81 54 74 55
REMARK SMILES IDX 76 56 77 57 78 58 79 59 56 60 57 61 65 62 58 63 60 64 66 65
REMARK SMILES IDX 59 66 61 67 62 68 63 69 64 70 5 71 6 72 7 73 8 74 9 76 10 77
REMARK SMILES IDX 11 78 29 79 12 80 21 81 14 82 15 83 20 84 16 85 19 86 17 87
REMARK SMILES IDX 18 88 13 89 22 91 23 92 28 93 24 94 27 95 25 96 26 97
REMARK H PARENT 3 5 86 23 54 34 7 75 13 90
REMARK Flexibility Score: inf
ROOT
ATOM      1  C   UNL A   1      37.423  21.183  24.738  1.00  0.00     0.118 C 
ENDROOT
BRANCH   1   2
ATOM      2  N   UNL A   1      38.313  20.141  25.231  1.00  0.00    -0.352 N 
ATOM      3  O   UNL A   1      40.189  19.198  26.015  1.00  0.00    -0.269 OA
ATOM      4  C   UNL A   1      39.534  20.222  25.859  1.00  0.00     0.251 C 
ATOM      5  H   UNL A   1      37.985  19.224  25.092  1.00  0.00     0.163 HD
BRANCH   4   6
ATOM      6  C   UNL A   1      40.064  21.524  26.324  1.00  0.00     0.039 A 
ATOM      7  C   UNL A   1      41.305  21.612  26.956  1.00  0.00     0.014 A 
ATOM      8  C   UNL A   1      39.332  22.688  26.068  1.00  0.00     0.014 A 
ATOM      9  C   UNL A   1      41.750  22.832  27.455  1.00  0.00     0.010 A 
ATOM     10  C   UNL A   1      39.824  23.930  26.488  1.00  0.00     0.010 A 
ATOM     11  C   UNL A   1      41.029  24.009  27.203  1.00  0.00    -0.014 A 
BRANCH  11  12
ATOM     12  C   UNL A   1      41.617  25.320  27.578  1.00  0.00     0.031 A 
ATOM     13  C   UNL A   1      40.828  26.348  28.338  1.00  0.00     0.074 A 
ATOM     14  C   UNL A   1      42.880  25.586  27.187  1.00  0.00     0.049 A 
ATOM     15  N   UNL A   1      41.196  27.544  28.720  1.00  0.00    -0.248 NA
ATOM     16  C   UNL A   1      39.448  26.000  28.716  1.00  0.00     0.031 C 
ATOM     17  C   UNL A   1      43.724  24.682  26.400  1.00  0.00     0.029 A 
ATOM     18  N   UNL A   1      43.667  26.694  27.372  1.00  0.00    -0.354 N 
ATOM     19  C   UNL A   1      40.088  28.110  29.337  1.00  0.00     0.074 A 
ATOM     20  C   UNL A   1      39.032  27.122  29.291  1.00  0.00     0.031 C 
ATOM     21  C   UNL A   1      44.906  25.268  26.168  1.00  0.00     0.029 A 
ATOM     22  C   UNL A   1      44.884  26.611  26.733  1.00  0.00     0.049 A 
ATOM     23  H   UNL A   1      43.391  27.471  27.907  1.00  0.00     0.167 HD
ATOM     24  C   UNL A   1      39.969  29.340  29.892  1.00  0.00     0.034 A 
ATOM     25  C   UNL A   1      45.858  27.527  26.578  1.00  0.00     0.034 A 
ATOM     26  C   UNL A   1      41.038  30.302  29.962  1.00  0.00     0.049 A 
ATOM     27  C   UNL A   1      45.692  28.878  27.209  1.00  0.00     0.074 A 
ATOM     28  C   UNL A   1      41.046  31.528  30.604  1.00  0.00     0.029 A 
ATOM     29  N   UNL A   1      42.272  30.166  29.347  1.00  0.00    -0.354 N 
ATOM     30  N   UNL A   1      44.705  29.326  27.946  1.00  0.00    -0.248 NA
ATOM     31  C   UNL A   1      46.780  29.844  27.008  1.00  0.00     0.031 C 
ATOM     32  C   UNL A   1      42.268  32.154  30.338  1.00  0.00     0.029 A 
ATOM     33  C   UNL A   1      43.034  31.302  29.561  1.00  0.00     0.049 A 
ATOM     34  H   UNL A   1      42.564  29.378  28.834  1.00  0.00     0.167 HD
ATOM     35  C   UNL A   1      45.059  30.619  28.308  1.00  0.00     0.074 A 
ATOM     36  C   UNL A   1      46.368  30.869  27.741  1.00  0.00     0.031 C 
ATOM     37  C   UNL A   1      44.353  31.525  29.026  1.00  0.00     0.034 A 
BRANCH  24  38
ATOM     38  C   UNL A   1      38.646  29.735  30.491  1.00  0.00     0.023 A 
ATOM     39  C   UNL A   1      38.364  29.427  31.837  1.00  0.00     0.012 A 
ATOM     40  C   UNL A   1      37.736  30.523  29.756  1.00  0.00     0.148 A 
ATOM     41  C   UNL A   1      37.191  29.885  32.438  1.00  0.00     0.002 A 
ATOM     42  C   UNL A   1      36.590  31.009  30.374  1.00  0.00     0.091 A 
ATOM     43  F   UNL A   1      38.017  30.791  28.473  1.00  0.00    -0.205 F 
ATOM     44  C   UNL A   1      36.313  30.685  31.712  1.00  0.00     0.022 A 
BRANCH  42  45
ATOM     45  S   UNL A   1      35.436  32.113  29.550  1.00  0.00     0.127 S 
ATOM     46  O   UNL A   1      36.317  33.205  29.138  1.00  0.00    -0.237 OA
ATOM     47  O   UNL A   1      34.946  31.279  28.453  1.00  0.00    -0.237 OA
ATOM     48  O   UNL A   1      34.434  32.465  30.545  1.00  0.00    -0.744 OA
ENDBRANCH  42  45
ENDBRANCH  24  38
BRANCH  25  49
ATOM     49  C   UNL A   1      47.071  27.193  25.780  1.00  0.00     0.023 A 
ATOM     50  C   UNL A   1      48.103  26.430  26.356  1.00  0.00     0.012 A 
ATOM     51  C   UNL A   1      47.196  27.617  24.441  1.00  0.00     0.148 A 
ATOM     52  C   UNL A   1      49.252  26.123  25.626  1.00  0.00     0.002 A 
ATOM     53  C   UNL A   1      48.314  27.254  23.700  1.00  0.00     0.091 A 
ATOM     54  F   UNL A   1      46.213  28.359  23.913  1.00  0.00    -0.205 F 
ATOM     55  C   UNL A   1      49.352  26.525  24.297  1.00  0.00     0.022 A 
BRANCH  53  56
ATOM     56  S   UNL A   1      48.451  27.609  21.945  1.00  0.00     0.127 S 
ATOM     57  O   UNL A   1      47.162  28.236  21.666  1.00  0.00    -0.237 OA
ATOM     58  O   UNL A   1      49.599  28.515  21.906  1.00  0.00    -0.237 OA
ATOM     59  O   UNL A   1      48.686  26.321  21.305  1.00  0.00    -0.744 OA
ENDBRANCH  53  56
ENDBRANCH  25  49
BRANCH  37  60
ATOM     60  C   UNL A   1      44.983  32.873  29.256  1.00  0.00     0.023 A 
ATOM     61  C   UNL A   1      45.797  33.075  30.388  1.00  0.00     0.012 A 
ATOM     62  C   UNL A   1      44.834  33.909  28.314  1.00  0.00     0.148 A 
ATOM     63  C   UNL A   1      46.431  34.300  30.594  1.00  0.00     0.002 A 
ATOM     64  C   UNL A   1      45.509  35.109  28.500  1.00  0.00     0.091 A 
ATOM     65  F   UNL A   1      44.043  33.698  27.253  1.00  0.00    -0.205 F 
ATOM     66  C   UNL A   1      46.298  35.310  29.645  1.00  0.00     0.022 A 
BRANCH  64  67
ATOM     67  S   UNL A   1      45.475  36.435  27.289  1.00  0.00     0.127 S 
ATOM     68  O   UNL A   1      46.339  37.433  27.916  1.00  0.00    -0.237 OA
ATOM     69  O   UNL A   1      46.046  35.787  26.108  1.00  0.00    -0.237 OA
ATOM     70  O   UNL A   1      44.077  36.823  27.152  1.00  0.00    -0.744 OA
ENDBRANCH  64  67
ENDBRANCH  37  60
ENDBRANCH  11  12
ENDBRANCH   4   6
ENDBRANCH   1   2
BRANCH   1  71
ATOM     71  C   UNL A   1      36.058  21.180  25.419  1.00  0.00     0.042 C 
BRANCH  71  72
ATOM     72  C   UNL A   1      35.637  22.514  26.017  1.00  0.00     0.117 C 
BRANCH  72  73
ATOM     73  N   UNL A   1      34.840  22.399  27.221  1.00  0.00    -0.354 N 
ATOM     74  C   UNL A   1      33.559  22.810  27.444  1.00  0.00     0.249 C 
ATOM     75  H   UNL A   1      35.285  21.964  27.985  1.00  0.00     0.163 HD
ATOM     76  O   UNL A   1      32.977  22.339  28.424  1.00  0.00    -0.272 OA
BRANCH  74  77
ATOM     77  C   UNL A   1      32.899  23.837  26.496  1.00  0.00     0.211 C 
ATOM     78  C   UNL A   1      33.852  24.322  25.404  1.00  0.00     0.085 C 
ATOM     79  O   UNL A   1      31.755  23.245  25.866  1.00  0.00    -0.357 OA
ATOM     80  C   UNL A   1      33.085  24.183  24.090  1.00  0.00     0.123 C 
ATOM     81  C   UNL A   1      31.993  23.131  24.447  1.00  0.00     0.186 C 
BRANCH  80  82
ATOM     82  C   UNL A   1      32.610  25.563  23.599  1.00  0.00    -0.013 A 
ATOM     83  C   UNL A   1      31.607  25.614  22.602  1.00  0.00     0.008 A 
ATOM     84  C   UNL A   1      33.056  26.791  24.116  1.00  0.00     0.008 A 
ATOM     85  C   UNL A   1      31.067  26.823  22.157  1.00  0.00     0.021 A 
ATOM     86  C   UNL A   1      32.504  28.005  23.683  1.00  0.00     0.021 A 
ATOM     87  C   UNL A   1      31.511  28.017  22.710  1.00  0.00     0.041 A 
ATOM     88  Cl  UNL A   1      30.823  29.508  22.199  1.00  0.00    -0.084 Cl
ENDBRANCH  80  82
BRANCH  80  89
ATOM     89  O   UNL A   1      33.962  23.740  23.043  1.00  0.00    -0.382 OA
ATOM     90  H   UNL A   1      33.523  23.850  22.185  1.00  0.00     0.212 HD
ENDBRANCH  80  89
BRANCH  81  91
ATOM     91  C   UNL A   1      32.230  21.661  24.113  1.00  0.00    -0.016 A 
ATOM     92  C   UNL A   1      32.504  20.683  25.081  1.00  0.00     0.008 A 
ATOM     93  C   UNL A   1      32.124  21.241  22.773  1.00  0.00     0.008 A 
ATOM     94  C   UNL A   1      32.651  19.337  24.732  1.00  0.00     0.021 A 
ATOM     95  C   UNL A   1      32.279  19.897  22.420  1.00  0.00     0.021 A 
ATOM     96  C   UNL A   1      32.536  18.949  23.402  1.00  0.00     0.041 A 
ATOM     97  Cl  UNL A   1      32.710  17.292  22.976  1.00  0.00    -0.084 Cl
ENDBRANCH  81  91
ENDBRANCH  74  77
ENDBRANCH  72  73
ENDBRANCH  71  72
ENDBRANCH   1  71
TORSDOF 16
ENDMDL
