MODEL 1
REMARK VINA RESULT:     -11.2      0.000      0.000
REMARK SMILES CC1(C(=O)N[C@H](C(=O)NCCCNC(=O)c2ccc(-c3c4nc(c(-c5cccc(S(=O)(=O)[O-])c5F)c5ccc([nH]5)c(-c5cccc(S(=O)(=O)[O-])c5F)c5nc(c(-c6cccc(S(=O)(=O)[O-])c6F)c6ccc3[nH]6)C=C5)C=C4)cc2)C2CC2)CCCC1
REMARK SMILES IDX 11 1 10 2 9 3 7 4 8 5 6 7 5 8 3 9 4 10 2 12 1 13 82 14 85 15
REMARK SMILES IDX 83 16 84 17 79 18 80 19 81 20 12 21 13 22 14 23 15 25 16 26
REMARK SMILES IDX 17 27 78 28 18 29 77 30 19 31 20 32 21 33 71 34 22 35 76 36
REMARK SMILES IDX 70 37 72 38 23 39 75 40 69 41 68 42 24 44 56 45 36 46 55 47
REMARK SMILES IDX 37 48 40 49 54 50 73 51 38 52 39 53 53 55 74 56 41 57 25 58
REMARK SMILES IDX 26 59 34 60 27 61 29 62 35 63 28 64 30 65 31 66 32 67 33 68
REMARK SMILES IDX 57 69 58 70 66 71 59 72 61 73 67 74 60 75 62 76 63 77 64 78
REMARK SMILES IDX 65 79 42 80 43 81 51 82 44 83 46 84 52 85 45 86 47 87 48 88
REMARK SMILES IDX 49 89 50 90
REMARK H PARENT 9 6 5 11 13 24 72 43 40 54
REMARK Flexibility Score: inf
ROOT
ATOM      1  C   UNL A   1      32.714  27.828  26.779  1.00  0.00     0.042 C 
ENDROOT
BRANCH   1   2
ATOM      2  C   UNL A   1      32.671  26.460  26.111  1.00  0.00     0.117 C 
BRANCH   2   3
ATOM      3  N   UNL A   1      31.718  25.571  26.742  1.00  0.00    -0.354 N 
ATOM      4  C   UNL A   1      31.381  24.288  26.430  1.00  0.00     0.242 C 
ATOM      5  O   UNL A   1      30.696  23.668  27.251  1.00  0.00    -0.273 OA
ATOM      6  H   UNL A   1      31.241  25.951  27.515  1.00  0.00     0.163 HD
BRANCH   4   7
ATOM      7  C   UNL A   1      31.991  23.565  25.199  1.00  0.00     0.174 C 
BRANCH   7   8
ATOM      8  N   UNL A   1      32.288  22.160  25.445  1.00  0.00    -0.344 N 
ATOM      9  C   UNL A   1      33.453  21.471  25.544  1.00  0.00     0.226 C 
ATOM     10  O   UNL A   1      33.339  20.265  25.778  1.00  0.00    -0.274 OA
ATOM     11  H   UNL A   1      31.486  21.600  25.562  1.00  0.00     0.164 HD
BRANCH   9  12
ATOM     12  C   UNL A   1      34.828  22.115  25.313  1.00  0.00     0.046 C 
ATOM     13  C   UNL A   1      35.107  23.161  26.403  1.00  0.00     0.022 C 
ATOM     14  C   UNL A   1      34.860  22.793  23.923  1.00  0.00     0.016 C 
ATOM     15  C   UNL A   1      35.964  21.097  25.158  1.00  0.00     0.016 C 
ATOM     16  C   UNL A   1      36.336  22.931  23.582  1.00  0.00     0.001 C 
ATOM     17  C   UNL A   1      37.015  21.747  24.256  1.00  0.00     0.001 C 
ENDBRANCH   9  12
ENDBRANCH   7   8
BRANCH   7  18
ATOM     18  C   UNL A   1      31.071  23.731  23.997  1.00  0.00     0.021 C 
ATOM     19  C   UNL A   1      30.274  25.004  23.836  1.00  0.00     0.006 C 
ATOM     20  C   UNL A   1      31.334  24.666  22.831  1.00  0.00     0.006 C 
ENDBRANCH   7  18
ENDBRANCH   4   7
ENDBRANCH   2   3
ENDBRANCH   1   2
BRANCH   1  21
ATOM     21  C   UNL A   1      33.915  28.675  26.371  1.00  0.00     0.118 C 
BRANCH  21  22
ATOM     22  N   UNL A   1      33.805  30.058  26.821  1.00  0.00    -0.352 N 
ATOM     23  C   UNL A   1      34.595  30.768  27.684  1.00  0.00     0.251 C 
ATOM     24  H   UNL A   1      33.044  30.558  26.445  1.00  0.00     0.163 HD
ATOM     25  O   UNL A   1      34.205  31.869  28.084  1.00  0.00    -0.269 OA
BRANCH  23  26
ATOM     26  C   UNL A   1      35.894  30.234  28.137  1.00  0.00     0.039 A 
ATOM     27  C   UNL A   1      35.971  29.607  29.384  1.00  0.00     0.014 A 
ATOM     28  C   UNL A   1      37.046  30.392  27.361  1.00  0.00     0.014 A 
ATOM     29  C   UNL A   1      37.196  29.114  29.839  1.00  0.00     0.010 A 
ATOM     30  C   UNL A   1      38.247  29.825  27.777  1.00  0.00     0.010 A 
ATOM     31  C   UNL A   1      38.342  29.206  29.031  1.00  0.00    -0.014 A 
BRANCH  31  32
ATOM     32  C   UNL A   1      39.658  28.707  29.500  1.00  0.00     0.031 A 
ATOM     33  C   UNL A   1      40.383  29.428  30.607  1.00  0.00     0.074 A 
ATOM     34  C   UNL A   1      40.233  27.654  28.887  1.00  0.00     0.049 A 
ATOM     35  N   UNL A   1      41.562  29.185  31.117  1.00  0.00    -0.248 NA
ATOM     36  C   UNL A   1      39.706  30.596  31.199  1.00  0.00     0.031 C 
ATOM     37  C   UNL A   1      39.664  26.919  27.754  1.00  0.00     0.029 A 
ATOM     38  N   UNL A   1      41.435  27.033  29.114  1.00  0.00    -0.354 N 
ATOM     39  C   UNL A   1      41.783  30.187  32.056  1.00  0.00     0.074 A 
ATOM     40  C   UNL A   1      40.636  31.064  32.017  1.00  0.00     0.031 C 
ATOM     41  C   UNL A   1      40.513  25.943  27.393  1.00  0.00     0.029 A 
ATOM     42  C   UNL A   1      41.695  25.998  28.247  1.00  0.00     0.049 A 
ATOM     43  H   UNL A   1      42.053  27.303  29.832  1.00  0.00     0.167 HD
ATOM     44  C   UNL A   1      42.830  30.343  32.901  1.00  0.00     0.034 A 
ATOM     45  C   UNL A   1      42.767  25.187  28.153  1.00  0.00     0.034 A 
ATOM     46  C   UNL A   1      43.943  29.437  32.974  1.00  0.00     0.049 A 
ATOM     47  C   UNL A   1      43.891  25.350  29.140  1.00  0.00     0.074 A 
ATOM     48  C   UNL A   1      45.019  29.461  33.843  1.00  0.00     0.029 A 
ATOM     49  N   UNL A   1      44.122  28.339  32.146  1.00  0.00    -0.354 N 
ATOM     50  N   UNL A   1      44.015  26.216  30.117  1.00  0.00    -0.248 NA
ATOM     51  C   UNL A   1      45.005  24.395  29.042  1.00  0.00     0.031 C 
ATOM     52  C   UNL A   1      45.855  28.385  33.531  1.00  0.00     0.029 A 
ATOM     53  C   UNL A   1      45.286  27.676  32.486  1.00  0.00     0.049 A 
ATOM     54  H   UNL A   1      43.509  28.072  31.421  1.00  0.00     0.167 HD
ATOM     55  C   UNL A   1      45.191  25.881  30.778  1.00  0.00     0.074 A 
ATOM     56  C   UNL A   1      45.735  24.722  30.099  1.00  0.00     0.031 C 
ATOM     57  C   UNL A   1      45.775  26.483  31.843  1.00  0.00     0.034 A 
BRANCH  44  58
ATOM     58  C   UNL A   1      42.790  31.506  33.860  1.00  0.00     0.023 A 
ATOM     59  C   UNL A   1      43.226  32.776  33.428  1.00  0.00     0.012 A 
ATOM     60  C   UNL A   1      42.273  31.360  35.161  1.00  0.00     0.148 A 
ATOM     61  C   UNL A   1      43.184  33.874  34.286  1.00  0.00     0.002 A 
ATOM     62  C   UNL A   1      42.191  32.469  35.996  1.00  0.00     0.091 A 
ATOM     63  F   UNL A   1      41.882  30.142  35.562  1.00  0.00    -0.205 F 
ATOM     64  C   UNL A   1      42.656  33.722  35.565  1.00  0.00     0.022 A 
BRANCH  62  65
ATOM     65  S   UNL A   1      41.452  32.398  37.634  1.00  0.00     0.127 S 
ATOM     66  O   UNL A   1      40.086  31.979  37.323  1.00  0.00    -0.237 OA
ATOM     67  O   UNL A   1      42.268  31.379  38.294  1.00  0.00    -0.237 OA
ATOM     68  O   UNL A   1      41.582  33.736  38.192  1.00  0.00    -0.744 OA
ENDBRANCH  62  65
ENDBRANCH  44  58
BRANCH  45  69
ATOM     69  C   UNL A   1      42.793  24.094  27.140  1.00  0.00     0.023 A 
ATOM     70  C   UNL A   1      43.515  24.280  25.945  1.00  0.00     0.012 A 
ATOM     71  C   UNL A   1      42.123  22.875  27.353  1.00  0.00     0.148 A 
ATOM     72  C   UNL A   1      43.536  23.289  24.963  1.00  0.00     0.002 A 
ATOM     73  C   UNL A   1      42.192  21.870  26.394  1.00  0.00     0.091 A 
ATOM     74  F   UNL A   1      41.433  22.720  28.492  1.00  0.00    -0.205 F 
ATOM     75  C   UNL A   1      42.882  22.082  25.191  1.00  0.00     0.022 A 
BRANCH  73  76
ATOM     76  S   UNL A   1      41.486  20.239  26.658  1.00  0.00     0.127 S 
ATOM     77  O   UNL A   1      42.209  19.790  27.845  1.00  0.00    -0.237 OA
ATOM     78  O   UNL A   1      40.073  20.554  26.879  1.00  0.00    -0.237 OA
ATOM     79  O   UNL A   1      41.749  19.496  25.435  1.00  0.00    -0.744 OA
ENDBRANCH  73  76
ENDBRANCH  45  69
BRANCH  57  80
ATOM     80  C   UNL A   1      47.038  25.869  32.388  1.00  0.00     0.023 A 
ATOM     81  C   UNL A   1      48.291  26.258  31.875  1.00  0.00     0.012 A 
ATOM     82  C   UNL A   1      46.982  24.960  33.463  1.00  0.00     0.148 A 
ATOM     83  C   UNL A   1      49.468  25.724  32.400  1.00  0.00     0.002 A 
ATOM     84  C   UNL A   1      48.159  24.472  34.015  1.00  0.00     0.091 A 
ATOM     85  F   UNL A   1      45.778  24.588  33.924  1.00  0.00    -0.205 F 
ATOM     86  C   UNL A   1      49.402  24.842  33.477  1.00  0.00     0.022 A 
BRANCH  84  87
ATOM     87  S   UNL A   1      48.171  23.414  35.466  1.00  0.00     0.127 S 
ATOM     88  O   UNL A   1      49.605  23.238  35.695  1.00  0.00    -0.237 OA
ATOM     89  O   UNL A   1      47.491  24.242  36.463  1.00  0.00    -0.237 OA
ATOM     90  O   UNL A   1      47.445  22.208  35.088  1.00  0.00    -0.744 OA
ENDBRANCH  84  87
ENDBRANCH  57  80
ENDBRANCH  31  32
ENDBRANCH  23  26
ENDBRANCH  21  22
ENDBRANCH   1  21
TORSDOF 16
ENDMDL
MODEL 2
REMARK VINA RESULT:     -11.2      1.262      1.776
REMARK SMILES CC1(C(=O)N[C@H](C(=O)NCCCNC(=O)c2ccc(-c3c4nc(c(-c5cccc(S(=O)(=O)[O-])c5F)c5ccc([nH]5)c(-c5cccc(S(=O)(=O)[O-])c5F)c5nc(c(-c6cccc(S(=O)(=O)[O-])c6F)c6ccc3[nH]6)C=C5)C=C4)cc2)C2CC2)CCCC1
REMARK SMILES IDX 11 1 10 2 9 3 7 4 8 5 6 7 5 8 3 9 4 10 2 12 1 13 82 14 85 15
REMARK SMILES IDX 83 16 84 17 79 18 80 19 81 20 12 21 13 22 14 23 15 25 16 26
REMARK SMILES IDX 17 27 78 28 18 29 77 30 19 31 20 32 21 33 71 34 22 35 76 36
REMARK SMILES IDX 70 37 72 38 23 39 75 40 69 41 68 42 24 44 56 45 36 46 55 47
REMARK SMILES IDX 37 48 40 49 54 50 73 51 38 52 39 53 53 55 74 56 41 57 25 58
REMARK SMILES IDX 26 59 34 60 27 61 29 62 35 63 28 64 30 65 31 66 32 67 33 68
REMARK SMILES IDX 57 69 58 70 66 71 59 72 61 73 67 74 60 75 62 76 63 77 64 78
REMARK SMILES IDX 65 79 42 80 43 81 51 82 44 83 46 84 52 85 45 86 47 87 48 88
REMARK SMILES IDX 49 89 50 90
REMARK H PARENT 9 6 5 11 13 24 72 43 40 54
REMARK Flexibility Score: inf
ROOT
ATOM      1  C   UNL A   1      32.704  27.879  26.801  1.00  0.00     0.042 C 
ENDROOT
BRANCH   1   2
ATOM      2  C   UNL A   1      32.674  26.425  26.348  1.00  0.00     0.117 C 
BRANCH   2   3
ATOM      3  N   UNL A   1      31.437  25.763  26.709  1.00  0.00    -0.354 N 
ATOM      4  C   UNL A   1      30.839  24.669  26.158  1.00  0.00     0.242 C 
ATOM      5  O   UNL A   1      29.896  24.168  26.781  1.00  0.00    -0.273 OA
ATOM      6  H   UNL A   1      30.955  26.164  27.467  1.00  0.00     0.163 HD
BRANCH   4   7
ATOM      7  C   UNL A   1      31.434  23.960  24.913  1.00  0.00     0.174 C 
BRANCH   7   8
ATOM      8  N   UNL A   1      31.391  22.505  25.004  1.00  0.00    -0.344 N 
ATOM      9  C   UNL A   1      32.363  21.560  25.051  1.00  0.00     0.226 C 
ATOM     10  O   UNL A   1      31.966  20.395  25.142  1.00  0.00    -0.274 OA
ATOM     11  H   UNL A   1      30.478  22.137  25.037  1.00  0.00     0.164 HD
BRANCH   9  12
ATOM     12  C   UNL A   1      33.857  21.888  24.927  1.00  0.00     0.046 C 
ATOM     13  C   UNL A   1      34.691  20.608  25.088  1.00  0.00     0.022 C 
ATOM     14  C   UNL A   1      34.260  22.910  26.018  1.00  0.00     0.016 C 
ATOM     15  C   UNL A   1      34.211  22.674  23.659  1.00  0.00     0.016 C 
ATOM     16  C   UNL A   1      35.549  23.542  25.514  1.00  0.00     0.001 C 
ATOM     17  C   UNL A   1      35.438  23.524  23.996  1.00  0.00     0.001 C 
ENDBRANCH   9  12
ENDBRANCH   7   8
BRANCH   7  18
ATOM     18  C   UNL A   1      30.732  24.453  23.655  1.00  0.00     0.021 C 
ATOM     19  C   UNL A   1      30.383  25.917  23.520  1.00  0.00     0.006 C 
ATOM     20  C   UNL A   1      31.383  25.308  22.583  1.00  0.00     0.006 C 
ENDBRANCH   7  18
ENDBRANCH   4   7
ENDBRANCH   2   3
ENDBRANCH   1   2
BRANCH   1  21
ATOM     21  C   UNL A   1      33.900  28.664  26.271  1.00  0.00     0.118 C 
BRANCH  21  22
ATOM     22  N   UNL A   1      33.831  30.082  26.604  1.00  0.00    -0.352 N 
ATOM     23  C   UNL A   1      34.605  30.824  27.455  1.00  0.00     0.251 C 
ATOM     24  H   UNL A   1      33.118  30.583  26.146  1.00  0.00     0.163 HD
ATOM     25  O   UNL A   1      34.247  31.970  27.744  1.00  0.00    -0.269 OA
BRANCH  23  26
ATOM     26  C   UNL A   1      35.850  30.272  28.024  1.00  0.00     0.039 A 
ATOM     27  C   UNL A   1      37.022  30.323  27.264  1.00  0.00     0.014 A 
ATOM     28  C   UNL A   1      35.857  29.660  29.281  1.00  0.00     0.014 A 
ATOM     29  C   UNL A   1      38.205  29.786  27.776  1.00  0.00     0.010 A 
ATOM     30  C   UNL A   1      37.054  29.204  29.824  1.00  0.00     0.010 A 
ATOM     31  C   UNL A   1      38.233  29.235  29.068  1.00  0.00    -0.014 A 
BRANCH  31  32
ATOM     32  C   UNL A   1      39.474  28.643  29.626  1.00  0.00     0.031 A 
ATOM     33  C   UNL A   1      40.106  29.246  30.854  1.00  0.00     0.074 A 
ATOM     34  C   UNL A   1      40.069  27.613  28.994  1.00  0.00     0.049 A 
ATOM     35  N   UNL A   1      41.216  28.913  31.459  1.00  0.00    -0.248 NA
ATOM     36  C   UNL A   1      39.417  30.397  31.464  1.00  0.00     0.031 C 
ATOM     37  C   UNL A   1      39.594  26.990  27.756  1.00  0.00     0.029 A 
ATOM     38  N   UNL A   1      41.216  26.922  29.292  1.00  0.00    -0.354 N 
ATOM     39  C   UNL A   1      41.377  29.831  32.492  1.00  0.00     0.074 A 
ATOM     40  C   UNL A   1      40.274  30.760  32.406  1.00  0.00     0.031 C 
ATOM     41  C   UNL A   1      40.438  26.006  27.406  1.00  0.00     0.029 A 
ATOM     42  C   UNL A   1      41.525  25.944  28.377  1.00  0.00     0.049 A 
ATOM     43  H   UNL A   1      41.766  27.109  30.087  1.00  0.00     0.167 HD
ATOM     44  C   UNL A   1      42.335  29.876  33.447  1.00  0.00     0.034 A 
ATOM     45  C   UNL A   1      42.570  25.093  28.328  1.00  0.00     0.034 A 
ATOM     46  C   UNL A   1      43.400  28.917  33.560  1.00  0.00     0.049 A 
ATOM     47  C   UNL A   1      43.591  25.131  29.433  1.00  0.00     0.074 A 
ATOM     48  C   UNL A   1      44.379  28.827  34.533  1.00  0.00     0.029 A 
ATOM     49  N   UNL A   1      43.621  27.876  32.671  1.00  0.00    -0.354 N 
ATOM     50  N   UNL A   1      43.645  25.915  30.482  1.00  0.00    -0.248 NA
ATOM     51  C   UNL A   1      44.672  24.136  29.373  1.00  0.00     0.031 C 
ATOM     52  C   UNL A   1      45.202  27.739  34.223  1.00  0.00     0.029 A 
ATOM     53  C   UNL A   1      44.718  27.137  33.074  1.00  0.00     0.049 A 
ATOM     54  H   UNL A   1      43.078  27.692  31.870  1.00  0.00     0.167 HD
ATOM     55  C   UNL A   1      44.732  25.479  31.230  1.00  0.00     0.074 A 
ATOM     56  C   UNL A   1      45.300  24.350  30.521  1.00  0.00     0.031 C 
ATOM     57  C   UNL A   1      45.225  25.973  32.393  1.00  0.00     0.034 A 
BRANCH  44  58
ATOM     58  C   UNL A   1      42.240  30.965  34.485  1.00  0.00     0.023 A 
ATOM     59  C   UNL A   1      41.552  30.716  35.691  1.00  0.00     0.012 A 
ATOM     60  C   UNL A   1      42.873  32.209  34.296  1.00  0.00     0.148 A 
ATOM     61  C   UNL A   1      41.463  31.698  36.676  1.00  0.00     0.002 A 
ATOM     62  C   UNL A   1      42.819  33.167  35.303  1.00  0.00     0.091 A 
ATOM     63  F   UNL A   1      43.505  32.436  33.136  1.00  0.00    -0.205 F 
ATOM     64  C   UNL A   1      42.105  32.918  36.487  1.00  0.00     0.022 A 
BRANCH  62  65
ATOM     65  S   UNL A   1      43.681  34.740  35.193  1.00  0.00     0.127 S 
ATOM     66  O   UNL A   1      43.264  35.392  36.433  1.00  0.00    -0.237 OA
ATOM     67  O   UNL A   1      45.083  34.321  35.166  1.00  0.00    -0.237 OA
ATOM     68  O   UNL A   1      43.212  35.372  33.969  1.00  0.00    -0.744 OA
ENDBRANCH  62  65
ENDBRANCH  44  58
BRANCH  45  69
ATOM     69  C   UNL A   1      42.659  24.078  27.240  1.00  0.00     0.023 A 
ATOM     70  C   UNL A   1      43.394  24.378  26.077  1.00  0.00     0.012 A 
ATOM     71  C   UNL A   1      42.037  22.820  27.353  1.00  0.00     0.148 A 
ATOM     72  C   UNL A   1      43.474  23.462  25.028  1.00  0.00     0.002 A 
ATOM     73  C   UNL A   1      42.165  21.891  26.326  1.00  0.00     0.091 A 
ATOM     74  F   UNL A   1      41.334  22.556  28.463  1.00  0.00    -0.205 F 
ATOM     75  C   UNL A   1      42.867  22.217  25.156  1.00  0.00     0.022 A 
BRANCH  73  76
ATOM     76  S   UNL A   1      41.524  20.218  26.458  1.00  0.00     0.127 S 
ATOM     77  O   UNL A   1      40.086  20.439  26.320  1.00  0.00    -0.237 OA
ATOM     78  O   UNL A   1      42.159  19.560  25.315  1.00  0.00    -0.237 OA
ATOM     79  O   UNL A   1      41.969  19.728  27.754  1.00  0.00    -0.744 OA
ENDBRANCH  73  76
ENDBRANCH  45  69
BRANCH  57  80
ATOM     80  C   UNL A   1      46.400  25.264  33.013  1.00  0.00     0.023 A 
ATOM     81  C   UNL A   1      47.713  25.692  32.731  1.00  0.00     0.012 A 
ATOM     82  C   UNL A   1      46.195  24.219  33.935  1.00  0.00     0.148 A 
ATOM     83  C   UNL A   1      48.805  25.066  33.331  1.00  0.00     0.002 A 
ATOM     84  C   UNL A   1      47.285  23.634  34.567  1.00  0.00     0.091 A 
ATOM     85  F   UNL A   1      44.939  23.813  34.174  1.00  0.00    -0.205 F 
ATOM     86  C   UNL A   1      48.591  24.047  34.257  1.00  0.00     0.022 A 
BRANCH  84  87
ATOM     87  S   UNL A   1      47.096  22.388  35.847  1.00  0.00     0.127 S 
ATOM     88  O   UNL A   1      46.522  21.273  35.094  1.00  0.00    -0.237 OA
ATOM     89  O   UNL A   1      48.476  22.180  36.287  1.00  0.00    -0.237 OA
ATOM     90  O   UNL A   1      46.225  22.979  36.854  1.00  0.00    -0.744 OA
ENDBRANCH  84  87
ENDBRANCH  57  80
ENDBRANCH  31  32
ENDBRANCH  23  26
ENDBRANCH  21  22
ENDBRANCH   1  21
TORSDOF 16
ENDMDL
MODEL 3
REMARK VINA RESULT:     -11.2      1.853      2.403
REMARK SMILES CC1(C(=O)N[C@H](C(=O)NCCCNC(=O)c2ccc(-c3c4nc(c(-c5cccc(S(=O)(=O)[O-])c5F)c5ccc([nH]5)c(-c5cccc(S(=O)(=O)[O-])c5F)c5nc(c(-c6cccc(S(=O)(=O)[O-])c6F)c6ccc3[nH]6)C=C5)C=C4)cc2)C2CC2)CCCC1
REMARK SMILES IDX 11 1 10 2 9 3 7 4 8 5 6 7 5 8 3 9 4 10 2 12 1 13 82 14 85 15
REMARK SMILES IDX 83 16 84 17 79 18 80 19 81 20 12 21 13 22 14 23 15 25 16 26
REMARK SMILES IDX 17 27 78 28 18 29 77 30 19 31 20 32 21 33 71 34 22 35 76 36
REMARK SMILES IDX 70 37 72 38 23 39 75 40 69 41 68 42 24 44 56 45 36 46 55 47
REMARK SMILES IDX 37 48 40 49 54 50 73 51 38 52 39 53 53 55 74 56 41 57 25 58
REMARK SMILES IDX 26 59 34 60 27 61 29 62 35 63 28 64 30 65 31 66 32 67 33 68
REMARK SMILES IDX 57 69 58 70 66 71 59 72 61 73 67 74 60 75 62 76 63 77 64 78
REMARK SMILES IDX 65 79 42 80 43 81 51 82 44 83 46 84 52 85 45 86 47 87 48 88
REMARK SMILES IDX 49 89 50 90
REMARK H PARENT 9 6 5 11 13 24 72 43 40 54
REMARK Flexibility Score: inf
ROOT
ATOM      1  C   UNL A   1      31.950  28.148  26.672  1.00  0.00     0.042 C 
ENDROOT
BRANCH   1   2
ATOM      2  C   UNL A   1      31.464  27.080  25.702  1.00  0.00     0.117 C 
BRANCH   2   3
ATOM      3  N   UNL A   1      30.649  26.075  26.353  1.00  0.00    -0.354 N 
ATOM      4  C   UNL A   1      30.789  24.719  26.380  1.00  0.00     0.242 C 
ATOM      5  O   UNL A   1      30.088  24.095  27.185  1.00  0.00    -0.273 OA
ATOM      6  H   UNL A   1      29.877  26.425  26.854  1.00  0.00     0.163 HD
BRANCH   4   7
ATOM      7  C   UNL A   1      31.915  24.004  25.587  1.00  0.00     0.174 C 
BRANCH   7   8
ATOM      8  N   UNL A   1      32.709  23.098  26.406  1.00  0.00    -0.344 N 
ATOM      9  C   UNL A   1      34.039  22.829  26.453  1.00  0.00     0.226 C 
ATOM     10  O   UNL A   1      34.383  21.996  27.295  1.00  0.00    -0.274 OA
ATOM     11  H   UNL A   1      32.177  22.578  27.052  1.00  0.00     0.164 HD
BRANCH   9  12
ATOM     12  C   UNL A   1      35.053  23.454  25.485  1.00  0.00     0.046 C 
ATOM     13  C   UNL A   1      34.660  24.907  25.179  1.00  0.00     0.022 C 
ATOM     14  C   UNL A   1      35.091  22.640  24.170  1.00  0.00     0.016 C 
ATOM     15  C   UNL A   1      36.509  23.315  25.946  1.00  0.00     0.016 C 
ATOM     16  C   UNL A   1      36.423  22.990  23.523  1.00  0.00     0.001 C 
ATOM     17  C   UNL A   1      37.369  23.274  24.681  1.00  0.00     0.001 C 
ENDBRANCH   9  12
ENDBRANCH   7   8
BRANCH   7  18
ATOM     18  C   UNL A   1      31.319  23.281  24.387  1.00  0.00     0.021 C 
ATOM     19  C   UNL A   1      30.565  24.067  23.339  1.00  0.00     0.006 C 
ATOM     20  C   UNL A   1      31.847  23.385  22.968  1.00  0.00     0.006 C 
ENDBRANCH   7  18
ENDBRANCH   4   7
ENDBRANCH   2   3
ENDBRANCH   1   2
BRANCH   1  21
ATOM     21  C   UNL A   1      33.056  29.035  26.109  1.00  0.00     0.118 C 
BRANCH  21  22
ATOM     22  N   UNL A   1      32.825  30.451  26.369  1.00  0.00    -0.352 N 
ATOM     23  C   UNL A   1      33.457  31.301  27.236  1.00  0.00     0.251 C 
ATOM     24  H   UNL A   1      32.103  30.859  25.838  1.00  0.00     0.163 HD
ATOM     25  O   UNL A   1      32.970  32.415  27.444  1.00  0.00    -0.269 OA
BRANCH  23  26
ATOM     26  C   UNL A   1      34.704  30.899  27.916  1.00  0.00     0.039 A 
ATOM     27  C   UNL A   1      35.795  31.773  27.901  1.00  0.00     0.014 A 
ATOM     28  C   UNL A   1      34.821  29.646  28.524  1.00  0.00     0.014 A 
ATOM     29  C   UNL A   1      36.991  31.402  28.521  1.00  0.00     0.010 A 
ATOM     30  C   UNL A   1      35.983  29.314  29.214  1.00  0.00     0.010 A 
ATOM     31  C   UNL A   1      37.088  30.175  29.196  1.00  0.00    -0.014 A 
BRANCH  31  32
ATOM     32  C   UNL A   1      38.354  29.751  29.845  1.00  0.00     0.031 A 
ATOM     33  C   UNL A   1      38.740  30.328  31.183  1.00  0.00     0.074 A 
ATOM     34  C   UNL A   1      39.186  28.906  29.205  1.00  0.00     0.049 A 
ATOM     35  N   UNL A   1      39.825  30.131  31.884  1.00  0.00    -0.248 NA
ATOM     36  C   UNL A   1      37.796  31.277  31.799  1.00  0.00     0.031 C 
ATOM     37  C   UNL A   1      38.958  28.338  27.874  1.00  0.00     0.029 A 
ATOM     38  N   UNL A   1      40.403  28.396  29.579  1.00  0.00    -0.354 N 
ATOM     39  C   UNL A   1      39.712  30.955  32.999  1.00  0.00     0.074 A 
ATOM     40  C   UNL A   1      38.473  31.686  32.860  1.00  0.00     0.031 C 
ATOM     41  C   UNL A   1      39.997  27.553  27.547  1.00  0.00     0.029 A 
ATOM     42  C   UNL A   1      40.975  27.581  28.630  1.00  0.00     0.049 A 
ATOM     43  H   UNL A   1      40.827  28.594  30.445  1.00  0.00     0.167 HD
ATOM     44  C   UNL A   1      40.546  31.068  34.060  1.00  0.00     0.034 A 
ATOM     45  C   UNL A   1      42.156  26.931  28.635  1.00  0.00     0.034 A 
ATOM     46  C   UNL A   1      41.750  30.299  34.219  1.00  0.00     0.049 A 
ATOM     47  C   UNL A   1      43.037  27.033  29.851  1.00  0.00     0.074 A 
ATOM     48  C   UNL A   1      42.626  30.282  35.288  1.00  0.00     0.029 A 
ATOM     49  N   UNL A   1      42.244  29.406  33.281  1.00  0.00    -0.354 N 
ATOM     50  N   UNL A   1      42.843  27.707  30.959  1.00  0.00    -0.248 NA
ATOM     51  C   UNL A   1      44.281  26.249  29.837  1.00  0.00     0.031 C 
ATOM     52  C   UNL A   1      43.659  29.388  34.990  1.00  0.00     0.029 A 
ATOM     53  C   UNL A   1      43.411  28.829  33.748  1.00  0.00     0.049 A 
ATOM     54  H   UNL A   1      41.827  29.212  32.410  1.00  0.00     0.167 HD
ATOM     55  C   UNL A   1      43.910  27.390  31.791  1.00  0.00     0.074 A 
ATOM     56  C   UNL A   1      44.741  26.452  31.064  1.00  0.00     0.031 C 
ATOM     57  C   UNL A   1      44.187  27.844  33.039  1.00  0.00     0.034 A 
BRANCH  44  58
ATOM     58  C   UNL A   1      40.151  32.016  35.164  1.00  0.00     0.023 A 
ATOM     59  C   UNL A   1      40.709  33.311  35.198  1.00  0.00     0.012 A 
ATOM     60  C   UNL A   1      39.193  31.652  36.129  1.00  0.00     0.148 A 
ATOM     61  C   UNL A   1      40.350  34.215  36.197  1.00  0.00     0.002 A 
ATOM     62  C   UNL A   1      38.805  32.575  37.094  1.00  0.00     0.091 A 
ATOM     63  F   UNL A   1      38.689  30.411  36.094  1.00  0.00    -0.205 F 
ATOM     64  C   UNL A   1      39.390  33.851  37.137  1.00  0.00     0.022 A 
BRANCH  62  65
ATOM     65  S   UNL A   1      37.518  32.234  38.301  1.00  0.00     0.127 S 
ATOM     66  O   UNL A   1      38.129  32.733  39.533  1.00  0.00    -0.237 OA
ATOM     67  O   UNL A   1      36.406  33.043  37.801  1.00  0.00    -0.237 OA
ATOM     68  O   UNL A   1      37.293  30.797  38.255  1.00  0.00    -0.744 OA
ENDBRANCH  62  65
ENDBRANCH  44  58
BRANCH  45  69
ATOM     69  C   UNL A   1      42.536  26.060  27.487  1.00  0.00     0.023 A 
ATOM     70  C   UNL A   1      43.337  26.590  26.457  1.00  0.00     0.012 A 
ATOM     71  C   UNL A   1      42.125  24.716  27.413  1.00  0.00     0.148 A 
ATOM     72  C   UNL A   1      43.688  25.811  25.354  1.00  0.00     0.002 A 
ATOM     73  C   UNL A   1      42.522  23.929  26.338  1.00  0.00     0.091 A 
ATOM     74  F   UNL A   1      41.355  24.232  28.398  1.00  0.00    -0.205 F 
ATOM     75  C   UNL A   1      43.288  24.479  25.298  1.00  0.00     0.022 A 
BRANCH  73  76
ATOM     76  S   UNL A   1      42.158  22.172  26.246  1.00  0.00     0.127 S 
ATOM     77  O   UNL A   1      42.666  21.695  27.530  1.00  0.00    -0.237 OA
ATOM     78  O   UNL A   1      40.699  22.172  26.122  1.00  0.00    -0.237 OA
ATOM     79  O   UNL A   1      42.859  21.688  25.067  1.00  0.00    -0.744 OA
ENDBRANCH  73  76
ENDBRANCH  45  69
BRANCH  57  80
ATOM     80  C   UNL A   1      45.402  27.287  33.732  1.00  0.00     0.023 A 
ATOM     81  C   UNL A   1      46.641  27.951  33.627  1.00  0.00     0.012 A 
ATOM     82  C   UNL A   1      45.296  26.146  34.550  1.00  0.00     0.148 A 
ATOM     83  C   UNL A   1      47.763  27.465  34.297  1.00  0.00     0.002 A 
ATOM     84  C   UNL A   1      46.405  25.697  35.256  1.00  0.00     0.091 A 
ATOM     85  F   UNL A   1      44.113  25.517  34.622  1.00  0.00    -0.205 F 
ATOM     86  C   UNL A   1      47.642  26.347  35.120  1.00  0.00     0.022 A 
BRANCH  84  87
ATOM     87  S   UNL A   1      46.315  24.329  36.416  1.00  0.00     0.127 S 
ATOM     88  O   UNL A   1      46.179  23.184  35.517  1.00  0.00    -0.237 OA
ATOM     89  O   UNL A   1      47.604  24.416  37.103  1.00  0.00    -0.237 OA
ATOM     90  O   UNL A   1      45.162  24.600  37.265  1.00  0.00    -0.744 OA
ENDBRANCH  84  87
ENDBRANCH  57  80
ENDBRANCH  31  32
ENDBRANCH  23  26
ENDBRANCH  21  22
ENDBRANCH   1  21
TORSDOF 16
ENDMDL
