MODEL 1
REMARK VINA RESULT:     -11.0      0.000      0.000
REMARK SMILES CCOC(=O)c1ccc(-c2ccc(C(=O)NCCCNC(=O)c3ccc(-c4c5nc(c(-c6cccc(S(=O)(=O)[O-])c6F)c6ccc([nH]6)c(-c6cccc(S(=O)(=O)[O-])c6F)c6nc(c(-c7cccc(S(=O)(=O)[O-])c7F)c7ccc4[nH]7)C=C6)C=C5)cc3)o2)cc1
REMARK SMILES IDX 17 1 16 2 14 3 15 4 13 6 10 7 11 8 86 9 12 10 9 11 6 12 7 13
REMARK SMILES IDX 88 14 8 15 87 16 4 17 5 18 3 19 2 20 1 21 18 22 19 23 20 24
REMARK SMILES IDX 21 25 22 27 23 28 24 29 85 30 25 31 84 32 26 33 27 34 28 35
REMARK SMILES IDX 78 36 29 37 83 38 77 39 79 40 30 41 82 42 76 43 75 44 31 46
REMARK SMILES IDX 63 47 43 48 62 49 44 50 47 51 61 52 80 53 45 54 46 55 60 57
REMARK SMILES IDX 81 58 48 59 32 60 33 61 41 62 34 63 36 64 42 65 35 66 37 67
REMARK SMILES IDX 38 68 39 69 40 70 64 71 65 72 73 73 66 74 68 75 74 76 67 77
REMARK SMILES IDX 69 78 70 79 71 80 72 81 49 82 50 83 58 84 51 85 53 86 59 87
REMARK SMILES IDX 52 88 54 89 55 90 56 91 57 92
REMARK H PARENT 16 5 20 26 79 45 47 56
REMARK Flexibility Score: inf
ROOT
ATOM      1  C   UNL A   1      32.251  29.330  24.569  1.00  0.00     0.118 C 
ENDROOT
BRANCH   1   2
ATOM      2  N   UNL A   1      33.219  29.266  23.491  1.00  0.00    -0.349 N 
ATOM      3  C   UNL A   1      33.513  28.270  22.588  1.00  0.00     0.287 C 
ATOM      4  O   UNL A   1      34.313  28.579  21.701  1.00  0.00    -0.266 OA
ATOM      5  H   UNL A   1      33.762  30.081  23.387  1.00  0.00     0.163 HD
BRANCH   3   6
ATOM      6  C   UNL A   1      32.898  26.956  22.671  1.00  0.00     0.192 A 
ATOM      7  C   UNL A   1      32.938  24.801  23.185  1.00  0.00     0.135 A 
ATOM      8  C   UNL A   1      31.688  25.049  22.671  1.00  0.00     0.052 A 
ATOM      9  O   UNL A   1      33.678  25.941  23.185  1.00  0.00    -0.451 OA
ATOM     10  C   UNL A   1      31.645  26.435  22.388  1.00  0.00     0.057 A 
BRANCH   7  11
ATOM     11  C   UNL A   1      33.552  23.623  23.766  1.00  0.00     0.017 A 
ATOM     12  C   UNL A   1      34.729  21.203  24.545  1.00  0.00     0.060 A 
ATOM     13  C   UNL A   1      33.336  21.320  24.501  1.00  0.00     0.016 A 
ATOM     14  C   UNL A   1      35.537  22.306  24.250  1.00  0.00     0.016 A 
ATOM     15  C   UNL A   1      32.752  22.533  24.130  1.00  0.00     0.013 A 
ATOM     16  C   UNL A   1      34.947  23.510  23.850  1.00  0.00     0.013 A 
BRANCH  12  17
ATOM     17  C   UNL A   1      35.311  19.865  24.791  1.00  0.00     0.338 C 
ATOM     18  O   UNL A   1      36.499  19.684  25.003  1.00  0.00    -0.246 OA
BRANCH  17  19
ATOM     19  O   UNL A   1      34.346  18.914  24.738  1.00  0.00    -0.462 OA
BRANCH  19  20
ATOM     20  C   UNL A   1      34.776  17.634  24.248  1.00  0.00     0.230 C 
ATOM     21  C   UNL A   1      33.898  16.502  24.754  1.00  0.00     0.049 C 
ENDBRANCH  19  20
ENDBRANCH  17  19
ENDBRANCH  12  17
ENDBRANCH   7  11
ENDBRANCH   3   6
ENDBRANCH   1   2
BRANCH   1  22
ATOM     22  C   UNL A   1      32.643  28.447  25.751  1.00  0.00     0.042 C 
BRANCH  22  23
ATOM     23  C   UNL A   1      33.907  28.916  26.473  1.00  0.00     0.118 C 
BRANCH  23  24
ATOM     24  N   UNL A   1      33.814  30.311  26.888  1.00  0.00    -0.352 N 
ATOM     25  C   UNL A   1      34.586  31.033  27.763  1.00  0.00     0.251 C 
ATOM     26  H   UNL A   1      33.078  30.816  26.473  1.00  0.00     0.163 HD
ATOM     27  O   UNL A   1      34.191  32.138  28.131  1.00  0.00    -0.269 OA
BRANCH  25  28
ATOM     28  C   UNL A   1      35.872  30.506  28.268  1.00  0.00     0.039 A 
ATOM     29  C   UNL A   1      35.877  29.766  29.455  1.00  0.00     0.014 A 
ATOM     30  C   UNL A   1      37.078  30.790  27.621  1.00  0.00     0.014 A 
ATOM     31  C   UNL A   1      37.080  29.270  29.966  1.00  0.00     0.010 A 
ATOM     32  C   UNL A   1      38.269  30.245  28.098  1.00  0.00     0.010 A 
ATOM     33  C   UNL A   1      38.284  29.487  29.279  1.00  0.00    -0.014 A 
BRANCH  33  34
ATOM     34  C   UNL A   1      39.567  28.920  29.769  1.00  0.00     0.031 A 
ATOM     35  C   UNL A   1      40.311  29.583  30.895  1.00  0.00     0.074 A 
ATOM     36  C   UNL A   1      40.111  27.867  29.130  1.00  0.00     0.049 A 
ATOM     37  N   UNL A   1      41.477  29.278  31.404  1.00  0.00    -0.248 NA
ATOM     38  C   UNL A   1      39.677  30.759  31.511  1.00  0.00     0.031 C 
ATOM     39  C   UNL A   1      39.527  27.189  27.971  1.00  0.00     0.029 A 
ATOM     40  N   UNL A   1      41.294  27.204  29.342  1.00  0.00    -0.354 N 
ATOM     41  C   UNL A   1      41.735  30.244  32.369  1.00  0.00     0.074 A 
ATOM     42  C   UNL A   1      40.615  31.161  32.358  1.00  0.00     0.031 C 
ATOM     43  C   UNL A   1      40.356  26.212  27.570  1.00  0.00     0.029 A 
ATOM     44  C   UNL A   1      41.537  26.207  28.427  1.00  0.00     0.049 A 
ATOM     45  H   UNL A   1      41.909  27.422  30.078  1.00  0.00     0.167 HD
ATOM     46  C   UNL A   1      42.793  30.345  33.209  1.00  0.00     0.034 A 
ATOM     47  C   UNL A   1      42.594  25.382  28.290  1.00  0.00     0.034 A 
ATOM     48  C   UNL A   1      43.876  29.399  33.259  1.00  0.00     0.049 A 
ATOM     49  C   UNL A   1      43.724  25.470  29.278  1.00  0.00     0.074 A 
ATOM     50  C   UNL A   1      44.939  29.352  34.142  1.00  0.00     0.029 A 
ATOM     51  N   UNL A   1      44.034  28.332  32.387  1.00  0.00    -0.354 N 
ATOM     52  N   UNL A   1      43.869  26.285  30.293  1.00  0.00    -0.248 NA
ATOM     53  C   UNL A   1      44.819  24.499  29.126  1.00  0.00     0.031 C 
ATOM     54  C   UNL A   1      45.745  28.260  33.800  1.00  0.00     0.029 A 
ATOM     55  C   UNL A   1      45.180  27.623  32.708  1.00  0.00     0.049 A 
ATOM     56  H   UNL A   1      43.423  28.112  31.648  1.00  0.00     0.167 HD
ATOM     57  C   UNL A   1      45.052  25.911  30.919  1.00  0.00     0.074 A 
ATOM     58  C   UNL A   1      45.574  24.780  30.180  1.00  0.00     0.031 C 
ATOM     59  C   UNL A   1      45.660  26.465  31.997  1.00  0.00     0.034 A 
BRANCH  46  60
ATOM     60  C   UNL A   1      42.795  31.485  34.193  1.00  0.00     0.023 A 
ATOM     61  C   UNL A   1      43.452  32.686  33.856  1.00  0.00     0.012 A 
ATOM     62  C   UNL A   1      42.116  31.391  35.423  1.00  0.00     0.148 A 
ATOM     63  C   UNL A   1      43.465  33.762  34.742  1.00  0.00     0.002 A 
ATOM     64  C   UNL A   1      42.101  32.483  36.285  1.00  0.00     0.091 A 
ATOM     65  F   UNL A   1      41.517  30.234  35.741  1.00  0.00    -0.205 F 
ATOM     66  C   UNL A   1      42.782  33.664  35.951  1.00  0.00     0.022 A 
BRANCH  64  67
ATOM     67  S   UNL A   1      41.185  32.470  37.832  1.00  0.00     0.127 S 
ATOM     68  O   UNL A   1      41.202  33.885  38.197  1.00  0.00    -0.237 OA
ATOM     69  O   UNL A   1      39.876  31.964  37.417  1.00  0.00    -0.237 OA
ATOM     70  O   UNL A   1      41.922  31.578  38.717  1.00  0.00    -0.744 OA
ENDBRANCH  64  67
ENDBRANCH  46  60
BRANCH  47  71
ATOM     71  C   UNL A   1      42.580  24.345  27.221  1.00  0.00     0.023 A 
ATOM     72  C   UNL A   1      43.247  24.604  26.008  1.00  0.00     0.012 A 
ATOM     73  C   UNL A   1      41.975  23.089  27.420  1.00  0.00     0.148 A 
ATOM     74  C   UNL A   1      43.295  23.637  25.003  1.00  0.00     0.002 A 
ATOM     75  C   UNL A   1      42.073  22.111  26.435  1.00  0.00     0.091 A 
ATOM     76  F   UNL A   1      41.336  22.868  28.577  1.00  0.00    -0.205 F 
ATOM     77  C   UNL A   1      42.719  22.388  25.221  1.00  0.00     0.022 A 
BRANCH  75  78
ATOM     78  S   UNL A   1      41.484  20.432  26.686  1.00  0.00     0.127 S 
ATOM     79  O   UNL A   1      41.959  19.764  25.477  1.00  0.00    -0.237 OA
ATOM     80  O   UNL A   1      42.177  20.048  27.916  1.00  0.00    -0.237 OA
ATOM     81  O   UNL A   1      40.037  20.543  26.825  1.00  0.00    -0.744 OA
ENDBRANCH  75  78
ENDBRANCH  47  71
BRANCH  59  82
ATOM     82  C   UNL A   1      46.954  25.852  32.461  1.00  0.00     0.023 A 
ATOM     83  C   UNL A   1      48.171  26.308  31.918  1.00  0.00     0.012 A 
ATOM     84  C   UNL A   1      46.971  24.886  33.487  1.00  0.00     0.148 A 
ATOM     85  C   UNL A   1      49.385  25.796  32.372  1.00  0.00     0.002 A 
ATOM     86  C   UNL A   1      48.188  24.410  33.963  1.00  0.00     0.091 A 
ATOM     87  F   UNL A   1      45.801  24.447  33.973  1.00  0.00    -0.205 F 
ATOM     88  C   UNL A   1      49.394  24.858  33.402  1.00  0.00     0.022 A 
BRANCH  86  89
ATOM     89  S   UNL A   1      48.290  23.267  35.346  1.00  0.00     0.127 S 
ATOM     90  O   UNL A   1      47.604  24.012  36.400  1.00  0.00    -0.237 OA
ATOM     91  O   UNL A   1      47.558  22.102  34.847  1.00  0.00    -0.237 OA
ATOM     92  O   UNL A   1      49.713  23.034  35.561  1.00  0.00    -0.744 OA
ENDBRANCH  86  89
ENDBRANCH  59  82
ENDBRANCH  33  34
ENDBRANCH  25  28
ENDBRANCH  23  24
ENDBRANCH  22  23
ENDBRANCH   1  22
TORSDOF 17
ENDMDL
MODEL 2
REMARK VINA RESULT:     -11.0      1.876      2.387
REMARK SMILES CCOC(=O)c1ccc(-c2ccc(C(=O)NCCCNC(=O)c3ccc(-c4c5nc(c(-c6cccc(S(=O)(=O)[O-])c6F)c6ccc([nH]6)c(-c6cccc(S(=O)(=O)[O-])c6F)c6nc(c(-c7cccc(S(=O)(=O)[O-])c7F)c7ccc4[nH]7)C=C6)C=C5)cc3)o2)cc1
REMARK SMILES IDX 17 1 16 2 14 3 15 4 13 6 10 7 11 8 86 9 12 10 9 11 6 12 7 13
REMARK SMILES IDX 88 14 8 15 87 16 4 17 5 18 3 19 2 20 1 21 18 22 19 23 20 24
REMARK SMILES IDX 21 25 22 27 23 28 24 29 85 30 25 31 84 32 26 33 27 34 28 35
REMARK SMILES IDX 78 36 29 37 83 38 77 39 79 40 30 41 82 42 76 43 75 44 31 46
REMARK SMILES IDX 63 47 43 48 62 49 44 50 47 51 61 52 80 53 45 54 46 55 60 57
REMARK SMILES IDX 81 58 48 59 32 60 33 61 41 62 34 63 36 64 42 65 35 66 37 67
REMARK SMILES IDX 38 68 39 69 40 70 64 71 65 72 73 73 66 74 68 75 74 76 67 77
REMARK SMILES IDX 69 78 70 79 71 80 72 81 49 82 50 83 58 84 51 85 53 86 59 87
REMARK SMILES IDX 52 88 54 89 55 90 56 91 57 92
REMARK H PARENT 16 5 20 26 79 45 47 56
REMARK Flexibility Score: inf
ROOT
ATOM      1  C   UNL A   1      31.436  27.787  25.527  1.00  0.00     0.118 C 
ENDROOT
BRANCH   1   2
ATOM      2  N   UNL A   1      30.696  26.757  26.230  1.00  0.00    -0.349 N 
ATOM      3  C   UNL A   1      30.555  25.410  25.987  1.00  0.00     0.287 C 
ATOM      4  O   UNL A   1      29.953  24.775  26.858  1.00  0.00    -0.266 OA
ATOM      5  H   UNL A   1      30.209  27.078  27.024  1.00  0.00     0.163 HD
BRANCH   3   6
ATOM      6  C   UNL A   1      31.100  24.787  24.793  1.00  0.00     0.192 A 
ATOM      7  C   UNL A   1      32.014  23.080  23.715  1.00  0.00     0.135 A 
ATOM      8  C   UNL A   1      31.892  24.093  22.795  1.00  0.00     0.052 A 
ATOM      9  O   UNL A   1      31.546  23.488  24.924  1.00  0.00    -0.451 OA
ATOM     10  C   UNL A   1      31.264  25.166  23.471  1.00  0.00     0.057 A 
BRANCH   7  11
ATOM     11  C   UNL A   1      32.459  21.704  23.617  1.00  0.00     0.017 A 
ATOM     12  C   UNL A   1      33.020  18.959  23.633  1.00  0.00     0.060 A 
ATOM     13  C   UNL A   1      33.475  19.771  24.676  1.00  0.00     0.016 A 
ATOM     14  C   UNL A   1      32.328  19.521  22.555  1.00  0.00     0.016 A 
ATOM     15  C   UNL A   1      33.210  21.142  24.657  1.00  0.00     0.013 A 
ATOM     16  C   UNL A   1      32.040  20.890  22.555  1.00  0.00     0.013 A 
BRANCH  12  17
ATOM     17  C   UNL A   1      33.184  17.494  23.764  1.00  0.00     0.338 C 
ATOM     18  O   UNL A   1      33.073  16.724  22.824  1.00  0.00    -0.246 OA
BRANCH  17  19
ATOM     19  O   UNL A   1      33.462  17.164  25.050  1.00  0.00    -0.462 OA
BRANCH  19  20
ATOM     20  C   UNL A   1      34.070  15.875  25.231  1.00  0.00     0.230 C 
ATOM     21  C   UNL A   1      35.564  15.978  25.492  1.00  0.00     0.049 C 
ENDBRANCH  19  20
ENDBRANCH  17  19
ENDBRANCH  12  17
ENDBRANCH   7  11
ENDBRANCH   3   6
ENDBRANCH   1   2
BRANCH   1  22
ATOM     22  C   UNL A   1      32.945  27.637  25.704  1.00  0.00     0.042 C 
BRANCH  22  23
ATOM     23  C   UNL A   1      33.464  28.188  27.033  1.00  0.00     0.118 C 
BRANCH  23  24
ATOM     24  N   UNL A   1      33.476  29.646  27.053  1.00  0.00    -0.352 N 
ATOM     25  C   UNL A   1      34.374  30.522  27.609  1.00  0.00     0.251 C 
ATOM     26  H   UNL A   1      32.717  30.071  26.592  1.00  0.00     0.163 HD
ATOM     27  O   UNL A   1      34.071  31.710  27.695  1.00  0.00    -0.269 OA
BRANCH  25  28
ATOM     28  C   UNL A   1      35.690  30.061  28.105  1.00  0.00     0.039 A 
ATOM     29  C   UNL A   1      35.790  29.602  29.423  1.00  0.00     0.014 A 
ATOM     30  C   UNL A   1      36.835  30.139  27.307  1.00  0.00     0.014 A 
ATOM     31  C   UNL A   1      37.024  29.178  29.924  1.00  0.00     0.010 A 
ATOM     32  C   UNL A   1      38.052  29.660  27.787  1.00  0.00     0.010 A 
ATOM     33  C   UNL A   1      38.161  29.182  29.102  1.00  0.00    -0.014 A 
BRANCH  33  34
ATOM     34  C   UNL A   1      39.471  28.679  29.592  1.00  0.00     0.031 A 
ATOM     35  C   UNL A   1      40.203  29.405  30.687  1.00  0.00     0.074 A 
ATOM     36  C   UNL A   1      40.047  27.627  28.979  1.00  0.00     0.049 A 
ATOM     37  N   UNL A   1      41.386  29.161  31.189  1.00  0.00    -0.248 NA
ATOM     38  C   UNL A   1      39.533  30.576  31.274  1.00  0.00     0.031 C 
ATOM     39  C   UNL A   1      39.474  26.891  27.851  1.00  0.00     0.029 A 
ATOM     40  N   UNL A   1      41.256  27.016  29.196  1.00  0.00    -0.354 N 
ATOM     41  C   UNL A   1      41.620  30.166  32.119  1.00  0.00     0.074 A 
ATOM     42  C   UNL A   1      40.466  31.040  32.094  1.00  0.00     0.031 C 
ATOM     43  C   UNL A   1      40.334  25.933  27.470  1.00  0.00     0.029 A 
ATOM     44  C   UNL A   1      41.526  26.000  28.310  1.00  0.00     0.049 A 
ATOM     45  H   UNL A   1      41.872  27.280  29.917  1.00  0.00     0.167 HD
ATOM     46  C   UNL A   1      42.684  30.334  32.941  1.00  0.00     0.034 A 
ATOM     47  C   UNL A   1      42.611  25.211  28.185  1.00  0.00     0.034 A 
ATOM     48  C   UNL A   1      43.802  29.431  33.006  1.00  0.00     0.049 A 
ATOM     49  C   UNL A   1      43.749  25.373  29.153  1.00  0.00     0.074 A 
ATOM     50  C   UNL A   1      44.878  29.453  33.876  1.00  0.00     0.029 A 
ATOM     51  N   UNL A   1      43.990  28.344  32.166  1.00  0.00    -0.354 N 
ATOM     52  N   UNL A   1      43.875  26.226  30.140  1.00  0.00    -0.248 NA
ATOM     53  C   UNL A   1      44.878  24.440  29.017  1.00  0.00     0.031 C 
ATOM     54  C   UNL A   1      45.720  28.381  33.557  1.00  0.00     0.029 A 
ATOM     55  C   UNL A   1      45.165  27.688  32.494  1.00  0.00     0.049 A 
ATOM     56  H   UNL A   1      43.378  28.077  31.443  1.00  0.00     0.167 HD
ATOM     57  C   UNL A   1      45.080  25.916  30.762  1.00  0.00     0.074 A 
ATOM     58  C   UNL A   1      45.636  24.782  30.051  1.00  0.00     0.031 C 
ATOM     59  C   UNL A   1      45.680  26.527  31.813  1.00  0.00     0.034 A 
BRANCH  46  60
ATOM     60  C   UNL A   1      42.655  31.504  33.888  1.00  0.00     0.023 A 
ATOM     61  C   UNL A   1      43.177  32.744  33.468  1.00  0.00     0.012 A 
ATOM     62  C   UNL A   1      42.077  31.396  35.167  1.00  0.00     0.148 A 
ATOM     63  C   UNL A   1      43.158  33.849  34.319  1.00  0.00     0.002 A 
ATOM     64  C   UNL A   1      42.026  32.512  35.996  1.00  0.00     0.091 A 
ATOM     65  F   UNL A   1      41.607  30.203  35.563  1.00  0.00    -0.205 F 
ATOM     66  C   UNL A   1      42.574  33.735  35.578  1.00  0.00     0.022 A 
BRANCH  64  67
ATOM     67  S   UNL A   1      41.228  32.476  37.606  1.00  0.00     0.127 S 
ATOM     68  O   UNL A   1      39.895  31.986  37.264  1.00  0.00    -0.237 OA
ATOM     69  O   UNL A   1      42.057  31.522  38.345  1.00  0.00    -0.237 OA
ATOM     70  O   UNL A   1      41.293  33.842  38.108  1.00  0.00    -0.744 OA
ENDBRANCH  64  67
ENDBRANCH  46  60
BRANCH  47  71
ATOM     71  C   UNL A   1      42.623  24.141  27.149  1.00  0.00     0.023 A 
ATOM     72  C   UNL A   1      43.352  24.345  25.962  1.00  0.00     0.012 A 
ATOM     73  C   UNL A   1      41.980  22.906  27.358  1.00  0.00     0.148 A 
ATOM     74  C   UNL A   1      43.424  23.345  24.991  1.00  0.00     0.002 A 
ATOM     75  C   UNL A   1      42.100  21.895  26.411  1.00  0.00     0.091 A 
ATOM     76  F   UNL A   1      41.281  22.737  28.490  1.00  0.00    -0.205 F 
ATOM     77  C   UNL A   1      42.810  22.117  25.221  1.00  0.00     0.022 A 
BRANCH  75  78
ATOM     78  S   UNL A   1      41.460  20.238  26.685  1.00  0.00     0.127 S 
ATOM     79  O   UNL A   1      42.307  19.767  27.778  1.00  0.00    -0.237 OA
ATOM     80  O   UNL A   1      40.070  20.508  27.054  1.00  0.00    -0.237 OA
ATOM     81  O   UNL A   1      41.617  19.543  25.414  1.00  0.00    -0.744 OA
ENDBRANCH  75  78
ENDBRANCH  47  71
BRANCH  59  82
ATOM     82  C   UNL A   1      47.002  25.978  32.278  1.00  0.00     0.023 A 
ATOM     83  C   UNL A   1      47.039  25.099  33.378  1.00  0.00     0.012 A 
ATOM     84  C   UNL A   1      48.192  26.266  31.581  1.00  0.00     0.148 A 
ATOM     85  C   UNL A   1      48.243  24.533  33.792  1.00  0.00     0.002 A 
ATOM     86  C   UNL A   1      49.383  25.665  31.975  1.00  0.00     0.091 A 
ATOM     87  F   UNL A   1      48.140  27.123  30.551  1.00  0.00    -0.205 F 
ATOM     88  C   UNL A   1      49.412  24.805  33.084  1.00  0.00     0.022 A 
BRANCH  86  89
ATOM     89  S   UNL A   1      50.914  25.893  31.063  1.00  0.00     0.127 S 
ATOM     90  O   UNL A   1      51.162  27.322  31.248  1.00  0.00    -0.237 OA
ATOM     91  O   UNL A   1      51.842  25.016  31.779  1.00  0.00    -0.237 OA
ATOM     92  O   UNL A   1      50.627  25.474  29.697  1.00  0.00    -0.744 OA
ENDBRANCH  86  89
ENDBRANCH  59  82
ENDBRANCH  33  34
ENDBRANCH  25  28
ENDBRANCH  23  24
ENDBRANCH  22  23
ENDBRANCH   1  22
TORSDOF 17
ENDMDL
MODEL 3
REMARK VINA RESULT:     -11.0      2.400      8.205
REMARK SMILES CCOC(=O)c1ccc(-c2ccc(C(=O)NCCCNC(=O)c3ccc(-c4c5nc(c(-c6cccc(S(=O)(=O)[O-])c6F)c6ccc([nH]6)c(-c6cccc(S(=O)(=O)[O-])c6F)c6nc(c(-c7cccc(S(=O)(=O)[O-])c7F)c7ccc4[nH]7)C=C6)C=C5)cc3)o2)cc1
REMARK SMILES IDX 17 1 16 2 14 3 15 4 13 6 10 7 11 8 86 9 12 10 9 11 6 12 7 13
REMARK SMILES IDX 88 14 8 15 87 16 4 17 5 18 3 19 2 20 1 21 18 22 19 23 20 24
REMARK SMILES IDX 21 25 22 27 23 28 24 29 85 30 25 31 84 32 26 33 27 34 28 35
REMARK SMILES IDX 78 36 29 37 83 38 77 39 79 40 30 41 82 42 76 43 75 44 31 46
REMARK SMILES IDX 63 47 43 48 62 49 44 50 47 51 61 52 80 53 45 54 46 55 60 57
REMARK SMILES IDX 81 58 48 59 32 60 33 61 41 62 34 63 36 64 42 65 35 66 37 67
REMARK SMILES IDX 38 68 39 69 40 70 64 71 65 72 73 73 66 74 68 75 74 76 67 77
REMARK SMILES IDX 69 78 70 79 71 80 72 81 49 82 50 83 58 84 51 85 53 86 59 87
REMARK SMILES IDX 52 88 54 89 55 90 56 91 57 92
REMARK H PARENT 16 5 20 26 79 45 47 56
REMARK Flexibility Score: inf
ROOT
ATOM      1  C   UNL A   1      31.780  27.072  24.940  1.00  0.00     0.118 C 
ENDROOT
BRANCH   1   2
ATOM      2  N   UNL A   1      30.814  26.189  25.564  1.00  0.00    -0.349 N 
ATOM      3  C   UNL A   1      30.950  24.942  26.129  1.00  0.00     0.287 C 
ATOM      4  O   UNL A   1      29.946  24.505  26.698  1.00  0.00    -0.266 OA
ATOM      5  H   UNL A   1      29.896  26.546  25.588  1.00  0.00     0.163 HD
BRANCH   3   6
ATOM      6  C   UNL A   1      32.204  24.210  26.073  1.00  0.00     0.192 A 
ATOM      7  C   UNL A   1      33.405  22.412  25.590  1.00  0.00     0.135 A 
ATOM      8  C   UNL A   1      34.283  23.329  26.116  1.00  0.00     0.052 A 
ATOM      9  O   UNL A   1      32.149  22.929  25.563  1.00  0.00    -0.451 OA
ATOM     10  C   UNL A   1      33.525  24.494  26.381  1.00  0.00     0.057 A 
BRANCH   7  11
ATOM     11  C   UNL A   1      33.580  21.092  25.017  1.00  0.00     0.017 A 
ATOM     12  C   UNL A   1      33.902  18.413  24.260  1.00  0.00     0.060 A 
ATOM     13  C   UNL A   1      35.016  19.174  24.626  1.00  0.00     0.016 A 
ATOM     14  C   UNL A   1      32.631  18.999  24.223  1.00  0.00     0.016 A 
ATOM     15  C   UNL A   1      34.856  20.514  24.985  1.00  0.00     0.013 A 
ATOM     16  C   UNL A   1      32.473  20.333  24.612  1.00  0.00     0.013 A 
BRANCH  12  17
ATOM     17  C   UNL A   1      34.087  16.962  24.037  1.00  0.00     0.338 C 
ATOM     18  O   UNL A   1      34.054  16.449  22.931  1.00  0.00    -0.246 OA
BRANCH  17  19
ATOM     19  O   UNL A   1      34.286  16.325  25.217  1.00  0.00    -0.462 OA
BRANCH  19  20
ATOM     20  C   UNL A   1      33.590  15.078  25.363  1.00  0.00     0.230 C 
ATOM     21  C   UNL A   1      32.142  15.275  25.780  1.00  0.00     0.049 C 
ENDBRANCH  19  20
ENDBRANCH  17  19
ENDBRANCH  12  17
ENDBRANCH   7  11
ENDBRANCH   3   6
ENDBRANCH   1   2
BRANCH   1  22
ATOM     22  C   UNL A   1      32.572  27.880  25.966  1.00  0.00     0.042 C 
BRANCH  22  23
ATOM     23  C   UNL A   1      33.349  29.048  25.357  1.00  0.00     0.118 C 
BRANCH  23  24
ATOM     24  N   UNL A   1      32.852  30.337  25.823  1.00  0.00    -0.352 N 
ATOM     25  C   UNL A   1      33.247  31.112  26.884  1.00  0.00     0.251 C 
ATOM     26  H   UNL A   1      32.115  30.712  25.290  1.00  0.00     0.163 HD
ATOM     27  O   UNL A   1      32.541  32.060  27.223  1.00  0.00    -0.269 OA
BRANCH  25  28
ATOM     28  C   UNL A   1      34.497  30.826  27.622  1.00  0.00     0.039 A 
ATOM     29  C   UNL A   1      35.484  31.815  27.684  1.00  0.00     0.014 A 
ATOM     30  C   UNL A   1      34.732  29.572  28.193  1.00  0.00     0.014 A 
ATOM     31  C   UNL A   1      36.683  31.566  28.359  1.00  0.00     0.010 A 
ATOM     32  C   UNL A   1      35.901  29.345  28.917  1.00  0.00     0.010 A 
ATOM     33  C   UNL A   1      36.892  30.335  29.000  1.00  0.00    -0.014 A 
BRANCH  33  34
ATOM     34  C   UNL A   1      38.131  30.068  29.774  1.00  0.00     0.031 A 
ATOM     35  C   UNL A   1      39.166  29.111  29.248  1.00  0.00     0.074 A 
ATOM     36  C   UNL A   1      38.276  30.610  30.999  1.00  0.00     0.049 A 
ATOM     37  N   UNL A   1      40.269  28.697  29.816  1.00  0.00    -0.248 NA
ATOM     38  C   UNL A   1      38.914  28.520  27.924  1.00  0.00     0.031 C 
ATOM     39  C   UNL A   1      37.304  31.486  31.654  1.00  0.00     0.029 A 
ATOM     40  N   UNL A   1      39.280  30.475  31.925  1.00  0.00    -0.354 N 
ATOM     41  C   UNL A   1      40.822  27.769  28.941  1.00  0.00     0.074 A 
ATOM     42  C   UNL A   1      39.919  27.662  27.815  1.00  0.00     0.031 C 
ATOM     43  C   UNL A   1      37.755  31.805  32.877  1.00  0.00     0.029 A 
ATOM     44  C   UNL A   1      39.035  31.141  33.103  1.00  0.00     0.049 A 
ATOM     45  H   UNL A   1      40.098  29.952  31.761  1.00  0.00     0.167 HD
ATOM     46  C   UNL A   1      41.988  27.088  29.050  1.00  0.00     0.034 A 
ATOM     47  C   UNL A   1      39.757  31.207  34.239  1.00  0.00     0.034 A 
ATOM     48  C   UNL A   1      42.912  27.241  30.142  1.00  0.00     0.049 A 
ATOM     49  C   UNL A   1      41.080  30.497  34.308  1.00  0.00     0.074 A 
ATOM     50  C   UNL A   1      44.167  26.679  30.294  1.00  0.00     0.029 A 
ATOM     51  N   UNL A   1      42.681  28.013  31.271  1.00  0.00    -0.354 N 
ATOM     52  N   UNL A   1      41.667  29.759  33.398  1.00  0.00    -0.248 NA
ATOM     53  C   UNL A   1      41.860  30.660  35.544  1.00  0.00     0.031 C 
ATOM     54  C   UNL A   1      44.692  27.105  31.519  1.00  0.00     0.029 A 
ATOM     55  C   UNL A   1      43.767  27.939  32.126  1.00  0.00     0.049 A 
ATOM     56  H   UNL A   1      41.864  28.536  31.439  1.00  0.00     0.167 HD
ATOM     57  C   UNL A   1      42.895  29.392  33.936  1.00  0.00     0.074 A 
ATOM     58  C   UNL A   1      42.977  30.009  35.244  1.00  0.00     0.031 C 
ATOM     59  C   UNL A   1      43.859  28.602  33.403  1.00  0.00     0.034 A 
BRANCH  46  60
ATOM     60  C   UNL A   1      42.364  26.166  27.921  1.00  0.00     0.023 A 
ATOM     61  C   UNL A   1      43.264  26.615  26.933  1.00  0.00     0.012 A 
ATOM     62  C   UNL A   1      41.869  24.849  27.856  1.00  0.00     0.148 A 
ATOM     63  C   UNL A   1      43.637  25.783  25.879  1.00  0.00     0.002 A 
ATOM     64  C   UNL A   1      42.276  24.011  26.822  1.00  0.00     0.091 A 
ATOM     65  F   UNL A   1      40.993  24.444  28.787  1.00  0.00    -0.205 F 
ATOM     66  C   UNL A   1      43.151  24.479  25.829  1.00  0.00     0.022 A 
BRANCH  64  67
ATOM     67  S   UNL A   1      41.756  22.294  26.719  1.00  0.00     0.127 S 
ATOM     68  O   UNL A   1      40.308  22.414  26.872  1.00  0.00    -0.237 OA
ATOM     69  O   UNL A   1      42.197  21.912  25.377  1.00  0.00    -0.237 OA
ATOM     70  O   UNL A   1      42.453  21.608  27.799  1.00  0.00    -0.744 OA
ENDBRANCH  64  67
ENDBRANCH  46  60
BRANCH  47  71
ATOM     71  C   UNL A   1      39.272  32.050  35.366  1.00  0.00     0.023 A 
ATOM     72  C   UNL A   1      38.386  31.492  36.308  1.00  0.00     0.012 A 
ATOM     73  C   UNL A   1      39.730  33.369  35.550  1.00  0.00     0.148 A 
ATOM     74  C   UNL A   1      37.949  32.238  37.403  1.00  0.00     0.002 A 
ATOM     75  C   UNL A   1      39.333  34.089  36.672  1.00  0.00     0.091 A 
ATOM     76  F   UNL A   1      40.564  33.886  34.636  1.00  0.00    -0.205 F 
ATOM     77  C   UNL A   1      38.432  33.531  37.592  1.00  0.00     0.022 A 
BRANCH  75  78
ATOM     78  S   UNL A   1      40.012  35.705  37.068  1.00  0.00     0.127 S 
ATOM     79  O   UNL A   1      39.733  36.455  35.846  1.00  0.00    -0.237 OA
ATOM     80  O   UNL A   1      39.211  36.094  38.229  1.00  0.00    -0.237 OA
ATOM     81  O   UNL A   1      41.420  35.474  37.366  1.00  0.00    -0.744 OA
ENDBRANCH  75  78
ENDBRANCH  47  71
BRANCH  59  82
ATOM     82  C   UNL A   1      45.100  28.366  34.221  1.00  0.00     0.023 A 
ATOM     83  C   UNL A   1      46.191  29.248  34.095  1.00  0.00     0.012 A 
ATOM     84  C   UNL A   1      45.156  27.325  35.169  1.00  0.00     0.148 A 
ATOM     85  C   UNL A   1      47.329  29.083  34.884  1.00  0.00     0.002 A 
ATOM     86  C   UNL A   1      46.278  27.192  35.979  1.00  0.00     0.091 A 
ATOM     87  F   UNL A   1      44.117  26.481  35.256  1.00  0.00    -0.205 F 
ATOM     88  C   UNL A   1      47.367  28.065  35.833  1.00  0.00     0.022 A 
BRANCH  86  89
ATOM     89  S   UNL A   1      46.370  25.962  37.286  1.00  0.00     0.127 S 
ATOM     90  O   UNL A   1      45.761  26.673  38.409  1.00  0.00    -0.237 OA
ATOM     91  O   UNL A   1      45.563  24.867  36.747  1.00  0.00    -0.237 OA
ATOM     92  O   UNL A   1      47.786  25.647  37.433  1.00  0.00    -0.744 OA
ENDBRANCH  86  89
ENDBRANCH  59  82
ENDBRANCH  33  34
ENDBRANCH  25  28
ENDBRANCH  23  24
ENDBRANCH  22  23
ENDBRANCH   1  22
TORSDOF 17
ENDMDL
