MODEL 1
REMARK VINA RESULT:      -9.5      0.000      0.000
REMARK SMILES CCC(CC)(C[C@H](O)COC)C(=O)NCCCNC(=O)c1ccc(-c2c3nc(c(-c4cccc(S(=O)(=O)[O-])c4F)c4ccc([nH]4)c(-c4cccc(S(=O)(=O)[O-])c4F)c4nc(c(-c5cccc(S(=O)(=O)[O-])c5F)c5ccc2[nH]5)C=C4)C=C3)cc1
REMARK SMILES IDX 15 1 14 2 12 3 13 4 3 6 2 7 1 8 4 9 5 10 6 11 7 12 9 13
REMARK SMILES IDX 10 14 11 15 8 16 16 18 17 19 18 20 19 21 20 23 21 24 22 25
REMARK SMILES IDX 83 26 23 27 82 28 24 29 25 30 26 31 76 32 27 33 81 34 75 35
REMARK SMILES IDX 77 36 28 37 80 38 74 39 73 40 29 42 61 43 41 44 60 45 42 46
REMARK SMILES IDX 45 47 59 48 78 49 43 50 44 51 58 53 79 54 46 55 30 56 31 57
REMARK SMILES IDX 39 58 32 59 34 60 40 61 33 62 35 63 36 64 37 65 38 66 62 67
REMARK SMILES IDX 63 68 71 69 64 70 66 71 72 72 65 73 67 74 68 75 69 76 70 77
REMARK SMILES IDX 47 78 48 79 56 80 49 81 51 82 57 83 50 84 52 85 53 86 54 87
REMARK SMILES IDX 55 88
REMARK H PARENT 14 5 8 17 18 22 77 41 45 52
REMARK Flexibility Score: inf
ROOT
ATOM      1  C   UNL A   1      33.184  22.639  26.239  1.00  0.00     0.117 C 
ENDROOT
BRANCH   1   2
ATOM      2  N   UNL A   1      33.554  24.026  25.990  1.00  0.00    -0.356 N 
ATOM      3  C   UNL A   1      33.459  24.848  24.911  1.00  0.00     0.226 C 
ATOM      4  O   UNL A   1      33.919  25.984  25.074  1.00  0.00    -0.274 OA
ATOM      5  H   UNL A   1      33.963  24.462  26.771  1.00  0.00     0.163 HD
BRANCH   3   6
ATOM      6  C   UNL A   1      32.854  24.403  23.554  1.00  0.00     0.051 C 
BRANCH   6   7
ATOM      7  C   UNL A   1      33.392  22.974  23.183  1.00  0.00     0.013 C 
ATOM      8  C   UNL A   1      32.400  21.999  22.555  1.00  0.00     0.005 C 
ENDBRANCH   6   7
BRANCH   6   9
ATOM      9  C   UNL A   1      33.286  25.415  22.448  1.00  0.00     0.013 C 
ATOM     10  C   UNL A   1      32.261  25.690  21.355  1.00  0.00     0.005 C 
ENDBRANCH   6   9
BRANCH   6  11
ATOM     11  C   UNL A   1      31.296  24.312  23.738  1.00  0.00     0.051 C 
BRANCH  11  12
ATOM     12  C   UNL A   1      30.733  25.292  24.793  1.00  0.00     0.141 C 
BRANCH  12  13
ATOM     13  C   UNL A   1      30.010  26.494  24.166  1.00  0.00     0.191 C 
BRANCH  13  14
ATOM     14  O   UNL A   1      30.889  27.619  24.044  1.00  0.00    -0.382 OA
ATOM     15  C   UNL A   1      30.362  28.680  23.260  1.00  0.00     0.195 C 
ENDBRANCH  13  14
ENDBRANCH  12  13
BRANCH  12  16
ATOM     16  O   UNL A   1      29.823  24.546  25.613  1.00  0.00    -0.391 OA
ATOM     17  H   UNL A   1      28.927  24.902  25.507  1.00  0.00     0.211 HD
ENDBRANCH  12  16
ENDBRANCH  11  12
ENDBRANCH   6  11
ENDBRANCH   3   6
ENDBRANCH   1   2
BRANCH   1  18
ATOM     18  C   UNL A   1      34.369  21.779  26.651  1.00  0.00     0.042 C 
BRANCH  18  19
ATOM     19  C   UNL A   1      35.720  22.414  26.373  1.00  0.00     0.118 C 
BRANCH  19  20
ATOM     20  N   UNL A   1      36.697  21.449  25.885  1.00  0.00    -0.352 N 
ATOM     21  C   UNL A   1      38.059  21.580  25.751  1.00  0.00     0.251 C 
ATOM     22  H   UNL A   1      36.329  20.578  25.609  1.00  0.00     0.163 HD
ATOM     23  O   UNL A   1      38.698  20.743  25.118  1.00  0.00    -0.269 OA
BRANCH  21  24
ATOM     24  C   UNL A   1      38.746  22.741  26.357  1.00  0.00     0.039 A 
ATOM     25  C   UNL A   1      39.849  22.529  27.189  1.00  0.00     0.014 A 
ATOM     26  C   UNL A   1      38.312  24.039  26.084  1.00  0.00     0.014 A 
ATOM     27  C   UNL A   1      40.563  23.624  27.680  1.00  0.00     0.010 A 
ATOM     28  C   UNL A   1      39.079  25.122  26.493  1.00  0.00     0.010 A 
ATOM     29  C   UNL A   1      40.210  24.929  27.300  1.00  0.00    -0.014 A 
BRANCH  29  30
ATOM     30  C   UNL A   1      40.998  26.115  27.722  1.00  0.00     0.031 A 
ATOM     31  C   UNL A   1      40.327  27.226  28.484  1.00  0.00     0.074 A 
ATOM     32  C   UNL A   1      42.278  26.247  27.318  1.00  0.00     0.049 A 
ATOM     33  N   UNL A   1      40.801  28.397  28.824  1.00  0.00    -0.248 NA
ATOM     34  C   UNL A   1      38.928  27.007  28.889  1.00  0.00     0.031 C 
ATOM     35  C   UNL A   1      43.019  25.271  26.516  1.00  0.00     0.029 A 
ATOM     36  N   UNL A   1      43.171  27.276  27.493  1.00  0.00    -0.354 N 
ATOM     37  C   UNL A   1      39.750  29.067  29.438  1.00  0.00     0.074 A 
ATOM     38  C   UNL A   1      38.604  28.186  29.396  1.00  0.00     0.031 C 
ATOM     39  C   UNL A   1      44.249  25.747  26.267  1.00  0.00     0.029 A 
ATOM     40  C   UNL A   1      44.372  27.079  26.851  1.00  0.00     0.049 A 
ATOM     41  H   UNL A   1      42.970  28.078  28.028  1.00  0.00     0.167 HD
ATOM     42  C   UNL A   1      39.744  30.295  30.006  1.00  0.00     0.034 A 
ATOM     43  C   UNL A   1      45.443  27.888  26.728  1.00  0.00     0.034 A 
ATOM     44  C   UNL A   1      40.897  31.150  30.083  1.00  0.00     0.049 A 
ATOM     45  C   UNL A   1      45.420  29.238  27.392  1.00  0.00     0.074 A 
ATOM     46  C   UNL A   1      41.019  32.373  30.716  1.00  0.00     0.029 A 
ATOM     47  N   UNL A   1      42.123  30.875  29.499  1.00  0.00    -0.354 N 
ATOM     48  N   UNL A   1      44.464  29.795  28.094  1.00  0.00    -0.248 NA
ATOM     49  C   UNL A   1      46.634  30.061  27.276  1.00  0.00     0.031 C 
ATOM     50  C   UNL A   1      42.312  32.854  30.488  1.00  0.00     0.029 A 
ATOM     51  C   UNL A   1      43.007  31.911  29.747  1.00  0.00     0.049 A 
ATOM     52  H   UNL A   1      42.336  30.063  28.984  1.00  0.00     0.167 HD
ATOM     53  C   UNL A   1      44.974  31.009  28.542  1.00  0.00     0.074 A 
ATOM     54  C   UNL A   1      46.329  31.102  28.038  1.00  0.00     0.031 C 
ATOM     55  C   UNL A   1      44.372  31.962  29.294  1.00  0.00     0.034 A 
BRANCH  42  56
ATOM     56  C   UNL A   1      38.459  30.774  30.632  1.00  0.00     0.023 A 
ATOM     57  C   UNL A   1      38.235  30.574  32.009  1.00  0.00     0.012 A 
ATOM     58  C   UNL A   1      37.503  31.477  29.872  1.00  0.00     0.148 A 
ATOM     59  C   UNL A   1      37.064  31.029  32.613  1.00  0.00     0.002 A 
ATOM     60  C   UNL A   1      36.362  31.972  30.492  1.00  0.00     0.091 A 
ATOM     61  F   UNL A   1      37.724  31.643  28.561  1.00  0.00    -0.205 F 
ATOM     62  C   UNL A   1      36.133  31.737  31.858  1.00  0.00     0.022 A 
BRANCH  60  63
ATOM     63  S   UNL A   1      35.143  32.968  29.627  1.00  0.00     0.127 S 
ATOM     64  O   UNL A   1      34.676  32.038  28.600  1.00  0.00    -0.237 OA
ATOM     65  O   UNL A   1      34.170  33.248  30.684  1.00  0.00    -0.237 OA
ATOM     66  O   UNL A   1      35.857  34.137  29.132  1.00  0.00    -0.744 OA
ENDBRANCH  60  63
ENDBRANCH  42  56
BRANCH  43  67
ATOM     67  C   UNL A   1      46.650  27.420  25.987  1.00  0.00     0.023 A 
ATOM     68  C   UNL A   1      46.745  27.654  24.602  1.00  0.00     0.012 A 
ATOM     69  C   UNL A   1      47.712  26.771  26.648  1.00  0.00     0.148 A 
ATOM     70  C   UNL A   1      47.857  27.218  23.881  1.00  0.00     0.002 A 
ATOM     71  C   UNL A   1      48.841  26.389  25.934  1.00  0.00     0.091 A 
ATOM     72  F   UNL A   1      47.600  26.550  27.966  1.00  0.00    -0.205 F 
ATOM     73  C   UNL A   1      48.908  26.594  24.547  1.00  0.00     0.022 A 
BRANCH  71  74
ATOM     74  S   UNL A   1      50.298  25.701  26.727  1.00  0.00     0.127 S 
ATOM     75  O   UNL A   1      51.218  25.567  25.601  1.00  0.00    -0.237 OA
ATOM     76  O   UNL A   1      50.645  26.751  27.686  1.00  0.00    -0.237 OA
ATOM     77  O   UNL A   1      49.861  24.452  27.338  1.00  0.00    -0.744 OA
ENDBRANCH  71  74
ENDBRANCH  43  67
BRANCH  55  78
ATOM     78  C   UNL A   1      45.181  33.171  29.684  1.00  0.00     0.023 A 
ATOM     79  C   UNL A   1      45.974  33.145  30.847  1.00  0.00     0.012 A 
ATOM     80  C   UNL A   1      45.234  34.292  28.832  1.00  0.00     0.148 A 
ATOM     81  C   UNL A   1      46.793  34.227  31.167  1.00  0.00     0.002 A 
ATOM     82  C   UNL A   1      46.089  35.344  29.130  1.00  0.00     0.091 A 
ATOM     83  F   UNL A   1      44.455  34.300  27.739  1.00  0.00    -0.205 F 
ATOM     84  C   UNL A   1      46.862  35.319  30.302  1.00  0.00     0.022 A 
BRANCH  82  85
ATOM     85  S   UNL A   1      46.321  36.741  28.026  1.00  0.00     0.127 S 
ATOM     86  O   UNL A   1      47.388  37.480  28.700  1.00  0.00    -0.237 OA
ATOM     87  O   UNL A   1      46.725  36.087  26.781  1.00  0.00    -0.237 OA
ATOM     88  O   UNL A   1      45.037  37.426  27.962  1.00  0.00    -0.744 OA
ENDBRANCH  82  85
ENDBRANCH  55  78
ENDBRANCH  29  30
ENDBRANCH  21  24
ENDBRANCH  19  20
ENDBRANCH  18  19
ENDBRANCH   1  18
TORSDOF 20
ENDMDL
MODEL 2
REMARK VINA RESULT:      -9.5      2.830      8.554
REMARK SMILES CCC(CC)(C[C@H](O)COC)C(=O)NCCCNC(=O)c1ccc(-c2c3nc(c(-c4cccc(S(=O)(=O)[O-])c4F)c4ccc([nH]4)c(-c4cccc(S(=O)(=O)[O-])c4F)c4nc(c(-c5cccc(S(=O)(=O)[O-])c5F)c5ccc2[nH]5)C=C4)C=C3)cc1
REMARK SMILES IDX 15 1 14 2 12 3 13 4 3 6 2 7 1 8 4 9 5 10 6 11 7 12 9 13
REMARK SMILES IDX 10 14 11 15 8 16 16 18 17 19 18 20 19 21 20 23 21 24 22 25
REMARK SMILES IDX 83 26 23 27 82 28 24 29 25 30 26 31 76 32 27 33 81 34 75 35
REMARK SMILES IDX 77 36 28 37 80 38 74 39 73 40 29 42 61 43 41 44 60 45 42 46
REMARK SMILES IDX 45 47 59 48 78 49 43 50 44 51 58 53 79 54 46 55 30 56 31 57
REMARK SMILES IDX 39 58 32 59 34 60 40 61 33 62 35 63 36 64 37 65 38 66 62 67
REMARK SMILES IDX 63 68 71 69 64 70 66 71 72 72 65 73 67 74 68 75 69 76 70 77
REMARK SMILES IDX 47 78 48 79 56 80 49 81 51 82 57 83 50 84 52 85 53 86 54 87
REMARK SMILES IDX 55 88
REMARK H PARENT 14 5 8 17 18 22 77 41 45 52
REMARK Flexibility Score: inf
ROOT
ATOM      1  C   UNL A   1      35.720  22.273  24.258  1.00  0.00     0.117 C 
ENDROOT
BRANCH   1   2
ATOM      2  N   UNL A   1      34.450  22.581  23.615  1.00  0.00    -0.356 N 
ATOM      3  C   UNL A   1      33.153  22.548  24.023  1.00  0.00     0.226 C 
ATOM      4  O   UNL A   1      32.323  22.861  23.163  1.00  0.00    -0.274 OA
ATOM      5  H   UNL A   1      34.552  22.875  22.681  1.00  0.00     0.163 HD
BRANCH   3   6
ATOM      6  C   UNL A   1      32.722  22.118  25.450  1.00  0.00     0.051 C 
BRANCH   6   7
ATOM      7  C   UNL A   1      33.508  22.968  26.513  1.00  0.00     0.013 C 
ATOM      8  C   UNL A   1      34.200  22.203  27.639  1.00  0.00     0.005 C 
ENDBRANCH   6   7
BRANCH   6   9
ATOM      9  C   UNL A   1      33.061  20.609  25.649  1.00  0.00     0.013 C 
ATOM     10  C   UNL A   1      32.497  19.652  24.606  1.00  0.00     0.005 C 
ENDBRANCH   6   9
BRANCH   6  11
ATOM     11  C   UNL A   1      31.190  22.435  25.598  1.00  0.00     0.051 C 
BRANCH  11  12
ATOM     12  C   UNL A   1      30.870  23.472  26.699  1.00  0.00     0.141 C 
BRANCH  12  13
ATOM     13  C   UNL A   1      30.207  24.743  26.148  1.00  0.00     0.191 C 
BRANCH  13  14
ATOM     14  O   UNL A   1      30.833  25.166  24.930  1.00  0.00    -0.382 OA
ATOM     15  C   UNL A   1      31.024  26.571  24.839  1.00  0.00     0.195 C 
ENDBRANCH  13  14
ENDBRANCH  12  13
BRANCH  12  16
ATOM     16  O   UNL A   1      29.995  22.829  27.637  1.00  0.00    -0.391 OA
ATOM     17  H   UNL A   1      29.086  22.854  27.299  1.00  0.00     0.211 HD
ENDBRANCH  12  16
ENDBRANCH  11  12
ENDBRANCH   6  11
ENDBRANCH   3   6
ENDBRANCH   1   2
BRANCH   1  18
ATOM     18  C   UNL A   1      36.587  23.504  24.467  1.00  0.00     0.042 C 
BRANCH  18  19
ATOM     19  C   UNL A   1      37.198  23.601  25.855  1.00  0.00     0.118 C 
BRANCH  19  20
ATOM     20  N   UNL A   1      38.144  22.523  26.121  1.00  0.00    -0.352 N 
ATOM     21  C   UNL A   1      39.459  22.597  26.513  1.00  0.00     0.251 C 
ATOM     22  H   UNL A   1      37.790  21.613  26.001  1.00  0.00     0.163 HD
ATOM     23  O   UNL A   1      40.167  21.592  26.478  1.00  0.00    -0.269 OA
BRANCH  21  24
ATOM     24  C   UNL A   1      40.020  23.890  26.957  1.00  0.00     0.039 A 
ATOM     25  C   UNL A   1      40.221  24.909  26.022  1.00  0.00     0.014 A 
ATOM     26  C   UNL A   1      40.326  24.102  28.303  1.00  0.00     0.014 A 
ATOM     27  C   UNL A   1      40.654  26.166  26.453  1.00  0.00     0.010 A 
ATOM     28  C   UNL A   1      40.663  25.376  28.740  1.00  0.00     0.010 A 
ATOM     29  C   UNL A   1      40.836  26.422  27.822  1.00  0.00    -0.014 A 
BRANCH  29  30
ATOM     30  C   UNL A   1      41.203  27.768  28.331  1.00  0.00     0.031 A 
ATOM     31  C   UNL A   1      42.653  28.126  28.520  1.00  0.00     0.074 A 
ATOM     32  C   UNL A   1      40.237  28.618  28.735  1.00  0.00     0.049 A 
ATOM     33  N   UNL A   1      43.174  29.189  29.075  1.00  0.00    -0.248 NA
ATOM     34  C   UNL A   1      43.648  27.145  28.055  1.00  0.00     0.031 C 
ATOM     35  C   UNL A   1      38.797  28.358  28.667  1.00  0.00     0.029 A 
ATOM     36  N   UNL A   1      40.322  29.858  29.319  1.00  0.00    -0.354 N 
ATOM     37  C   UNL A   1      44.549  28.984  29.067  1.00  0.00     0.074 A 
ATOM     38  C   UNL A   1      44.780  27.683  28.482  1.00  0.00     0.031 C 
ATOM     39  C   UNL A   1      38.136  29.403  29.191  1.00  0.00     0.029 A 
ATOM     40  C   UNL A   1      39.101  30.386  29.672  1.00  0.00     0.049 A 
ATOM     41  H   UNL A   1      41.176  30.325  29.471  1.00  0.00     0.167 HD
ATOM     42  C   UNL A   1      45.532  29.814  29.487  1.00  0.00     0.034 A 
ATOM     43  C   UNL A   1      38.794  31.523  30.327  1.00  0.00     0.034 A 
ATOM     44  C   UNL A   1      45.299  31.125  30.029  1.00  0.00     0.049 A 
ATOM     45  C   UNL A   1      39.906  32.441  30.760  1.00  0.00     0.074 A 
ATOM     46  C   UNL A   1      46.229  32.079  30.400  1.00  0.00     0.029 A 
ATOM     47  N   UNL A   1      44.048  31.662  30.286  1.00  0.00    -0.354 N 
ATOM     48  N   UNL A   1      41.200  32.295  30.611  1.00  0.00    -0.248 NA
ATOM     49  C   UNL A   1      39.517  33.696  31.421  1.00  0.00     0.031 C 
ATOM     50  C   UNL A   1      45.540  33.182  30.911  1.00  0.00     0.029 A 
ATOM     51  C   UNL A   1      44.180  32.931  30.821  1.00  0.00     0.049 A 
ATOM     52  H   UNL A   1      43.191  31.209  30.113  1.00  0.00     0.167 HD
ATOM     53  C   UNL A   1      41.776  33.454  31.117  1.00  0.00     0.074 A 
ATOM     54  C   UNL A   1      40.689  34.298  31.568  1.00  0.00     0.031 C 
ATOM     55  C   UNL A   1      43.087  33.785  31.207  1.00  0.00     0.034 A 
BRANCH  42  56
ATOM     56  C   UNL A   1      46.957  29.348  29.337  1.00  0.00     0.023 A 
ATOM     57  C   UNL A   1      47.575  28.640  30.388  1.00  0.00     0.012 A 
ATOM     58  C   UNL A   1      47.663  29.554  28.136  1.00  0.00     0.148 A 
ATOM     59  C   UNL A   1      48.884  28.179  30.263  1.00  0.00     0.002 A 
ATOM     60  C   UNL A   1      48.951  29.049  28.000  1.00  0.00     0.091 A 
ATOM     61  F   UNL A   1      47.068  30.246  27.154  1.00  0.00    -0.205 F 
ATOM     62  C   UNL A   1      49.568  28.374  29.065  1.00  0.00     0.022 A 
BRANCH  60  63
ATOM     63  S   UNL A   1      49.884  29.172  26.470  1.00  0.00     0.127 S 
ATOM     64  O   UNL A   1      51.077  28.389  26.787  1.00  0.00    -0.237 OA
ATOM     65  O   UNL A   1      48.979  28.541  25.507  1.00  0.00    -0.237 OA
ATOM     66  O   UNL A   1      50.110  30.594  26.250  1.00  0.00    -0.744 OA
ENDBRANCH  60  63
ENDBRANCH  42  56
BRANCH  43  67
ATOM     67  C   UNL A   1      37.368  31.884  30.568  1.00  0.00     0.023 A 
ATOM     68  C   UNL A   1      36.781  31.591  31.814  1.00  0.00     0.012 A 
ATOM     69  C   UNL A   1      36.598  32.535  29.583  1.00  0.00     0.148 A 
ATOM     70  C   UNL A   1      35.445  31.907  32.064  1.00  0.00     0.002 A 
ATOM     71  C   UNL A   1      35.285  32.897  29.858  1.00  0.00     0.091 A 
ATOM     72  F   UNL A   1      37.171  32.797  28.400  1.00  0.00    -0.205 F 
ATOM     73  C   UNL A   1      34.700  32.568  31.091  1.00  0.00     0.022 A 
BRANCH  71  74
ATOM     74  S   UNL A   1      34.291  33.866  28.718  1.00  0.00     0.127 S 
ATOM     75  O   UNL A   1      33.967  32.880  27.690  1.00  0.00    -0.237 OA
ATOM     76  O   UNL A   1      33.167  34.268  29.563  1.00  0.00    -0.237 OA
ATOM     77  O   UNL A   1      35.143  34.967  28.290  1.00  0.00    -0.744 OA
ENDBRANCH  71  74
ENDBRANCH  43  67
BRANCH  55  78
ATOM     78  C   UNL A   1      43.438  35.144  31.755  1.00  0.00     0.023 A 
ATOM     79  C   UNL A   1      43.706  36.212  30.879  1.00  0.00     0.012 A 
ATOM     80  C   UNL A   1      43.393  35.379  33.144  1.00  0.00     0.148 A 
ATOM     81  C   UNL A   1      43.944  37.492  31.378  1.00  0.00     0.002 A 
ATOM     82  C   UNL A   1      43.581  36.666  33.630  1.00  0.00     0.091 A 
ATOM     83  F   UNL A   1      43.153  34.342  33.960  1.00  0.00    -0.205 F 
ATOM     84  C   UNL A   1      43.867  37.722  32.751  1.00  0.00     0.022 A 
BRANCH  82  85
ATOM     85  S   UNL A   1      43.399  37.076  35.370  1.00  0.00     0.127 S 
ATOM     86  O   UNL A   1      43.733  38.499  35.377  1.00  0.00    -0.237 OA
ATOM     87  O   UNL A   1      41.986  36.779  35.610  1.00  0.00    -0.237 OA
ATOM     88  O   UNL A   1      44.329  36.216  36.089  1.00  0.00    -0.744 OA
ENDBRANCH  82  85
ENDBRANCH  55  78
ENDBRANCH  29  30
ENDBRANCH  21  24
ENDBRANCH  19  20
ENDBRANCH  18  19
ENDBRANCH   1  18
TORSDOF 20
ENDMDL
MODEL 3
REMARK VINA RESULT:      -9.4      2.070      8.358
REMARK SMILES CCC(CC)(C[C@H](O)COC)C(=O)NCCCNC(=O)c1ccc(-c2c3nc(c(-c4cccc(S(=O)(=O)[O-])c4F)c4ccc([nH]4)c(-c4cccc(S(=O)(=O)[O-])c4F)c4nc(c(-c5cccc(S(=O)(=O)[O-])c5F)c5ccc2[nH]5)C=C4)C=C3)cc1
REMARK SMILES IDX 15 1 14 2 12 3 13 4 3 6 2 7 1 8 4 9 5 10 6 11 7 12 9 13
REMARK SMILES IDX 10 14 11 15 8 16 16 18 17 19 18 20 19 21 20 23 21 24 22 25
REMARK SMILES IDX 83 26 23 27 82 28 24 29 25 30 26 31 76 32 27 33 81 34 75 35
REMARK SMILES IDX 77 36 28 37 80 38 74 39 73 40 29 42 61 43 41 44 60 45 42 46
REMARK SMILES IDX 45 47 59 48 78 49 43 50 44 51 58 53 79 54 46 55 30 56 31 57
REMARK SMILES IDX 39 58 32 59 34 60 40 61 33 62 35 63 36 64 37 65 38 66 62 67
REMARK SMILES IDX 63 68 71 69 64 70 66 71 72 72 65 73 67 74 68 75 69 76 70 77
REMARK SMILES IDX 47 78 48 79 56 80 49 81 51 82 57 83 50 84 52 85 53 86 54 87
REMARK SMILES IDX 55 88
REMARK H PARENT 14 5 8 17 18 22 77 41 45 52
REMARK Flexibility Score: inf
ROOT
ATOM      1  C   UNL A   1      34.696  22.854  25.629  1.00  0.00     0.117 C 
ENDROOT
BRANCH   1   2
ATOM      2  N   UNL A   1      34.541  23.480  24.323  1.00  0.00    -0.356 N 
ATOM      3  C   UNL A   1      33.580  24.260  23.759  1.00  0.00     0.226 C 
ATOM      4  O   UNL A   1      33.791  24.587  22.586  1.00  0.00    -0.274 OA
ATOM      5  H   UNL A   1      35.294  23.299  23.717  1.00  0.00     0.163 HD
BRANCH   3   6
ATOM      6  C   UNL A   1      32.289  24.690  24.504  1.00  0.00     0.051 C 
BRANCH   6   7
ATOM      7  C   UNL A   1      32.675  25.426  25.838  1.00  0.00     0.013 C 
ATOM      8  C   UNL A   1      33.695  26.558  25.736  1.00  0.00     0.005 C 
ENDBRANCH   6   7
BRANCH   6   9
ATOM      9  C   UNL A   1      31.452  23.419  24.844  1.00  0.00     0.013 C 
ATOM     10  C   UNL A   1      30.962  23.306  26.282  1.00  0.00     0.005 C 
ENDBRANCH   6   9
BRANCH   6  11
ATOM     11  C   UNL A   1      31.526  25.708  23.581  1.00  0.00     0.051 C 
BRANCH  11  12
ATOM     12  C   UNL A   1      30.333  26.406  24.273  1.00  0.00     0.141 C 
BRANCH  12  13
ATOM     13  C   UNL A   1      30.219  27.895  23.910  1.00  0.00     0.191 C 
BRANCH  13  14
ATOM     14  O   UNL A   1      31.494  28.543  23.985  1.00  0.00    -0.382 OA
ATOM     15  C   UNL A   1      31.571  29.548  24.988  1.00  0.00     0.195 C 
ENDBRANCH  13  14
ENDBRANCH  12  13
BRANCH  12  16
ATOM     16  O   UNL A   1      29.147  25.709  23.865  1.00  0.00    -0.391 OA
ATOM     17  H   UNL A   1      28.372  26.272  24.021  1.00  0.00     0.211 HD
ENDBRANCH  12  16
ENDBRANCH  11  12
ENDBRANCH   6  11
ENDBRANCH   3   6
ENDBRANCH   1   2
BRANCH   1  18
ATOM     18  C   UNL A   1      35.816  23.473  26.450  1.00  0.00     0.042 C 
BRANCH  18  19
ATOM     19  C   UNL A   1      37.141  23.572  25.713  1.00  0.00     0.118 C 
BRANCH  19  20
ATOM     20  N   UNL A   1      38.069  22.515  26.097  1.00  0.00    -0.352 N 
ATOM     21  C   UNL A   1      39.372  22.615  26.523  1.00  0.00     0.251 C 
ATOM     22  H   UNL A   1      37.712  21.600  26.043  1.00  0.00     0.163 HD
ATOM     23  O   UNL A   1      40.073  21.608  26.595  1.00  0.00    -0.269 OA
BRANCH  21  24
ATOM     24  C   UNL A   1      39.929  23.938  26.875  1.00  0.00     0.039 A 
ATOM     25  C   UNL A   1      40.165  24.875  25.866  1.00  0.00     0.014 A 
ATOM     26  C   UNL A   1      40.197  24.259  28.208  1.00  0.00     0.014 A 
ATOM     27  C   UNL A   1      40.593  26.161  26.204  1.00  0.00     0.010 A 
ATOM     28  C   UNL A   1      40.530  25.563  28.548  1.00  0.00     0.010 A 
ATOM     29  C   UNL A   1      40.736  26.529  27.552  1.00  0.00    -0.014 A 
BRANCH  29  30
ATOM     30  C   UNL A   1      41.097  27.911  27.959  1.00  0.00     0.031 A 
ATOM     31  C   UNL A   1      42.544  28.325  27.995  1.00  0.00     0.074 A 
ATOM     32  C   UNL A   1      40.141  28.748  28.409  1.00  0.00     0.049 A 
ATOM     33  N   UNL A   1      43.074  29.433  28.446  1.00  0.00    -0.248 NA
ATOM     34  C   UNL A   1      43.529  27.355  27.487  1.00  0.00     0.031 C 
ATOM     35  C   UNL A   1      38.712  28.439  28.488  1.00  0.00     0.029 A 
ATOM     36  N   UNL A   1      40.233  30.020  28.922  1.00  0.00    -0.354 N 
ATOM     37  C   UNL A   1      44.449  29.273  28.321  1.00  0.00     0.074 A 
ATOM     38  C   UNL A   1      44.674  27.951  27.781  1.00  0.00     0.031 C 
ATOM     39  C   UNL A   1      38.063  29.487  29.020  1.00  0.00     0.029 A 
ATOM     40  C   UNL A   1      39.030  30.525  29.360  1.00  0.00     0.049 A 
ATOM     41  H   UNL A   1      41.079  30.521  28.970  1.00  0.00     0.167 HD
ATOM     42  C   UNL A   1      45.434  30.155  28.606  1.00  0.00     0.034 A 
ATOM     43  C   UNL A   1      38.742  31.683  29.986  1.00  0.00     0.034 A 
ATOM     44  C   UNL A   1      45.203  31.484  29.103  1.00  0.00     0.049 A 
ATOM     45  C   UNL A   1      39.854  32.658  30.268  1.00  0.00     0.074 A 
ATOM     46  C   UNL A   1      46.127  32.486  29.339  1.00  0.00     0.029 A 
ATOM     47  N   UNL A   1      43.961  31.992  29.449  1.00  0.00    -0.354 N 
ATOM     48  N   UNL A   1      41.133  32.547  30.007  1.00  0.00    -0.248 NA
ATOM     49  C   UNL A   1      39.480  33.933  30.900  1.00  0.00     0.031 C 
ATOM     50  C   UNL A   1      45.447  33.591  29.858  1.00  0.00     0.029 A 
ATOM     51  C   UNL A   1      44.095  33.291  29.907  1.00  0.00     0.049 A 
ATOM     52  H   UNL A   1      43.110  31.503  29.379  1.00  0.00     0.167 HD
ATOM     53  C   UNL A   1      41.710  33.750  30.399  1.00  0.00     0.074 A 
ATOM     54  C   UNL A   1      40.638  34.580  30.909  1.00  0.00     0.031 C 
ATOM     55  C   UNL A   1      43.010  34.128  30.351  1.00  0.00     0.034 A 
BRANCH  42  56
ATOM     56  C   UNL A   1      46.857  29.729  28.347  1.00  0.00     0.023 A 
ATOM     57  C   UNL A   1      47.469  30.046  27.118  1.00  0.00     0.012 A 
ATOM     58  C   UNL A   1      47.607  29.072  29.342  1.00  0.00     0.148 A 
ATOM     59  C   UNL A   1      48.790  29.681  26.865  1.00  0.00     0.002 A 
ATOM     60  C   UNL A   1      48.939  28.756  29.103  1.00  0.00     0.091 A 
ATOM     61  F   UNL A   1      47.004  28.762  30.499  1.00  0.00    -0.205 F 
ATOM     62  C   UNL A   1      49.528  29.047  27.861  1.00  0.00     0.022 A 
BRANCH  60  63
ATOM     63  S   UNL A   1      49.999  28.014  30.349  1.00  0.00     0.127 S 
ATOM     64  O   UNL A   1      49.927  29.003  31.424  1.00  0.00    -0.237 OA
ATOM     65  O   UNL A   1      49.306  26.756  30.631  1.00  0.00    -0.237 OA
ATOM     66  O   UNL A   1      51.306  27.862  29.726  1.00  0.00    -0.744 OA
ENDBRANCH  60  63
ENDBRANCH  42  56
BRANCH  43  67
ATOM     67  C   UNL A   1      37.331  32.009  30.340  1.00  0.00     0.023 A 
ATOM     68  C   UNL A   1      36.832  31.637  31.603  1.00  0.00     0.012 A 
ATOM     69  C   UNL A   1      36.491  32.705  29.447  1.00  0.00     0.148 A 
ATOM     70  C   UNL A   1      35.512  31.919  31.958  1.00  0.00     0.002 A 
ATOM     71  C   UNL A   1      35.195  33.031  29.829  1.00  0.00     0.091 A 
ATOM     72  F   UNL A   1      36.981  33.043  28.246  1.00  0.00    -0.205 F 
ATOM     73  C   UNL A   1      34.697  32.623  31.076  1.00  0.00     0.022 A 
BRANCH  71  74
ATOM     74  S   UNL A   1      34.118  34.050  28.815  1.00  0.00     0.127 S 
ATOM     75  O   UNL A   1      33.642  33.088  27.824  1.00  0.00    -0.237 OA
ATOM     76  O   UNL A   1      33.113  34.485  29.785  1.00  0.00    -0.237 OA
ATOM     77  O   UNL A   1      34.959  35.122  28.300  1.00  0.00    -0.744 OA
ENDBRANCH  71  74
ENDBRANCH  43  67
BRANCH  55  78
ATOM     78  C   UNL A   1      43.358  35.524  30.797  1.00  0.00     0.023 A 
ATOM     79  C   UNL A   1      43.826  35.751  32.105  1.00  0.00     0.012 A 
ATOM     80  C   UNL A   1      43.322  36.591  29.877  1.00  0.00     0.148 A 
ATOM     81  C   UNL A   1      44.233  37.026  32.498  1.00  0.00     0.002 A 
ATOM     82  C   UNL A   1      43.777  37.845  30.260  1.00  0.00     0.091 A 
ATOM     83  F   UNL A   1      42.856  36.353  28.642  1.00  0.00    -0.205 F 
ATOM     84  C   UNL A   1      44.223  38.069  31.572  1.00  0.00     0.022 A 
BRANCH  82  85
ATOM     85  S   UNL A   1      43.897  39.220  29.109  1.00  0.00     0.127 S 
ATOM     86  O   UNL A   1      42.492  39.461  28.785  1.00  0.00    -0.237 OA
ATOM     87  O   UNL A   1      44.520  40.256  29.932  1.00  0.00    -0.237 OA
ATOM     88  O   UNL A   1      44.718  38.751  28.001  1.00  0.00    -0.744 OA
ENDBRANCH  82  85
ENDBRANCH  55  78
ENDBRANCH  29  30
ENDBRANCH  21  24
ENDBRANCH  19  20
ENDBRANCH  18  19
ENDBRANCH   1  18
TORSDOF 20
ENDMDL
