MODEL 1
REMARK VINA RESULT:     -13.4      0.000      0.000
REMARK SMILES O=C(N/N=C/c1ccccc1O)C(=O)Nc1cccc(C(=O)NCCCNC(=O)c2ccc(-c3c4nc(c(-c5cccc(S(=O)(=O)[O-])c5F)c5ccc([nH]5)c(-c5cccc(S(=O)(=O)[O-])c5F)c5nc(c(-c6cccc(S(=O)(=O)[O-])c6F)c6ccc3[nH]6)C=C5)C=C4)cc2)c1
REMARK SMILES IDX 24 1 23 2 21 3 22 4 20 6 16 7 17 8 93 9 18 10 19 11 15 12
REMARK SMILES IDX 13 13 14 14 2 16 1 17 3 18 4 20 5 21 6 22 7 23 11 24 8 25
REMARK SMILES IDX 10 26 9 27 12 28 25 30 26 31 27 32 28 33 29 35 30 36 31 37
REMARK SMILES IDX 92 38 32 39 91 40 33 41 34 42 35 43 85 44 36 45 90 46 84 47
REMARK SMILES IDX 86 48 37 49 89 50 83 51 82 52 38 54 70 55 50 56 69 57 51 58
REMARK SMILES IDX 54 59 68 60 87 61 52 62 53 63 67 65 88 66 55 67 39 68 40 69
REMARK SMILES IDX 48 70 41 71 43 72 49 73 42 74 44 75 45 76 46 77 47 78 71 79
REMARK SMILES IDX 72 80 80 81 73 82 75 83 81 84 74 85 76 86 77 87 78 88 79 89
REMARK SMILES IDX 56 90 57 91 65 92 58 93 60 94 66 95 59 96 61 97 62 98 63 99
REMARK SMILES IDX 64 100
REMARK H PARENT 23 5 15 15 3 19 12 29 27 34 86 53 54 64
REMARK Flexibility Score: inf
ROOT
ATOM      1  C   UNL A   1      35.520  21.259  25.248  1.00  0.00     0.118 C 
ENDROOT
BRANCH   1   2
ATOM      2  N   UNL A   1      34.569  20.242  25.660  1.00  0.00    -0.352 N 
ATOM      3  C   UNL A   1      33.200  20.224  25.610  1.00  0.00     0.251 C 
ATOM      4  O   UNL A   1      32.600  19.170  25.836  1.00  0.00    -0.269 OA
ATOM      5  H   UNL A   1      34.976  19.430  26.039  1.00  0.00     0.163 HD
BRANCH   3   6
ATOM      6  C   UNL A   1      32.372  21.418  25.303  1.00  0.00     0.041 A 
ATOM      7  C   UNL A   1      31.194  24.269  25.964  1.00  0.00     0.042 A 
ATOM      8  C   UNL A   1      30.803  24.542  24.194  1.00  0.00     0.026 A 
ATOM      9  C   UNL A   1      31.890  22.691  26.534  1.00  0.00     0.040 A 
ATOM     10  C   UNL A   1      31.109  23.187  23.001  1.00  0.00     0.003 A 
ATOM     11  C   UNL A   1      31.931  21.665  23.549  1.00  0.00     0.014 A 
BRANCH   7  12
ATOM     12  N   UNL A   1      31.545  25.427  26.657  1.00  0.00    -0.318 N 
ATOM     13  C   UNL A   1      32.619  26.261  26.374  1.00  0.00     0.315 C 
ATOM     14  O   UNL A   1      32.630  27.367  26.923  1.00  0.00    -0.263 OA
ATOM     15  H   UNL A   1      30.978  25.676  27.422  1.00  0.00     0.170 HD
BRANCH  13  16
ATOM     16  C   UNL A   1      33.773  25.969  25.377  1.00  0.00     0.329 C 
ATOM     17  O   UNL A   1      34.528  25.024  25.610  1.00  0.00    -0.262 OA
ATOM     18  N   UNL A   1      34.090  26.843  24.328  1.00  0.00    -0.239 N 
ATOM     19  H   UNL A   1      34.919  27.373  24.330  1.00  0.00     0.194 HD
BRANCH  18  20
ATOM     20  N   UNL A   1      33.187  26.920  23.300  1.00  0.00    -0.180 NA
ATOM     21  C   UNL A   1      32.357  28.017  23.325  1.00  0.00     0.145 C 
BRANCH  21  22
ATOM     22  C   UNL A   1      30.330  28.468  22.873  1.00  0.00     0.036 A 
ATOM     23  C   UNL A   1      29.080  27.672  23.258  1.00  0.00     0.013 A 
ATOM     24  C   UNL A   1      29.615  29.633  22.181  1.00  0.00     0.124 A 
ATOM     25  C   UNL A   1      27.705  28.042  23.326  1.00  0.00     0.001 A 
ATOM     26  C   UNL A   1      28.243  30.047  22.288  1.00  0.00     0.047 A 
ATOM     27  C   UNL A   1      27.300  29.280  22.922  1.00  0.00     0.004 A 
BRANCH  24  28
ATOM     28  O   UNL A   1      30.126  30.374  21.112  1.00  0.00    -0.507 OA
ATOM     29  H   UNL A   1      31.032  30.302  20.883  1.00  0.00     0.293 HD
ENDBRANCH  24  28
ENDBRANCH  21  22
ENDBRANCH  18  20
ENDBRANCH  13  16
ENDBRANCH   7  12
ENDBRANCH   3   6
ENDBRANCH   1   2
BRANCH   1  30
ATOM     30  C   UNL A   1      36.886  20.682  24.909  1.00  0.00     0.042 C 
BRANCH  30  31
ATOM     31  C   UNL A   1      38.022  21.425  25.589  1.00  0.00     0.118 C 
BRANCH  31  32
ATOM     32  N   UNL A   1      39.021  20.517  26.145  1.00  0.00    -0.352 N 
ATOM     33  C   UNL A   1      40.234  20.808  26.721  1.00  0.00     0.251 C 
ATOM     34  H   UNL A   1      38.794  19.560  26.100  1.00  0.00     0.163 HD
ATOM     35  O   UNL A   1      41.031  19.909  26.974  1.00  0.00    -0.269 OA
BRANCH  33  36
ATOM     36  C   UNL A   1      40.576  22.212  27.024  1.00  0.00     0.039 A 
ATOM     37  C   UNL A   1      41.351  22.506  28.149  1.00  0.00     0.014 A 
ATOM     38  C   UNL A   1      40.135  23.235  26.182  1.00  0.00     0.014 A 
ATOM     39  C   UNL A   1      41.735  23.827  28.398  1.00  0.00     0.010 A 
ATOM     40  C   UNL A   1      40.589  24.531  26.382  1.00  0.00     0.010 A 
ATOM     41  C   UNL A   1      41.378  24.843  27.500  1.00  0.00    -0.014 A 
BRANCH  41  42
ATOM     42  C   UNL A   1      41.767  26.260  27.702  1.00  0.00     0.031 A 
ATOM     43  C   UNL A   1      43.160  26.692  27.324  1.00  0.00     0.074 A 
ATOM     44  C   UNL A   1      40.940  27.104  28.349  1.00  0.00     0.049 A 
ATOM     45  N   UNL A   1      43.786  27.803  27.605  1.00  0.00    -0.248 NA
ATOM     46  C   UNL A   1      43.974  25.721  26.569  1.00  0.00     0.031 C 
ATOM     47  C   UNL A   1      39.592  26.779  28.822  1.00  0.00     0.029 A 
ATOM     48  N   UNL A   1      41.132  28.400  28.763  1.00  0.00    -0.354 N 
ATOM     49  C   UNL A   1      45.081  27.637  27.129  1.00  0.00     0.074 A 
ATOM     50  C   UNL A   1      45.158  26.314  26.552  1.00  0.00     0.031 C 
ATOM     51  C   UNL A   1      39.085  27.841  29.472  1.00  0.00     0.029 A 
ATOM     52  C   UNL A   1      40.081  28.907  29.493  1.00  0.00     0.049 A 
ATOM     53  H   UNL A   1      41.943  28.917  28.557  1.00  0.00     0.167 HD
ATOM     54  C   UNL A   1      46.107  28.518  27.150  1.00  0.00     0.034 A 
ATOM     55  C   UNL A   1      39.947  30.092  30.122  1.00  0.00     0.034 A 
ATOM     56  C   UNL A   1      45.991  29.863  27.639  1.00  0.00     0.049 A 
ATOM     57  C   UNL A   1      41.076  31.086  30.045  1.00  0.00     0.074 A 
ATOM     58  C   UNL A   1      46.934  30.873  27.603  1.00  0.00     0.029 A 
ATOM     59  N   UNL A   1      44.857  30.388  28.236  1.00  0.00    -0.354 N 
ATOM     60  N   UNL A   1      42.245  30.963  29.463  1.00  0.00    -0.248 NA
ATOM     61  C   UNL A   1      40.859  32.395  30.681  1.00  0.00     0.031 C 
ATOM     62  C   UNL A   1      46.372  32.012  28.186  1.00  0.00     0.029 A 
ATOM     63  C   UNL A   1      45.074  31.712  28.568  1.00  0.00     0.049 A 
ATOM     64  H   UNL A   1      44.023  29.892  28.401  1.00  0.00     0.167 HD
ATOM     65  C   UNL A   1      42.878  32.192  29.614  1.00  0.00     0.074 A 
ATOM     66  C   UNL A   1      41.963  33.048  30.339  1.00  0.00     0.031 C 
ATOM     67  C   UNL A   1      44.111  32.572  29.203  1.00  0.00     0.034 A 
BRANCH  54  68
ATOM     68  C   UNL A   1      47.428  28.087  26.572  1.00  0.00     0.023 A 
ATOM     69  C   UNL A   1      48.470  27.694  27.435  1.00  0.00     0.012 A 
ATOM     70  C   UNL A   1      47.610  27.989  25.178  1.00  0.00     0.148 A 
ATOM     71  C   UNL A   1      49.682  27.233  26.922  1.00  0.00     0.002 A 
ATOM     72  C   UNL A   1      48.804  27.488  24.674  1.00  0.00     0.091 A 
ATOM     73  F   UNL A   1      46.613  28.387  24.374  1.00  0.00    -0.205 F 
ATOM     74  C   UNL A   1      49.844  27.119  25.543  1.00  0.00     0.022 A 
BRANCH  72  75
ATOM     75  S   UNL A   1      49.083  27.224  22.919  1.00  0.00     0.127 S 
ATOM     76  O   UNL A   1      50.524  26.981  22.883  1.00  0.00    -0.237 OA
ATOM     77  O   UNL A   1      48.259  26.044  22.651  1.00  0.00    -0.237 OA
ATOM     78  O   UNL A   1      48.640  28.440  22.252  1.00  0.00    -0.744 OA
ENDBRANCH  72  75
ENDBRANCH  54  68
BRANCH  55  79
ATOM     79  C   UNL A   1      38.672  30.438  30.814  1.00  0.00     0.023 A 
ATOM     80  C   UNL A   1      38.477  30.010  32.141  1.00  0.00     0.012 A 
ATOM     81  C   UNL A   1      37.662  31.189  30.183  1.00  0.00     0.148 A 
ATOM     82  C   UNL A   1      37.285  30.286  32.814  1.00  0.00     0.002 A 
ATOM     83  C   UNL A   1      36.497  31.505  30.875  1.00  0.00     0.091 A 
ATOM     84  F   UNL A   1      37.854  31.576  28.914  1.00  0.00    -0.205 F 
ATOM     85  C   UNL A   1      36.300  31.041  32.184  1.00  0.00     0.022 A 
BRANCH  83  86
ATOM     86  S   UNL A   1      35.235  32.576  30.177  1.00  0.00     0.127 S 
ATOM     87  O   UNL A   1      34.747  31.777  29.057  1.00  0.00    -0.237 OA
ATOM     88  O   UNL A   1      34.293  32.714  31.289  1.00  0.00    -0.237 OA
ATOM     89  O   UNL A   1      35.929  33.809  29.830  1.00  0.00    -0.744 OA
ENDBRANCH  83  86
ENDBRANCH  55  79
BRANCH  67  90
ATOM     90  C   UNL A   1      44.532  33.995  29.451  1.00  0.00     0.023 A 
ATOM     91  C   UNL A   1      45.283  34.314  30.597  1.00  0.00     0.012 A 
ATOM     92  C   UNL A   1      44.294  34.984  28.475  1.00  0.00     0.148 A 
ATOM     93  C   UNL A   1      45.777  35.605  30.779  1.00  0.00     0.002 A 
ATOM     94  C   UNL A   1      44.829  36.254  28.641  1.00  0.00     0.091 A 
ATOM     95  F   UNL A   1      43.562  34.657  27.400  1.00  0.00    -0.205 F 
ATOM     96  C   UNL A   1      45.564  36.569  29.795  1.00  0.00     0.022 A 
BRANCH  94  97
ATOM     97  S   UNL A   1      44.691  37.527  27.380  1.00  0.00     0.127 S 
ATOM     98  O   UNL A   1      43.433  37.167  26.729  1.00  0.00    -0.237 OA
ATOM     99  O   UNL A   1      44.636  38.751  28.180  1.00  0.00    -0.237 OA
ATOM    100  O   UNL A   1      45.882  37.402  26.550  1.00  0.00    -0.744 OA
ENDBRANCH  94  97
ENDBRANCH  67  90
ENDBRANCH  41  42
ENDBRANCH  33  36
ENDBRANCH  31  32
ENDBRANCH  30  31
ENDBRANCH   1  30
TORSDOF 18
ENDMDL
MODEL 2
REMARK VINA RESULT:     -13.2      5.555      9.530
REMARK SMILES O=C(N/N=C/c1ccccc1O)C(=O)Nc1cccc(C(=O)NCCCNC(=O)c2ccc(-c3c4nc(c(-c5cccc(S(=O)(=O)[O-])c5F)c5ccc([nH]5)c(-c5cccc(S(=O)(=O)[O-])c5F)c5nc(c(-c6cccc(S(=O)(=O)[O-])c6F)c6ccc3[nH]6)C=C5)C=C4)cc2)c1
REMARK SMILES IDX 24 1 23 2 21 3 22 4 20 6 16 7 17 8 93 9 18 10 19 11 15 12
REMARK SMILES IDX 13 13 14 14 2 16 1 17 3 18 4 20 5 21 6 22 7 23 11 24 8 25
REMARK SMILES IDX 10 26 9 27 12 28 25 30 26 31 27 32 28 33 29 35 30 36 31 37
REMARK SMILES IDX 92 38 32 39 91 40 33 41 34 42 35 43 85 44 36 45 90 46 84 47
REMARK SMILES IDX 86 48 37 49 89 50 83 51 82 52 38 54 70 55 50 56 69 57 51 58
REMARK SMILES IDX 54 59 68 60 87 61 52 62 53 63 67 65 88 66 55 67 39 68 40 69
REMARK SMILES IDX 48 70 41 71 43 72 49 73 42 74 44 75 45 76 46 77 47 78 71 79
REMARK SMILES IDX 72 80 80 81 73 82 75 83 81 84 74 85 76 86 77 87 78 88 79 89
REMARK SMILES IDX 56 90 57 91 65 92 58 93 60 94 66 95 59 96 61 97 62 98 63 99
REMARK SMILES IDX 64 100
REMARK H PARENT 23 5 15 15 3 19 12 29 27 34 86 53 54 64
REMARK Flexibility Score: inf
ROOT
ATOM      1  C   UNL A   1      31.621  30.583  26.305  1.00  0.00     0.118 C 
ENDROOT
BRANCH   1   2
ATOM      2  N   UNL A   1      32.766  30.073  27.037  1.00  0.00    -0.352 N 
ATOM      3  C   UNL A   1      33.372  28.844  27.009  1.00  0.00     0.251 C 
ATOM      4  O   UNL A   1      34.458  28.691  27.574  1.00  0.00    -0.269 OA
ATOM      5  H   UNL A   1      33.176  30.717  27.659  1.00  0.00     0.163 HD
BRANCH   3   6
ATOM      6  C   UNL A   1      32.791  27.656  26.333  1.00  0.00     0.041 A 
ATOM      7  C   UNL A   1      33.006  24.888  24.833  1.00  0.00     0.042 A 
ATOM      8  C   UNL A   1      31.259  24.510  25.236  1.00  0.00     0.026 A 
ATOM      9  C   UNL A   1      33.747  26.481  25.297  1.00  0.00     0.040 A 
ATOM     10  C   UNL A   1      30.256  25.773  26.103  1.00  0.00     0.003 A 
ATOM     11  C   UNL A   1      31.035  27.305  26.685  1.00  0.00     0.014 A 
BRANCH   7  12
ATOM     12  N   UNL A   1      33.838  23.770  24.786  1.00  0.00    -0.318 N 
ATOM     13  C   UNL A   1      34.047  22.946  23.687  1.00  0.00     0.315 C 
ATOM     14  O   UNL A   1      35.002  22.165  23.745  1.00  0.00    -0.263 OA
ATOM     15  H   UNL A   1      34.324  23.543  25.611  1.00  0.00     0.170 HD
BRANCH  13  16
ATOM     16  C   UNL A   1      33.241  22.960  22.361  1.00  0.00     0.329 C 
ATOM     17  O   UNL A   1      33.606  23.713  21.457  1.00  0.00    -0.262 OA
ATOM     18  N   UNL A   1      32.019  22.286  22.225  1.00  0.00    -0.239 N 
ATOM     19  H   UNL A   1      31.167  22.771  22.146  1.00  0.00     0.194 HD
BRANCH  18  20
ATOM     20  N   UNL A   1      32.073  20.917  22.206  1.00  0.00    -0.180 NA
ATOM     21  C   UNL A   1      32.118  20.311  23.441  1.00  0.00     0.145 C 
BRANCH  21  22
ATOM     22  C   UNL A   1      33.068  18.635  24.339  1.00  0.00     0.036 A 
ATOM     23  C   UNL A   1      32.412  17.378  24.915  1.00  0.00     0.013 A 
ATOM     24  C   UNL A   1      34.524  18.218  24.566  1.00  0.00     0.124 A 
ATOM     25  C   UNL A   1      32.934  16.084  25.201  1.00  0.00     0.001 A 
ATOM     26  C   UNL A   1      35.066  16.907  24.800  1.00  0.00     0.047 A 
ATOM     27  C   UNL A   1      34.265  15.824  25.050  1.00  0.00     0.004 A 
BRANCH  24  28
ATOM     28  O   UNL A   1      35.582  19.091  24.832  1.00  0.00    -0.507 OA
ATOM     29  H   UNL A   1      35.496  19.743  25.500  1.00  0.00     0.293 HD
ENDBRANCH  24  28
ENDBRANCH  21  22
ENDBRANCH  18  20
ENDBRANCH  13  16
ENDBRANCH   7  12
ENDBRANCH   3   6
ENDBRANCH   1   2
BRANCH   1  30
ATOM     30  C   UNL A   1      31.411  32.075  26.510  1.00  0.00     0.042 C 
BRANCH  30  31
ATOM     31  C   UNL A   1      32.691  32.802  26.883  1.00  0.00     0.118 C 
BRANCH  31  32
ATOM     32  N   UNL A   1      32.430  34.066  27.566  1.00  0.00    -0.352 N 
ATOM     33  C   UNL A   1      33.052  34.605  28.666  1.00  0.00     0.251 C 
ATOM     34  H   UNL A   1      31.703  34.610  27.184  1.00  0.00     0.163 HD
ATOM     35  O   UNL A   1      32.585  35.597  29.217  1.00  0.00    -0.269 OA
BRANCH  33  36
ATOM     36  C   UNL A   1      34.281  33.973  29.185  1.00  0.00     0.039 A 
ATOM     37  C   UNL A   1      35.529  34.443  28.765  1.00  0.00     0.014 A 
ATOM     38  C   UNL A   1      34.193  32.921  30.100  1.00  0.00     0.014 A 
ATOM     39  C   UNL A   1      36.693  33.894  29.309  1.00  0.00     0.010 A 
ATOM     40  C   UNL A   1      35.346  32.439  30.703  1.00  0.00     0.010 A 
ATOM     41  C   UNL A   1      36.607  32.907  30.302  1.00  0.00    -0.014 A 
BRANCH  41  42
ATOM     42  C   UNL A   1      37.806  32.297  30.927  1.00  0.00     0.031 A 
ATOM     43  C   UNL A   1      38.564  31.241  30.166  1.00  0.00     0.074 A 
ATOM     44  C   UNL A   1      38.119  32.575  32.208  1.00  0.00     0.049 A 
ATOM     45  N   UNL A   1      39.493  30.425  30.586  1.00  0.00    -0.248 NA
ATOM     46  C   UNL A   1      38.188  31.043  28.753  1.00  0.00     0.031 C 
ATOM     47  C   UNL A   1      37.417  33.533  33.066  1.00  0.00     0.029 A 
ATOM     48  N   UNL A   1      39.084  32.042  33.027  1.00  0.00    -0.354 N 
ATOM     49  C   UNL A   1      39.760  29.576  29.519  1.00  0.00     0.074 A 
ATOM     50  C   UNL A   1      38.887  29.964  28.435  1.00  0.00     0.031 C 
ATOM     51  C   UNL A   1      37.965  33.508  34.293  1.00  0.00     0.029 A 
ATOM     52  C   UNL A   1      39.032  32.512  34.320  1.00  0.00     0.049 A 
ATOM     53  H   UNL A   1      39.751  31.387  32.719  1.00  0.00     0.167 HD
ATOM     54  C   UNL A   1      40.669  28.577  29.442  1.00  0.00     0.034 A 
ATOM     55  C   UNL A   1      39.751  32.164  35.405  1.00  0.00     0.034 A 
ATOM     56  C   UNL A   1      41.598  28.264  30.492  1.00  0.00     0.049 A 
ATOM     57  C   UNL A   1      40.821  31.112  35.259  1.00  0.00     0.074 A 
ATOM     58  C   UNL A   1      42.634  27.349  30.477  1.00  0.00     0.029 A 
ATOM     59  N   UNL A   1      41.610  28.869  31.738  1.00  0.00    -0.354 N 
ATOM     60  N   UNL A   1      41.156  30.419  34.198  1.00  0.00    -0.248 NA
ATOM     61  C   UNL A   1      41.633  30.816  36.449  1.00  0.00     0.031 C 
ATOM     62  C   UNL A   1      43.272  27.396  31.718  1.00  0.00     0.029 A 
ATOM     63  C   UNL A   1      42.642  28.353  32.499  1.00  0.00     0.049 A 
ATOM     64  H   UNL A   1      40.979  29.563  32.036  1.00  0.00     0.167 HD
ATOM     65  C   UNL A   1      42.250  29.649  34.575  1.00  0.00     0.074 A 
ATOM     66  C   UNL A   1      42.524  29.962  35.962  1.00  0.00     0.031 C 
ATOM     67  C   UNL A   1      42.955  28.751  33.845  1.00  0.00     0.034 A 
BRANCH  54  68
ATOM     68  C   UNL A   1      40.757  27.790  28.162  1.00  0.00     0.023 A 
ATOM     69  C   UNL A   1      41.434  28.338  27.054  1.00  0.00     0.012 A 
ATOM     70  C   UNL A   1      40.247  26.480  28.083  1.00  0.00     0.148 A 
ATOM     71  C   UNL A   1      41.581  27.604  25.878  1.00  0.00     0.002 A 
ATOM     72  C   UNL A   1      40.435  25.738  26.923  1.00  0.00     0.091 A 
ATOM     73  F   UNL A   1      39.588  25.985  29.142  1.00  0.00    -0.205 F 
ATOM     74  C   UNL A   1      41.092  26.301  25.818  1.00  0.00     0.022 A 
BRANCH  72  75
ATOM     75  S   UNL A   1      39.918  24.024  26.772  1.00  0.00     0.127 S 
ATOM     76  O   UNL A   1      40.969  23.472  25.918  1.00  0.00    -0.237 OA
ATOM     77  O   UNL A   1      39.959  23.567  28.162  1.00  0.00    -0.237 OA
ATOM     78  O   UNL A   1      38.587  24.054  26.181  1.00  0.00    -0.744 OA
ENDBRANCH  72  75
ENDBRANCH  54  68
BRANCH  55  79
ATOM     79  C   UNL A   1      39.544  32.865  36.705  1.00  0.00     0.023 A 
ATOM     80  C   UNL A   1      40.286  34.030  36.978  1.00  0.00     0.012 A 
ATOM     81  C   UNL A   1      38.621  32.402  37.662  1.00  0.00     0.148 A 
ATOM     82  C   UNL A   1      40.145  34.699  38.196  1.00  0.00     0.002 A 
ATOM     83  C   UNL A   1      38.447  33.100  38.852  1.00  0.00     0.091 A 
ATOM     84  F   UNL A   1      37.933  31.283  37.395  1.00  0.00    -0.205 F 
ATOM     85  C   UNL A   1      39.219  34.239  39.129  1.00  0.00     0.022 A 
BRANCH  83  86
ATOM     86  S   UNL A   1      37.188  32.643  40.050  1.00  0.00     0.127 S 
ATOM     87  O   UNL A   1      37.364  33.667  41.076  1.00  0.00    -0.237 OA
ATOM     88  O   UNL A   1      35.956  32.763  39.268  1.00  0.00    -0.237 OA
ATOM     89  O   UNL A   1      37.511  31.278  40.443  1.00  0.00    -0.744 OA
ENDBRANCH  83  86
ENDBRANCH  55  79
BRANCH  67  90
ATOM     90  C   UNL A   1      44.142  28.089  34.490  1.00  0.00     0.023 A 
ATOM     91  C   UNL A   1      45.400  28.717  34.452  1.00  0.00     0.012 A 
ATOM     92  C   UNL A   1      43.972  26.911  35.244  1.00  0.00     0.148 A 
ATOM     93  C   UNL A   1      46.480  28.171  35.144  1.00  0.00     0.002 A 
ATOM     94  C   UNL A   1      45.041  26.399  35.968  1.00  0.00     0.091 A 
ATOM     95  F   UNL A   1      42.766  26.324  35.250  1.00  0.00    -0.205 F 
ATOM     96  C   UNL A   1      46.298  27.023  35.913  1.00  0.00     0.022 A 
BRANCH  94  97
ATOM     97  S   UNL A   1      44.871  24.987  37.064  1.00  0.00     0.127 S 
ATOM     98  O   UNL A   1      46.262  24.721  37.427  1.00  0.00    -0.237 OA
ATOM     99  O   UNL A   1      44.051  25.531  38.147  1.00  0.00    -0.237 OA
ATOM    100  O   UNL A   1      44.220  23.945  36.281  1.00  0.00    -0.744 OA
ENDBRANCH  94  97
ENDBRANCH  67  90
ENDBRANCH  41  42
ENDBRANCH  33  36
ENDBRANCH  31  32
ENDBRANCH  30  31
ENDBRANCH   1  30
TORSDOF 18
ENDMDL
MODEL 3
REMARK VINA RESULT:     -13.1      4.974     10.114
REMARK SMILES O=C(N/N=C/c1ccccc1O)C(=O)Nc1cccc(C(=O)NCCCNC(=O)c2ccc(-c3c4nc(c(-c5cccc(S(=O)(=O)[O-])c5F)c5ccc([nH]5)c(-c5cccc(S(=O)(=O)[O-])c5F)c5nc(c(-c6cccc(S(=O)(=O)[O-])c6F)c6ccc3[nH]6)C=C5)C=C4)cc2)c1
REMARK SMILES IDX 24 1 23 2 21 3 22 4 20 6 16 7 17 8 93 9 18 10 19 11 15 12
REMARK SMILES IDX 13 13 14 14 2 16 1 17 3 18 4 20 5 21 6 22 7 23 11 24 8 25
REMARK SMILES IDX 10 26 9 27 12 28 25 30 26 31 27 32 28 33 29 35 30 36 31 37
REMARK SMILES IDX 92 38 32 39 91 40 33 41 34 42 35 43 85 44 36 45 90 46 84 47
REMARK SMILES IDX 86 48 37 49 89 50 83 51 82 52 38 54 70 55 50 56 69 57 51 58
REMARK SMILES IDX 54 59 68 60 87 61 52 62 53 63 67 65 88 66 55 67 39 68 40 69
REMARK SMILES IDX 48 70 41 71 43 72 49 73 42 74 44 75 45 76 46 77 47 78 71 79
REMARK SMILES IDX 72 80 80 81 73 82 75 83 81 84 74 85 76 86 77 87 78 88 79 89
REMARK SMILES IDX 56 90 57 91 65 92 58 93 60 94 66 95 59 96 61 97 62 98 63 99
REMARK SMILES IDX 64 100
REMARK H PARENT 23 5 15 15 3 19 12 29 27 34 86 53 54 64
REMARK Flexibility Score: inf
ROOT
ATOM      1  C   UNL A   1      32.461  28.451  24.395  1.00  0.00     0.118 C 
ENDROOT
BRANCH   1   2
ATOM      2  N   UNL A   1      31.619  28.185  25.548  1.00  0.00    -0.352 N 
ATOM      3  C   UNL A   1      31.205  27.001  26.099  1.00  0.00     0.251 C 
ATOM      4  O   UNL A   1      30.650  27.007  27.201  1.00  0.00    -0.269 OA
ATOM      5  H   UNL A   1      31.290  28.989  26.010  1.00  0.00     0.163 HD
BRANCH   3   6
ATOM      6  C   UNL A   1      31.379  25.681  25.441  1.00  0.00     0.041 A 
ATOM      7  C   UNL A   1      32.752  23.724  23.381  1.00  0.00     0.042 A 
ATOM      8  C   UNL A   1      32.134  22.273  24.316  1.00  0.00     0.026 A 
ATOM      9  C   UNL A   1      32.309  25.414  23.882  1.00  0.00     0.040 A 
ATOM     10  C   UNL A   1      31.044  22.549  25.761  1.00  0.00     0.003 A 
ATOM     11  C   UNL A   1      30.716  24.237  26.339  1.00  0.00     0.014 A 
BRANCH   7  12
ATOM     12  N   UNL A   1      33.989  23.527  22.770  1.00  0.00    -0.318 N 
ATOM     13  C   UNL A   1      35.223  23.483  23.406  1.00  0.00     0.315 C 
ATOM     14  O   UNL A   1      36.176  23.048  22.752  1.00  0.00    -0.263 OA
ATOM     15  H   UNL A   1      33.987  23.407  21.792  1.00  0.00     0.170 HD
BRANCH  13  16
ATOM     16  C   UNL A   1      35.510  23.861  24.884  1.00  0.00     0.329 C 
ATOM     17  O   UNL A   1      35.278  25.012  25.254  1.00  0.00    -0.262 OA
ATOM     18  N   UNL A   1      36.185  22.995  25.755  1.00  0.00    -0.239 N 
ATOM     19  H   UNL A   1      37.097  23.187  26.070  1.00  0.00     0.194 HD
BRANCH  18  20
ATOM     20  N   UNL A   1      35.510  21.869  26.148  1.00  0.00    -0.180 NA
ATOM     21  C   UNL A   1      35.710  20.757  25.363  1.00  0.00     0.145 C 
BRANCH  21  22
ATOM     22  C   UNL A   1      34.570  19.118  24.634  1.00  0.00     0.036 A 
ATOM     23  C   UNL A   1      33.168  19.146  24.018  1.00  0.00     0.013 A 
ATOM     24  C   UNL A   1      34.831  17.619  24.460  1.00  0.00     0.124 A 
ATOM     25  C   UNL A   1      32.477  18.210  23.197  1.00  0.00     0.001 A 
ATOM     26  C   UNL A   1      34.175  16.679  23.592  1.00  0.00     0.047 A 
ATOM     27  C   UNL A   1      33.032  16.999  22.906  1.00  0.00     0.004 A 
BRANCH  24  28
ATOM     28  O   UNL A   1      35.611  16.831  25.310  1.00  0.00    -0.507 OA
ATOM     29  H   UNL A   1      35.770  15.931  25.100  1.00  0.00     0.293 HD
ENDBRANCH  24  28
ENDBRANCH  21  22
ENDBRANCH  18  20
ENDBRANCH  13  16
ENDBRANCH   7  12
ENDBRANCH   3   6
ENDBRANCH   1   2
BRANCH   1  30
ATOM     30  C   UNL A   1      33.941  28.479  24.743  1.00  0.00     0.042 C 
BRANCH  30  31
ATOM     31  C   UNL A   1      34.192  28.732  26.219  1.00  0.00     0.118 C 
BRANCH  31  32
ATOM     32  N   UNL A   1      33.987  30.131  26.583  1.00  0.00    -0.352 N 
ATOM     33  C   UNL A   1      34.669  30.900  27.495  1.00  0.00     0.251 C 
ATOM     34  H   UNL A   1      33.256  30.588  26.108  1.00  0.00     0.163 HD
ATOM     35  O   UNL A   1      34.248  32.010  27.807  1.00  0.00    -0.269 OA
BRANCH  33  36
ATOM     36  C   UNL A   1      35.907  30.375  28.105  1.00  0.00     0.039 A 
ATOM     37  C   UNL A   1      35.850  29.755  29.356  1.00  0.00     0.014 A 
ATOM     38  C   UNL A   1      37.123  30.488  27.427  1.00  0.00     0.014 A 
ATOM     39  C   UNL A   1      37.007  29.194  29.904  1.00  0.00     0.010 A 
ATOM     40  C   UNL A   1      38.250  29.856  27.930  1.00  0.00     0.010 A 
ATOM     41  C   UNL A   1      38.208  29.218  29.181  1.00  0.00    -0.014 A 
BRANCH  41  42
ATOM     42  C   UNL A   1      39.466  28.628  29.701  1.00  0.00     0.031 A 
ATOM     43  C   UNL A   1      40.190  29.332  30.819  1.00  0.00     0.074 A 
ATOM     44  C   UNL A   1      40.024  27.567  29.085  1.00  0.00     0.049 A 
ATOM     45  N   UNL A   1      41.395  29.130  31.280  1.00  0.00    -0.248 NA
ATOM     46  C   UNL A   1      39.479  30.448  31.472  1.00  0.00     0.031 C 
ATOM     47  C   UNL A   1      39.446  26.842  27.950  1.00  0.00     0.029 A 
ATOM     48  N   UNL A   1      41.227  26.942  29.299  1.00  0.00    -0.354 N 
ATOM     49  C   UNL A   1      41.612  30.131  32.220  1.00  0.00     0.074 A 
ATOM     50  C   UNL A   1      40.421  30.949  32.255  1.00  0.00     0.031 C 
ATOM     51  C   UNL A   1      40.302  25.882  27.560  1.00  0.00     0.029 A 
ATOM     52  C   UNL A   1      41.500  25.944  28.390  1.00  0.00     0.049 A 
ATOM     53  H   UNL A   1      41.838  27.183  30.032  1.00  0.00     0.167 HD
ATOM     54  C   UNL A   1      42.698  30.335  33.000  1.00  0.00     0.034 A 
ATOM     55  C   UNL A   1      42.600  25.180  28.237  1.00  0.00     0.034 A 
ATOM     56  C   UNL A   1      43.835  29.459  33.025  1.00  0.00     0.049 A 
ATOM     57  C   UNL A   1      43.756  25.373  29.185  1.00  0.00     0.074 A 
ATOM     58  C   UNL A   1      44.939  29.508  33.856  1.00  0.00     0.029 A 
ATOM     59  N   UNL A   1      44.006  28.367  32.190  1.00  0.00    -0.354 N 
ATOM     60  N   UNL A   1      43.883  26.235  30.166  1.00  0.00    -0.248 NA
ATOM     61  C   UNL A   1      44.905  24.469  29.031  1.00  0.00     0.031 C 
ATOM     62  C   UNL A   1      45.782  28.447  33.522  1.00  0.00     0.029 A 
ATOM     63  C   UNL A   1      45.194  27.728  32.492  1.00  0.00     0.049 A 
ATOM     64  H   UNL A   1      43.376  28.087  31.487  1.00  0.00     0.167 HD
ATOM     65  C   UNL A   1      45.096  25.941  30.777  1.00  0.00     0.074 A 
ATOM     66  C   UNL A   1      45.665  24.820  30.059  1.00  0.00     0.031 C 
ATOM     67  C   UNL A   1      45.693  26.554  31.827  1.00  0.00     0.034 A 
BRANCH  54  68
ATOM     68  C   UNL A   1      42.689  31.510  33.940  1.00  0.00     0.023 A 
ATOM     69  C   UNL A   1      43.182  32.755  33.502  1.00  0.00     0.012 A 
ATOM     70  C   UNL A   1      42.117  31.404  35.223  1.00  0.00     0.148 A 
ATOM     71  C   UNL A   1      43.129  33.872  34.334  1.00  0.00     0.002 A 
ATOM     72  C   UNL A   1      42.027  32.532  36.031  1.00  0.00     0.091 A 
ATOM     73  F   UNL A   1      41.672  30.206  35.628  1.00  0.00    -0.205 F 
ATOM     74  C   UNL A   1      42.541  33.763  35.592  1.00  0.00     0.022 A 
BRANCH  72  75
ATOM     75  S   UNL A   1      41.216  32.516  37.633  1.00  0.00     0.127 S 
ATOM     76  O   UNL A   1      41.251  33.933  37.996  1.00  0.00    -0.237 OA
ATOM     77  O   UNL A   1      39.886  32.006  37.299  1.00  0.00    -0.237 OA
ATOM     78  O   UNL A   1      42.010  31.638  38.481  1.00  0.00    -0.744 OA
ENDBRANCH  72  75
ENDBRANCH  54  68
BRANCH  55  79
ATOM     79  C   UNL A   1      42.638  24.113  27.197  1.00  0.00     0.023 A 
ATOM     80  C   UNL A   1      43.293  24.370  25.977  1.00  0.00     0.012 A 
ATOM     81  C   UNL A   1      42.045  22.852  27.402  1.00  0.00     0.148 A 
ATOM     82  C   UNL A   1      43.324  23.409  24.965  1.00  0.00     0.002 A 
ATOM     83  C   UNL A   1      42.123  21.880  26.410  1.00  0.00     0.091 A 
ATOM     84  F   UNL A   1      41.411  22.626  28.561  1.00  0.00    -0.205 F 
ATOM     85  C   UNL A   1      42.747  22.161  25.185  1.00  0.00     0.022 A 
BRANCH  83  86
ATOM     86  S   UNL A   1      41.513  20.209  26.663  1.00  0.00     0.127 S 
ATOM     87  O   UNL A   1      40.080  20.434  26.832  1.00  0.00    -0.237 OA
ATOM     88  O   UNL A   1      41.888  19.546  25.412  1.00  0.00    -0.237 OA
ATOM     89  O   UNL A   1      42.226  19.715  27.833  1.00  0.00    -0.744 OA
ENDBRANCH  83  86
ENDBRANCH  55  79
BRANCH  67  90
ATOM     90  C   UNL A   1      46.995  25.993  32.328  1.00  0.00     0.023 A 
ATOM     91  C   UNL A   1      48.212  26.496  31.834  1.00  0.00     0.012 A 
ATOM     92  C   UNL A   1      47.003  25.060  33.384  1.00  0.00     0.148 A 
ATOM     93  C   UNL A   1      49.424  26.066  32.373  1.00  0.00     0.002 A 
ATOM     94  C   UNL A   1      48.212  24.672  33.948  1.00  0.00     0.091 A 
ATOM     95  F   UNL A   1      45.830  24.584  33.826  1.00  0.00    -0.205 F 
ATOM     96  C   UNL A   1      49.423  25.168  33.439  1.00  0.00     0.022 A 
BRANCH  94  97
ATOM     97  S   UNL A   1      48.301  23.600  35.386  1.00  0.00     0.127 S 
ATOM     98  O   UNL A   1      47.589  24.387  36.391  1.00  0.00    -0.237 OA
ATOM     99  O   UNL A   1      47.588  22.407  34.929  1.00  0.00    -0.237 OA
ATOM    100  O   UNL A   1      49.719  23.391  35.646  1.00  0.00    -0.744 OA
ENDBRANCH  94  97
ENDBRANCH  67  90
ENDBRANCH  41  42
ENDBRANCH  33  36
ENDBRANCH  31  32
ENDBRANCH  30  31
ENDBRANCH   1  30
TORSDOF 18
ENDMDL
