MODEL 1
REMARK VINA RESULT:     -12.3      0.000      0.000
REMARK SMILES Cc1c(F)cc(C(=O)NCCCNC(=O)c2ccc(-c3c4nc(c(-c5cccc(S(=O)(=O)[O-])c5F)c5ccc([nH]5)c(-c5cccc(S(=O)(=O)[O-])c5F)c5nc(c(-c6cccc(S(=O)(=O)[O-])c6F)c6ccc3[nH]6)C=C5)C=C4)cc2)cc1S(=O)(=O)NC#N
REMARK SMILES IDX 11 1 10 2 9 3 7 4 8 5 6 7 1 8 2 9 3 10 80 11 4 12 5 13 79 14
REMARK SMILES IDX 81 15 82 16 83 17 84 18 85 20 86 21 12 22 13 23 14 24 15 26
REMARK SMILES IDX 16 27 17 28 78 29 18 30 77 31 19 32 20 33 21 34 71 35 22 36
REMARK SMILES IDX 76 37 70 38 72 39 23 40 75 41 69 42 68 43 24 45 56 46 36 47
REMARK SMILES IDX 55 48 37 49 40 50 54 51 73 52 38 53 39 54 53 56 74 57 41 58
REMARK SMILES IDX 25 59 26 60 34 61 27 62 29 63 35 64 28 65 30 66 31 67 32 68
REMARK SMILES IDX 33 69 57 70 58 71 66 72 59 73 61 74 67 75 60 76 62 77 63 78
REMARK SMILES IDX 64 79 65 80 42 81 43 82 51 83 44 84 46 85 52 86 45 87 47 88
REMARK SMILES IDX 48 89 49 90 50 91
REMARK H PARENT 9 6 84 19 13 25 72 44 40 55
REMARK Flexibility Score: inf
ROOT
ATOM      1  C   UNL A   1      34.302  29.789  27.595  1.00  0.00     0.042 C 
ENDROOT
BRANCH   1   2
ATOM      2  C   UNL A   1      33.286  29.858  26.450  1.00  0.00     0.118 C 
BRANCH   2   3
ATOM      3  N   UNL A   1      33.921  29.475  25.197  1.00  0.00    -0.352 N 
ATOM      4  C   UNL A   1      33.435  28.789  24.116  1.00  0.00     0.251 C 
ATOM      5  O   UNL A   1      34.186  28.537  23.174  1.00  0.00    -0.269 OA
ATOM      6  H   UNL A   1      34.860  29.758  25.113  1.00  0.00     0.163 HD
BRANCH   4   7
ATOM      7  C   UNL A   1      32.007  28.363  24.012  1.00  0.00     0.044 A 
ATOM      8  C   UNL A   1      27.976  26.790  23.788  1.00  0.00     0.049 C 
ATOM      9  C   UNL A   1      29.320  27.429  23.811  1.00  0.00     0.005 A 
ATOM     10  C   UNL A   1      30.398  26.596  24.192  1.00  0.00     0.128 A 
ATOM     11  C   UNL A   1      29.617  28.743  23.467  1.00  0.00     0.095 A 
ATOM     12  F   UNL A   1      30.163  25.302  24.461  1.00  0.00    -0.207 F 
ATOM     13  C   UNL A   1      31.713  27.039  24.289  1.00  0.00     0.053 A 
ATOM     14  C   UNL A   1      30.943  29.182  23.641  1.00  0.00     0.036 A 
BRANCH  11  15
ATOM     15  S   UNL A   1      28.623  30.004  22.675  1.00  0.00     0.270 S 
ATOM     16  O   UNL A   1      28.664  29.684  21.259  1.00  0.00    -0.201 OA
ATOM     17  O   UNL A   1      27.350  30.030  23.362  1.00  0.00    -0.201 OA
BRANCH  15  18
ATOM     18  N   UNL A   1      29.254  31.539  22.708  1.00  0.00    -0.215 NA
ATOM     19  H   UNL A   1      30.142  31.723  23.092  1.00  0.00     0.193 HD
BRANCH  18  20
ATOM     20  C   UNL A   1      28.505  32.506  22.194  1.00  0.00     0.191 C 
ATOM     21  N   UNL A   1      27.957  33.431  21.786  1.00  0.00    -0.172 NA
ENDBRANCH  18  20
ENDBRANCH  15  18
ENDBRANCH  11  15
ENDBRANCH   4   7
ENDBRANCH   2   3
ENDBRANCH   1   2
BRANCH   1  22
ATOM     22  C   UNL A   1      35.069  31.059  27.642  1.00  0.00     0.118 C 
BRANCH  22  23
ATOM     23  N   UNL A   1      34.407  32.112  28.390  1.00  0.00    -0.352 N 
ATOM     24  C   UNL A   1      34.807  32.703  29.569  1.00  0.00     0.251 C 
ATOM     25  H   UNL A   1      33.564  32.446  28.006  1.00  0.00     0.163 HD
ATOM     26  O   UNL A   1      34.024  33.383  30.225  1.00  0.00    -0.269 OA
BRANCH  24  27
ATOM     27  C   UNL A   1      36.233  32.629  29.967  1.00  0.00     0.039 A 
ATOM     28  C   UNL A   1      37.209  33.422  29.352  1.00  0.00     0.014 A 
ATOM     29  C   UNL A   1      36.643  31.571  30.764  1.00  0.00     0.014 A 
ATOM     30  C   UNL A   1      38.536  32.993  29.404  1.00  0.00     0.010 A 
ATOM     31  C   UNL A   1      37.922  31.325  31.058  1.00  0.00     0.010 A 
ATOM     32  C   UNL A   1      38.829  31.886  30.198  1.00  0.00    -0.014 A 
BRANCH  32  33
ATOM     33  C   UNL A   1      40.053  31.135  30.307  1.00  0.00     0.031 A 
ATOM     34  C   UNL A   1      39.942  29.849  29.631  1.00  0.00     0.074 A 
ATOM     35  C   UNL A   1      41.131  31.852  30.723  1.00  0.00     0.049 A 
ATOM     36  N   UNL A   1      40.146  28.694  30.156  1.00  0.00    -0.248 NA
ATOM     37  C   UNL A   1      39.308  29.755  28.298  1.00  0.00     0.031 C 
ATOM     38  C   UNL A   1      42.559  31.593  30.685  1.00  0.00     0.029 A 
ATOM     39  N   UNL A   1      41.062  33.070  31.421  1.00  0.00    -0.354 N 
ATOM     40  C   UNL A   1      40.280  27.878  29.055  1.00  0.00     0.074 A 
ATOM     41  C   UNL A   1      39.414  28.447  28.055  1.00  0.00     0.031 C 
ATOM     42  C   UNL A   1      43.163  32.351  31.629  1.00  0.00     0.029 A 
ATOM     43  C   UNL A   1      42.143  33.129  32.319  1.00  0.00     0.049 A 
ATOM     44  H   UNL A   1      40.374  33.763  31.301  1.00  0.00     0.167 HD
ATOM     45  C   UNL A   1      41.453  27.194  28.888  1.00  0.00     0.034 A 
ATOM     46  C   UNL A   1      41.841  33.079  33.654  1.00  0.00     0.034 A 
ATOM     47  C   UNL A   1      42.414  27.588  29.933  1.00  0.00     0.049 A 
ATOM     48  C   UNL A   1      41.971  31.643  34.144  1.00  0.00     0.074 A 
ATOM     49  C   UNL A   1      43.584  28.331  29.916  1.00  0.00     0.029 A 
ATOM     50  N   UNL A   1      42.032  27.545  31.266  1.00  0.00    -0.354 N 
ATOM     51  N   UNL A   1      42.149  30.612  33.359  1.00  0.00    -0.248 NA
ATOM     52  C   UNL A   1      41.884  31.254  35.545  1.00  0.00     0.031 C 
ATOM     53  C   UNL A   1      43.888  28.724  31.256  1.00  0.00     0.029 A 
ATOM     54  C   UNL A   1      42.896  28.240  32.087  1.00  0.00     0.049 A 
ATOM     55  H   UNL A   1      41.233  27.070  31.589  1.00  0.00     0.167 HD
ATOM     56  C   UNL A   1      42.285  29.467  34.093  1.00  0.00     0.074 A 
ATOM     57  C   UNL A   1      42.008  29.917  35.453  1.00  0.00     0.031 C 
ATOM     58  C   UNL A   1      42.636  28.267  33.525  1.00  0.00     0.034 A 
BRANCH  45  59
ATOM     59  C   UNL A   1      41.832  26.443  27.627  1.00  0.00     0.023 A 
ATOM     60  C   UNL A   1      42.255  27.078  26.434  1.00  0.00     0.012 A 
ATOM     61  C   UNL A   1      41.716  25.040  27.563  1.00  0.00     0.148 A 
ATOM     62  C   UNL A   1      42.615  26.365  25.280  1.00  0.00     0.002 A 
ATOM     63  C   UNL A   1      42.056  24.332  26.410  1.00  0.00     0.091 A 
ATOM     64  F   UNL A   1      41.244  24.356  28.612  1.00  0.00    -0.205 F 
ATOM     65  C   UNL A   1      42.516  24.984  25.267  1.00  0.00     0.022 A 
BRANCH  63  66
ATOM     66  S   UNL A   1      41.871  22.548  26.416  1.00  0.00     0.127 S 
ATOM     67  O   UNL A   1      42.443  22.166  25.129  1.00  0.00    -0.237 OA
ATOM     68  O   UNL A   1      42.602  22.144  27.613  1.00  0.00    -0.237 OA
ATOM     69  O   UNL A   1      40.422  22.364  26.509  1.00  0.00    -0.744 OA
ENDBRANCH  63  66
ENDBRANCH  45  59
BRANCH  46  70
ATOM     70  C   UNL A   1      40.691  34.026  33.946  1.00  0.00     0.023 A 
ATOM     71  C   UNL A   1      40.993  35.325  34.387  1.00  0.00     0.012 A 
ATOM     72  C   UNL A   1      39.480  33.423  34.392  1.00  0.00     0.148 A 
ATOM     73  C   UNL A   1      40.253  35.883  35.435  1.00  0.00     0.002 A 
ATOM     74  C   UNL A   1      38.799  33.958  35.485  1.00  0.00     0.091 A 
ATOM     75  F   UNL A   1      39.105  32.251  33.856  1.00  0.00    -0.205 F 
ATOM     76  C   UNL A   1      39.217  35.167  36.035  1.00  0.00     0.022 A 
BRANCH  74  77
ATOM     77  S   UNL A   1      37.552  32.991  36.354  1.00  0.00     0.127 S 
ATOM     78  O   UNL A   1      37.455  33.666  37.644  1.00  0.00    -0.237 OA
ATOM     79  O   UNL A   1      36.388  33.072  35.479  1.00  0.00    -0.237 OA
ATOM     80  O   UNL A   1      38.133  31.645  36.415  1.00  0.00    -0.744 OA
ENDBRANCH  74  77
ENDBRANCH  46  70
BRANCH  58  81
ATOM     81  C   UNL A   1      42.734  26.951  34.266  1.00  0.00     0.023 A 
ATOM     82  C   UNL A   1      41.584  26.398  34.890  1.00  0.00     0.012 A 
ATOM     83  C   UNL A   1      43.902  26.201  34.375  1.00  0.00     0.148 A 
ATOM     84  C   UNL A   1      41.630  25.272  35.711  1.00  0.00     0.002 A 
ATOM     85  C   UNL A   1      43.977  25.139  35.272  1.00  0.00     0.091 A 
ATOM     86  F   UNL A   1      44.932  26.442  33.555  1.00  0.00    -0.205 F 
ATOM     87  C   UNL A   1      42.850  24.672  35.950  1.00  0.00     0.022 A 
BRANCH  85  88
ATOM     88  S   UNL A   1      45.598  24.488  35.656  1.00  0.00     0.127 S 
ATOM     89  O   UNL A   1      45.345  23.554  36.746  1.00  0.00    -0.237 OA
ATOM     90  O   UNL A   1      46.001  23.899  34.380  1.00  0.00    -0.237 OA
ATOM     91  O   UNL A   1      46.359  25.678  36.039  1.00  0.00    -0.744 OA
ENDBRANCH  85  88
ENDBRANCH  58  81
ENDBRANCH  32  33
ENDBRANCH  24  27
ENDBRANCH  22  23
ENDBRANCH   1  22
TORSDOF 16
ENDMDL
MODEL 2
REMARK VINA RESULT:     -12.0      2.185      3.277
REMARK SMILES Cc1c(F)cc(C(=O)NCCCNC(=O)c2ccc(-c3c4nc(c(-c5cccc(S(=O)(=O)[O-])c5F)c5ccc([nH]5)c(-c5cccc(S(=O)(=O)[O-])c5F)c5nc(c(-c6cccc(S(=O)(=O)[O-])c6F)c6ccc3[nH]6)C=C5)C=C4)cc2)cc1S(=O)(=O)NC#N
REMARK SMILES IDX 11 1 10 2 9 3 7 4 8 5 6 7 1 8 2 9 3 10 80 11 4 12 5 13 79 14
REMARK SMILES IDX 81 15 82 16 83 17 84 18 85 20 86 21 12 22 13 23 14 24 15 26
REMARK SMILES IDX 16 27 17 28 78 29 18 30 77 31 19 32 20 33 21 34 71 35 22 36
REMARK SMILES IDX 76 37 70 38 72 39 23 40 75 41 69 42 68 43 24 45 56 46 36 47
REMARK SMILES IDX 55 48 37 49 40 50 54 51 73 52 38 53 39 54 53 56 74 57 41 58
REMARK SMILES IDX 25 59 26 60 34 61 27 62 29 63 35 64 28 65 30 66 31 67 32 68
REMARK SMILES IDX 33 69 57 70 58 71 66 72 59 73 61 74 67 75 60 76 62 77 63 78
REMARK SMILES IDX 64 79 65 80 42 81 43 82 51 83 44 84 46 85 52 86 45 87 47 88
REMARK SMILES IDX 48 89 49 90 50 91
REMARK H PARENT 9 6 84 19 13 25 72 44 40 55
REMARK Flexibility Score: inf
ROOT
ATOM      1  C   UNL A   1      33.823  30.413  27.201  1.00  0.00     0.042 C 
ENDROOT
BRANCH   1   2
ATOM      2  C   UNL A   1      33.220  29.237  26.426  1.00  0.00     0.118 C 
BRANCH   2   3
ATOM      3  N   UNL A   1      33.722  29.232  25.059  1.00  0.00    -0.352 N 
ATOM      4  C   UNL A   1      33.121  28.873  23.883  1.00  0.00     0.251 C 
ATOM      5  O   UNL A   1      33.771  28.907  22.838  1.00  0.00    -0.269 OA
ATOM      6  H   UNL A   1      34.652  29.541  24.965  1.00  0.00     0.163 HD
BRANCH   4   7
ATOM      7  C   UNL A   1      31.684  28.473  23.805  1.00  0.00     0.044 A 
ATOM      8  C   UNL A   1      27.622  26.973  23.643  1.00  0.00     0.049 C 
ATOM      9  C   UNL A   1      28.976  27.589  23.650  1.00  0.00     0.005 A 
ATOM     10  C   UNL A   1      30.050  26.727  23.973  1.00  0.00     0.128 A 
ATOM     11  C   UNL A   1      29.286  28.909  23.339  1.00  0.00     0.095 A 
ATOM     12  F   UNL A   1      29.801  25.429  24.207  1.00  0.00    -0.207 F 
ATOM     13  C   UNL A   1      31.375  27.145  24.047  1.00  0.00     0.053 A 
ATOM     14  C   UNL A   1      30.624  29.321  23.490  1.00  0.00     0.036 A 
BRANCH  11  15
ATOM     15  S   UNL A   1      28.293  30.211  22.616  1.00  0.00     0.270 S 
ATOM     16  O   UNL A   1      27.958  29.736  21.285  1.00  0.00    -0.201 OA
ATOM     17  O   UNL A   1      27.232  30.502  23.555  1.00  0.00    -0.201 OA
BRANCH  15  18
ATOM     18  N   UNL A   1      29.095  31.628  22.294  1.00  0.00    -0.215 NA
ATOM     19  H   UNL A   1      30.060  31.725  22.464  1.00  0.00     0.193 HD
BRANCH  18  20
ATOM     20  C   UNL A   1      28.373  32.625  21.796  1.00  0.00     0.191 C 
ATOM     21  N   UNL A   1      27.721  33.404  21.258  1.00  0.00    -0.172 NA
ENDBRANCH  18  20
ENDBRANCH  15  18
ENDBRANCH  11  15
ENDBRANCH   4   7
ENDBRANCH   2   3
ENDBRANCH   1   2
BRANCH   1  22
ATOM     22  C   UNL A   1      35.206  30.065  27.616  1.00  0.00     0.118 C 
BRANCH  22  23
ATOM     23  N   UNL A   1      36.013  31.217  27.973  1.00  0.00    -0.352 N 
ATOM     24  C   UNL A   1      37.221  31.240  28.637  1.00  0.00     0.251 C 
ATOM     25  H   UNL A   1      35.652  32.093  27.708  1.00  0.00     0.163 HD
ATOM     26  O   UNL A   1      37.657  32.286  29.107  1.00  0.00    -0.269 OA
BRANCH  24  27
ATOM     27  C   UNL A   1      38.059  30.018  28.655  1.00  0.00     0.039 A 
ATOM     28  C   UNL A   1      37.944  29.062  29.671  1.00  0.00     0.014 A 
ATOM     29  C   UNL A   1      39.155  29.956  27.807  1.00  0.00     0.014 A 
ATOM     30  C   UNL A   1      39.030  28.219  29.910  1.00  0.00     0.010 A 
ATOM     31  C   UNL A   1      40.058  28.972  27.844  1.00  0.00     0.010 A 
ATOM     32  C   UNL A   1      40.103  28.276  29.022  1.00  0.00    -0.014 A 
BRANCH  32  33
ATOM     33  C   UNL A   1      41.400  27.658  29.113  1.00  0.00     0.031 A 
ATOM     34  C   UNL A   1      41.355  26.272  28.665  1.00  0.00     0.074 A 
ATOM     35  C   UNL A   1      42.437  28.521  29.290  1.00  0.00     0.049 A 
ATOM     36  N   UNL A   1      41.721  25.242  29.339  1.00  0.00    -0.248 NA
ATOM     37  C   UNL A   1      40.609  25.904  27.441  1.00  0.00     0.031 C 
ATOM     38  C   UNL A   1      43.873  28.378  29.136  1.00  0.00     0.029 A 
ATOM     39  N   UNL A   1      42.313  29.829  29.790  1.00  0.00    -0.354 N 
ATOM     40  C   UNL A   1      41.831  24.267  28.372  1.00  0.00     0.074 A 
ATOM     41  C   UNL A   1      40.821  24.588  27.396  1.00  0.00     0.031 C 
ATOM     42  C   UNL A   1      44.486  29.331  29.877  1.00  0.00     0.029 A 
ATOM     43  C   UNL A   1      43.463  30.125  30.544  1.00  0.00     0.049 A 
ATOM     44  H   UNL A   1      41.551  30.433  29.639  1.00  0.00     0.167 HD
ATOM     45  C   UNL A   1      43.045  23.665  28.188  1.00  0.00     0.034 A 
ATOM     46  C   UNL A   1      43.295  30.275  31.895  1.00  0.00     0.034 A 
ATOM     47  C   UNL A   1      44.057  24.306  29.045  1.00  0.00     0.049 A 
ATOM     48  C   UNL A   1      43.614  28.956  32.587  1.00  0.00     0.074 A 
ATOM     49  C   UNL A   1      45.140  25.130  28.783  1.00  0.00     0.029 A 
ATOM     50  N   UNL A   1      43.810  24.454  30.402  1.00  0.00    -0.354 N 
ATOM     51  N   UNL A   1      43.818  27.826  31.960  1.00  0.00    -0.248 NA
ATOM     52  C   UNL A   1      43.700  28.801  34.033  1.00  0.00     0.031 C 
ATOM     53  C   UNL A   1      45.529  25.765  30.003  1.00  0.00     0.029 A 
ATOM     54  C   UNL A   1      44.673  25.346  31.003  1.00  0.00     0.049 A 
ATOM     55  H   UNL A   1      43.096  23.976  30.882  1.00  0.00     0.167 HD
ATOM     56  C   UNL A   1      44.137  26.836  32.846  1.00  0.00     0.074 A 
ATOM     57  C   UNL A   1      43.947  27.482  34.140  1.00  0.00     0.031 C 
ATOM     58  C   UNL A   1      44.550  25.591  32.439  1.00  0.00     0.034 A 
BRANCH  45  59
ATOM     59  C   UNL A   1      43.376  22.747  27.026  1.00  0.00     0.023 A 
ATOM     60  C   UNL A   1      44.090  23.165  25.877  1.00  0.00     0.012 A 
ATOM     61  C   UNL A   1      42.918  21.415  27.009  1.00  0.00     0.148 A 
ATOM     62  C   UNL A   1      44.399  22.298  24.818  1.00  0.00     0.002 A 
ATOM     63  C   UNL A   1      43.209  20.558  25.948  1.00  0.00     0.091 A 
ATOM     64  F   UNL A   1      42.162  20.951  28.011  1.00  0.00    -0.205 F 
ATOM     65  C   UNL A   1      43.956  20.987  24.852  1.00  0.00     0.022 A 
BRANCH  63  66
ATOM     66  S   UNL A   1      42.580  18.880  26.008  1.00  0.00     0.127 S 
ATOM     67  O   UNL A   1      43.364  18.210  24.975  1.00  0.00    -0.237 OA
ATOM     68  O   UNL A   1      42.826  18.482  27.389  1.00  0.00    -0.237 OA
ATOM     69  O   UNL A   1      41.163  19.043  25.675  1.00  0.00    -0.744 OA
ENDBRANCH  63  66
ENDBRANCH  45  59
BRANCH  46  70
ATOM     70  C   UNL A   1      42.090  31.158  32.159  1.00  0.00     0.023 A 
ATOM     71  C   UNL A   1      42.293  32.543  32.282  1.00  0.00     0.012 A 
ATOM     72  C   UNL A   1      41.023  30.562  32.890  1.00  0.00     0.148 A 
ATOM     73  C   UNL A   1      41.632  33.246  33.295  1.00  0.00     0.002 A 
ATOM     74  C   UNL A   1      40.428  31.257  33.942  1.00  0.00     0.091 A 
ATOM     75  F   UNL A   1      40.722  29.274  32.660  1.00  0.00    -0.205 F 
ATOM     76  C   UNL A   1      40.771  32.587  34.172  1.00  0.00     0.022 A 
BRANCH  74  77
ATOM     77  S   UNL A   1      39.423  30.394  35.162  1.00  0.00     0.127 S 
ATOM     78  O   UNL A   1      40.375  29.481  35.785  1.00  0.00    -0.237 OA
ATOM     79  O   UNL A   1      38.902  31.471  35.997  1.00  0.00    -0.237 OA
ATOM     80  O   UNL A   1      38.385  29.736  34.360  1.00  0.00    -0.744 OA
ENDBRANCH  74  77
ENDBRANCH  46  70
BRANCH  58  81
ATOM     81  C   UNL A   1      44.849  24.430  33.362  1.00  0.00     0.023 A 
ATOM     82  C   UNL A   1      43.805  23.555  33.767  1.00  0.00     0.012 A 
ATOM     83  C   UNL A   1      46.116  24.128  33.853  1.00  0.00     0.148 A 
ATOM     84  C   UNL A   1      43.975  22.559  34.727  1.00  0.00     0.002 A 
ATOM     85  C   UNL A   1      46.272  23.207  34.885  1.00  0.00     0.091 A 
ATOM     86  F   UNL A   1      47.202  24.658  33.277  1.00  0.00    -0.205 F 
ATOM     87  C   UNL A   1      45.207  22.423  35.334  1.00  0.00     0.022 A 
BRANCH  85  88
ATOM     88  S   UNL A   1      47.845  23.166  35.734  1.00  0.00     0.127 S 
ATOM     89  O   UNL A   1      48.732  22.503  34.785  1.00  0.00    -0.237 OA
ATOM     90  O   UNL A   1      48.100  24.586  35.974  1.00  0.00    -0.237 OA
ATOM     91  O   UNL A   1      47.559  22.392  36.941  1.00  0.00    -0.744 OA
ENDBRANCH  85  88
ENDBRANCH  58  81
ENDBRANCH  32  33
ENDBRANCH  24  27
ENDBRANCH  22  23
ENDBRANCH   1  22
TORSDOF 16
ENDMDL
MODEL 3
REMARK VINA RESULT:     -11.8      2.967      4.566
REMARK SMILES Cc1c(F)cc(C(=O)NCCCNC(=O)c2ccc(-c3c4nc(c(-c5cccc(S(=O)(=O)[O-])c5F)c5ccc([nH]5)c(-c5cccc(S(=O)(=O)[O-])c5F)c5nc(c(-c6cccc(S(=O)(=O)[O-])c6F)c6ccc3[nH]6)C=C5)C=C4)cc2)cc1S(=O)(=O)NC#N
REMARK SMILES IDX 11 1 10 2 9 3 7 4 8 5 6 7 1 8 2 9 3 10 80 11 4 12 5 13 79 14
REMARK SMILES IDX 81 15 82 16 83 17 84 18 85 20 86 21 12 22 13 23 14 24 15 26
REMARK SMILES IDX 16 27 17 28 78 29 18 30 77 31 19 32 20 33 21 34 71 35 22 36
REMARK SMILES IDX 76 37 70 38 72 39 23 40 75 41 69 42 68 43 24 45 56 46 36 47
REMARK SMILES IDX 55 48 37 49 40 50 54 51 73 52 38 53 39 54 53 56 74 57 41 58
REMARK SMILES IDX 25 59 26 60 34 61 27 62 29 63 35 64 28 65 30 66 31 67 32 68
REMARK SMILES IDX 33 69 57 70 58 71 66 72 59 73 61 74 67 75 60 76 62 77 63 78
REMARK SMILES IDX 64 79 65 80 42 81 43 82 51 83 44 84 46 85 52 86 45 87 47 88
REMARK SMILES IDX 48 89 49 90 50 91
REMARK H PARENT 9 6 84 19 13 25 72 44 40 55
REMARK Flexibility Score: inf
ROOT
ATOM      1  C   UNL A   1      32.717  29.466  27.142  1.00  0.00     0.042 C 
ENDROOT
BRANCH   1   2
ATOM      2  C   UNL A   1      32.387  28.521  25.982  1.00  0.00     0.118 C 
BRANCH   2   3
ATOM      3  N   UNL A   1      31.361  27.572  26.390  1.00  0.00    -0.352 N 
ATOM      4  C   UNL A   1      31.238  26.228  26.160  1.00  0.00     0.251 C 
ATOM      5  O   UNL A   1      30.241  25.634  26.572  1.00  0.00    -0.269 OA
ATOM      6  H   UNL A   1      30.632  27.964  26.923  1.00  0.00     0.163 HD
BRANCH   4   7
ATOM      7  C   UNL A   1      32.290  25.434  25.459  1.00  0.00     0.044 A 
ATOM      8  C   UNL A   1      35.255  23.308  23.121  1.00  0.00     0.049 C 
ATOM      9  C   UNL A   1      34.253  23.956  24.009  1.00  0.00     0.005 A 
ATOM     10  C   UNL A   1      33.481  24.989  23.427  1.00  0.00     0.128 A 
ATOM     11  C   UNL A   1      33.983  23.624  25.332  1.00  0.00     0.095 A 
ATOM     12  F   UNL A   1      33.659  25.289  22.131  1.00  0.00    -0.207 F 
ATOM     13  C   UNL A   1      32.518  25.713  24.122  1.00  0.00     0.053 A 
ATOM     14  C   UNL A   1      33.054  24.418  26.031  1.00  0.00     0.036 A 
BRANCH  11  15
ATOM     15  S   UNL A   1      34.509  22.230  26.325  1.00  0.00     0.270 S 
ATOM     16  O   UNL A   1      35.937  22.416  26.513  1.00  0.00    -0.201 OA
ATOM     17  O   UNL A   1      33.640  22.185  27.481  1.00  0.00    -0.201 OA
BRANCH  15  18
ATOM     18  N   UNL A   1      34.441  20.751  25.576  1.00  0.00    -0.215 NA
ATOM     19  H   UNL A   1      35.258  20.252  25.345  1.00  0.00     0.193 HD
BRANCH  18  20
ATOM     20  C   UNL A   1      33.233  20.273  25.301  1.00  0.00     0.191 C 
ATOM     21  N   UNL A   1      32.150  19.992  25.042  1.00  0.00    -0.172 NA
ENDBRANCH  18  20
ENDBRANCH  15  18
ENDBRANCH  11  15
ENDBRANCH   4   7
ENDBRANCH   2   3
ENDBRANCH   1   2
BRANCH   1  22
ATOM     22  C   UNL A   1      34.100  29.979  26.975  1.00  0.00     0.118 C 
BRANCH  22  23
ATOM     23  N   UNL A   1      34.429  31.069  27.875  1.00  0.00    -0.352 N 
ATOM     24  C   UNL A   1      35.318  31.067  28.929  1.00  0.00     0.251 C 
ATOM     25  H   UNL A   1      33.957  31.918  27.712  1.00  0.00     0.163 HD
ATOM     26  O   UNL A   1      35.299  31.966  29.764  1.00  0.00    -0.269 OA
BRANCH  24  27
ATOM     27  C   UNL A   1      36.392  30.047  28.966  1.00  0.00     0.039 A 
ATOM     28  C   UNL A   1      36.687  29.332  30.133  1.00  0.00     0.014 A 
ATOM     29  C   UNL A   1      37.292  29.996  27.912  1.00  0.00     0.014 A 
ATOM     30  C   UNL A   1      37.957  28.768  30.259  1.00  0.00     0.010 A 
ATOM     31  C   UNL A   1      38.380  29.221  27.912  1.00  0.00     0.010 A 
ATOM     32  C   UNL A   1      38.801  28.818  29.151  1.00  0.00    -0.014 A 
BRANCH  32  33
ATOM     33  C   UNL A   1      40.195  28.476  29.046  1.00  0.00     0.031 A 
ATOM     34  C   UNL A   1      40.366  27.067  28.713  1.00  0.00     0.074 A 
ATOM     35  C   UNL A   1      41.044  29.536  28.968  1.00  0.00     0.049 A 
ATOM     36  N   UNL A   1      41.046  26.205  29.381  1.00  0.00    -0.248 NA
ATOM     37  C   UNL A   1      39.522  26.434  27.677  1.00  0.00     0.031 C 
ATOM     38  C   UNL A   1      42.432  29.657  28.564  1.00  0.00     0.029 A 
ATOM     39  N   UNL A   1      40.734  30.841  29.388  1.00  0.00    -0.354 N 
ATOM     40  C   UNL A   1      41.195  25.172  28.482  1.00  0.00     0.074 A 
ATOM     41  C   UNL A   1      39.994  25.186  27.688  1.00  0.00     0.031 C 
ATOM     42  C   UNL A   1      42.947  30.784  29.109  1.00  0.00     0.029 A 
ATOM     43  C   UNL A   1      41.905  31.433  29.894  1.00  0.00     0.049 A 
ATOM     44  H   UNL A   1      39.849  31.267  29.336  1.00  0.00     0.167 HD
ATOM     45  C   UNL A   1      42.460  24.798  28.122  1.00  0.00     0.034 A 
ATOM     46  C   UNL A   1      41.936  31.691  31.239  1.00  0.00     0.034 A 
ATOM     47  C   UNL A   1      43.444  25.711  28.731  1.00  0.00     0.049 A 
ATOM     48  C   UNL A   1      42.632  30.540  31.954  1.00  0.00     0.074 A 
ATOM     49  C   UNL A   1      44.273  26.695  28.216  1.00  0.00     0.029 A 
ATOM     50  N   UNL A   1      43.399  25.953  30.096  1.00  0.00    -0.354 N 
ATOM     51  N   UNL A   1      42.961  29.410  31.382  1.00  0.00    -0.248 NA
ATOM     52  C   UNL A   1      42.986  30.560  33.366  1.00  0.00     0.031 C 
ATOM     53  C   UNL A   1      44.717  27.520  29.296  1.00  0.00     0.029 A 
ATOM     54  C   UNL A   1      44.145  27.054  30.464  1.00  0.00     0.049 A 
ATOM     55  H   UNL A   1      42.890  25.400  30.732  1.00  0.00     0.167 HD
ATOM     56  C   UNL A   1      43.621  28.601  32.262  1.00  0.00     0.074 A 
ATOM     57  C   UNL A   1      43.517  29.333  33.520  1.00  0.00     0.031 C 
ATOM     58  C   UNL A   1      44.212  27.422  31.876  1.00  0.00     0.034 A 
BRANCH  45  59
ATOM     59  C   UNL A   1      42.779  23.843  26.988  1.00  0.00     0.023 A 
ATOM     60  C   UNL A   1      43.446  24.231  25.800  1.00  0.00     0.012 A 
ATOM     61  C   UNL A   1      42.356  22.500  27.039  1.00  0.00     0.148 A 
ATOM     62  C   UNL A   1      43.744  23.330  24.767  1.00  0.00     0.002 A 
ATOM     63  C   UNL A   1      42.636  21.608  26.003  1.00  0.00     0.091 A 
ATOM     64  F   UNL A   1      41.644  22.059  28.082  1.00  0.00    -0.205 F 
ATOM     65  C   UNL A   1      43.337  22.011  24.867  1.00  0.00     0.022 A 
BRANCH  63  66
ATOM     66  S   UNL A   1      42.053  19.918  26.150  1.00  0.00     0.127 S 
ATOM     67  O   UNL A   1      40.603  20.080  26.127  1.00  0.00    -0.237 OA
ATOM     68  O   UNL A   1      42.664  19.256  25.002  1.00  0.00    -0.237 OA
ATOM     69  O   UNL A   1      42.590  19.492  27.444  1.00  0.00    -0.744 OA
ENDBRANCH  63  66
ENDBRANCH  45  59
BRANCH  46  70
ATOM     70  C   UNL A   1      40.634  32.349  31.656  1.00  0.00     0.023 A 
ATOM     71  C   UNL A   1      40.582  33.751  31.707  1.00  0.00     0.012 A 
ATOM     72  C   UNL A   1      39.816  31.607  32.556  1.00  0.00     0.148 A 
ATOM     73  C   UNL A   1      39.949  34.376  32.788  1.00  0.00     0.002 A 
ATOM     74  C   UNL A   1      39.255  32.238  33.666  1.00  0.00     0.091 A 
ATOM     75  F   UNL A   1      39.738  30.275  32.411  1.00  0.00    -0.205 F 
ATOM     76  C   UNL A   1      39.364  33.619  33.803  1.00  0.00     0.022 A 
BRANCH  74  77
ATOM     77  S   UNL A   1      38.618  31.274  35.047  1.00  0.00     0.127 S 
ATOM     78  O   UNL A   1      38.437  29.948  34.466  1.00  0.00    -0.237 OA
ATOM     79  O   UNL A   1      39.655  31.411  36.064  1.00  0.00    -0.237 OA
ATOM     80  O   UNL A   1      37.369  31.956  35.405  1.00  0.00    -0.744 OA
ENDBRANCH  74  77
ENDBRANCH  46  70
BRANCH  58  81
ATOM     81  C   UNL A   1      44.895  26.446  32.810  1.00  0.00     0.023 A 
ATOM     82  C   UNL A   1      46.286  26.190  32.678  1.00  0.00     0.012 A 
ATOM     83  C   UNL A   1      44.248  25.764  33.837  1.00  0.00     0.148 A 
ATOM     84  C   UNL A   1      46.950  25.200  33.400  1.00  0.00     0.002 A 
ATOM     85  C   UNL A   1      44.878  24.706  34.487  1.00  0.00     0.091 A 
ATOM     86  F   UNL A   1      43.049  26.177  34.265  1.00  0.00    -0.205 F 
ATOM     87  C   UNL A   1      46.225  24.411  34.271  1.00  0.00     0.022 A 
BRANCH  85  88
ATOM     88  S   UNL A   1      43.867  23.629  35.494  1.00  0.00     0.127 S 
ATOM     89  O   UNL A   1      42.727  23.325  34.637  1.00  0.00    -0.237 OA
ATOM     90  O   UNL A   1      44.781  22.523  35.773  1.00  0.00    -0.237 OA
ATOM     91  O   UNL A   1      43.547  24.456  36.658  1.00  0.00    -0.744 OA
ENDBRANCH  85  88
ENDBRANCH  58  81
ENDBRANCH  32  33
ENDBRANCH  24  27
ENDBRANCH  22  23
ENDBRANCH   1  22
TORSDOF 16
ENDMDL
