MODEL 1
REMARK VINA RESULT:     -12.4      0.000      0.000
REMARK SMILES CCOc1cccc(C(=O)Nc2ccc(Cl)c(C(=O)NCCCNC(=O)c3ccc(-c4c5nc(c(-c6cccc(S(=O)(=O)[O-])c6F)c6ccc([nH]6)c(-c6cccc(S(=O)(=O)[O-])c6F)c6nc(c(-c7cccc(S(=O)(=O)[O-])c7F)c7ccc4[nH]7)C=C6)C=C5)cc3)c2)c1
REMARK SMILES IDX 21 1 20 2 18 3 19 4 17 6 12 7 13 8 90 9 14 10 15 11 16 12
REMARK SMILES IDX 11 13 9 14 10 15 8 17 4 18 5 19 91 20 6 21 7 22 3 23 2 24
REMARK SMILES IDX 1 25 22 26 23 27 24 28 25 29 26 31 27 32 28 33 89 34 29 35
REMARK SMILES IDX 88 36 30 37 31 38 32 39 82 40 33 41 87 42 81 43 83 44 34 45
REMARK SMILES IDX 86 46 80 47 79 48 35 50 67 51 47 52 66 53 48 54 51 55 65 56
REMARK SMILES IDX 84 57 49 58 50 59 64 61 85 62 52 63 36 64 37 65 45 66 38 67
REMARK SMILES IDX 40 68 46 69 39 70 41 71 42 72 43 73 44 74 68 75 69 76 77 77
REMARK SMILES IDX 70 78 72 79 78 80 71 81 73 82 74 83 75 84 76 85 53 86 54 87
REMARK SMILES IDX 62 88 55 89 57 90 63 91 56 92 58 93 59 94 60 95 61 96
REMARK H PARENT 20 5 11 16 24 30 83 49 51 60
REMARK Flexibility Score: inf
ROOT
ATOM      1  C   UNL A   1      31.474  30.631  26.520  1.00  0.00     0.118 C 
ENDROOT
BRANCH   1   2
ATOM      2  N   UNL A   1      32.383  30.206  25.477  1.00  0.00    -0.352 N 
ATOM      3  C   UNL A   1      32.428  29.117  24.644  1.00  0.00     0.252 C 
ATOM      4  O   UNL A   1      33.446  29.022  23.960  1.00  0.00    -0.269 OA
ATOM      5  H   UNL A   1      33.129  30.834  25.335  1.00  0.00     0.163 HD
BRANCH   3   6
ATOM      6  C   UNL A   1      31.326  28.106  24.514  1.00  0.00     0.060 A 
ATOM      7  C   UNL A   1      30.095  26.157  25.345  1.00  0.00     0.042 A 
ATOM      8  C   UNL A   1      29.197  26.250  24.289  1.00  0.00     0.028 A 
ATOM      9  C   UNL A   1      31.205  27.008  25.386  1.00  0.00     0.041 A 
ATOM     10  C   UNL A   1      29.320  27.294  23.377  1.00  0.00     0.023 A 
ATOM     11  C   UNL A   1      30.349  28.240  23.505  1.00  0.00     0.053 A 
ATOM     12  Cl  UNL A   1      30.245  29.573  22.402  1.00  0.00    -0.083 Cl
BRANCH   7  13
ATOM     13  N   UNL A   1      29.816  25.219  26.347  1.00  0.00    -0.322 N 
ATOM     14  C   UNL A   1      30.321  23.954  26.588  1.00  0.00     0.255 C 
ATOM     15  O   UNL A   1      29.749  23.250  27.424  1.00  0.00    -0.269 OA
ATOM     16  H   UNL A   1      29.137  25.513  26.997  1.00  0.00     0.170 HD
BRANCH  14  17
ATOM     17  C   UNL A   1      31.588  23.438  25.984  1.00  0.00     0.043 A 
ATOM     18  C   UNL A   1      33.979  23.008  26.000  1.00  0.00     0.120 A 
ATOM     19  C   UNL A   1      33.908  22.558  24.682  1.00  0.00     0.046 A 
ATOM     20  C   UNL A   1      32.811  23.383  26.671  1.00  0.00     0.060 A 
ATOM     21  C   UNL A   1      32.680  22.490  24.028  1.00  0.00     0.005 A 
ATOM     22  C   UNL A   1      31.528  22.946  24.670  1.00  0.00     0.014 A 
BRANCH  18  23
ATOM     23  O   UNL A   1      35.239  23.270  26.462  1.00  0.00    -0.494 OA
BRANCH  23  24
ATOM     24  C   UNL A   1      36.345  22.821  25.682  1.00  0.00     0.226 C 
ATOM     25  C   UNL A   1      37.544  23.749  25.769  1.00  0.00     0.049 C 
ENDBRANCH  23  24
ENDBRANCH  18  23
ENDBRANCH  14  17
ENDBRANCH   7  13
ENDBRANCH   3   6
ENDBRANCH   1   2
BRANCH   1  26
ATOM     26  C   UNL A   1      31.442  32.150  26.634  1.00  0.00     0.042 C 
BRANCH  26  27
ATOM     27  C   UNL A   1      32.722  32.697  27.242  1.00  0.00     0.118 C 
BRANCH  27  28
ATOM     28  N   UNL A   1      32.576  34.097  27.622  1.00  0.00    -0.352 N 
ATOM     29  C   UNL A   1      33.177  34.787  28.640  1.00  0.00     0.251 C 
ATOM     30  H   UNL A   1      31.955  34.622  27.067  1.00  0.00     0.163 HD
ATOM     31  O   UNL A   1      32.760  35.910  28.937  1.00  0.00    -0.269 OA
BRANCH  29  32
ATOM     32  C   UNL A   1      34.304  34.189  29.386  1.00  0.00     0.039 A 
ATOM     33  C   UNL A   1      34.027  33.338  30.459  1.00  0.00     0.014 A 
ATOM     34  C   UNL A   1      35.629  34.477  29.046  1.00  0.00     0.014 A 
ATOM     35  C   UNL A   1      35.078  32.750  31.164  1.00  0.00     0.010 A 
ATOM     36  C   UNL A   1      36.670  33.813  29.684  1.00  0.00     0.010 A 
ATOM     37  C   UNL A   1      36.408  32.966  30.768  1.00  0.00    -0.014 A 
BRANCH  37  38
ATOM     38  C   UNL A   1      37.537  32.329  31.493  1.00  0.00     0.031 A 
ATOM     39  C   UNL A   1      38.308  31.203  30.855  1.00  0.00     0.074 A 
ATOM     40  C   UNL A   1      37.824  32.722  32.749  1.00  0.00     0.049 A 
ATOM     41  N   UNL A   1      39.316  30.521  31.333  1.00  0.00    -0.248 NA
ATOM     42  C   UNL A   1      37.869  30.761  29.520  1.00  0.00     0.031 C 
ATOM     43  C   UNL A   1      37.086  33.734  33.509  1.00  0.00     0.029 A 
ATOM     44  N   UNL A   1      38.802  32.305  33.615  1.00  0.00    -0.354 N 
ATOM     45  C   UNL A   1      39.607  29.552  30.379  1.00  0.00     0.074 A 
ATOM     46  C   UNL A   1      38.640  29.703  29.315  1.00  0.00     0.031 C 
ATOM     47  C   UNL A   1      37.649  33.871  34.720  1.00  0.00     0.029 A 
ATOM     48  C   UNL A   1      38.771  32.944  34.832  1.00  0.00     0.049 A 
ATOM     49  H   UNL A   1      39.465  31.613  33.388  1.00  0.00     0.167 HD
ATOM     50  C   UNL A   1      40.609  28.641  30.372  1.00  0.00     0.034 A 
ATOM     51  C   UNL A   1      39.562  32.804  35.913  1.00  0.00     0.034 A 
ATOM     52  C   UNL A   1      41.598  28.531  31.409  1.00  0.00     0.049 A 
ATOM     53  C   UNL A   1      40.717  31.843  35.846  1.00  0.00     0.074 A 
ATOM     54  C   UNL A   1      42.706  27.705  31.460  1.00  0.00     0.029 A 
ATOM     55  N   UNL A   1      41.596  29.271  32.581  1.00  0.00    -0.354 N 
ATOM     56  N   UNL A   1      41.074  31.049  34.865  1.00  0.00    -0.248 NA
ATOM     57  C   UNL A   1      41.606  31.792  37.014  1.00  0.00     0.031 C 
ATOM     58  C   UNL A   1      43.366  27.936  32.672  1.00  0.00     0.029 A 
ATOM     59  C   UNL A   1      42.684  28.925  33.362  1.00  0.00     0.049 A 
ATOM     60  H   UNL A   1      40.921  29.946  32.823  1.00  0.00     0.167 HD
ATOM     61  C   UNL A   1      42.250  30.435  35.281  1.00  0.00     0.074 A 
ATOM     62  C   UNL A   1      42.556  30.968  36.593  1.00  0.00     0.031 C 
ATOM     63  C   UNL A   1      43.003  29.506  34.642  1.00  0.00     0.034 A 
BRANCH  50  64
ATOM     64  C   UNL A   1      40.720  27.732  29.173  1.00  0.00     0.023 A 
ATOM     65  C   UNL A   1      39.911  26.580  29.095  1.00  0.00     0.012 A 
ATOM     66  C   UNL A   1      41.584  28.042  28.105  1.00  0.00     0.148 A 
ATOM     67  C   UNL A   1      39.987  25.730  27.993  1.00  0.00     0.002 A 
ATOM     68  C   UNL A   1      41.618  27.215  26.986  1.00  0.00     0.091 A 
ATOM     69  F   UNL A   1      42.363  29.129  28.204  1.00  0.00    -0.205 F 
ATOM     70  C   UNL A   1      40.831  26.053  26.935  1.00  0.00     0.022 A 
BRANCH  68  71
ATOM     71  S   UNL A   1      42.610  27.587  25.536  1.00  0.00     0.127 S 
ATOM     72  O   UNL A   1      42.360  26.416  24.698  1.00  0.00    -0.237 OA
ATOM     73  O   UNL A   1      41.994  28.825  25.053  1.00  0.00    -0.237 OA
ATOM     74  O   UNL A   1      43.978  27.737  26.011  1.00  0.00    -0.744 OA
ENDBRANCH  68  71
ENDBRANCH  50  64
BRANCH  51  75
ATOM     75  C   UNL A   1      39.342  33.661  37.112  1.00  0.00     0.023 A 
ATOM     76  C   UNL A   1      39.777  35.001  37.094  1.00  0.00     0.012 A 
ATOM     77  C   UNL A   1      38.679  33.170  38.253  1.00  0.00     0.148 A 
ATOM     78  C   UNL A   1      39.589  35.826  38.203  1.00  0.00     0.002 A 
ATOM     79  C   UNL A   1      38.445  34.013  39.334  1.00  0.00     0.091 A 
ATOM     80  F   UNL A   1      38.280  31.890  38.255  1.00  0.00    -0.205 F 
ATOM     81  C   UNL A   1      38.915  35.336  39.318  1.00  0.00     0.022 A 
BRANCH  79  82
ATOM     82  S   UNL A   1      37.469  33.506  40.753  1.00  0.00     0.127 S 
ATOM     83  O   UNL A   1      37.359  34.757  41.503  1.00  0.00    -0.237 OA
ATOM     84  O   UNL A   1      36.227  33.057  40.123  1.00  0.00    -0.237 OA
ATOM     85  O   UNL A   1      38.231  32.447  41.396  1.00  0.00    -0.744 OA
ENDBRANCH  79  82
ENDBRANCH  51  75
BRANCH  63  86
ATOM     86  C   UNL A   1      44.257  29.036  35.329  1.00  0.00     0.023 A 
ATOM     87  C   UNL A   1      45.490  29.660  35.051  1.00  0.00     0.012 A 
ATOM     88  C   UNL A   1      44.204  28.009  36.292  1.00  0.00     0.148 A 
ATOM     89  C   UNL A   1      46.656  29.240  35.690  1.00  0.00     0.002 A 
ATOM     90  C   UNL A   1      45.362  27.631  36.961  1.00  0.00     0.091 A 
ATOM     91  F   UNL A   1      43.026  27.412  36.529  1.00  0.00    -0.205 F 
ATOM     92  C   UNL A   1      46.590  28.235  36.651  1.00  0.00     0.022 A 
BRANCH  90  93
ATOM     93  S   UNL A   1      45.345  26.416  38.284  1.00  0.00     0.127 S 
ATOM     94  O   UNL A   1      44.989  25.196  37.562  1.00  0.00    -0.237 OA
ATOM     95  O   UNL A   1      46.726  26.457  38.765  1.00  0.00    -0.237 OA
ATOM     96  O   UNL A   1      44.359  26.890  39.246  1.00  0.00    -0.744 OA
ENDBRANCH  90  93
ENDBRANCH  63  86
ENDBRANCH  37  38
ENDBRANCH  29  32
ENDBRANCH  27  28
ENDBRANCH  26  27
ENDBRANCH   1  26
TORSDOF 17
ENDMDL
MODEL 2
REMARK VINA RESULT:     -12.1      3.454      9.023
REMARK SMILES CCOc1cccc(C(=O)Nc2ccc(Cl)c(C(=O)NCCCNC(=O)c3ccc(-c4c5nc(c(-c6cccc(S(=O)(=O)[O-])c6F)c6ccc([nH]6)c(-c6cccc(S(=O)(=O)[O-])c6F)c6nc(c(-c7cccc(S(=O)(=O)[O-])c7F)c7ccc4[nH]7)C=C6)C=C5)cc3)c2)c1
REMARK SMILES IDX 21 1 20 2 18 3 19 4 17 6 12 7 13 8 90 9 14 10 15 11 16 12
REMARK SMILES IDX 11 13 9 14 10 15 8 17 4 18 5 19 91 20 6 21 7 22 3 23 2 24
REMARK SMILES IDX 1 25 22 26 23 27 24 28 25 29 26 31 27 32 28 33 89 34 29 35
REMARK SMILES IDX 88 36 30 37 31 38 32 39 82 40 33 41 87 42 81 43 83 44 34 45
REMARK SMILES IDX 86 46 80 47 79 48 35 50 67 51 47 52 66 53 48 54 51 55 65 56
REMARK SMILES IDX 84 57 49 58 50 59 64 61 85 62 52 63 36 64 37 65 45 66 38 67
REMARK SMILES IDX 40 68 46 69 39 70 41 71 42 72 43 73 44 74 68 75 69 76 77 77
REMARK SMILES IDX 70 78 72 79 78 80 71 81 73 82 74 83 75 84 76 85 53 86 54 87
REMARK SMILES IDX 62 88 55 89 57 90 63 91 56 92 58 93 59 94 60 95 61 96
REMARK H PARENT 20 5 11 16 24 30 83 49 51 60
REMARK Flexibility Score: inf
ROOT
ATOM      1  C   UNL A   1      31.822  26.838  26.199  1.00  0.00     0.118 C 
ENDROOT
BRANCH   1   2
ATOM      2  N   UNL A   1      31.421  25.592  26.817  1.00  0.00    -0.352 N 
ATOM      3  C   UNL A   1      31.606  24.271  26.494  1.00  0.00     0.252 C 
ATOM      4  O   UNL A   1      30.994  23.469  27.198  1.00  0.00    -0.269 OA
ATOM      5  H   UNL A   1      30.906  25.720  27.646  1.00  0.00     0.163 HD
BRANCH   3   6
ATOM      6  C   UNL A   1      32.506  23.786  25.395  1.00  0.00     0.060 A 
ATOM      7  C   UNL A   1      33.173  23.731  23.038  1.00  0.00     0.042 A 
ATOM      8  C   UNL A   1      34.258  22.919  23.345  1.00  0.00     0.028 A 
ATOM      9  C   UNL A   1      32.252  24.062  24.038  1.00  0.00     0.041 A 
ATOM     10  C   UNL A   1      34.507  22.583  24.672  1.00  0.00     0.023 A 
ATOM     11  C   UNL A   1      33.665  23.042  25.697  1.00  0.00     0.053 A 
ATOM     12  Cl  UNL A   1      34.223  22.690  27.300  1.00  0.00    -0.083 Cl
BRANCH   7  13
ATOM     13  N   UNL A   1      33.077  24.209  21.725  1.00  0.00    -0.322 N 
ATOM     14  C   UNL A   1      32.674  25.431  21.218  1.00  0.00     0.255 C 
ATOM     15  O   UNL A   1      32.483  25.522  20.004  1.00  0.00    -0.269 OA
ATOM     16  H   UNL A   1      33.343  23.556  21.037  1.00  0.00     0.170 HD
BRANCH  14  17
ATOM     17  C   UNL A   1      32.576  26.677  22.041  1.00  0.00     0.043 A 
ATOM     18  C   UNL A   1      31.347  28.502  23.071  1.00  0.00     0.120 A 
ATOM     19  C   UNL A   1      32.548  29.079  23.484  1.00  0.00     0.046 A 
ATOM     20  C   UNL A   1      31.358  27.270  22.411  1.00  0.00     0.060 A 
ATOM     21  C   UNL A   1      33.758  28.437  23.234  1.00  0.00     0.005 A 
ATOM     22  C   UNL A   1      33.773  27.250  22.498  1.00  0.00     0.014 A 
BRANCH  18  23
ATOM     23  O   UNL A   1      30.252  29.318  23.143  1.00  0.00    -0.494 OA
BRANCH  23  24
ATOM     24  C   UNL A   1      29.769  29.898  21.934  1.00  0.00     0.226 C 
ATOM     25  C   UNL A   1      28.335  30.388  22.046  1.00  0.00     0.049 C 
ENDBRANCH  23  24
ENDBRANCH  18  23
ENDBRANCH  14  17
ENDBRANCH   7  13
ENDBRANCH   3   6
ENDBRANCH   1   2
BRANCH   1  26
ATOM     26  C   UNL A   1      32.060  27.918  27.247  1.00  0.00     0.042 C 
BRANCH  26  27
ATOM     27  C   UNL A   1      33.449  28.521  27.130  1.00  0.00     0.118 C 
BRANCH  27  28
ATOM     28  N   UNL A   1      33.404  29.977  27.178  1.00  0.00    -0.352 N 
ATOM     29  C   UNL A   1      34.283  30.854  27.755  1.00  0.00     0.251 C 
ATOM     30  H   UNL A   1      32.629  30.390  26.731  1.00  0.00     0.163 HD
ATOM     31  O   UNL A   1      33.960  32.038  27.881  1.00  0.00    -0.269 OA
BRANCH  29  32
ATOM     32  C   UNL A   1      35.598  30.385  28.239  1.00  0.00     0.039 A 
ATOM     33  C   UNL A   1      35.689  29.832  29.519  1.00  0.00     0.014 A 
ATOM     34  C   UNL A   1      36.743  30.505  27.446  1.00  0.00     0.014 A 
ATOM     35  C   UNL A   1      36.920  29.368  29.985  1.00  0.00     0.010 A 
ATOM     36  C   UNL A   1      37.945  29.953  27.873  1.00  0.00     0.010 A 
ATOM     37  C   UNL A   1      38.054  29.405  29.157  1.00  0.00    -0.014 A 
BRANCH  37  38
ATOM     38  C   UNL A   1      39.365  28.894  29.630  1.00  0.00     0.031 A 
ATOM     39  C   UNL A   1      40.082  29.580  30.763  1.00  0.00     0.074 A 
ATOM     40  C   UNL A   1      39.938  27.851  28.998  1.00  0.00     0.049 A 
ATOM     41  N   UNL A   1      41.233  29.285  31.309  1.00  0.00    -0.248 NA
ATOM     42  C   UNL A   1      39.439  30.775  31.338  1.00  0.00     0.031 C 
ATOM     43  C   UNL A   1      39.387  27.166  27.825  1.00  0.00     0.029 A 
ATOM     44  N   UNL A   1      41.119  27.198  29.239  1.00  0.00    -0.354 N 
ATOM     45  C   UNL A   1      41.468  30.272  32.259  1.00  0.00     0.074 A 
ATOM     46  C   UNL A   1      40.363  31.202  32.187  1.00  0.00     0.031 C 
ATOM     47  C   UNL A   1      40.220  26.178  27.462  1.00  0.00     0.029 A 
ATOM     48  C   UNL A   1      41.373  26.172  28.358  1.00  0.00     0.049 A 
ATOM     49  H   UNL A   1      41.729  27.439  29.973  1.00  0.00     0.167 HD
ATOM     50  C   UNL A   1      42.492  30.378  33.139  1.00  0.00     0.034 A 
ATOM     51  C   UNL A   1      42.413  25.320  28.286  1.00  0.00     0.034 A 
ATOM     52  C   UNL A   1      43.560  29.421  33.241  1.00  0.00     0.049 A 
ATOM     53  C   UNL A   1      43.496  25.409  29.326  1.00  0.00     0.074 A 
ATOM     54  C   UNL A   1      44.599  29.383  34.154  1.00  0.00     0.029 A 
ATOM     55  N   UNL A   1      43.727  28.333  32.399  1.00  0.00    -0.354 N 
ATOM     56  N   UNL A   1      43.616  26.253  30.323  1.00  0.00    -0.248 NA
ATOM     57  C   UNL A   1      44.562  24.400  29.262  1.00  0.00     0.031 C 
ATOM     58  C   UNL A   1      45.404  28.279  33.852  1.00  0.00     0.029 A 
ATOM     59  C   UNL A   1      44.850  27.614  32.770  1.00  0.00     0.049 A 
ATOM     60  H   UNL A   1      43.134  28.103  31.648  1.00  0.00     0.167 HD
ATOM     61  C   UNL A   1      44.746  25.853  31.027  1.00  0.00     0.074 A 
ATOM     62  C   UNL A   1      45.259  24.677  30.355  1.00  0.00     0.031 C 
ATOM     63  C   UNL A   1      45.315  26.414  32.123  1.00  0.00     0.034 A 
BRANCH  50  64
ATOM     64  C   UNL A   1      42.472  31.538  34.102  1.00  0.00     0.023 A 
ATOM     65  C   UNL A   1      43.080  32.757  33.737  1.00  0.00     0.012 A 
ATOM     66  C   UNL A   1      41.810  31.442  35.342  1.00  0.00     0.148 A 
ATOM     67  C   UNL A   1      43.065  33.848  34.606  1.00  0.00     0.002 A 
ATOM     68  C   UNL A   1      41.757  32.550  36.181  1.00  0.00     0.091 A 
ATOM     69  F   UNL A   1      41.255  30.270  35.683  1.00  0.00    -0.205 F 
ATOM     70  C   UNL A   1      42.395  33.748  35.821  1.00  0.00     0.022 A 
BRANCH  68  71
ATOM     71  S   UNL A   1      40.848  32.549  37.731  1.00  0.00     0.127 S 
ATOM     72  O   UNL A   1      40.701  33.981  37.987  1.00  0.00    -0.237 OA
ATOM     73  O   UNL A   1      39.607  31.867  37.358  1.00  0.00    -0.237 OA
ATOM     74  O   UNL A   1      41.676  31.824  38.683  1.00  0.00    -0.744 OA
ENDBRANCH  68  71
ENDBRANCH  50  64
BRANCH  51  75
ATOM     75  C   UNL A   1      42.429  24.252  27.246  1.00  0.00     0.023 A 
ATOM     76  C   UNL A   1      43.304  24.370  26.149  1.00  0.00     0.012 A 
ATOM     77  C   UNL A   1      41.611  23.112  27.354  1.00  0.00     0.148 A 
ATOM     78  C   UNL A   1      43.338  23.389  25.157  1.00  0.00     0.002 A 
ATOM     79  C   UNL A   1      41.690  22.111  26.392  1.00  0.00     0.091 A 
ATOM     80  F   UNL A   1      40.780  23.022  28.401  1.00  0.00    -0.205 F 
ATOM     81  C   UNL A   1      42.540  22.256  25.283  1.00  0.00     0.022 A 
BRANCH  79  82
ATOM     82  S   UNL A   1      40.800  20.559  26.545  1.00  0.00     0.127 S 
ATOM     83  O   UNL A   1      40.982  20.248  27.962  1.00  0.00    -0.237 OA
ATOM     84  O   UNL A   1      39.440  20.952  26.172  1.00  0.00    -0.237 OA
ATOM     85  O   UNL A   1      41.436  19.647  25.608  1.00  0.00    -0.744 OA
ENDBRANCH  79  82
ENDBRANCH  51  75
BRANCH  63  86
ATOM     86  C   UNL A   1      46.533  25.739  32.695  1.00  0.00     0.023 A 
ATOM     87  C   UNL A   1      47.819  26.224  32.385  1.00  0.00     0.012 A 
ATOM     88  C   UNL A   1      46.399  24.654  33.583  1.00  0.00     0.148 A 
ATOM     89  C   UNL A   1      48.954  25.614  32.917  1.00  0.00     0.002 A 
ATOM     90  C   UNL A   1      47.533  24.083  34.149  1.00  0.00     0.091 A 
ATOM     91  F   UNL A   1      45.169  24.191  33.850  1.00  0.00    -0.205 F 
ATOM     92  C   UNL A   1      48.810  24.551  33.806  1.00  0.00     0.022 A 
BRANCH  90  93
ATOM     93  S   UNL A   1      47.430  22.778  35.379  1.00  0.00     0.127 S 
ATOM     94  O   UNL A   1      48.841  22.520  35.658  1.00  0.00    -0.237 OA
ATOM     95  O   UNL A   1      46.704  23.432  36.469  1.00  0.00    -0.237 OA
ATOM     96  O   UNL A   1      46.702  21.689  34.743  1.00  0.00    -0.744 OA
ENDBRANCH  90  93
ENDBRANCH  63  86
ENDBRANCH  37  38
ENDBRANCH  29  32
ENDBRANCH  27  28
ENDBRANCH  26  27
ENDBRANCH   1  26
TORSDOF 17
ENDMDL
MODEL 3
REMARK VINA RESULT:     -12.0      2.645      8.087
REMARK SMILES CCOc1cccc(C(=O)Nc2ccc(Cl)c(C(=O)NCCCNC(=O)c3ccc(-c4c5nc(c(-c6cccc(S(=O)(=O)[O-])c6F)c6ccc([nH]6)c(-c6cccc(S(=O)(=O)[O-])c6F)c6nc(c(-c7cccc(S(=O)(=O)[O-])c7F)c7ccc4[nH]7)C=C6)C=C5)cc3)c2)c1
REMARK SMILES IDX 21 1 20 2 18 3 19 4 17 6 12 7 13 8 90 9 14 10 15 11 16 12
REMARK SMILES IDX 11 13 9 14 10 15 8 17 4 18 5 19 91 20 6 21 7 22 3 23 2 24
REMARK SMILES IDX 1 25 22 26 23 27 24 28 25 29 26 31 27 32 28 33 89 34 29 35
REMARK SMILES IDX 88 36 30 37 31 38 32 39 82 40 33 41 87 42 81 43 83 44 34 45
REMARK SMILES IDX 86 46 80 47 79 48 35 50 67 51 47 52 66 53 48 54 51 55 65 56
REMARK SMILES IDX 84 57 49 58 50 59 64 61 85 62 52 63 36 64 37 65 45 66 38 67
REMARK SMILES IDX 40 68 46 69 39 70 41 71 42 72 43 73 44 74 68 75 69 76 77 77
REMARK SMILES IDX 70 78 72 79 78 80 71 81 73 82 74 83 75 84 76 85 53 86 54 87
REMARK SMILES IDX 62 88 55 89 57 90 63 91 56 92 58 93 59 94 60 95 61 96
REMARK H PARENT 20 5 11 16 24 30 83 49 51 60
REMARK Flexibility Score: inf
ROOT
ATOM      1  C   UNL A   1      32.821  28.287  22.961  1.00  0.00     0.118 C 
ENDROOT
BRANCH   1   2
ATOM      2  N   UNL A   1      31.412  28.531  23.181  1.00  0.00    -0.352 N 
ATOM      3  C   UNL A   1      30.370  27.749  23.612  1.00  0.00     0.252 C 
ATOM      4  O   UNL A   1      29.259  28.274  23.546  1.00  0.00    -0.269 OA
ATOM      5  H   UNL A   1      31.144  29.457  22.979  1.00  0.00     0.163 HD
BRANCH   3   6
ATOM      6  C   UNL A   1      30.525  26.363  24.165  1.00  0.00     0.060 A 
ATOM      7  C   UNL A   1      30.762  23.945  23.852  1.00  0.00     0.042 A 
ATOM      8  C   UNL A   1      30.889  23.760  25.223  1.00  0.00     0.028 A 
ATOM      9  C   UNL A   1      30.472  25.217  23.349  1.00  0.00     0.041 A 
ATOM     10  C   UNL A   1      30.891  24.868  26.064  1.00  0.00     0.023 A 
ATOM     11  C   UNL A   1      30.750  26.164  25.543  1.00  0.00     0.053 A 
ATOM     12  Cl  UNL A   1      30.963  27.435  26.702  1.00  0.00    -0.083 Cl
BRANCH   7  13
ATOM     13  N   UNL A   1      30.968  22.828  23.030  1.00  0.00    -0.322 N 
ATOM     14  C   UNL A   1      32.119  22.155  22.666  1.00  0.00     0.255 C 
ATOM     15  O   UNL A   1      32.044  21.325  21.757  1.00  0.00    -0.269 OA
ATOM     16  H   UNL A   1      30.143  22.457  22.640  1.00  0.00     0.170 HD
BRANCH  14  17
ATOM     17  C   UNL A   1      33.421  22.286  23.391  1.00  0.00     0.043 A 
ATOM     18  C   UNL A   1      34.921  21.843  25.249  1.00  0.00     0.120 A 
ATOM     19  C   UNL A   1      35.855  22.726  24.709  1.00  0.00     0.046 A 
ATOM     20  C   UNL A   1      33.737  21.572  24.558  1.00  0.00     0.060 A 
ATOM     21  C   UNL A   1      35.608  23.347  23.487  1.00  0.00     0.005 A 
ATOM     22  C   UNL A   1      34.388  23.143  22.840  1.00  0.00     0.014 A 
BRANCH  18  23
ATOM     23  O   UNL A   1      35.142  21.483  26.551  1.00  0.00    -0.494 OA
BRANCH  23  24
ATOM     24  C   UNL A   1      34.010  21.316  27.401  1.00  0.00     0.226 C 
ATOM     25  C   UNL A   1      33.527  22.624  28.003  1.00  0.00     0.049 C 
ENDBRANCH  23  24
ENDBRANCH  18  23
ENDBRANCH  14  17
ENDBRANCH   7  13
ENDBRANCH   3   6
ENDBRANCH   1   2
BRANCH   1  26
ATOM     26  C   UNL A   1      33.678  29.261  23.759  1.00  0.00     0.042 C 
BRANCH  26  27
ATOM     27  C   UNL A   1      33.370  29.196  25.246  1.00  0.00     0.118 C 
BRANCH  27  28
ATOM     28  N   UNL A   1      32.907  30.482  25.752  1.00  0.00    -0.352 N 
ATOM     29  C   UNL A   1      33.340  31.194  26.837  1.00  0.00     0.251 C 
ATOM     30  H   UNL A   1      32.176  30.899  25.239  1.00  0.00     0.163 HD
ATOM     31  O   UNL A   1      32.677  32.157  27.232  1.00  0.00    -0.269 OA
BRANCH  29  32
ATOM     32  C   UNL A   1      34.581  30.806  27.540  1.00  0.00     0.039 A 
ATOM     33  C   UNL A   1      35.571  31.770  27.745  1.00  0.00     0.014 A 
ATOM     34  C   UNL A   1      34.780  29.494  27.981  1.00  0.00     0.014 A 
ATOM     35  C   UNL A   1      36.742  31.425  28.422  1.00  0.00     0.010 A 
ATOM     36  C   UNL A   1      35.900  29.179  28.741  1.00  0.00     0.010 A 
ATOM     37  C   UNL A   1      36.906  30.132  28.945  1.00  0.00    -0.014 A 
BRANCH  37  38
ATOM     38  C   UNL A   1      38.135  29.757  29.689  1.00  0.00     0.031 A 
ATOM     39  C   UNL A   1      38.368  30.281  31.082  1.00  0.00     0.074 A 
ATOM     40  C   UNL A   1      39.069  28.997  29.085  1.00  0.00     0.049 A 
ATOM     41  N   UNL A   1      39.379  30.069  31.883  1.00  0.00    -0.248 NA
ATOM     42  C   UNL A   1      37.348  31.188  31.637  1.00  0.00     0.031 C 
ATOM     43  C   UNL A   1      39.002  28.511  27.704  1.00  0.00     0.029 A 
ATOM     44  N   UNL A   1      40.266  28.516  29.548  1.00  0.00    -0.354 N 
ATOM     45  C   UNL A   1      39.137  30.842  33.014  1.00  0.00     0.074 A 
ATOM     46  C   UNL A   1      37.906  31.562  32.779  1.00  0.00     0.031 C 
ATOM     47  C   UNL A   1      40.101  27.786  27.440  1.00  0.00     0.029 A 
ATOM     48  C   UNL A   1      40.960  27.774  28.620  1.00  0.00     0.049 A 
ATOM     49  H   UNL A   1      40.600  28.684  30.459  1.00  0.00     0.167 HD
ATOM     50  C   UNL A   1      39.854  30.918  34.160  1.00  0.00     0.034 A 
ATOM     51  C   UNL A   1      42.149  27.149  28.713  1.00  0.00     0.034 A 
ATOM     52  C   UNL A   1      41.049  30.158  34.408  1.00  0.00     0.049 A 
ATOM     53  C   UNL A   1      42.884  27.183  30.025  1.00  0.00     0.074 A 
ATOM     54  C   UNL A   1      41.804  30.091  35.565  1.00  0.00     0.029 A 
ATOM     55  N   UNL A   1      41.665  29.332  33.480  1.00  0.00    -0.354 N 
ATOM     56  N   UNL A   1      42.555  27.787  31.141  1.00  0.00    -0.248 NA
ATOM     57  C   UNL A   1      44.131  26.410  30.106  1.00  0.00     0.031 C 
ATOM     58  C   UNL A   1      42.887  29.236  35.330  1.00  0.00     0.029 A 
ATOM     59  C   UNL A   1      42.789  28.749  34.036  1.00  0.00     0.049 A 
ATOM     60  H   UNL A   1      41.348  29.181  32.560  1.00  0.00     0.167 HD
ATOM     61  C   UNL A   1      43.530  27.436  32.068  1.00  0.00     0.074 A 
ATOM     62  C   UNL A   1      44.449  26.546  31.386  1.00  0.00     0.031 C 
ATOM     63  C   UNL A   1      43.661  27.823  33.360  1.00  0.00     0.034 A 
BRANCH  50  64
ATOM     64  C   UNL A   1      39.329  31.809  35.257  1.00  0.00     0.023 A 
ATOM     65  C   UNL A   1      38.390  31.301  36.177  1.00  0.00     0.012 A 
ATOM     66  C   UNL A   1      39.800  33.128  35.409  1.00  0.00     0.148 A 
ATOM     67  C   UNL A   1      37.897  32.102  37.207  1.00  0.00     0.002 A 
ATOM     68  C   UNL A   1      39.340  33.904  36.469  1.00  0.00     0.091 A 
ATOM     69  F   UNL A   1      40.677  33.603  34.513  1.00  0.00    -0.205 F 
ATOM     70  C   UNL A   1      38.380  33.398  37.359  1.00  0.00     0.022 A 
BRANCH  68  71
ATOM     71  S   UNL A   1      39.962  35.557  36.800  1.00  0.00     0.127 S 
ATOM     72  O   UNL A   1      41.405  35.325  36.850  1.00  0.00    -0.237 OA
ATOM     73  O   UNL A   1      39.504  36.298  35.623  1.00  0.00    -0.237 OA
ATOM     74  O   UNL A   1      39.351  35.973  38.054  1.00  0.00    -0.744 OA
ENDBRANCH  68  71
ENDBRANCH  50  64
BRANCH  51  75
ATOM     75  C   UNL A   1      42.668  26.362  27.559  1.00  0.00     0.023 A 
ATOM     76  C   UNL A   1      43.576  26.963  26.665  1.00  0.00     0.012 A 
ATOM     77  C   UNL A   1      42.296  25.020  27.360  1.00  0.00     0.148 A 
ATOM     78  C   UNL A   1      44.076  26.254  25.573  1.00  0.00     0.002 A 
ATOM     79  C   UNL A   1      42.840  24.300  26.301  1.00  0.00     0.091 A 
ATOM     80  F   UNL A   1      41.424  24.468  28.216  1.00  0.00    -0.205 F 
ATOM     81  C   UNL A   1      43.716  24.921  25.396  1.00  0.00     0.022 A 
BRANCH  79  82
ATOM     82  S   UNL A   1      42.538  22.544  26.077  1.00  0.00     0.127 S 
ATOM     83  O   UNL A   1      43.221  22.283  24.811  1.00  0.00    -0.237 OA
ATOM     84  O   UNL A   1      43.190  21.972  27.256  1.00  0.00    -0.237 OA
ATOM     85  O   UNL A   1      41.092  22.394  26.061  1.00  0.00    -0.744 OA
ENDBRANCH  79  82
ENDBRANCH  51  75
BRANCH  63  86
ATOM     86  C   UNL A   1      44.815  27.252  34.142  1.00  0.00     0.023 A 
ATOM     87  C   UNL A   1      46.064  27.907  34.135  1.00  0.00     0.012 A 
ATOM     88  C   UNL A   1      44.646  26.094  34.925  1.00  0.00     0.148 A 
ATOM     89  C   UNL A   1      47.136  27.393  34.863  1.00  0.00     0.002 A 
ATOM     90  C   UNL A   1      45.705  25.618  35.688  1.00  0.00     0.091 A 
ATOM     91  F   UNL A   1      43.457  25.473  34.903  1.00  0.00    -0.205 F 
ATOM     92  C   UNL A   1      46.953  26.256  35.647  1.00  0.00     0.022 A 
BRANCH  90  93
ATOM     93  S   UNL A   1      45.524  24.220  36.802  1.00  0.00     0.127 S 
ATOM     94  O   UNL A   1      44.434  24.667  37.667  1.00  0.00    -0.237 OA
ATOM     95  O   UNL A   1      45.170  23.134  35.887  1.00  0.00    -0.237 OA
ATOM     96  O   UNL A   1      46.819  24.059  37.450  1.00  0.00    -0.744 OA
ENDBRANCH  90  93
ENDBRANCH  63  86
ENDBRANCH  37  38
ENDBRANCH  29  32
ENDBRANCH  27  28
ENDBRANCH  26  27
ENDBRANCH   1  26
TORSDOF 17
ENDMDL
