MODEL 1
REMARK VINA RESULT:      -9.8      0.000      0.000
REMARK SMILES O=C(CSc1ccc2ccccc2n1)NCc1ccc(C(=O)NCCCNC(=O)c2ccc(-c3c4nc(c(-c5cccc(S(=O)(=O)[O-])c5F)c5ccc([nH]5)c(-c5cccc(S(=O)(=O)[O-])c5F)c5nc(c(-c6cccc(S(=O)(=O)[O-])c6F)c6ccc3[nH]6)C=C5)C=C4)cc2)cc1
REMARK SMILES IDX 24 1 23 2 21 3 22 4 20 6 17 7 18 8 94 9 19 10 93 11 16 12
REMARK SMILES IDX 15 13 1 14 2 15 3 17 4 18 5 19 6 20 14 21 7 22 13 23 8 24
REMARK SMILES IDX 12 25 9 26 11 27 10 28 25 29 26 30 27 31 28 32 29 34 30 35
REMARK SMILES IDX 31 36 92 37 32 38 91 39 33 40 34 41 35 42 85 43 36 44 90 45
REMARK SMILES IDX 84 46 86 47 37 48 89 49 83 50 82 51 38 53 70 54 50 55 69 56
REMARK SMILES IDX 51 57 54 58 68 59 87 60 52 61 53 62 67 64 88 65 55 66 39 67
REMARK SMILES IDX 40 68 48 69 41 70 43 71 49 72 42 73 44 74 45 75 46 76 47 77
REMARK SMILES IDX 71 78 72 79 80 80 73 81 75 82 81 83 74 84 76 85 77 86 78 87
REMARK SMILES IDX 79 88 56 89 57 90 65 91 58 92 60 93 66 94 59 95 61 96 62 97
REMARK SMILES IDX 63 98 64 99
REMARK H PARENT 23 5 15 16 27 33 86 52 54 63
REMARK Flexibility Score: inf
ROOT
ATOM      1  C   UNL A   1      34.225  34.634  30.251  1.00  0.00     0.118 C 
ENDROOT
BRANCH   1   2
ATOM      2  N   UNL A   1      34.361  33.555  31.211  1.00  0.00    -0.352 N 
ATOM      3  C   UNL A   1      35.447  33.038  31.869  1.00  0.00     0.251 C 
ATOM      4  O   UNL A   1      35.235  32.183  32.729  1.00  0.00    -0.269 OA
ATOM      5  H   UNL A   1      33.512  33.110  31.434  1.00  0.00     0.163 HD
BRANCH   3   6
ATOM      6  C   UNL A   1      36.847  33.494  31.631  1.00  0.00     0.039 A 
ATOM      7  C   UNL A   1      39.527  34.380  31.366  1.00  0.00    -0.029 A 
ATOM      8  C   UNL A   1      38.906  34.350  32.620  1.00  0.00     0.006 A 
ATOM      9  C   UNL A   1      38.806  33.913  30.259  1.00  0.00     0.006 A 
ATOM     10  C   UNL A   1      37.579  33.923  32.748  1.00  0.00     0.014 A 
ATOM     11  C   UNL A   1      37.490  33.454  30.393  1.00  0.00     0.014 A 
BRANCH   7  12
ATOM     12  C   UNL A   1      40.969  34.782  31.170  1.00  0.00     0.151 C 
BRANCH  12  13
ATOM     13  N   UNL A   1      41.707  33.928  30.269  1.00  0.00    -0.351 N 
ATOM     14  O   UNL A   1      43.692  35.055  30.475  1.00  0.00    -0.274 OA
ATOM     15  C   UNL A   1      43.060  34.085  30.058  1.00  0.00     0.230 C 
ATOM     16  H   UNL A   1      41.229  33.212  29.790  1.00  0.00     0.163 HD
BRANCH  15  17
ATOM     17  C   UNL A   1      43.704  33.047  29.154  1.00  0.00     0.176 C 
BRANCH  17  18
ATOM     18  S   UNL A   1      44.459  31.658  30.073  1.00  0.00    -0.096 SA
BRANCH  18  19
ATOM     19  C   UNL A   1      44.351  30.350  28.862  1.00  0.00     0.097 A 
ATOM     20  C   UNL A   1      45.396  29.445  28.756  1.00  0.00     0.036 A 
ATOM     21  N   UNL A   1      43.256  30.292  28.078  1.00  0.00    -0.241 NA
ATOM     22  C   UNL A   1      45.317  28.446  27.790  1.00  0.00     0.013 A 
ATOM     23  C   UNL A   1      43.183  29.340  27.133  1.00  0.00     0.072 A 
ATOM     24  C   UNL A   1      44.200  28.380  26.951  1.00  0.00     0.000 A 
ATOM     25  C   UNL A   1      42.079  29.291  26.294  1.00  0.00     0.029 A 
ATOM     26  C   UNL A   1      44.082  27.402  25.947  1.00  0.00     0.010 A 
ATOM     27  C   UNL A   1      41.959  28.323  25.292  1.00  0.00     0.002 A 
ATOM     28  C   UNL A   1      42.962  27.376  25.119  1.00  0.00     0.001 A 
ENDBRANCH  18  19
ENDBRANCH  17  18
ENDBRANCH  15  17
ENDBRANCH  12  13
ENDBRANCH   7  12
ENDBRANCH   3   6
ENDBRANCH   1   2
BRANCH   1  29
ATOM     29  C   UNL A   1      33.787  34.115  28.882  1.00  0.00     0.042 C 
BRANCH  29  30
ATOM     30  C   UNL A   1      34.716  33.049  28.307  1.00  0.00     0.118 C 
BRANCH  30  31
ATOM     31  N   UNL A   1      33.979  31.893  27.811  1.00  0.00    -0.352 N 
ATOM     32  C   UNL A   1      34.404  30.609  27.579  1.00  0.00     0.251 C 
ATOM     33  H   UNL A   1      33.030  32.060  27.612  1.00  0.00     0.163 HD
ATOM     34  O   UNL A   1      33.681  29.844  26.946  1.00  0.00    -0.269 OA
BRANCH  32  35
ATOM     35  C   UNL A   1      35.716  30.143  28.080  1.00  0.00     0.039 A 
ATOM     36  C   UNL A   1      35.811  29.686  29.399  1.00  0.00     0.014 A 
ATOM     37  C   UNL A   1      36.860  30.202  27.279  1.00  0.00     0.014 A 
ATOM     38  C   UNL A   1      37.040  29.246  29.897  1.00  0.00     0.010 A 
ATOM     39  C   UNL A   1      38.068  29.697  27.753  1.00  0.00     0.010 A 
ATOM     40  C   UNL A   1      38.174  29.226  29.069  1.00  0.00    -0.014 A 
BRANCH  40  41
ATOM     41  C   UNL A   1      39.479  28.714  29.559  1.00  0.00     0.031 A 
ATOM     42  C   UNL A   1      40.206  29.423  30.671  1.00  0.00     0.074 A 
ATOM     43  C   UNL A   1      40.052  27.662  28.941  1.00  0.00     0.049 A 
ATOM     44  N   UNL A   1      41.372  29.153  31.197  1.00  0.00    -0.248 NA
ATOM     45  C   UNL A   1      39.547  30.605  31.248  1.00  0.00     0.031 C 
ATOM     46  C   UNL A   1      39.480  26.935  27.806  1.00  0.00     0.029 A 
ATOM     47  N   UNL A   1      41.253  27.037  29.164  1.00  0.00    -0.354 N 
ATOM     48  C   UNL A   1      41.608  30.154  32.133  1.00  0.00     0.074 A 
ATOM     49  C   UNL A   1      40.476  31.052  32.082  1.00  0.00     0.031 C 
ATOM     50  C   UNL A   1      40.322  25.956  27.441  1.00  0.00     0.029 A 
ATOM     51  C   UNL A   1      41.506  26.002  28.294  1.00  0.00     0.049 A 
ATOM     52  H   UNL A   1      41.875  27.303  29.879  1.00  0.00     0.167 HD
ATOM     53  C   UNL A   1      42.658  30.297  32.978  1.00  0.00     0.034 A 
ATOM     54  C   UNL A   1      42.571  25.183  28.195  1.00  0.00     0.034 A 
ATOM     55  C   UNL A   1      43.757  29.372  33.057  1.00  0.00     0.049 A 
ATOM     56  C   UNL A   1      43.708  25.343  29.168  1.00  0.00     0.074 A 
ATOM     57  C   UNL A   1      44.815  29.367  33.949  1.00  0.00     0.029 A 
ATOM     58  N   UNL A   1      43.946  28.294  32.206  1.00  0.00    -0.354 N 
ATOM     59  N   UNL A   1      43.833  26.191  30.160  1.00  0.00    -0.248 NA
ATOM     60  C   UNL A   1      44.835  24.410  29.030  1.00  0.00     0.031 C 
ATOM     61  C   UNL A   1      45.657  28.298  33.620  1.00  0.00     0.029 A 
ATOM     62  C   UNL A   1      45.110  27.624  32.540  1.00  0.00     0.049 A 
ATOM     63  H   UNL A   1      43.340  28.042  31.472  1.00  0.00     0.167 HD
ATOM     64  C   UNL A   1      45.031  25.870  30.788  1.00  0.00     0.074 A 
ATOM     65  C   UNL A   1      45.585  24.738  30.073  1.00  0.00     0.031 C 
ATOM     66  C   UNL A   1      45.623  26.466  31.852  1.00  0.00     0.034 A 
BRANCH  53  67
ATOM     67  C   UNL A   1      42.641  31.476  33.917  1.00  0.00     0.023 A 
ATOM     68  C   UNL A   1      43.072  32.739  33.459  1.00  0.00     0.012 A 
ATOM     69  C   UNL A   1      42.167  31.348  35.237  1.00  0.00     0.148 A 
ATOM     70  C   UNL A   1      43.075  33.843  34.311  1.00  0.00     0.002 A 
ATOM     71  C   UNL A   1      42.130  32.463  36.067  1.00  0.00     0.091 A 
ATOM     72  F   UNL A   1      41.783  30.137  35.666  1.00  0.00    -0.205 F 
ATOM     73  C   UNL A   1      42.597  33.707  35.610  1.00  0.00     0.022 A 
BRANCH  71  74
ATOM     74  S   UNL A   1      41.456  32.404  37.731  1.00  0.00     0.127 S 
ATOM     75  O   UNL A   1      41.594  33.795  38.157  1.00  0.00    -0.237 OA
ATOM     76  O   UNL A   1      40.077  31.974  37.493  1.00  0.00    -0.237 OA
ATOM     77  O   UNL A   1      42.270  31.437  38.455  1.00  0.00    -0.744 OA
ENDBRANCH  71  74
ENDBRANCH  53  67
BRANCH  54  78
ATOM     78  C   UNL A   1      42.567  24.078  27.195  1.00  0.00     0.023 A 
ATOM     79  C   UNL A   1      43.472  24.132  26.117  1.00  0.00     0.012 A 
ATOM     80  C   UNL A   1      41.715  22.964  27.322  1.00  0.00     0.148 A 
ATOM     81  C   UNL A   1      43.510  23.111  25.167  1.00  0.00     0.002 A 
ATOM     82  C   UNL A   1      41.795  21.924  26.402  1.00  0.00     0.091 A 
ATOM     83  F   UNL A   1      40.856  22.936  28.351  1.00  0.00    -0.205 F 
ATOM     84  C   UNL A   1      42.680  22.004  25.315  1.00  0.00     0.022 A 
BRANCH  82  85
ATOM     85  S   UNL A   1      40.859  20.401  26.579  1.00  0.00     0.127 S 
ATOM     86  O   UNL A   1      39.515  20.830  26.207  1.00  0.00    -0.237 OA
ATOM     87  O   UNL A   1      41.520  19.528  25.609  1.00  0.00    -0.237 OA
ATOM     88  O   UNL A   1      41.032  19.994  27.968  1.00  0.00    -0.744 OA
ENDBRANCH  82  85
ENDBRANCH  54  78
BRANCH  66  89
ATOM     89  C   UNL A   1      46.928  25.888  32.338  1.00  0.00     0.023 A 
ATOM     90  C   UNL A   1      48.142  26.334  31.781  1.00  0.00     0.012 A 
ATOM     91  C   UNL A   1      46.951  24.958  33.397  1.00  0.00     0.148 A 
ATOM     92  C   UNL A   1      49.359  25.839  32.248  1.00  0.00     0.002 A 
ATOM     93  C   UNL A   1      48.170  24.508  33.891  1.00  0.00     0.091 A 
ATOM     94  F   UNL A   1      45.784  24.531  33.900  1.00  0.00    -0.205 F 
ATOM     95  C   UNL A   1      49.374  24.938  33.311  1.00  0.00     0.022 A 
BRANCH  93  96
ATOM     96  S   UNL A   1      48.285  23.421  35.317  1.00  0.00     0.127 S 
ATOM     97  O   UNL A   1      47.377  24.069  36.261  1.00  0.00    -0.237 OA
ATOM     98  O   UNL A   1      47.801  22.149  34.778  1.00  0.00    -0.237 OA
ATOM     99  O   UNL A   1      49.690  23.415  35.702  1.00  0.00    -0.744 OA
ENDBRANCH  93  96
ENDBRANCH  66  89
ENDBRANCH  40  41
ENDBRANCH  32  35
ENDBRANCH  30  31
ENDBRANCH  29  30
ENDBRANCH   1  29
TORSDOF 18
ENDMDL
MODEL 2
REMARK VINA RESULT:      -9.6      5.394     11.433
REMARK SMILES O=C(CSc1ccc2ccccc2n1)NCc1ccc(C(=O)NCCCNC(=O)c2ccc(-c3c4nc(c(-c5cccc(S(=O)(=O)[O-])c5F)c5ccc([nH]5)c(-c5cccc(S(=O)(=O)[O-])c5F)c5nc(c(-c6cccc(S(=O)(=O)[O-])c6F)c6ccc3[nH]6)C=C5)C=C4)cc2)cc1
REMARK SMILES IDX 24 1 23 2 21 3 22 4 20 6 17 7 18 8 94 9 19 10 93 11 16 12
REMARK SMILES IDX 15 13 1 14 2 15 3 17 4 18 5 19 6 20 14 21 7 22 13 23 8 24
REMARK SMILES IDX 12 25 9 26 11 27 10 28 25 29 26 30 27 31 28 32 29 34 30 35
REMARK SMILES IDX 31 36 92 37 32 38 91 39 33 40 34 41 35 42 85 43 36 44 90 45
REMARK SMILES IDX 84 46 86 47 37 48 89 49 83 50 82 51 38 53 70 54 50 55 69 56
REMARK SMILES IDX 51 57 54 58 68 59 87 60 52 61 53 62 67 64 88 65 55 66 39 67
REMARK SMILES IDX 40 68 48 69 41 70 43 71 49 72 42 73 44 74 45 75 46 76 47 77
REMARK SMILES IDX 71 78 72 79 80 80 73 81 75 82 81 83 74 84 76 85 77 86 78 87
REMARK SMILES IDX 79 88 56 89 57 90 65 91 58 92 60 93 66 94 59 95 61 96 62 97
REMARK SMILES IDX 63 98 64 99
REMARK H PARENT 23 5 15 16 27 33 86 52 54 63
REMARK Flexibility Score: inf
ROOT
ATOM      1  C   UNL A   1      36.588  20.588  24.603  1.00  0.00     0.118 C 
ENDROOT
BRANCH   1   2
ATOM      2  N   UNL A   1      35.385  20.194  25.312  1.00  0.00    -0.352 N 
ATOM      3  C   UNL A   1      34.322  20.913  25.795  1.00  0.00     0.251 C 
ATOM      4  O   UNL A   1      33.373  20.279  26.259  1.00  0.00    -0.269 OA
ATOM      5  H   UNL A   1      35.319  19.226  25.479  1.00  0.00     0.163 HD
BRANCH   3   6
ATOM      6  C   UNL A   1      34.240  22.400  25.735  1.00  0.00     0.039 A 
ATOM      7  C   UNL A   1      33.935  25.220  25.739  1.00  0.00    -0.029 A 
ATOM      8  C   UNL A   1      33.018  24.402  26.410  1.00  0.00     0.006 A 
ATOM      9  C   UNL A   1      35.030  24.610  25.112  1.00  0.00     0.006 A 
ATOM     10  C   UNL A   1      33.163  23.010  26.398  1.00  0.00     0.014 A 
ATOM     11  C   UNL A   1      35.193  23.219  25.130  1.00  0.00     0.014 A 
BRANCH   7  12
ATOM     12  C   UNL A   1      33.861  26.727  25.756  1.00  0.00     0.151 C 
BRANCH  12  13
ATOM     13  N   UNL A   1      32.575  27.264  25.378  1.00  0.00    -0.351 N 
ATOM     14  O   UNL A   1      33.298  29.426  25.149  1.00  0.00    -0.274 OA
ATOM     15  C   UNL A   1      32.413  28.583  25.012  1.00  0.00     0.230 C 
ATOM     16  H   UNL A   1      31.789  26.670  25.382  1.00  0.00     0.163 HD
BRANCH  15  17
ATOM     17  C   UNL A   1      31.015  28.965  24.552  1.00  0.00     0.176 C 
BRANCH  17  18
ATOM     18  S   UNL A   1      30.731  28.652  22.773  1.00  0.00    -0.096 SA
BRANCH  18  19
ATOM     19  C   UNL A   1      31.510  27.057  22.580  1.00  0.00     0.097 A 
ATOM     20  C   UNL A   1      32.695  26.971  21.865  1.00  0.00     0.036 A 
ATOM     21  N   UNL A   1      30.911  25.981  23.128  1.00  0.00    -0.241 NA
ATOM     22  C   UNL A   1      33.281  25.719  21.695  1.00  0.00     0.013 A 
ATOM     23  C   UNL A   1      31.464  24.769  22.952  1.00  0.00     0.072 A 
ATOM     24  C   UNL A   1      32.666  24.586  22.237  1.00  0.00     0.000 A 
ATOM     25  C   UNL A   1      30.839  23.647  23.479  1.00  0.00     0.029 A 
ATOM     26  C   UNL A   1      33.208  23.298  22.076  1.00  0.00     0.010 A 
ATOM     27  C   UNL A   1      31.372  22.365  23.319  1.00  0.00     0.002 A 
ATOM     28  C   UNL A   1      32.559  22.190  22.617  1.00  0.00     0.001 A 
ENDBRANCH  18  19
ENDBRANCH  17  18
ENDBRANCH  15  17
ENDBRANCH  12  13
ENDBRANCH   7  12
ENDBRANCH   3   6
ENDBRANCH   1   2
BRANCH   1  29
ATOM     29  C   UNL A   1      37.793  19.754  25.036  1.00  0.00     0.042 C 
BRANCH  29  30
ATOM     30  C   UNL A   1      38.862  20.558  25.770  1.00  0.00     0.118 C 
BRANCH  30  31
ATOM     31  N   UNL A   1      40.010  19.736  26.132  1.00  0.00    -0.352 N 
ATOM     32  C   UNL A   1      41.282  20.107  26.491  1.00  0.00     0.251 C 
ATOM     33  H   UNL A   1      39.848  18.766  26.117  1.00  0.00     0.163 HD
ATOM     34  O   UNL A   1      42.164  19.255  26.538  1.00  0.00    -0.269 OA
BRANCH  32  35
ATOM     35  C   UNL A   1      41.596  21.516  26.818  1.00  0.00     0.039 A 
ATOM     36  C   UNL A   1      41.720  21.885  28.162  1.00  0.00     0.014 A 
ATOM     37  C   UNL A   1      41.718  22.482  25.816  1.00  0.00     0.014 A 
ATOM     38  C   UNL A   1      42.011  23.210  28.497  1.00  0.00     0.010 A 
ATOM     39  C   UNL A   1      42.078  23.787  26.147  1.00  0.00     0.010 A 
ATOM     40  C   UNL A   1      42.216  24.167  27.490  1.00  0.00    -0.014 A 
BRANCH  40  41
ATOM     41  C   UNL A   1      42.579  25.569  27.819  1.00  0.00     0.031 A 
ATOM     42  C   UNL A   1      44.004  26.036  27.694  1.00  0.00     0.074 A 
ATOM     43  C   UNL A   1      41.638  26.396  28.317  1.00  0.00     0.049 A 
ATOM     44  N   UNL A   1      44.517  27.205  27.980  1.00  0.00    -0.248 NA
ATOM     45  C   UNL A   1      44.986  25.053  27.209  1.00  0.00     0.031 C 
ATOM     46  C   UNL A   1      40.237  26.040  28.553  1.00  0.00     0.029 A 
ATOM     47  N   UNL A   1      41.723  27.700  28.737  1.00  0.00    -0.354 N 
ATOM     48  C   UNL A   1      45.883  27.086  27.753  1.00  0.00     0.074 A 
ATOM     49  C   UNL A   1      46.123  25.723  27.334  1.00  0.00     0.031 C 
ATOM     50  C   UNL A   1      39.593  27.100  29.062  1.00  0.00     0.029 A 
ATOM     51  C   UNL A   1      40.536  28.203  29.218  1.00  0.00     0.049 A 
ATOM     52  H   UNL A   1      42.555  28.225  28.699  1.00  0.00     0.167 HD
ATOM     53  C   UNL A   1      46.848  28.032  27.858  1.00  0.00     0.034 A 
ATOM     54  C   UNL A   1      40.242  29.416  29.725  1.00  0.00     0.034 A 
ATOM     55  C   UNL A   1      46.595  29.399  28.229  1.00  0.00     0.049 A 
ATOM     56  C   UNL A   1      41.324  30.459  29.799  1.00  0.00     0.074 A 
ATOM     57  C   UNL A   1      47.482  30.460  28.262  1.00  0.00     0.029 A 
ATOM     58  N   UNL A   1      45.366  29.891  28.642  1.00  0.00    -0.354 N 
ATOM     59  N   UNL A   1      42.576  30.378  29.417  1.00  0.00    -0.248 NA
ATOM     60  C   UNL A   1      40.945  31.771  30.340  1.00  0.00     0.031 C 
ATOM     61  C   UNL A   1      46.794  31.590  28.719  1.00  0.00     0.029 A 
ATOM     62  C   UNL A   1      45.472  31.237  28.947  1.00  0.00     0.049 A 
ATOM     63  H   UNL A   1      44.539  29.361  28.708  1.00  0.00     0.167 HD
ATOM     64  C   UNL A   1      43.124  31.637  29.635  1.00  0.00     0.074 A 
ATOM     65  C   UNL A   1      42.061  32.466  30.167  1.00  0.00     0.031 C 
ATOM     66  C   UNL A   1      44.393  32.064  29.426  1.00  0.00     0.034 A 
BRANCH  53  67
ATOM     67  C   UNL A   1      48.261  27.628  27.521  1.00  0.00     0.023 A 
ATOM     68  C   UNL A   1      49.093  27.093  28.528  1.00  0.00     0.012 A 
ATOM     69  C   UNL A   1      48.756  27.741  26.208  1.00  0.00     0.148 A 
ATOM     70  C   UNL A   1      50.405  26.721  28.244  1.00  0.00     0.002 A 
ATOM     71  C   UNL A   1      50.052  27.325  25.922  1.00  0.00     0.091 A 
ATOM     72  F   UNL A   1      47.963  28.272  25.267  1.00  0.00    -0.205 F 
ATOM     73  C   UNL A   1      50.882  26.829  26.941  1.00  0.00     0.022 A 
BRANCH  71  74
ATOM     74  S   UNL A   1      50.727  27.351  24.257  1.00  0.00     0.127 S 
ATOM     75  O   UNL A   1      50.942  28.780  24.047  1.00  0.00    -0.237 OA
ATOM     76  O   UNL A   1      51.954  26.566  24.407  1.00  0.00    -0.237 OA
ATOM     77  O   UNL A   1      49.717  26.732  23.411  1.00  0.00    -0.744 OA
ENDBRANCH  71  74
ENDBRANCH  53  67
BRANCH  54  78
ATOM     78  C   UNL A   1      38.840  29.737  30.114  1.00  0.00     0.023 A 
ATOM     79  C   UNL A   1      38.409  29.433  31.420  1.00  0.00     0.012 A 
ATOM     80  C   UNL A   1      37.950  30.373  29.227  1.00  0.00     0.148 A 
ATOM     81  C   UNL A   1      37.108  29.731  31.828  1.00  0.00     0.002 A 
ATOM     82  C   UNL A   1      36.673  30.716  29.656  1.00  0.00     0.091 A 
ATOM     83  F   UNL A   1      38.378  30.646  27.986  1.00  0.00    -0.205 F 
ATOM     84  C   UNL A   1      36.244  30.380  30.951  1.00  0.00     0.022 A 
BRANCH  82  85
ATOM     85  S   UNL A   1      35.533  31.666  28.643  1.00  0.00     0.127 S 
ATOM     86  O   UNL A   1      34.488  32.004  29.605  1.00  0.00    -0.237 OA
ATOM     87  O   UNL A   1      36.372  32.789  28.222  1.00  0.00    -0.237 OA
ATOM     88  O   UNL A   1      35.134  30.776  27.560  1.00  0.00    -0.744 OA
ENDBRANCH  82  85
ENDBRANCH  54  78
BRANCH  66  89
ATOM     89  C   UNL A   1      44.704  33.505  29.738  1.00  0.00     0.023 A 
ATOM     90  C   UNL A   1      45.179  33.859  31.016  1.00  0.00     0.012 A 
ATOM     91  C   UNL A   1      44.597  34.495  28.741  1.00  0.00     0.148 A 
ATOM     92  C   UNL A   1      45.512  35.181  31.307  1.00  0.00     0.002 A 
ATOM     93  C   UNL A   1      44.977  35.802  29.024  1.00  0.00     0.091 A 
ATOM     94  F   UNL A   1      44.123  34.143  27.536  1.00  0.00    -0.205 F 
ATOM     95  C   UNL A   1      45.424  36.149  30.309  1.00  0.00     0.022 A 
BRANCH  93  96
ATOM     96  S   UNL A   1      44.987  37.092  27.774  1.00  0.00     0.127 S 
ATOM     97  O   UNL A   1      45.686  38.173  28.464  1.00  0.00    -0.237 OA
ATOM     98  O   UNL A   1      45.747  36.468  26.689  1.00  0.00    -0.237 OA
ATOM     99  O   UNL A   1      43.589  37.352  27.456  1.00  0.00    -0.744 OA
ENDBRANCH  93  96
ENDBRANCH  66  89
ENDBRANCH  40  41
ENDBRANCH  32  35
ENDBRANCH  30  31
ENDBRANCH  29  30
ENDBRANCH   1  29
TORSDOF 18
ENDMDL
MODEL 3
REMARK VINA RESULT:      -9.4      1.583      2.021
REMARK SMILES O=C(CSc1ccc2ccccc2n1)NCc1ccc(C(=O)NCCCNC(=O)c2ccc(-c3c4nc(c(-c5cccc(S(=O)(=O)[O-])c5F)c5ccc([nH]5)c(-c5cccc(S(=O)(=O)[O-])c5F)c5nc(c(-c6cccc(S(=O)(=O)[O-])c6F)c6ccc3[nH]6)C=C5)C=C4)cc2)cc1
REMARK SMILES IDX 24 1 23 2 21 3 22 4 20 6 17 7 18 8 94 9 19 10 93 11 16 12
REMARK SMILES IDX 15 13 1 14 2 15 3 17 4 18 5 19 6 20 14 21 7 22 13 23 8 24
REMARK SMILES IDX 12 25 9 26 11 27 10 28 25 29 26 30 27 31 28 32 29 34 30 35
REMARK SMILES IDX 31 36 92 37 32 38 91 39 33 40 34 41 35 42 85 43 36 44 90 45
REMARK SMILES IDX 84 46 86 47 37 48 89 49 83 50 82 51 38 53 70 54 50 55 69 56
REMARK SMILES IDX 51 57 54 58 68 59 87 60 52 61 53 62 67 64 88 65 55 66 39 67
REMARK SMILES IDX 40 68 48 69 41 70 43 71 49 72 42 73 44 74 45 75 46 76 47 77
REMARK SMILES IDX 71 78 72 79 80 80 73 81 75 82 81 83 74 84 76 85 77 86 78 87
REMARK SMILES IDX 79 88 56 89 57 90 65 91 58 92 60 93 66 94 59 95 61 96 62 97
REMARK SMILES IDX 63 98 64 99
REMARK H PARENT 23 5 15 16 27 33 86 52 54 63
REMARK Flexibility Score: inf
ROOT
ATOM      1  C   UNL A   1      34.233  34.780  29.721  1.00  0.00     0.118 C 
ENDROOT
BRANCH   1   2
ATOM      2  N   UNL A   1      34.309  33.831  30.816  1.00  0.00    -0.352 N 
ATOM      3  C   UNL A   1      35.367  33.324  31.525  1.00  0.00     0.251 C 
ATOM      4  O   UNL A   1      35.110  32.609  32.494  1.00  0.00    -0.269 OA
ATOM      5  H   UNL A   1      33.434  33.484  31.105  1.00  0.00     0.163 HD
BRANCH   3   6
ATOM      6  C   UNL A   1      36.791  33.638  31.214  1.00  0.00     0.039 A 
ATOM      7  C   UNL A   1      39.468  34.171  30.446  1.00  0.00    -0.029 A 
ATOM      8  C   UNL A   1      38.583  33.548  29.559  1.00  0.00     0.006 A 
ATOM      9  C   UNL A   1      38.981  34.568  31.698  1.00  0.00     0.006 A 
ATOM     10  C   UNL A   1      37.264  33.275  29.944  1.00  0.00     0.014 A 
ATOM     11  C   UNL A   1      37.653  34.325  32.069  1.00  0.00     0.014 A 
BRANCH   7  12
ATOM     12  C   UNL A   1      40.885  34.537  30.074  1.00  0.00     0.151 C 
BRANCH  12  13
ATOM     13  N   UNL A   1      41.759  33.404  29.876  1.00  0.00    -0.351 N 
ATOM     14  O   UNL A   1      43.457  34.603  28.910  1.00  0.00    -0.274 OA
ATOM     15  C   UNL A   1      43.037  33.546  29.380  1.00  0.00     0.230 C 
ATOM     16  H   UNL A   1      41.432  32.503  30.103  1.00  0.00     0.163 HD
BRANCH  15  17
ATOM     17  C   UNL A   1      43.860  32.268  29.322  1.00  0.00     0.176 C 
BRANCH  17  18
ATOM     18  S   UNL A   1      42.971  30.874  28.540  1.00  0.00    -0.096 SA
BRANCH  18  19
ATOM     19  C   UNL A   1      44.324  29.763  28.190  1.00  0.00     0.097 A 
ATOM     20  C   UNL A   1      45.395  29.710  29.070  1.00  0.00     0.036 A 
ATOM     21  N   UNL A   1      44.266  29.017  27.069  1.00  0.00    -0.241 NA
ATOM     22  C   UNL A   1      46.459  28.862  28.775  1.00  0.00     0.013 A 
ATOM     23  C   UNL A   1      45.299  28.210  26.772  1.00  0.00     0.072 A 
ATOM     24  C   UNL A   1      46.430  28.095  27.606  1.00  0.00     0.000 A 
ATOM     25  C   UNL A   1      45.270  27.463  25.602  1.00  0.00     0.029 A 
ATOM     26  C   UNL A   1      47.488  27.238  27.254  1.00  0.00     0.010 A 
ATOM     27  C   UNL A   1      46.321  26.614  25.245  1.00  0.00     0.002 A 
ATOM     28  C   UNL A   1      47.432  26.500  26.074  1.00  0.00     0.001 A 
ENDBRANCH  18  19
ENDBRANCH  17  18
ENDBRANCH  15  17
ENDBRANCH  12  13
ENDBRANCH   7  12
ENDBRANCH   3   6
ENDBRANCH   1   2
BRANCH   1  29
ATOM     29  C   UNL A   1      33.817  34.101  28.417  1.00  0.00     0.042 C 
BRANCH  29  30
ATOM     30  C   UNL A   1      34.716  32.933  28.022  1.00  0.00     0.118 C 
BRANCH  30  31
ATOM     31  N   UNL A   1      33.948  31.733  27.717  1.00  0.00    -0.352 N 
ATOM     32  C   UNL A   1      34.356  30.426  27.621  1.00  0.00     0.251 C 
ATOM     33  H   UNL A   1      32.989  31.882  27.556  1.00  0.00     0.163 HD
ATOM     34  O   UNL A   1      33.595  29.595  27.131  1.00  0.00    -0.269 OA
BRANCH  32  35
ATOM     35  C   UNL A   1      35.695  30.012  28.096  1.00  0.00     0.039 A 
ATOM     36  C   UNL A   1      35.838  29.586  29.421  1.00  0.00     0.014 A 
ATOM     37  C   UNL A   1      36.815  30.091  27.264  1.00  0.00     0.014 A 
ATOM     38  C   UNL A   1      37.094  29.196  29.895  1.00  0.00     0.010 A 
ATOM     39  C   UNL A   1      38.051  29.635  27.716  1.00  0.00     0.010 A 
ATOM     40  C   UNL A   1      38.206  29.195  29.039  1.00  0.00    -0.014 A 
BRANCH  40  41
ATOM     41  C   UNL A   1      39.539  28.735  29.504  1.00  0.00     0.031 A 
ATOM     42  C   UNL A   1      40.245  29.456  30.621  1.00  0.00     0.074 A 
ATOM     43  C   UNL A   1      40.153  27.723  28.860  1.00  0.00     0.049 A 
ATOM     44  N   UNL A   1      41.429  29.231  31.129  1.00  0.00    -0.248 NA
ATOM     45  C   UNL A   1      39.539  30.595  31.229  1.00  0.00     0.031 C 
ATOM     46  C   UNL A   1      39.602  26.992  27.716  1.00  0.00     0.029 A 
ATOM     47  N   UNL A   1      41.384  27.150  29.056  1.00  0.00    -0.354 N 
ATOM     48  C   UNL A   1      41.629  30.223  32.082  1.00  0.00     0.074 A 
ATOM     49  C   UNL A   1      40.456  31.069  32.061  1.00  0.00     0.031 C 
ATOM     50  C   UNL A   1      40.484  26.060  27.323  1.00  0.00     0.029 A 
ATOM     51  C   UNL A   1      41.675  26.145  28.163  1.00  0.00     0.049 A 
ATOM     52  H   UNL A   1      42.001  27.432  29.770  1.00  0.00     0.167 HD
ATOM     53  C   UNL A   1      42.682  30.400  32.918  1.00  0.00     0.034 A 
ATOM     54  C   UNL A   1      42.775  25.379  28.037  1.00  0.00     0.034 A 
ATOM     55  C   UNL A   1      43.823  29.526  32.967  1.00  0.00     0.049 A 
ATOM     56  C   UNL A   1      43.915  25.573  29.000  1.00  0.00     0.074 A 
ATOM     57  C   UNL A   1      44.891  29.553  33.847  1.00  0.00     0.029 A 
ATOM     58  N   UNL A   1      44.051  28.474  32.092  1.00  0.00    -0.354 N 
ATOM     59  N   UNL A   1      44.012  26.407  30.007  1.00  0.00    -0.248 NA
ATOM     60  C   UNL A   1      45.082  24.696  28.831  1.00  0.00     0.031 C 
ATOM     61  C   UNL A   1      45.777  28.531  33.488  1.00  0.00     0.029 A 
ATOM     62  C   UNL A   1      45.249  27.853  32.400  1.00  0.00     0.049 A 
ATOM     63  H   UNL A   1      43.449  28.208  31.360  1.00  0.00     0.167 HD
ATOM     64  C   UNL A   1      45.231  26.131  30.616  1.00  0.00     0.074 A 
ATOM     65  C   UNL A   1      45.828  25.039  29.873  1.00  0.00     0.031 C 
ATOM     66  C   UNL A   1      45.808  26.733  31.684  1.00  0.00     0.034 A 
BRANCH  53  67
ATOM     67  C   UNL A   1      42.621  31.559  33.880  1.00  0.00     0.023 A 
ATOM     68  C   UNL A   1      43.164  32.806  33.505  1.00  0.00     0.012 A 
ATOM     69  C   UNL A   1      41.998  31.429  35.136  1.00  0.00     0.148 A 
ATOM     70  C   UNL A   1      43.129  33.890  34.380  1.00  0.00     0.002 A 
ATOM     71  C   UNL A   1      41.927  32.528  35.986  1.00  0.00     0.091 A 
ATOM     72  F   UNL A   1      41.508  30.232  35.489  1.00  0.00    -0.205 F 
ATOM     73  C   UNL A   1      42.504  33.754  35.616  1.00  0.00     0.022 A 
BRANCH  71  74
ATOM     74  S   UNL A   1      41.071  32.471  37.565  1.00  0.00     0.127 S 
ATOM     75  O   UNL A   1      40.998  33.888  37.913  1.00  0.00    -0.237 OA
ATOM     76  O   UNL A   1      39.789  31.865  37.201  1.00  0.00    -0.237 OA
ATOM     77  O   UNL A   1      41.900  31.648  38.435  1.00  0.00    -0.744 OA
ENDBRANCH  71  74
ENDBRANCH  53  67
BRANCH  54  78
ATOM     78  C   UNL A   1      42.811  24.294  27.016  1.00  0.00     0.023 A 
ATOM     79  C   UNL A   1      43.528  24.505  25.823  1.00  0.00     0.012 A 
ATOM     80  C   UNL A   1      42.183  23.052  27.230  1.00  0.00     0.148 A 
ATOM     81  C   UNL A   1      43.598  23.510  24.848  1.00  0.00     0.002 A 
ATOM     82  C   UNL A   1      42.301  22.045  26.278  1.00  0.00     0.091 A 
ATOM     83  F   UNL A   1      41.498  22.874  28.368  1.00  0.00    -0.205 F 
ATOM     84  C   UNL A   1      42.994  22.278  25.079  1.00  0.00     0.022 A 
BRANCH  82  85
ATOM     85  S   UNL A   1      41.667  20.385  26.541  1.00  0.00     0.127 S 
ATOM     86  O   UNL A   1      42.221  20.057  27.851  1.00  0.00    -0.237 OA
ATOM     87  O   UNL A   1      40.221  20.609  26.521  1.00  0.00    -0.237 OA
ATOM     88  O   UNL A   1      42.167  19.591  25.426  1.00  0.00    -0.744 OA
ENDBRANCH  82  85
ENDBRANCH  54  78
BRANCH  66  89
ATOM     89  C   UNL A   1      47.143  26.207  32.144  1.00  0.00     0.023 A 
ATOM     90  C   UNL A   1      47.200  25.237  33.164  1.00  0.00     0.012 A 
ATOM     91  C   UNL A   1      48.334  26.620  31.514  1.00  0.00     0.148 A 
ATOM     92  C   UNL A   1      48.424  24.709  33.572  1.00  0.00     0.002 A 
ATOM     93  C   UNL A   1      49.546  26.052  31.892  1.00  0.00     0.091 A 
ATOM     94  F   UNL A   1      48.261  27.559  30.560  1.00  0.00    -0.205 F 
ATOM     95  C   UNL A   1      49.594  25.106  32.928  1.00  0.00     0.022 A 
BRANCH  93  96
ATOM     96  S   UNL A   1      51.087  26.434  31.052  1.00  0.00     0.127 S 
ATOM     97  O   UNL A   1      50.760  26.113  29.665  1.00  0.00    -0.237 OA
ATOM     98  O   UNL A   1      51.245  27.863  31.327  1.00  0.00    -0.237 OA
ATOM     99  O   UNL A   1      52.099  25.588  31.670  1.00  0.00    -0.744 OA
ENDBRANCH  93  96
ENDBRANCH  66  89
ENDBRANCH  40  41
ENDBRANCH  32  35
ENDBRANCH  30  31
ENDBRANCH  29  30
ENDBRANCH   1  29
TORSDOF 18
ENDMDL
