MODEL 1
REMARK VINA RESULT:     -11.8      0.000      0.000
REMARK SMILES O=C(/C=C/c1ccc(S(=O)(=O)Nc2ccc3c(c2)OCCO3)cc1)NCCCNC(=O)c1ccc(-c2c3nc(c(-c4cccc(S(=O)(=O)[O-])c4F)c4ccc([nH]4)c(-c4cccc(S(=O)(=O)[O-])c4F)c4nc(c(-c5cccc(S(=O)(=O)[O-])c5F)c5ccc2[nH]5)C=C4)C=C3)cc1
REMARK SMILES IDX 26 1 25 2 1 3 2 4 3 6 4 7 5 8 6 9 24 10 7 11 23 12 8 13 9 14
REMARK SMILES IDX 10 15 11 16 12 17 13 19 14 20 18 21 15 22 17 23 16 24 19 25
REMARK SMILES IDX 22 26 20 27 21 28 27 29 28 30 29 31 30 32 31 34 32 35 33 36
REMARK SMILES IDX 94 37 34 38 93 39 35 40 36 41 37 42 87 43 38 44 92 45 86 46
REMARK SMILES IDX 88 47 39 48 91 49 85 50 84 51 40 53 72 54 52 55 71 56 53 57
REMARK SMILES IDX 56 58 70 59 89 60 54 61 55 62 69 64 90 65 57 66 41 67 42 68
REMARK SMILES IDX 50 69 43 70 45 71 51 72 44 73 46 74 47 75 48 76 49 77 73 78
REMARK SMILES IDX 74 79 82 80 75 81 77 82 83 83 76 84 78 85 79 86 80 87 81 88
REMARK SMILES IDX 58 89 59 90 67 91 60 92 62 93 68 94 61 95 63 96 64 97 65 98
REMARK SMILES IDX 66 99
REMARK H PARENT 25 5 12 18 29 33 88 52 56 63
REMARK Flexibility Score: inf
ROOT
ATOM      1  C   UNL A   1      34.533  33.654  28.808  1.00  0.00     0.118 C 
ENDROOT
BRANCH   1   2
ATOM      2  N   UNL A   1      33.990  32.330  28.553  1.00  0.00    -0.352 N 
ATOM      3  O   UNL A   1      35.908  31.499  27.615  1.00  0.00    -0.270 OA
ATOM      4  C   UNL A   1      34.739  31.354  27.956  1.00  0.00     0.244 C 
ATOM      5  H   UNL A   1      33.062  32.132  28.814  1.00  0.00     0.163 HD
BRANCH   4   6
ATOM      6  C   UNL A   1      34.114  30.014  27.784  1.00  0.00     0.072 C 
ATOM      7  C   UNL A   1      33.905  29.314  26.656  1.00  0.00     0.014 C 
BRANCH   7   8
ATOM      8  C   UNL A   1      33.236  27.991  26.598  1.00  0.00    -0.025 A 
ATOM      9  C   UNL A   1      33.940  26.887  26.095  1.00  0.00     0.009 A 
ATOM     10  C   UNL A   1      31.904  27.788  26.990  1.00  0.00     0.009 A 
ATOM     11  C   UNL A   1      33.313  25.640  25.929  1.00  0.00     0.023 A 
ATOM     12  C   UNL A   1      31.292  26.529  26.884  1.00  0.00     0.023 A 
ATOM     13  C   UNL A   1      31.975  25.468  26.302  1.00  0.00     0.087 A 
BRANCH  13  14
ATOM     14  S   UNL A   1      31.184  23.899  25.984  1.00  0.00     0.261 S 
ATOM     15  O   UNL A   1      32.248  22.925  25.772  1.00  0.00    -0.201 OA
ATOM     16  O   UNL A   1      30.196  23.687  27.007  1.00  0.00    -0.201 OA
BRANCH  14  17
ATOM     17  N   UNL A   1      30.345  23.960  24.471  1.00  0.00    -0.279 N 
ATOM     18  H   UNL A   1      29.749  23.231  24.181  1.00  0.00     0.180 HD
BRANCH  17  19
ATOM     19  C   UNL A   1      30.557  25.122  23.658  1.00  0.00     0.053 A 
ATOM     20  C   UNL A   1      29.630  26.164  23.781  1.00  0.00     0.031 A 
ATOM     21  C   UNL A   1      31.711  25.279  22.897  1.00  0.00     0.077 A 
ATOM     22  C   UNL A   1      29.967  27.440  23.336  1.00  0.00     0.052 A 
ATOM     23  C   UNL A   1      32.077  26.562  22.519  1.00  0.00     0.163 A 
ATOM     24  C   UNL A   1      31.232  27.644  22.797  1.00  0.00     0.161 A 
ATOM     25  O   UNL A   1      33.341  26.702  22.012  1.00  0.00    -0.486 OA
ATOM     26  O   UNL A   1      31.664  28.941  22.675  1.00  0.00    -0.486 OA
ATOM     27  C   UNL A   1      33.796  28.062  21.977  1.00  0.00     0.271 C 
ATOM     28  C   UNL A   1      33.069  28.952  22.974  1.00  0.00     0.271 C 
ENDBRANCH  17  19
ENDBRANCH  14  17
ENDBRANCH  13  14
ENDBRANCH   7   8
ENDBRANCH   4   6
ENDBRANCH   1   2
BRANCH   1  29
ATOM     29  C   UNL A   1      33.492  34.759  28.657  1.00  0.00     0.042 C 
BRANCH  29  30
ATOM     30  C   UNL A   1      33.733  35.977  29.546  1.00  0.00     0.118 C 
BRANCH  30  31
ATOM     31  N   UNL A   1      32.693  36.168  30.550  1.00  0.00    -0.352 N 
ATOM     32  C   UNL A   1      32.630  35.735  31.853  1.00  0.00     0.251 C 
ATOM     33  H   UNL A   1      31.914  36.689  30.248  1.00  0.00     0.163 HD
ATOM     34  O   UNL A   1      31.593  35.893  32.492  1.00  0.00    -0.269 OA
BRANCH  32  35
ATOM     35  C   UNL A   1      33.788  35.061  32.480  1.00  0.00     0.039 A 
ATOM     36  C   UNL A   1      33.600  33.803  33.063  1.00  0.00     0.014 A 
ATOM     37  C   UNL A   1      35.051  35.658  32.501  1.00  0.00     0.014 A 
ATOM     38  C   UNL A   1      34.692  33.112  33.594  1.00  0.00     0.010 A 
ATOM     39  C   UNL A   1      36.149  34.941  32.973  1.00  0.00     0.010 A 
ATOM     40  C   UNL A   1      35.983  33.656  33.513  1.00  0.00    -0.014 A 
BRANCH  40  41
ATOM     41  C   UNL A   1      37.179  32.880  33.935  1.00  0.00     0.031 A 
ATOM     42  C   UNL A   1      37.978  33.297  35.139  1.00  0.00     0.074 A 
ATOM     43  C   UNL A   1      37.608  31.861  33.165  1.00  0.00     0.049 A 
ATOM     44  N   UNL A   1      39.094  32.794  35.600  1.00  0.00    -0.248 NA
ATOM     45  C   UNL A   1      37.469  34.441  35.914  1.00  0.00     0.031 C 
ATOM     46  C   UNL A   1      36.964  31.407  31.929  1.00  0.00     0.029 A 
ATOM     47  N   UNL A   1      38.706  31.046  33.284  1.00  0.00    -0.354 N 
ATOM     48  C   UNL A   1      39.442  33.577  36.694  1.00  0.00     0.074 A 
ATOM     49  C   UNL A   1      38.429  34.605  36.814  1.00  0.00     0.031 C 
ATOM     50  C   UNL A   1      37.681  30.402  31.403  1.00  0.00     0.029 A 
ATOM     51  C   UNL A   1      38.851  30.160  32.242  1.00  0.00     0.049 A 
ATOM     52  H   UNL A   1      39.330  31.090  34.044  1.00  0.00     0.167 HD
ATOM     53  C   UNL A   1      40.493  33.439  37.537  1.00  0.00     0.034 A 
ATOM     54  C   UNL A   1      39.822  29.263  31.980  1.00  0.00     0.034 A 
ATOM     55  C   UNL A   1      41.475  32.393  37.442  1.00  0.00     0.049 A 
ATOM     56  C   UNL A   1      40.965  29.115  32.947  1.00  0.00     0.074 A 
ATOM     57  C   UNL A   1      42.520  32.113  38.306  1.00  0.00     0.029 A 
ATOM     58  N   UNL A   1      41.545  31.461  36.417  1.00  0.00    -0.354 N 
ATOM     59  N   UNL A   1      41.184  29.755  34.068  1.00  0.00    -0.248 NA
ATOM     60  C   UNL A   1      41.977  28.097  32.628  1.00  0.00     0.031 C 
ATOM     61  C   UNL A   1      43.234  31.024  37.793  1.00  0.00     0.029 A 
ATOM     62  C   UNL A   1      42.622  30.614  36.619  1.00  0.00     0.049 A 
ATOM     63  H   UNL A   1      40.920  31.408  35.660  1.00  0.00     0.167 HD
ATOM     64  C   UNL A   1      42.342  29.203  34.603  1.00  0.00     0.074 A 
ATOM     65  C   UNL A   1      42.763  28.155  33.696  1.00  0.00     0.031 C 
ATOM     66  C   UNL A   1      43.006  29.544  35.734  1.00  0.00     0.034 A 
BRANCH  53  67
ATOM     67  C   UNL A   1      40.607  34.414  38.680  1.00  0.00     0.023 A 
ATOM     68  C   UNL A   1      41.466  35.525  38.558  1.00  0.00     0.012 A 
ATOM     69  C   UNL A   1      39.822  34.272  39.841  1.00  0.00     0.148 A 
ATOM     70  C   UNL A   1      41.566  36.463  39.584  1.00  0.00     0.002 A 
ATOM     71  C   UNL A   1      39.896  35.233  40.844  1.00  0.00     0.091 A 
ATOM     72  F   UNL A   1      39.027  33.198  39.949  1.00  0.00    -0.205 F 
ATOM     73  C   UNL A   1      40.775  36.323  40.720  1.00  0.00     0.022 A 
BRANCH  71  74
ATOM     74  S   UNL A   1      38.865  35.182  42.312  1.00  0.00     0.127 S 
ATOM     75  O   UNL A   1      39.292  36.391  43.015  1.00  0.00    -0.237 OA
ATOM     76  O   UNL A   1      37.517  35.251  41.746  1.00  0.00    -0.237 OA
ATOM     77  O   UNL A   1      39.178  33.926  42.978  1.00  0.00    -0.744 OA
ENDBRANCH  71  74
ENDBRANCH  53  67
BRANCH  54  78
ATOM     78  C   UNL A   1      39.725  28.395  30.772  1.00  0.00     0.023 A 
ATOM     79  C   UNL A   1      38.933  27.232  30.822  1.00  0.00     0.012 A 
ATOM     80  C   UNL A   1      40.382  28.729  29.572  1.00  0.00     0.148 A 
ATOM     81  C   UNL A   1      38.819  26.401  29.707  1.00  0.00     0.002 A 
ATOM     82  C   UNL A   1      40.220  27.926  28.449  1.00  0.00     0.091 A 
ATOM     83  F   UNL A   1      41.144  29.832  29.549  1.00  0.00    -0.205 F 
ATOM     84  C   UNL A   1      39.452  26.753  28.518  1.00  0.00     0.022 A 
BRANCH  82  85
ATOM     85  S   UNL A   1      40.889  28.375  26.843  1.00  0.00     0.127 S 
ATOM     86  O   UNL A   1      40.889  27.089  26.150  1.00  0.00    -0.237 OA
ATOM     87  O   UNL A   1      39.897  29.337  26.359  1.00  0.00    -0.237 OA
ATOM     88  O   UNL A   1      42.199  28.952  27.113  1.00  0.00    -0.744 OA
ENDBRANCH  82  85
ENDBRANCH  54  78
BRANCH  66  89
ATOM     89  C   UNL A   1      44.255  28.770  36.070  1.00  0.00     0.023 A 
ATOM     90  C   UNL A   1      45.509  29.258  35.655  1.00  0.00     0.012 A 
ATOM     91  C   UNL A   1      44.193  27.602  36.855  1.00  0.00     0.148 A 
ATOM     92  C   UNL A   1      46.680  28.579  35.988  1.00  0.00     0.002 A 
ATOM     93  C   UNL A   1      45.368  26.956  37.224  1.00  0.00     0.091 A 
ATOM     94  F   UNL A   1      42.988  27.142  37.226  1.00  0.00    -0.205 F 
ATOM     95  C   UNL A   1      46.611  27.437  36.782  1.00  0.00     0.022 A 
BRANCH  93  96
ATOM     96  S   UNL A   1      45.382  25.531  38.319  1.00  0.00     0.127 S 
ATOM     97  O   UNL A   1      44.388  24.663  37.690  1.00  0.00    -0.237 OA
ATOM     98  O   UNL A   1      46.763  25.063  38.202  1.00  0.00    -0.237 OA
ATOM     99  O   UNL A   1      45.026  26.037  39.638  1.00  0.00    -0.744 OA
ENDBRANCH  93  96
ENDBRANCH  66  89
ENDBRANCH  40  41
ENDBRANCH  32  35
ENDBRANCH  30  31
ENDBRANCH  29  30
ENDBRANCH   1  29
TORSDOF 17
ENDMDL
MODEL 2
REMARK VINA RESULT:     -11.7      7.034     12.796
REMARK SMILES O=C(/C=C/c1ccc(S(=O)(=O)Nc2ccc3c(c2)OCCO3)cc1)NCCCNC(=O)c1ccc(-c2c3nc(c(-c4cccc(S(=O)(=O)[O-])c4F)c4ccc([nH]4)c(-c4cccc(S(=O)(=O)[O-])c4F)c4nc(c(-c5cccc(S(=O)(=O)[O-])c5F)c5ccc2[nH]5)C=C4)C=C3)cc1
REMARK SMILES IDX 26 1 25 2 1 3 2 4 3 6 4 7 5 8 6 9 24 10 7 11 23 12 8 13 9 14
REMARK SMILES IDX 10 15 11 16 12 17 13 19 14 20 18 21 15 22 17 23 16 24 19 25
REMARK SMILES IDX 22 26 20 27 21 28 27 29 28 30 29 31 30 32 31 34 32 35 33 36
REMARK SMILES IDX 94 37 34 38 93 39 35 40 36 41 37 42 87 43 38 44 92 45 86 46
REMARK SMILES IDX 88 47 39 48 91 49 85 50 84 51 40 53 72 54 52 55 71 56 53 57
REMARK SMILES IDX 56 58 70 59 89 60 54 61 55 62 69 64 90 65 57 66 41 67 42 68
REMARK SMILES IDX 50 69 43 70 45 71 51 72 44 73 46 74 47 75 48 76 49 77 73 78
REMARK SMILES IDX 74 79 82 80 75 81 77 82 83 83 76 84 78 85 79 86 80 87 81 88
REMARK SMILES IDX 58 89 59 90 67 91 60 92 62 93 68 94 61 95 63 96 64 97 65 98
REMARK SMILES IDX 66 99
REMARK H PARENT 25 5 12 18 29 33 88 52 56 63
REMARK Flexibility Score: inf
ROOT
ATOM      1  C   UNL A   1      45.768  19.716  24.314  1.00  0.00     0.118 C 
ENDROOT
BRANCH   1   2
ATOM      2  N   UNL A   1      45.883  21.094  24.763  1.00  0.00    -0.352 N 
ATOM      3  O   UNL A   1      44.504  21.952  23.147  1.00  0.00    -0.270 OA
ATOM      4  C   UNL A   1      45.236  22.112  24.118  1.00  0.00     0.244 C 
ATOM      5  H   UNL A   1      46.440  21.299  25.548  1.00  0.00     0.163 HD
BRANCH   4   6
ATOM      6  C   UNL A   1      45.372  23.482  24.683  1.00  0.00     0.072 C 
ATOM      7  C   UNL A   1      44.487  24.493  24.679  1.00  0.00     0.014 C 
BRANCH   7   8
ATOM      8  C   UNL A   1      44.745  25.840  25.246  1.00  0.00    -0.025 A 
ATOM      9  C   UNL A   1      43.662  26.692  25.510  1.00  0.00     0.009 A 
ATOM     10  C   UNL A   1      46.035  26.330  25.503  1.00  0.00     0.009 A 
ATOM     11  C   UNL A   1      43.867  28.010  25.952  1.00  0.00     0.023 A 
ATOM     12  C   UNL A   1      46.241  27.625  26.003  1.00  0.00     0.023 A 
ATOM     13  C   UNL A   1      45.164  28.486  26.176  1.00  0.00     0.087 A 
BRANCH  13  14
ATOM     14  S   UNL A   1      45.389  30.195  26.640  1.00  0.00     0.261 S 
ATOM     15  O   UNL A   1      45.569  30.220  28.087  1.00  0.00    -0.201 OA
ATOM     16  O   UNL A   1      46.388  30.761  25.773  1.00  0.00    -0.201 OA
BRANCH  14  17
ATOM     17  N   UNL A   1      43.925  31.077  26.370  1.00  0.00    -0.279 N 
ATOM     18  H   UNL A   1      43.069  30.619  26.203  1.00  0.00     0.180 HD
BRANCH  17  19
ATOM     19  C   UNL A   1      44.016  32.508  26.400  1.00  0.00     0.053 A 
ATOM     20  C   UNL A   1      43.919  33.179  25.176  1.00  0.00     0.031 A 
ATOM     21  C   UNL A   1      44.044  33.212  27.599  1.00  0.00     0.077 A 
ATOM     22  C   UNL A   1      43.614  34.538  25.158  1.00  0.00     0.052 A 
ATOM     23  C   UNL A   1      43.670  34.548  27.584  1.00  0.00     0.163 A 
ATOM     24  C   UNL A   1      43.396  35.186  26.368  1.00  0.00     0.161 A 
ATOM     25  O   UNL A   1      43.453  35.125  28.806  1.00  0.00    -0.486 OA
ATOM     26  O   UNL A   1      42.783  36.413  26.325  1.00  0.00    -0.486 OA
ATOM     27  C   UNL A   1      42.734  36.364  28.733  1.00  0.00     0.271 C 
ATOM     28  C   UNL A   1      41.909  36.492  27.462  1.00  0.00     0.271 C 
ENDBRANCH  17  19
ENDBRANCH  14  17
ENDBRANCH  13  14
ENDBRANCH   7   8
ENDBRANCH   4   6
ENDBRANCH   1   2
BRANCH   1  29
ATOM     29  C   UNL A   1      44.481  19.046  24.785  1.00  0.00     0.042 C 
BRANCH  29  30
ATOM     30  C   UNL A   1      43.660  19.877  25.766  1.00  0.00     0.118 C 
BRANCH  30  31
ATOM     31  N   UNL A   1      42.225  19.643  25.654  1.00  0.00    -0.352 N 
ATOM     32  C   UNL A   1      41.167  20.380  26.133  1.00  0.00     0.251 C 
ATOM     33  H   UNL A   1      41.973  18.831  25.158  1.00  0.00     0.163 HD
ATOM     34  O   UNL A   1      40.028  19.929  26.043  1.00  0.00    -0.269 OA
BRANCH  32  35
ATOM     35  C   UNL A   1      41.394  21.692  26.778  1.00  0.00     0.039 A 
ATOM     36  C   UNL A   1      41.597  21.737  28.161  1.00  0.00     0.014 A 
ATOM     37  C   UNL A   1      41.402  22.874  26.032  1.00  0.00     0.014 A 
ATOM     38  C   UNL A   1      41.888  22.954  28.783  1.00  0.00     0.010 A 
ATOM     39  C   UNL A   1      41.755  24.076  26.643  1.00  0.00     0.010 A 
ATOM     40  C   UNL A   1      42.013  24.127  28.022  1.00  0.00    -0.014 A 
BRANCH  40  41
ATOM     41  C   UNL A   1      42.466  25.403  28.635  1.00  0.00     0.031 A 
ATOM     42  C   UNL A   1      43.920  25.631  28.945  1.00  0.00     0.074 A 
ATOM     43  C   UNL A   1      41.548  26.314  29.015  1.00  0.00     0.049 A 
ATOM     44  N   UNL A   1      44.482  26.641  29.557  1.00  0.00    -0.248 NA
ATOM     45  C   UNL A   1      44.862  24.578  28.533  1.00  0.00     0.031 C 
ATOM     46  C   UNL A   1      40.100  26.177  28.840  1.00  0.00     0.029 A 
ATOM     47  N   UNL A   1      41.691  27.518  29.658  1.00  0.00    -0.354 N 
ATOM     48  C   UNL A   1      45.835  26.333  29.637  1.00  0.00     0.074 A 
ATOM     49  C   UNL A   1      46.006  25.030  29.031  1.00  0.00     0.031 C 
ATOM     50  C   UNL A   1      39.489  27.248  29.369  1.00  0.00     0.029 A 
ATOM     51  C   UNL A   1      40.495  28.133  29.948  1.00  0.00     0.049 A 
ATOM     52  H   UNL A   1      42.566  27.904  29.890  1.00  0.00     0.167 HD
ATOM     53  C   UNL A   1      46.846  27.078  30.144  1.00  0.00     0.034 A 
ATOM     54  C   UNL A   1      40.234  29.273  30.618  1.00  0.00     0.034 A 
ATOM     55  C   UNL A   1      46.682  28.390  30.709  1.00  0.00     0.049 A 
ATOM     56  C   UNL A   1      41.378  30.092  31.149  1.00  0.00     0.074 A 
ATOM     57  C   UNL A   1      47.658  29.262  31.159  1.00  0.00     0.029 A 
ATOM     58  N   UNL A   1      45.462  29.019  30.912  1.00  0.00    -0.354 N 
ATOM     59  N   UNL A   1      42.665  29.862  31.064  1.00  0.00    -0.248 NA
ATOM     60  C   UNL A   1      41.036  31.343  31.841  1.00  0.00     0.031 C 
ATOM     61  C   UNL A   1      47.028  30.408  31.655  1.00  0.00     0.029 A 
ATOM     62  C   UNL A   1      45.660  30.259  31.495  1.00  0.00     0.049 A 
ATOM     63  H   UNL A   1      44.586  28.639  30.676  1.00  0.00     0.167 HD
ATOM     64  C   UNL A   1      43.287  30.949  31.666  1.00  0.00     0.074 A 
ATOM     65  C   UNL A   1      42.236  31.852  32.087  1.00  0.00     0.031 C 
ATOM     66  C   UNL A   1      44.609  31.172  31.868  1.00  0.00     0.034 A 
BRANCH  53  67
ATOM     67  C   UNL A   1      48.241  26.513  30.061  1.00  0.00     0.023 A 
ATOM     68  C   UNL A   1      48.715  25.686  31.101  1.00  0.00     0.012 A 
ATOM     69  C   UNL A   1      49.055  26.743  28.935  1.00  0.00     0.148 A 
ATOM     70  C   UNL A   1      49.987  25.122  31.035  1.00  0.00     0.002 A 
ATOM     71  C   UNL A   1      50.308  26.144  28.858  1.00  0.00     0.091 A 
ATOM     72  F   UNL A   1      48.597  27.550  27.967  1.00  0.00    -0.205 F 
ATOM     73  C   UNL A   1      50.778  25.341  29.911  1.00  0.00     0.022 A 
BRANCH  71  74
ATOM     74  S   UNL A   1      51.372  26.305  27.421  1.00  0.00     0.127 S 
ATOM     75  O   UNL A   1      50.611  25.576  26.407  1.00  0.00    -0.237 OA
ATOM     76  O   UNL A   1      51.411  27.755  27.226  1.00  0.00    -0.237 OA
ATOM     77  O   UNL A   1      52.646  25.711  27.797  1.00  0.00    -0.744 OA
ENDBRANCH  71  74
ENDBRANCH  53  67
BRANCH  54  78
ATOM     78  C   UNL A   1      38.825  29.736  30.774  1.00  0.00     0.023 A 
ATOM     79  C   UNL A   1      38.123  29.414  31.951  1.00  0.00     0.012 A 
ATOM     80  C   UNL A   1      38.193  30.515  29.786  1.00  0.00     0.148 A 
ATOM     81  C   UNL A   1      36.804  29.836  32.129  1.00  0.00     0.002 A 
ATOM     82  C   UNL A   1      36.899  30.977  29.994  1.00  0.00     0.091 A 
ATOM     83  F   UNL A   1      38.874  30.797  28.666  1.00  0.00    -0.205 F 
ATOM     84  C   UNL A   1      36.196  30.625  31.157  1.00  0.00     0.022 A 
BRANCH  82  85
ATOM     85  S   UNL A   1      36.089  32.108  28.858  1.00  0.00     0.127 S 
ATOM     86  O   UNL A   1      37.119  33.124  28.661  1.00  0.00    -0.237 OA
ATOM     87  O   UNL A   1      35.840  31.248  27.698  1.00  0.00    -0.237 OA
ATOM     88  O   UNL A   1      34.881  32.550  29.542  1.00  0.00    -0.744 OA
ENDBRANCH  82  85
ENDBRANCH  54  78
BRANCH  66  89
ATOM     89  C   UNL A   1      45.003  32.450  32.563  1.00  0.00     0.023 A 
ATOM     90  C   UNL A   1      45.003  32.504  33.971  1.00  0.00     0.012 A 
ATOM     91  C   UNL A   1      45.441  33.568  31.828  1.00  0.00     0.148 A 
ATOM     92  C   UNL A   1      45.402  33.663  34.635  1.00  0.00     0.002 A 
ATOM     93  C   UNL A   1      45.882  34.704  32.497  1.00  0.00     0.091 A 
ATOM     94  F   UNL A   1      45.416  33.504  30.488  1.00  0.00    -0.205 F 
ATOM     95  C   UNL A   1      45.853  34.757  33.901  1.00  0.00     0.022 A 
BRANCH  93  96
ATOM     96  S   UNL A   1      46.564  36.127  31.637  1.00  0.00     0.127 S 
ATOM     97  O   UNL A   1      47.130  35.507  30.441  1.00  0.00    -0.237 OA
ATOM     98  O   UNL A   1      45.375  36.944  31.397  1.00  0.00    -0.237 OA
ATOM     99  O   UNL A   1      47.530  36.721  32.551  1.00  0.00    -0.744 OA
ENDBRANCH  93  96
ENDBRANCH  66  89
ENDBRANCH  40  41
ENDBRANCH  32  35
ENDBRANCH  30  31
ENDBRANCH  29  30
ENDBRANCH   1  29
TORSDOF 17
ENDMDL
MODEL 3
REMARK VINA RESULT:     -11.3      1.449      2.621
REMARK SMILES O=C(/C=C/c1ccc(S(=O)(=O)Nc2ccc3c(c2)OCCO3)cc1)NCCCNC(=O)c1ccc(-c2c3nc(c(-c4cccc(S(=O)(=O)[O-])c4F)c4ccc([nH]4)c(-c4cccc(S(=O)(=O)[O-])c4F)c4nc(c(-c5cccc(S(=O)(=O)[O-])c5F)c5ccc2[nH]5)C=C4)C=C3)cc1
REMARK SMILES IDX 26 1 25 2 1 3 2 4 3 6 4 7 5 8 6 9 24 10 7 11 23 12 8 13 9 14
REMARK SMILES IDX 10 15 11 16 12 17 13 19 14 20 18 21 15 22 17 23 16 24 19 25
REMARK SMILES IDX 22 26 20 27 21 28 27 29 28 30 29 31 30 32 31 34 32 35 33 36
REMARK SMILES IDX 94 37 34 38 93 39 35 40 36 41 37 42 87 43 38 44 92 45 86 46
REMARK SMILES IDX 88 47 39 48 91 49 85 50 84 51 40 53 72 54 52 55 71 56 53 57
REMARK SMILES IDX 56 58 70 59 89 60 54 61 55 62 69 64 90 65 57 66 41 67 42 68
REMARK SMILES IDX 50 69 43 70 45 71 51 72 44 73 46 74 47 75 48 76 49 77 73 78
REMARK SMILES IDX 74 79 82 80 75 81 77 82 83 83 76 84 78 85 79 86 80 87 81 88
REMARK SMILES IDX 58 89 59 90 67 91 60 92 62 93 68 94 61 95 63 96 64 97 65 98
REMARK SMILES IDX 66 99
REMARK H PARENT 25 5 12 18 29 33 88 52 56 63
REMARK Flexibility Score: inf
ROOT
ATOM      1  C   UNL A   1      34.143  33.580  28.564  1.00  0.00     0.118 C 
ENDROOT
BRANCH   1   2
ATOM      2  N   UNL A   1      33.913  32.469  27.654  1.00  0.00    -0.352 N 
ATOM      3  O   UNL A   1      35.136  30.956  28.866  1.00  0.00    -0.270 OA
ATOM      4  C   UNL A   1      34.451  31.233  27.886  1.00  0.00     0.244 C 
ATOM      5  H   UNL A   1      33.359  32.610  26.853  1.00  0.00     0.163 HD
BRANCH   4   6
ATOM      6  C   UNL A   1      34.117  30.146  26.927  1.00  0.00     0.072 C 
ATOM      7  C   UNL A   1      32.965  29.916  26.272  1.00  0.00     0.014 C 
BRANCH   7   8
ATOM      8  C   UNL A   1      32.730  28.772  25.358  1.00  0.00    -0.025 A 
ATOM      9  C   UNL A   1      33.779  27.877  25.095  1.00  0.00     0.009 A 
ATOM     10  C   UNL A   1      31.509  28.551  24.702  1.00  0.00     0.009 A 
ATOM     11  C   UNL A   1      33.631  26.839  24.159  1.00  0.00     0.023 A 
ATOM     12  C   UNL A   1      31.337  27.479  23.813  1.00  0.00     0.023 A 
ATOM     13  C   UNL A   1      32.411  26.655  23.497  1.00  0.00     0.087 A 
BRANCH  13  14
ATOM     14  S   UNL A   1      32.291  25.391  22.243  1.00  0.00     0.261 S 
ATOM     15  O   UNL A   1      31.777  26.035  21.040  1.00  0.00    -0.201 OA
ATOM     16  O   UNL A   1      33.542  24.681  22.210  1.00  0.00    -0.201 OA
BRANCH  14  17
ATOM     17  N   UNL A   1      31.069  24.245  22.677  1.00  0.00    -0.279 N 
ATOM     18  H   UNL A   1      30.154  24.303  22.317  1.00  0.00     0.180 HD
BRANCH  17  19
ATOM     19  C   UNL A   1      31.451  23.204  23.589  1.00  0.00     0.053 A 
ATOM     20  C   UNL A   1      32.015  22.048  23.037  1.00  0.00     0.031 A 
ATOM     21  C   UNL A   1      31.408  23.390  24.966  1.00  0.00     0.077 A 
ATOM     22  C   UNL A   1      32.747  21.185  23.848  1.00  0.00     0.052 A 
ATOM     23  C   UNL A   1      32.196  22.572  25.762  1.00  0.00     0.163 A 
ATOM     24  C   UNL A   1      32.911  21.513  25.189  1.00  0.00     0.161 A 
ATOM     25  O   UNL A   1      32.334  22.956  27.069  1.00  0.00    -0.486 OA
ATOM     26  O   UNL A   1      33.889  20.848  25.886  1.00  0.00    -0.486 OA
ATOM     27  C   UNL A   1      33.420  22.307  27.745  1.00  0.00     0.271 C 
ATOM     28  C   UNL A   1      34.485  21.793  26.788  1.00  0.00     0.271 C 
ENDBRANCH  17  19
ENDBRANCH  14  17
ENDBRANCH  13  14
ENDBRANCH   7   8
ENDBRANCH   4   6
ENDBRANCH   1   2
BRANCH   1  29
ATOM     29  C   UNL A   1      32.962  34.542  28.634  1.00  0.00     0.042 C 
BRANCH  29  30
ATOM     30  C   UNL A   1      33.292  35.904  29.238  1.00  0.00     0.118 C 
BRANCH  30  31
ATOM     31  N   UNL A   1      32.603  36.153  30.500  1.00  0.00    -0.352 N 
ATOM     32  C   UNL A   1      32.850  35.655  31.757  1.00  0.00     0.251 C 
ATOM     33  H   UNL A   1      31.843  36.776  30.442  1.00  0.00     0.163 HD
ATOM     34  O   UNL A   1      32.059  35.892  32.665  1.00  0.00    -0.269 OA
BRANCH  32  35
ATOM     35  C   UNL A   1      34.042  34.817  32.015  1.00  0.00     0.039 A 
ATOM     36  C   UNL A   1      35.308  35.409  31.948  1.00  0.00     0.014 A 
ATOM     37  C   UNL A   1      33.922  33.458  32.316  1.00  0.00     0.014 A 
ATOM     38  C   UNL A   1      36.445  34.659  32.261  1.00  0.00     0.010 A 
ATOM     39  C   UNL A   1      35.050  32.729  32.691  1.00  0.00     0.010 A 
ATOM     40  C   UNL A   1      36.321  33.324  32.678  1.00  0.00    -0.014 A 
BRANCH  40  41
ATOM     41  C   UNL A   1      37.496  32.551  33.158  1.00  0.00     0.031 A 
ATOM     42  C   UNL A   1      38.229  32.965  34.405  1.00  0.00     0.074 A 
ATOM     43  C   UNL A   1      37.970  31.538  32.406  1.00  0.00     0.049 A 
ATOM     44  N   UNL A   1      39.321  32.465  34.921  1.00  0.00    -0.248 NA
ATOM     45  C   UNL A   1      37.675  34.102  35.157  1.00  0.00     0.031 C 
ATOM     46  C   UNL A   1      37.394  31.088  31.136  1.00  0.00     0.029 A 
ATOM     47  N   UNL A   1      39.063  30.727  32.579  1.00  0.00    -0.354 N 
ATOM     48  C   UNL A   1      39.608  33.243  36.036  1.00  0.00     0.074 A 
ATOM     49  C   UNL A   1      38.585  34.266  36.108  1.00  0.00     0.031 C 
ATOM     50  C   UNL A   1      38.142  30.089  30.643  1.00  0.00     0.029 A 
ATOM     51  C   UNL A   1      39.267  29.847  31.541  1.00  0.00     0.049 A 
ATOM     52  H   UNL A   1      39.646  30.770  33.371  1.00  0.00     0.167 HD
ATOM     53  C   UNL A   1      40.613  33.105  36.933  1.00  0.00     0.034 A 
ATOM     54  C   UNL A   1      40.255  28.956  31.327  1.00  0.00     0.034 A 
ATOM     55  C   UNL A   1      41.604  32.064  36.884  1.00  0.00     0.049 A 
ATOM     56  C   UNL A   1      41.346  28.807  32.351  1.00  0.00     0.074 A 
ATOM     57  C   UNL A   1      42.603  31.783  37.800  1.00  0.00     0.029 A 
ATOM     58  N   UNL A   1      41.732  31.138  35.860  1.00  0.00    -0.354 N 
ATOM     59  N   UNL A   1      41.503  29.443  33.486  1.00  0.00    -0.248 NA
ATOM     60  C   UNL A   1      42.378  27.796  32.081  1.00  0.00     0.031 C 
ATOM     61  C   UNL A   1      43.348  30.701  37.319  1.00  0.00     0.029 A 
ATOM     62  C   UNL A   1      42.801  30.295  36.113  1.00  0.00     0.049 A 
ATOM     63  H   UNL A   1      41.148  31.086  35.070  1.00  0.00     0.167 HD
ATOM     64  C   UNL A   1      42.633  28.893  34.078  1.00  0.00     0.074 A 
ATOM     65  C   UNL A   1      43.106  27.852  33.189  1.00  0.00     0.031 C 
ATOM     66  C   UNL A   1      43.236  29.230  35.245  1.00  0.00     0.034 A 
BRANCH  53  67
ATOM     67  C   UNL A   1      40.662  34.075  38.085  1.00  0.00     0.023 A 
ATOM     68  C   UNL A   1      41.490  35.212  37.996  1.00  0.00     0.012 A 
ATOM     69  C   UNL A   1      39.847  33.900  39.220  1.00  0.00     0.148 A 
ATOM     70  C   UNL A   1      41.530  36.145  39.031  1.00  0.00     0.002 A 
ATOM     71  C   UNL A   1      39.862  34.855  40.231  1.00  0.00     0.091 A 
ATOM     72  F   UNL A   1      39.084  32.800  39.297  1.00  0.00    -0.205 F 
ATOM     73  C   UNL A   1      40.709  35.972  40.142  1.00  0.00     0.022 A 
BRANCH  71  74
ATOM     74  S   UNL A   1      38.789  34.760  41.668  1.00  0.00     0.127 S 
ATOM     75  O   UNL A   1      39.601  33.969  42.591  1.00  0.00    -0.237 OA
ATOM     76  O   UNL A   1      38.644  36.169  42.039  1.00  0.00    -0.237 OA
ATOM     77  O   UNL A   1      37.562  34.125  41.210  1.00  0.00    -0.744 OA
ENDBRANCH  71  74
ENDBRANCH  53  67
BRANCH  54  78
ATOM     78  C   UNL A   1      40.226  28.094  30.110  1.00  0.00     0.023 A 
ATOM     79  C   UNL A   1      39.304  27.032  30.042  1.00  0.00     0.012 A 
ATOM     80  C   UNL A   1      41.076  28.339  29.015  1.00  0.00     0.148 A 
ATOM     81  C   UNL A   1      39.249  26.210  28.916  1.00  0.00     0.002 A 
ATOM     82  C   UNL A   1      40.979  27.550  27.875  1.00  0.00     0.091 A 
ATOM     83  F   UNL A   1      41.957  29.345  29.106  1.00  0.00    -0.205 F 
ATOM     84  C   UNL A   1      40.078  26.475  27.829  1.00  0.00     0.022 A 
BRANCH  82  85
ATOM     85  S   UNL A   1      41.911  27.902  26.380  1.00  0.00     0.127 S 
ATOM     86  O   UNL A   1      43.288  27.750  26.844  1.00  0.00    -0.237 OA
ATOM     87  O   UNL A   1      41.445  26.849  25.476  1.00  0.00    -0.237 OA
ATOM     88  O   UNL A   1      41.519  29.248  25.984  1.00  0.00    -0.744 OA
ENDBRANCH  82  85
ENDBRANCH  54  78
BRANCH  66  89
ATOM     89  C   UNL A   1      44.469  28.460  35.642  1.00  0.00     0.023 A 
ATOM     90  C   UNL A   1      45.739  28.938  35.265  1.00  0.00     0.012 A 
ATOM     91  C   UNL A   1      44.374  27.308  36.445  1.00  0.00     0.148 A 
ATOM     92  C   UNL A   1      46.895  28.263  35.655  1.00  0.00     0.002 A 
ATOM     93  C   UNL A   1      45.532  26.666  36.870  1.00  0.00     0.091 A 
ATOM     94  F   UNL A   1      43.155  26.857  36.779  1.00  0.00    -0.205 F 
ATOM     95  C   UNL A   1      46.792  27.135  36.467  1.00  0.00     0.022 A 
BRANCH  93  96
ATOM     96  S   UNL A   1      45.500  25.262  37.991  1.00  0.00     0.127 S 
ATOM     97  O   UNL A   1      44.841  25.832  39.164  1.00  0.00    -0.237 OA
ATOM     98  O   UNL A   1      44.694  24.291  37.250  1.00  0.00    -0.237 OA
ATOM     99  O   UNL A   1      46.890  24.871  38.182  1.00  0.00    -0.744 OA
ENDBRANCH  93  96
ENDBRANCH  66  89
ENDBRANCH  40  41
ENDBRANCH  32  35
ENDBRANCH  30  31
ENDBRANCH  29  30
ENDBRANCH   1  29
TORSDOF 17
ENDMDL
