MODEL 1
REMARK VINA RESULT:     -10.5      0.000      0.000
REMARK SMILES COC(=O)C[C@H](NC(=O)N(C)C[C@@H]1CCC[N@H+]1C)C(=O)NCCCNC(=O)c1ccc(-c2c3nc(c(-c4cccc(S(=O)(=O)[O-])c4F)c4ccc([nH]4)c(-c4cccc(S(=O)(=O)[O-])c4F)c4nc(c(-c5cccc(S(=O)(=O)[O-])c5F)c5ccc2[nH]5)C=C4)C=C3)cc1
REMARK SMILES IDX 22 1 21 2 19 3 20 4 6 6 5 7 3 8 4 9 2 10 1 11 7 12 8 13 9 15
REMARK SMILES IDX 10 16 11 17 12 18 13 19 14 20 17 21 15 22 16 23 18 24 23 26
REMARK SMILES IDX 24 27 25 28 26 29 27 31 28 32 29 33 90 34 30 35 89 36 31 37
REMARK SMILES IDX 32 38 33 39 83 40 34 41 88 42 82 43 84 44 35 45 87 46 81 47
REMARK SMILES IDX 80 48 36 50 68 51 48 52 67 53 49 54 52 55 66 56 85 57 50 58
REMARK SMILES IDX 51 59 65 61 86 62 53 63 37 64 38 65 46 66 39 67 41 68 47 69
REMARK SMILES IDX 40 70 42 71 43 72 44 73 45 74 69 75 70 76 78 77 71 78 73 79
REMARK SMILES IDX 79 80 72 81 74 82 75 83 76 84 77 85 54 86 55 87 63 88 56 89
REMARK SMILES IDX 58 90 64 91 57 92 59 93 60 94 61 95 62 96
REMARK H PARENT 21 5 7 14 17 25 25 30 84 49 52 60
REMARK Flexibility Score: inf
ROOT
ATOM      1  C   UNL A   1      31.863  28.237  27.130  1.00  0.00     0.117 C 
ENDROOT
BRANCH   1   2
ATOM      2  N   UNL A   1      30.991  27.071  27.201  1.00  0.00    -0.354 N 
ATOM      3  C   UNL A   1      30.750  26.061  26.314  1.00  0.00     0.243 C 
ATOM      4  O   UNL A   1      30.090  25.098  26.716  1.00  0.00    -0.273 OA
ATOM      5  H   UNL A   1      30.485  26.999  28.042  1.00  0.00     0.163 HD
BRANCH   3   6
ATOM      6  C   UNL A   1      31.371  26.056  24.901  1.00  0.00     0.184 C 
BRANCH   6   7
ATOM      7  C   UNL A   1      30.468  26.865  23.975  1.00  0.00     0.157 C 
BRANCH   7   8
ATOM      8  C   UNL A   1      31.055  27.095  22.620  1.00  0.00     0.308 C 
ATOM      9  O   UNL A   1      30.528  27.799  21.765  1.00  0.00    -0.252 OA
BRANCH   8  10
ATOM     10  O   UNL A   1      32.282  26.524  22.508  1.00  0.00    -0.469 OA
ATOM     11  C   UNL A   1      32.499  25.909  21.239  1.00  0.00     0.282 C 
ENDBRANCH   8  10
ENDBRANCH   7   8
ENDBRANCH   6   7
BRANCH   6  12
ATOM     12  N   UNL A   1      31.560  24.663  24.494  1.00  0.00    -0.326 N 
ATOM     13  C   UNL A   1      32.405  23.654  24.708  1.00  0.00     0.318 C 
ATOM     14  H   UNL A   1      30.845  24.387  23.875  1.00  0.00     0.166 HD
ATOM     15  O   UNL A   1      32.307  22.741  23.879  1.00  0.00    -0.249 OA
BRANCH  13  16
ATOM     16  N   UNL A   1      33.299  23.590  25.730  1.00  0.00    -0.322 N 
ATOM     17  C   UNL A   1      33.174  22.932  27.017  1.00  0.00     0.149 C 
BRANCH  16  18
ATOM     18  C   UNL A   1      34.641  24.116  25.445  1.00  0.00     0.185 C 
BRANCH  18  19
ATOM     19  C   UNL A   1      35.859  23.244  25.878  1.00  0.00     0.203 C 
ATOM     20  C   UNL A   1      37.172  23.981  26.174  1.00  0.00     0.073 C 
ATOM     21  N   UNL A   1      36.296  22.218  24.894  1.00  0.00    -0.333 N 
ATOM     22  C   UNL A   1      38.279  22.962  25.920  1.00  0.00     0.068 C 
ATOM     23  C   UNL A   1      37.564  21.713  25.444  1.00  0.00     0.262 C 
ATOM     24  C   UNL A   1      35.339  21.121  24.756  1.00  0.00     0.333 C 
ATOM     25  H   UNL A   1      36.381  22.618  23.960  1.00  0.00     0.348 HD
ENDBRANCH  18  19
ENDBRANCH  16  18
ENDBRANCH  13  16
ENDBRANCH   6  12
ENDBRANCH   3   6
ENDBRANCH   1   2
BRANCH   1  26
ATOM     26  C   UNL A   1      33.310  27.872  26.837  1.00  0.00     0.042 C 
BRANCH  26  27
ATOM     27  C   UNL A   1      34.036  28.886  25.970  1.00  0.00     0.118 C 
BRANCH  27  28
ATOM     28  N   UNL A   1      33.912  30.245  26.477  1.00  0.00    -0.352 N 
ATOM     29  C   UNL A   1      34.632  30.892  27.452  1.00  0.00     0.251 C 
ATOM     30  H   UNL A   1      33.204  30.785  26.056  1.00  0.00     0.163 HD
ATOM     31  O   UNL A   1      34.233  31.976  27.870  1.00  0.00    -0.269 OA
BRANCH  29  32
ATOM     32  C   UNL A   1      35.869  30.292  27.996  1.00  0.00     0.039 A 
ATOM     33  C   UNL A   1      35.819  29.647  29.235  1.00  0.00     0.014 A 
ATOM     34  C   UNL A   1      37.084  30.394  27.315  1.00  0.00     0.014 A 
ATOM     35  C   UNL A   1      36.980  29.082  29.769  1.00  0.00     0.010 A 
ATOM     36  C   UNL A   1      38.210  29.732  27.792  1.00  0.00     0.010 A 
ATOM     37  C   UNL A   1      38.182  29.105  29.043  1.00  0.00    -0.014 A 
BRANCH  37  38
ATOM     38  C   UNL A   1      39.430  28.528  29.604  1.00  0.00     0.031 A 
ATOM     39  C   UNL A   1      40.053  29.133  30.836  1.00  0.00     0.074 A 
ATOM     40  C   UNL A   1      40.033  27.498  28.979  1.00  0.00     0.049 A 
ATOM     41  N   UNL A   1      41.146  28.784  31.464  1.00  0.00    -0.248 NA
ATOM     42  C   UNL A   1      39.380  30.305  31.422  1.00  0.00     0.031 C 
ATOM     43  C   UNL A   1      39.579  26.884  27.730  1.00  0.00     0.029 A 
ATOM     44  N   UNL A   1      41.169  26.800  29.300  1.00  0.00    -0.354 N 
ATOM     45  C   UNL A   1      41.305  29.706  32.491  1.00  0.00     0.074 A 
ATOM     46  C   UNL A   1      40.232  30.665  32.369  1.00  0.00     0.031 C 
ATOM     47  C   UNL A   1      40.422  25.894  27.396  1.00  0.00     0.029 A 
ATOM     48  C   UNL A   1      41.489  25.821  28.389  1.00  0.00     0.049 A 
ATOM     49  H   UNL A   1      41.704  26.983  30.105  1.00  0.00     0.167 HD
ATOM     50  C   UNL A   1      42.235  29.734  33.477  1.00  0.00     0.034 A 
ATOM     51  C   UNL A   1      42.527  24.964  28.357  1.00  0.00     0.034 A 
ATOM     52  C   UNL A   1      43.282  28.759  33.615  1.00  0.00     0.049 A 
ATOM     53  C   UNL A   1      43.521  24.979  29.486  1.00  0.00     0.074 A 
ATOM     54  C   UNL A   1      44.233  28.652  34.613  1.00  0.00     0.029 A 
ATOM     55  N   UNL A   1      43.519  27.723  32.725  1.00  0.00    -0.354 N 
ATOM     56  N   UNL A   1      43.571  25.769  30.532  1.00  0.00    -0.248 NA
ATOM     57  C   UNL A   1      44.573  23.954  29.458  1.00  0.00     0.031 C 
ATOM     58  C   UNL A   1      45.063  27.567  34.311  1.00  0.00     0.029 A 
ATOM     59  C   UNL A   1      44.601  26.972  33.147  1.00  0.00     0.049 A 
ATOM     60  H   UNL A   1      42.994  27.548  31.911  1.00  0.00     0.167 HD
ATOM     61  C   UNL A   1      44.631  25.313  31.305  1.00  0.00     0.074 A 
ATOM     62  C   UNL A   1      45.185  24.165  30.615  1.00  0.00     0.031 C 
ATOM     63  C   UNL A   1      45.111  25.805  32.475  1.00  0.00     0.034 A 
BRANCH  50  64
ATOM     64  C   UNL A   1      42.124  30.830  34.507  1.00  0.00     0.023 A 
ATOM     65  C   UNL A   1      41.329  30.629  35.657  1.00  0.00     0.012 A 
ATOM     66  C   UNL A   1      42.825  32.042  34.361  1.00  0.00     0.148 A 
ATOM     67  C   UNL A   1      41.193  31.633  36.614  1.00  0.00     0.002 A 
ATOM     68  C   UNL A   1      42.727  33.018  35.347  1.00  0.00     0.091 A 
ATOM     69  F   UNL A   1      43.561  32.226  33.254  1.00  0.00    -0.205 F 
ATOM     70  C   UNL A   1      41.900  32.822  36.465  1.00  0.00     0.022 A 
BRANCH  68  71
ATOM     71  S   UNL A   1      43.664  34.550  35.291  1.00  0.00     0.127 S 
ATOM     72  O   UNL A   1      43.923  34.788  36.710  1.00  0.00    -0.237 OA
ATOM     73  O   UNL A   1      44.840  34.161  34.513  1.00  0.00    -0.237 OA
ATOM     74  O   UNL A   1      42.801  35.526  34.641  1.00  0.00    -0.744 OA
ENDBRANCH  68  71
ENDBRANCH  50  64
BRANCH  51  75
ATOM     75  C   UNL A   1      42.640  23.979  27.245  1.00  0.00     0.023 A 
ATOM     76  C   UNL A   1      43.304  24.341  26.056  1.00  0.00     0.012 A 
ATOM     77  C   UNL A   1      42.123  22.677  27.374  1.00  0.00     0.148 A 
ATOM     78  C   UNL A   1      43.418  23.433  25.002  1.00  0.00     0.002 A 
ATOM     79  C   UNL A   1      42.291  21.760  26.344  1.00  0.00     0.091 A 
ATOM     80  F   UNL A   1      41.491  22.356  28.512  1.00  0.00    -0.205 F 
ATOM     81  C   UNL A   1      42.922  22.141  25.149  1.00  0.00     0.022 A 
BRANCH  79  82
ATOM     82  S   UNL A   1      41.800  20.039  26.495  1.00  0.00     0.127 S 
ATOM     83  O   UNL A   1      40.343  20.139  26.458  1.00  0.00    -0.237 OA
ATOM     84  O   UNL A   1      42.409  19.449  25.301  1.00  0.00    -0.237 OA
ATOM     85  O   UNL A   1      42.369  19.575  27.752  1.00  0.00    -0.744 OA
ENDBRANCH  79  82
ENDBRANCH  51  75
BRANCH  63  86
ATOM     86  C   UNL A   1      46.258  25.072  33.121  1.00  0.00     0.023 A 
ATOM     87  C   UNL A   1      47.583  25.513  32.925  1.00  0.00     0.012 A 
ATOM     88  C   UNL A   1      46.014  23.976  33.971  1.00  0.00     0.148 A 
ATOM     89  C   UNL A   1      48.648  24.845  33.530  1.00  0.00     0.002 A 
ATOM     90  C   UNL A   1      47.075  23.352  34.614  1.00  0.00     0.091 A 
ATOM     91  F   UNL A   1      44.749  23.560  34.132  1.00  0.00    -0.205 F 
ATOM     92  C   UNL A   1      48.393  23.774  34.382  1.00  0.00     0.022 A 
BRANCH  90  93
ATOM     93  S   UNL A   1      46.831  22.031  35.807  1.00  0.00     0.127 S 
ATOM     94  O   UNL A   1      48.203  21.745  36.221  1.00  0.00    -0.237 OA
ATOM     95  O   UNL A   1      46.009  22.683  36.828  1.00  0.00    -0.237 OA
ATOM     96  O   UNL A   1      46.157  20.960  35.086  1.00  0.00    -0.744 OA
ENDBRANCH  90  93
ENDBRANCH  63  86
ENDBRANCH  37  38
ENDBRANCH  29  32
ENDBRANCH  27  28
ENDBRANCH  26  27
ENDBRANCH   1  26
TORSDOF 20
ENDMDL
MODEL 2
REMARK VINA RESULT:     -10.2      1.968      2.368
REMARK SMILES COC(=O)C[C@H](NC(=O)N(C)C[C@@H]1CCC[N@H+]1C)C(=O)NCCCNC(=O)c1ccc(-c2c3nc(c(-c4cccc(S(=O)(=O)[O-])c4F)c4ccc([nH]4)c(-c4cccc(S(=O)(=O)[O-])c4F)c4nc(c(-c5cccc(S(=O)(=O)[O-])c5F)c5ccc2[nH]5)C=C4)C=C3)cc1
REMARK SMILES IDX 22 1 21 2 19 3 20 4 6 6 5 7 3 8 4 9 2 10 1 11 7 12 8 13 9 15
REMARK SMILES IDX 10 16 11 17 12 18 13 19 14 20 17 21 15 22 16 23 18 24 23 26
REMARK SMILES IDX 24 27 25 28 26 29 27 31 28 32 29 33 90 34 30 35 89 36 31 37
REMARK SMILES IDX 32 38 33 39 83 40 34 41 88 42 82 43 84 44 35 45 87 46 81 47
REMARK SMILES IDX 80 48 36 50 68 51 48 52 67 53 49 54 52 55 66 56 85 57 50 58
REMARK SMILES IDX 51 59 65 61 86 62 53 63 37 64 38 65 46 66 39 67 41 68 47 69
REMARK SMILES IDX 40 70 42 71 43 72 44 73 45 74 69 75 70 76 78 77 71 78 73 79
REMARK SMILES IDX 79 80 72 81 74 82 75 83 76 84 77 85 54 86 55 87 63 88 56 89
REMARK SMILES IDX 58 90 64 91 57 92 59 93 60 94 61 95 62 96
REMARK H PARENT 21 5 7 14 17 25 25 30 84 49 52 60
REMARK Flexibility Score: inf
ROOT
ATOM      1  C   UNL A   1      31.655  28.185  26.762  1.00  0.00     0.117 C 
ENDROOT
BRANCH   1   2
ATOM      2  N   UNL A   1      30.754  27.049  26.911  1.00  0.00    -0.354 N 
ATOM      3  C   UNL A   1      30.377  26.068  26.037  1.00  0.00     0.243 C 
ATOM      4  O   UNL A   1      29.731  25.120  26.494  1.00  0.00    -0.273 OA
ATOM      5  H   UNL A   1      30.345  26.975  27.802  1.00  0.00     0.163 HD
BRANCH   3   6
ATOM      6  C   UNL A   1      30.833  26.074  24.563  1.00  0.00     0.184 C 
BRANCH   6   7
ATOM      7  C   UNL A   1      29.843  26.908  23.756  1.00  0.00     0.157 C 
BRANCH   7   8
ATOM      8  C   UNL A   1      30.477  27.673  22.640  1.00  0.00     0.308 C 
ATOM      9  O   UNL A   1      29.913  28.579  22.035  1.00  0.00    -0.252 OA
BRANCH   8  10
ATOM     10  O   UNL A   1      31.775  27.314  22.467  1.00  0.00    -0.469 OA
ATOM     11  C   UNL A   1      32.678  28.414  22.567  1.00  0.00     0.282 C 
ENDBRANCH   8  10
ENDBRANCH   7   8
ENDBRANCH   6   7
BRANCH   6  12
ATOM     12  N   UNL A   1      30.954  24.684  24.120  1.00  0.00    -0.326 N 
ATOM     13  C   UNL A   1      31.730  23.621  24.331  1.00  0.00     0.318 C 
ATOM     14  H   UNL A   1      30.246  24.469  23.469  1.00  0.00     0.166 HD
ATOM     15  O   UNL A   1      31.608  22.740  23.472  1.00  0.00    -0.249 OA
BRANCH  13  16
ATOM     16  N   UNL A   1      32.582  23.474  25.380  1.00  0.00    -0.322 N 
ATOM     17  C   UNL A   1      32.336  22.896  26.687  1.00  0.00     0.149 C 
BRANCH  16  18
ATOM     18  C   UNL A   1      33.992  23.794  25.113  1.00  0.00     0.185 C 
BRANCH  18  19
ATOM     19  C   UNL A   1      34.921  22.622  24.674  1.00  0.00     0.203 C 
ATOM     20  C   UNL A   1      34.374  21.199  24.840  1.00  0.00     0.073 C 
ATOM     21  N   UNL A   1      36.225  22.537  25.383  1.00  0.00    -0.333 N 
ATOM     22  C   UNL A   1      35.601  20.303  24.984  1.00  0.00     0.068 C 
ATOM     23  C   UNL A   1      36.786  21.248  24.947  1.00  0.00     0.262 C 
ATOM     24  C   UNL A   1      37.137  23.624  25.028  1.00  0.00     0.333 C 
ATOM     25  H   UNL A   1      36.100  22.613  26.392  1.00  0.00     0.348 HD
ENDBRANCH  18  19
ENDBRANCH  16  18
ENDBRANCH  13  16
ENDBRANCH   6  12
ENDBRANCH   3   6
ENDBRANCH   1   2
BRANCH   1  26
ATOM     26  C   UNL A   1      33.121  27.782  26.794  1.00  0.00     0.042 C 
BRANCH  26  27
ATOM     27  C   UNL A   1      34.052  28.796  26.153  1.00  0.00     0.118 C 
BRANCH  27  28
ATOM     28  N   UNL A   1      33.869  30.139  26.688  1.00  0.00    -0.352 N 
ATOM     29  C   UNL A   1      34.603  30.820  27.628  1.00  0.00     0.251 C 
ATOM     30  H   UNL A   1      33.103  30.634  26.319  1.00  0.00     0.163 HD
ATOM     31  O   UNL A   1      34.159  31.870  28.087  1.00  0.00    -0.269 OA
BRANCH  29  32
ATOM     32  C   UNL A   1      35.908  30.297  28.088  1.00  0.00     0.039 A 
ATOM     33  C   UNL A   1      35.974  29.625  29.312  1.00  0.00     0.014 A 
ATOM     34  C   UNL A   1      37.072  30.499  27.342  1.00  0.00     0.014 A 
ATOM     35  C   UNL A   1      37.199  29.133  29.766  1.00  0.00     0.010 A 
ATOM     36  C   UNL A   1      38.266  29.908  27.739  1.00  0.00     0.010 A 
ATOM     37  C   UNL A   1      38.354  29.255  28.975  1.00  0.00    -0.014 A 
BRANCH  37  38
ATOM     38  C   UNL A   1      39.668  28.756  29.451  1.00  0.00     0.031 A 
ATOM     39  C   UNL A   1      40.390  29.473  30.563  1.00  0.00     0.074 A 
ATOM     40  C   UNL A   1      40.240  27.694  28.851  1.00  0.00     0.049 A 
ATOM     41  N   UNL A   1      41.550  29.204  31.104  1.00  0.00    -0.248 NA
ATOM     42  C   UNL A   1      39.739  30.672  31.121  1.00  0.00     0.031 C 
ATOM     43  C   UNL A   1      39.687  26.970  27.704  1.00  0.00     0.029 A 
ATOM     44  N   UNL A   1      41.424  27.053  29.110  1.00  0.00    -0.354 N 
ATOM     45  C   UNL A   1      41.779  30.209  32.035  1.00  0.00     0.074 A 
ATOM     46  C   UNL A   1      40.668  31.128  31.947  1.00  0.00     0.031 C 
ATOM     47  C   UNL A   1      40.525  25.977  27.366  1.00  0.00     0.029 A 
ATOM     48  C   UNL A   1      41.685  26.012  28.250  1.00  0.00     0.049 A 
ATOM     49  H   UNL A   1      42.030  27.312  29.840  1.00  0.00     0.167 HD
ATOM     50  C   UNL A   1      42.799  30.339  32.917  1.00  0.00     0.034 A 
ATOM     51  C   UNL A   1      42.743  25.180  28.181  1.00  0.00     0.034 A 
ATOM     52  C   UNL A   1      43.885  29.404  33.025  1.00  0.00     0.049 A 
ATOM     53  C   UNL A   1      43.841  25.311  29.200  1.00  0.00     0.074 A 
ATOM     54  C   UNL A   1      44.932  29.401  33.929  1.00  0.00     0.029 A 
ATOM     55  N   UNL A   1      44.067  28.306  32.199  1.00  0.00    -0.354 N 
ATOM     56  N   UNL A   1      43.968  26.183  30.171  1.00  0.00    -0.248 NA
ATOM     57  C   UNL A   1      44.918  24.313  29.146  1.00  0.00     0.031 C 
ATOM     58  C   UNL A   1      45.764  28.316  33.630  1.00  0.00     0.029 A 
ATOM     59  C   UNL A   1      45.210  27.619  32.568  1.00  0.00     0.049 A 
ATOM     60  H   UNL A   1      43.471  28.053  31.458  1.00  0.00     0.167 HD
ATOM     61  C   UNL A   1      45.113  25.818  30.867  1.00  0.00     0.074 A 
ATOM     62  C   UNL A   1      45.634  24.632  30.216  1.00  0.00     0.031 C 
ATOM     63  C   UNL A   1      45.689  26.413  31.941  1.00  0.00     0.034 A 
BRANCH  50  64
ATOM     64  C   UNL A   1      42.754  31.511  33.865  1.00  0.00     0.023 A 
ATOM     65  C   UNL A   1      43.311  32.748  33.472  1.00  0.00     0.012 A 
ATOM     66  C   UNL A   1      42.140  31.405  35.127  1.00  0.00     0.148 A 
ATOM     67  C   UNL A   1      43.301  33.842  34.337  1.00  0.00     0.002 A 
ATOM     68  C   UNL A   1      42.087  32.515  35.963  1.00  0.00     0.091 A 
ATOM     69  F   UNL A   1      41.633  30.219  35.495  1.00  0.00    -0.205 F 
ATOM     70  C   UNL A   1      42.681  33.728  35.577  1.00  0.00     0.022 A 
BRANCH  68  71
ATOM     71  S   UNL A   1      41.236  32.498  37.545  1.00  0.00     0.127 S 
ATOM     72  O   UNL A   1      41.334  33.901  37.948  1.00  0.00    -0.237 OA
ATOM     73  O   UNL A   1      39.891  32.067  37.164  1.00  0.00    -0.237 OA
ATOM     74  O   UNL A   1      41.963  31.555  38.384  1.00  0.00    -0.744 OA
ENDBRANCH  68  71
ENDBRANCH  50  64
BRANCH  51  75
ATOM     75  C   UNL A   1      42.778  24.112  27.142  1.00  0.00     0.023 A 
ATOM     76  C   UNL A   1      43.546  24.297  25.976  1.00  0.00     0.012 A 
ATOM     77  C   UNL A   1      42.081  22.902  27.322  1.00  0.00     0.148 A 
ATOM     78  C   UNL A   1      43.590  23.308  24.991  1.00  0.00     0.002 A 
ATOM     79  C   UNL A   1      42.176  21.901  26.366  1.00  0.00     0.091 A 
ATOM     80  F   UNL A   1      41.352  22.751  28.438  1.00  0.00    -0.205 F 
ATOM     81  C   UNL A   1      42.915  22.107  25.190  1.00  0.00     0.022 A 
BRANCH  79  82
ATOM     82  S   UNL A   1      41.447  20.275  26.595  1.00  0.00     0.127 S 
ATOM     83  O   UNL A   1      40.019  20.581  26.568  1.00  0.00    -0.237 OA
ATOM     84  O   UNL A   1      41.947  19.555  25.423  1.00  0.00    -0.237 OA
ATOM     85  O   UNL A   1      41.963  19.787  27.867  1.00  0.00    -0.744 OA
ENDBRANCH  79  82
ENDBRANCH  51  75
BRANCH  63  86
ATOM     86  C   UNL A   1      46.917  25.764  32.523  1.00  0.00     0.023 A 
ATOM     87  C   UNL A   1      46.796  24.806  33.550  1.00  0.00     0.012 A 
ATOM     88  C   UNL A   1      48.193  26.066  32.008  1.00  0.00     0.148 A 
ATOM     89  C   UNL A   1      47.930  24.194  34.084  1.00  0.00     0.002 A 
ATOM     90  C   UNL A   1      49.312  25.411  32.506  1.00  0.00     0.091 A 
ATOM     91  F   UNL A   1      48.291  26.993  31.043  1.00  0.00    -0.205 F 
ATOM     92  C   UNL A   1      49.184  24.487  33.555  1.00  0.00     0.022 A 
BRANCH  90  93
ATOM     93  S   UNL A   1      50.952  25.651  31.815  1.00  0.00     0.127 S 
ATOM     94  O   UNL A   1      51.735  24.660  32.551  1.00  0.00    -0.237 OA
ATOM     95  O   UNL A   1      50.742  25.336  30.401  1.00  0.00    -0.237 OA
ATOM     96  O   UNL A   1      51.297  27.042  32.077  1.00  0.00    -0.744 OA
ENDBRANCH  90  93
ENDBRANCH  63  86
ENDBRANCH  37  38
ENDBRANCH  29  32
ENDBRANCH  27  28
ENDBRANCH  26  27
ENDBRANCH   1  26
TORSDOF 20
ENDMDL
MODEL 3
REMARK VINA RESULT:     -10.1      4.928      9.896
REMARK SMILES COC(=O)C[C@H](NC(=O)N(C)C[C@@H]1CCC[N@H+]1C)C(=O)NCCCNC(=O)c1ccc(-c2c3nc(c(-c4cccc(S(=O)(=O)[O-])c4F)c4ccc([nH]4)c(-c4cccc(S(=O)(=O)[O-])c4F)c4nc(c(-c5cccc(S(=O)(=O)[O-])c5F)c5ccc2[nH]5)C=C4)C=C3)cc1
REMARK SMILES IDX 22 1 21 2 19 3 20 4 6 6 5 7 3 8 4 9 2 10 1 11 7 12 8 13 9 15
REMARK SMILES IDX 10 16 11 17 12 18 13 19 14 20 17 21 15 22 16 23 18 24 23 26
REMARK SMILES IDX 24 27 25 28 26 29 27 31 28 32 29 33 90 34 30 35 89 36 31 37
REMARK SMILES IDX 32 38 33 39 83 40 34 41 88 42 82 43 84 44 35 45 87 46 81 47
REMARK SMILES IDX 80 48 36 50 68 51 48 52 67 53 49 54 52 55 66 56 85 57 50 58
REMARK SMILES IDX 51 59 65 61 86 62 53 63 37 64 38 65 46 66 39 67 41 68 47 69
REMARK SMILES IDX 40 70 42 71 43 72 44 73 45 74 69 75 70 76 78 77 71 78 73 79
REMARK SMILES IDX 79 80 72 81 74 82 75 83 76 84 77 85 54 86 55 87 63 88 56 89
REMARK SMILES IDX 58 90 64 91 57 92 59 93 60 94 61 95 62 96
REMARK H PARENT 21 5 7 14 17 25 25 30 84 49 52 60
REMARK Flexibility Score: inf
ROOT
ATOM      1  C   UNL A   1      35.981  23.497  23.662  1.00  0.00     0.117 C 
ENDROOT
BRANCH   1   2
ATOM      2  N   UNL A   1      34.701  23.179  23.043  1.00  0.00    -0.354 N 
ATOM      3  C   UNL A   1      33.434  23.625  23.294  1.00  0.00     0.243 C 
ATOM      4  O   UNL A   1      32.553  23.316  22.486  1.00  0.00    -0.273 OA
ATOM      5  H   UNL A   1      34.760  22.524  22.310  1.00  0.00     0.163 HD
BRANCH   3   6
ATOM      6  C   UNL A   1      33.126  24.575  24.471  1.00  0.00     0.184 C 
BRANCH   6   7
ATOM      7  C   UNL A   1      33.089  23.753  25.756  1.00  0.00     0.157 C 
BRANCH   7   8
ATOM      8  C   UNL A   1      31.734  23.687  26.383  1.00  0.00     0.308 C 
ATOM      9  O   UNL A   1      31.341  24.481  27.231  1.00  0.00    -0.252 OA
BRANCH   8  10
ATOM     10  O   UNL A   1      30.972  22.717  25.815  1.00  0.00    -0.469 OA
ATOM     11  C   UNL A   1      31.688  21.503  25.591  1.00  0.00     0.282 C 
ENDBRANCH   8  10
ENDBRANCH   7   8
ENDBRANCH   6   7
BRANCH   6  12
ATOM     12  N   UNL A   1      31.880  25.280  24.170  1.00  0.00    -0.326 N 
ATOM     13  C   UNL A   1      31.473  26.487  23.774  1.00  0.00     0.318 C 
ATOM     14  H   UNL A   1      31.108  24.683  24.298  1.00  0.00     0.166 HD
ATOM     15  O   UNL A   1      30.267  26.688  23.957  1.00  0.00    -0.249 OA
BRANCH  13  16
ATOM     16  N   UNL A   1      32.272  27.433  23.212  1.00  0.00    -0.322 N 
ATOM     17  C   UNL A   1      33.332  27.274  22.235  1.00  0.00     0.149 C 
BRANCH  16  18
ATOM     18  C   UNL A   1      31.917  28.829  23.501  1.00  0.00     0.185 C 
BRANCH  18  19
ATOM     19  C   UNL A   1      31.967  29.288  24.991  1.00  0.00     0.203 C 
ATOM     20  C   UNL A   1      31.148  30.529  25.365  1.00  0.00     0.073 C 
ATOM     21  N   UNL A   1      33.316  29.640  25.509  1.00  0.00    -0.333 N 
ATOM     22  C   UNL A   1      31.842  31.124  26.586  1.00  0.00     0.068 C 
ATOM     23  C   UNL A   1      33.048  30.237  26.826  1.00  0.00     0.262 C 
ATOM     24  C   UNL A   1      34.188  28.475  25.656  1.00  0.00     0.333 C 
ATOM     25  H   UNL A   1      33.805  30.261  24.865  1.00  0.00     0.348 HD
ENDBRANCH  18  19
ENDBRANCH  16  18
ENDBRANCH  13  16
ENDBRANCH   6  12
ENDBRANCH   3   6
ENDBRANCH   1   2
BRANCH   1  26
ATOM     26  C   UNL A   1      36.738  22.259  24.118  1.00  0.00     0.042 C 
BRANCH  26  27
ATOM     27  C   UNL A   1      37.040  22.236  25.606  1.00  0.00     0.118 C 
BRANCH  27  28
ATOM     28  N   UNL A   1      37.998  21.199  25.966  1.00  0.00    -0.352 N 
ATOM     29  C   UNL A   1      39.302  21.311  26.382  1.00  0.00     0.251 C 
ATOM     30  H   UNL A   1      37.659  20.277  25.901  1.00  0.00     0.163 HD
ATOM     31  O   UNL A   1      39.999  20.301  26.440  1.00  0.00    -0.269 OA
BRANCH  29  32
ATOM     32  C   UNL A   1      39.865  22.627  26.751  1.00  0.00     0.039 A 
ATOM     33  C   UNL A   1      40.809  22.695  27.780  1.00  0.00     0.014 A 
ATOM     34  C   UNL A   1      39.440  23.799  26.119  1.00  0.00     0.014 A 
ATOM     35  C   UNL A   1      41.344  23.932  28.148  1.00  0.00     0.010 A 
ATOM     36  C   UNL A   1      40.058  25.010  26.407  1.00  0.00     0.010 A 
ATOM     37  C   UNL A   1      40.986  25.098  27.453  1.00  0.00    -0.014 A 
BRANCH  37  38
ATOM     38  C   UNL A   1      41.529  26.424  27.843  1.00  0.00     0.031 A 
ATOM     39  C   UNL A   1      42.957  26.779  27.520  1.00  0.00     0.074 A 
ATOM     40  C   UNL A   1      40.759  27.287  28.534  1.00  0.00     0.049 A 
ATOM     41  N   UNL A   1      43.618  27.874  27.792  1.00  0.00    -0.248 NA
ATOM     42  C   UNL A   1      43.763  25.757  26.829  1.00  0.00     0.031 C 
ATOM     43  C   UNL A   1      39.391  27.026  28.988  1.00  0.00     0.029 A 
ATOM     44  N   UNL A   1      41.026  28.551  28.994  1.00  0.00    -0.354 N 
ATOM     45  C   UNL A   1      44.913  27.661  27.337  1.00  0.00     0.074 A 
ATOM     46  C   UNL A   1      44.965  26.312  26.825  1.00  0.00     0.031 C 
ATOM     47  C   UNL A   1      38.935  28.100  29.650  1.00  0.00     0.029 A 
ATOM     48  C   UNL A   1      39.985  29.113  29.695  1.00  0.00     0.049 A 
ATOM     49  H   UNL A   1      41.881  29.012  28.838  1.00  0.00     0.167 HD
ATOM     50  C   UNL A   1      45.960  28.521  27.307  1.00  0.00     0.034 A 
ATOM     51  C   UNL A   1      39.888  30.310  30.306  1.00  0.00     0.034 A 
ATOM     52  C   UNL A   1      45.895  29.875  27.787  1.00  0.00     0.049 A 
ATOM     53  C   UNL A   1      41.044  31.269  30.218  1.00  0.00     0.074 A 
ATOM     54  C   UNL A   1      46.872  30.852  27.740  1.00  0.00     0.029 A 
ATOM     55  N   UNL A   1      44.792  30.442  28.405  1.00  0.00    -0.354 N 
ATOM     56  N   UNL A   1      42.215  31.101  29.653  1.00  0.00    -0.248 NA
ATOM     57  C   UNL A   1      40.848  32.599  30.809  1.00  0.00     0.031 C 
ATOM     58  C   UNL A   1      46.369  32.003  28.357  1.00  0.00     0.029 A 
ATOM     59  C   UNL A   1      45.062  31.755  28.748  1.00  0.00     0.049 A 
ATOM     60  H   UNL A   1      43.941  29.978  28.576  1.00  0.00     0.167 HD
ATOM     61  C   UNL A   1      42.880  32.314  29.784  1.00  0.00     0.074 A 
ATOM     62  C   UNL A   1      41.972  33.214  30.466  1.00  0.00     0.031 C 
ATOM     63  C   UNL A   1      44.132  32.651  29.384  1.00  0.00     0.034 A 
BRANCH  50  64
ATOM     64  C   UNL A   1      47.246  28.032  26.689  1.00  0.00     0.023 A 
ATOM     65  C   UNL A   1      48.294  27.585  27.522  1.00  0.00     0.012 A 
ATOM     66  C   UNL A   1      47.410  27.982  25.292  1.00  0.00     0.148 A 
ATOM     67  C   UNL A   1      49.501  27.147  26.978  1.00  0.00     0.002 A 
ATOM     68  C   UNL A   1      48.597  27.494  24.755  1.00  0.00     0.091 A 
ATOM     69  F   UNL A   1      46.413  28.428  24.514  1.00  0.00    -0.205 F 
ATOM     70  C   UNL A   1      49.648  27.091  25.596  1.00  0.00     0.022 A 
BRANCH  68  71
ATOM     71  S   UNL A   1      48.854  27.302  22.987  1.00  0.00     0.127 S 
ATOM     72  O   UNL A   1      48.353  25.946  22.763  1.00  0.00    -0.237 OA
ATOM     73  O   UNL A   1      48.010  28.363  22.439  1.00  0.00    -0.237 OA
ATOM     74  O   UNL A   1      50.282  27.484  22.766  1.00  0.00    -0.744 OA
ENDBRANCH  68  71
ENDBRANCH  50  64
BRANCH  51  75
ATOM     75  C   UNL A   1      38.625  30.687  31.000  1.00  0.00     0.023 A 
ATOM     76  C   UNL A   1      38.461  30.382  32.366  1.00  0.00     0.012 A 
ATOM     77  C   UNL A   1      37.601  31.374  30.321  1.00  0.00     0.148 A 
ATOM     78  C   UNL A   1      37.284  30.726  33.033  1.00  0.00     0.002 A 
ATOM     79  C   UNL A   1      36.458  31.764  31.006  1.00  0.00     0.091 A 
ATOM     80  F   UNL A   1      37.777  31.648  29.020  1.00  0.00    -0.205 F 
ATOM     81  C   UNL A   1      36.288  31.425  32.357  1.00  0.00     0.022 A 
BRANCH  79  82
ATOM     82  S   UNL A   1      35.181  32.779  30.253  1.00  0.00     0.127 S 
ATOM     83  O   UNL A   1      34.754  31.941  29.135  1.00  0.00    -0.237 OA
ATOM     84  O   UNL A   1      34.211  32.895  31.343  1.00  0.00    -0.237 OA
ATOM     85  O   UNL A   1      35.833  34.029  29.890  1.00  0.00    -0.744 OA
ENDBRANCH  79  82
ENDBRANCH  51  75
BRANCH  63  86
ATOM     86  C   UNL A   1      44.580  34.070  29.621  1.00  0.00     0.023 A 
ATOM     87  C   UNL A   1      45.147  34.440  30.857  1.00  0.00     0.012 A 
ATOM     88  C   UNL A   1      44.489  35.026  28.590  1.00  0.00     0.148 A 
ATOM     89  C   UNL A   1      45.574  35.750  31.076  1.00  0.00     0.002 A 
ATOM     90  C   UNL A   1      44.968  36.313  28.797  1.00  0.00     0.091 A 
ATOM     91  F   UNL A   1      43.931  34.661  27.426  1.00  0.00    -0.205 F 
ATOM     92  C   UNL A   1      45.496  36.681  30.044  1.00  0.00     0.022 A 
BRANCH  90  93
ATOM     93  S   UNL A   1      45.000  37.547  27.493  1.00  0.00     0.127 S 
ATOM     94  O   UNL A   1      43.587  37.633  27.128  1.00  0.00    -0.237 OA
ATOM     95  O   UNL A   1      45.523  38.723  28.191  1.00  0.00    -0.237 OA
ATOM     96  O   UNL A   1      45.882  37.017  26.461  1.00  0.00    -0.744 OA
ENDBRANCH  90  93
ENDBRANCH  63  86
ENDBRANCH  37  38
ENDBRANCH  29  32
ENDBRANCH  27  28
ENDBRANCH  26  27
ENDBRANCH   1  26
TORSDOF 20
ENDMDL
