MODEL 1
REMARK VINA RESULT:     -10.8      0.000      0.000
REMARK SMILES CCC[N@H+](CC1CC[NH2+]CC1)[C@@H](CC)C(=O)NCCCNC(=O)c1ccc(-c2c3nc(c(-c4cccc(S(=O)(=O)[O-])c4F)c4ccc([nH]4)c(-c4cccc(S(=O)(=O)[O-])c4F)c4nc(c(-c5cccc(S(=O)(=O)[O-])c5F)c5ccc2[nH]5)C=C4)C=C3)cc1
REMARK SMILES IDX 19 1 18 2 17 3 15 4 16 5 12 7 4 8 3 10 2 11 1 12 5 13 6 14
REMARK SMILES IDX 7 15 11 16 8 17 10 18 9 19 13 22 14 23 20 24 21 25 22 26
REMARK SMILES IDX 23 28 24 29 25 30 86 31 26 32 85 33 27 34 28 35 29 36 79 37
REMARK SMILES IDX 30 38 84 39 78 40 80 41 31 42 83 43 77 44 76 45 32 47 64 48
REMARK SMILES IDX 44 49 63 50 45 51 48 52 62 53 81 54 46 55 47 56 61 58 82 59
REMARK SMILES IDX 49 60 33 61 34 62 42 63 35 64 37 65 43 66 36 67 38 68 39 69
REMARK SMILES IDX 40 70 41 71 65 72 66 73 74 74 67 75 69 76 75 77 68 78 70 79
REMARK SMILES IDX 71 80 72 81 73 82 50 83 51 84 59 85 52 86 54 87 60 88 53 89
REMARK SMILES IDX 55 90 56 91 57 92 58 93
REMARK H PARENT 17 6 4 9 9 20 9 21 21 27 80 46 48 57
REMARK Flexibility Score: inf
ROOT
ATOM      1  C   UNL A   1      35.899  21.508  25.934  1.00  0.00     0.042 C 
ENDROOT
BRANCH   1   2
ATOM      2  C   UNL A   1      35.096  20.438  25.182  1.00  0.00     0.118 C 
BRANCH   2   3
ATOM      3  N   UNL A   1      33.641  20.661  25.251  1.00  0.00    -0.351 N 
ATOM      4  C   UNL A   1      32.582  21.389  24.869  1.00  0.00     0.278 C 
ATOM      5  O   UNL A   1      31.544  20.786  25.241  1.00  0.00    -0.268 OA
ATOM      6  H   UNL A   1      33.288  19.958  25.845  1.00  0.00     0.163 HD
BRANCH   4   7
ATOM      7  C   UNL A   1      32.281  22.713  24.065  1.00  0.00     0.273 C 
BRANCH   7   8
ATOM      8  N   UNL A   1      32.172  24.103  24.641  1.00  0.00    -0.324 N 
ATOM      9  H   UNL A   1      32.760  24.699  24.058  1.00  0.00     0.348 HD
BRANCH   8  10
ATOM     10  C   UNL A   1      32.674  24.175  26.001  1.00  0.00     0.262 C 
BRANCH  10  11
ATOM     11  C   UNL A   1      33.948  25.013  26.027  1.00  0.00     0.058 C 
ATOM     12  C   UNL A   1      33.874  26.454  25.519  1.00  0.00     0.010 C 
ENDBRANCH  10  11
ENDBRANCH   8  10
BRANCH   8  13
ATOM     13  C   UNL A   1      30.770  24.616  24.584  1.00  0.00     0.266 C 
BRANCH  13  14
ATOM     14  C   UNL A   1      30.268  25.589  23.450  1.00  0.00     0.055 C 
ATOM     15  C   UNL A   1      31.281  25.857  22.325  1.00  0.00     0.071 C 
ATOM     16  C   UNL A   1      29.552  26.899  23.820  1.00  0.00     0.071 C 
ATOM     17  C   UNL A   1      32.140  27.102  22.515  1.00  0.00     0.261 C 
ATOM     18  C   UNL A   1      30.456  28.121  23.925  1.00  0.00     0.261 C 
ATOM     19  N   UNL A   1      31.348  28.300  22.784  1.00  0.00    -0.346 N 
ATOM     20  H   UNL A   1      30.788  28.517  21.959  1.00  0.00     0.346 HD
ATOM     21  H   UNL A   1      31.993  29.059  23.004  1.00  0.00     0.346 HD
ENDBRANCH  13  14
ENDBRANCH   8  13
ENDBRANCH   7   8
BRANCH   7  22
ATOM     22  C   UNL A   1      33.024  22.675  22.696  1.00  0.00     0.072 C 
ATOM     23  C   UNL A   1      34.374  23.374  22.624  1.00  0.00     0.011 C 
ENDBRANCH   7  22
ENDBRANCH   4   7
ENDBRANCH   2   3
ENDBRANCH   1   2
BRANCH   1  24
ATOM     24  C   UNL A   1      37.225  21.917  25.299  1.00  0.00     0.118 C 
BRANCH  24  25
ATOM     25  N   UNL A   1      38.376  21.016  25.377  1.00  0.00    -0.352 N 
ATOM     26  C   UNL A   1      39.547  21.194  26.111  1.00  0.00     0.251 C 
ATOM     27  H   UNL A   1      38.317  20.189  24.848  1.00  0.00     0.163 HD
ATOM     28  O   UNL A   1      40.404  20.310  26.140  1.00  0.00    -0.269 OA
BRANCH  26  29
ATOM     29  C   UNL A   1      39.790  22.484  26.807  1.00  0.00     0.039 A 
ATOM     30  C   UNL A   1      40.738  22.570  27.832  1.00  0.00     0.014 A 
ATOM     31  C   UNL A   1      39.190  23.643  26.332  1.00  0.00     0.014 A 
ATOM     32  C   UNL A   1      41.187  23.830  28.258  1.00  0.00     0.010 A 
ATOM     33  C   UNL A   1      39.773  24.869  26.611  1.00  0.00     0.010 A 
ATOM     34  C   UNL A   1      40.764  24.993  27.594  1.00  0.00    -0.014 A 
BRANCH  34  35
ATOM     35  C   UNL A   1      41.289  26.356  27.902  1.00  0.00     0.031 A 
ATOM     36  C   UNL A   1      42.715  26.700  27.524  1.00  0.00     0.074 A 
ATOM     37  C   UNL A   1      40.565  27.228  28.637  1.00  0.00     0.049 A 
ATOM     38  N   UNL A   1      43.439  27.732  27.870  1.00  0.00    -0.248 NA
ATOM     39  C   UNL A   1      43.451  25.708  26.717  1.00  0.00     0.031 C 
ATOM     40  C   UNL A   1      39.225  26.988  29.181  1.00  0.00     0.029 A 
ATOM     41  N   UNL A   1      40.871  28.493  29.079  1.00  0.00    -0.354 N 
ATOM     42  C   UNL A   1      44.721  27.465  27.401  1.00  0.00     0.074 A 
ATOM     43  C   UNL A   1      44.695  26.145  26.817  1.00  0.00     0.031 C 
ATOM     44  C   UNL A   1      38.813  28.079  29.850  1.00  0.00     0.029 A 
ATOM     45  C   UNL A   1      39.868  29.086  29.815  1.00  0.00     0.049 A 
ATOM     46  H   UNL A   1      41.730  28.936  28.889  1.00  0.00     0.167 HD
ATOM     47  C   UNL A   1      45.812  28.267  27.389  1.00  0.00     0.034 A 
ATOM     48  C   UNL A   1      39.806  30.306  30.386  1.00  0.00     0.034 A 
ATOM     49  C   UNL A   1      45.791  29.632  27.831  1.00  0.00     0.049 A 
ATOM     50  C   UNL A   1      40.980  31.239  30.228  1.00  0.00     0.074 A 
ATOM     51  C   UNL A   1      46.789  30.584  27.733  1.00  0.00     0.029 A 
ATOM     52  N   UNL A   1      44.699  30.247  28.420  1.00  0.00    -0.354 N 
ATOM     53  N   UNL A   1      42.131  31.023  29.638  1.00  0.00    -0.248 NA
ATOM     54  C   UNL A   1      40.833  32.596  30.776  1.00  0.00     0.031 C 
ATOM     55  C   UNL A   1      46.295  31.781  28.263  1.00  0.00     0.029 A 
ATOM     56  C   UNL A   1      44.990  31.572  28.680  1.00  0.00     0.049 A 
ATOM     57  H   UNL A   1      43.843  29.806  28.624  1.00  0.00     0.167 HD
ATOM     58  C   UNL A   1      42.828  32.223  29.709  1.00  0.00     0.074 A 
ATOM     59  C   UNL A   1      41.960  33.171  30.380  1.00  0.00     0.031 C 
ATOM     60  C   UNL A   1      44.080  32.514  29.280  1.00  0.00     0.034 A 
BRANCH  47  61
ATOM     61  C   UNL A   1      47.079  27.721  26.781  1.00  0.00     0.023 A 
ATOM     62  C   UNL A   1      48.042  27.113  27.613  1.00  0.00     0.012 A 
ATOM     63  C   UNL A   1      47.308  27.781  25.393  1.00  0.00     0.148 A 
ATOM     64  C   UNL A   1      49.236  26.624  27.084  1.00  0.00     0.002 A 
ATOM     65  C   UNL A   1      48.478  27.243  24.865  1.00  0.00     0.091 A 
ATOM     66  F   UNL A   1      46.391  28.376  24.617  1.00  0.00    -0.205 F 
ATOM     67  C   UNL A   1      49.449  26.681  25.711  1.00  0.00     0.022 A 
BRANCH  65  68
ATOM     68  S   UNL A   1      48.814  27.187  23.102  1.00  0.00     0.127 S 
ATOM     69  O   UNL A   1      48.097  28.370  22.628  1.00  0.00    -0.237 OA
ATOM     70  O   UNL A   1      50.272  27.302  23.064  1.00  0.00    -0.237 OA
ATOM     71  O   UNL A   1      48.292  25.911  22.633  1.00  0.00    -0.744 OA
ENDBRANCH  65  68
ENDBRANCH  47  61
BRANCH  48  72
ATOM     72  C   UNL A   1      38.553  30.763  31.059  1.00  0.00     0.023 A 
ATOM     73  C   UNL A   1      38.404  30.545  32.445  1.00  0.00     0.012 A 
ATOM     74  C   UNL A   1      37.524  31.418  30.359  1.00  0.00     0.148 A 
ATOM     75  C   UNL A   1      37.240  30.934  33.111  1.00  0.00     0.002 A 
ATOM     76  C   UNL A   1      36.388  31.852  31.038  1.00  0.00     0.091 A 
ATOM     77  F   UNL A   1      37.673  31.608  29.040  1.00  0.00    -0.205 F 
ATOM     78  C   UNL A   1      36.237  31.596  32.410  1.00  0.00     0.022 A 
BRANCH  76  79
ATOM     79  S   UNL A   1      35.106  32.826  30.241  1.00  0.00     0.127 S 
ATOM     80  O   UNL A   1      34.639  31.914  29.201  1.00  0.00    -0.237 OA
ATOM     81  O   UNL A   1      34.161  33.048  31.337  1.00  0.00    -0.237 OA
ATOM     82  O   UNL A   1      35.772  34.036  29.776  1.00  0.00    -0.744 OA
ENDBRANCH  76  79
ENDBRANCH  48  72
BRANCH  60  83
ATOM     83  C   UNL A   1      44.582  33.918  29.476  1.00  0.00     0.023 A 
ATOM     84  C   UNL A   1      45.185  34.277  30.697  1.00  0.00     0.012 A 
ATOM     85  C   UNL A   1      44.547  34.844  28.416  1.00  0.00     0.148 A 
ATOM     86  C   UNL A   1      45.726  35.550  30.868  1.00  0.00     0.002 A 
ATOM     87  C   UNL A   1      45.131  36.094  28.579  1.00  0.00     0.091 A 
ATOM     88  F   UNL A   1      43.951  34.485  27.270  1.00  0.00    -0.205 F 
ATOM     89  C   UNL A   1      45.712  36.452  29.807  1.00  0.00     0.022 A 
BRANCH  87  90
ATOM     90  S   UNL A   1      45.249  37.278  27.233  1.00  0.00     0.127 S 
ATOM     91  O   UNL A   1      43.842  37.501  26.908  1.00  0.00    -0.237 OA
ATOM     92  O   UNL A   1      45.915  38.413  27.874  1.00  0.00    -0.237 OA
ATOM     93  O   UNL A   1      46.037  36.626  26.196  1.00  0.00    -0.744 OA
ENDBRANCH  87  90
ENDBRANCH  60  83
ENDBRANCH  34  35
ENDBRANCH  26  29
ENDBRANCH  24  25
ENDBRANCH   1  24
TORSDOF 19
ENDMDL
MODEL 2
REMARK VINA RESULT:     -10.8      5.056     10.256
REMARK SMILES CCC[N@H+](CC1CC[NH2+]CC1)[C@@H](CC)C(=O)NCCCNC(=O)c1ccc(-c2c3nc(c(-c4cccc(S(=O)(=O)[O-])c4F)c4ccc([nH]4)c(-c4cccc(S(=O)(=O)[O-])c4F)c4nc(c(-c5cccc(S(=O)(=O)[O-])c5F)c5ccc2[nH]5)C=C4)C=C3)cc1
REMARK SMILES IDX 19 1 18 2 17 3 15 4 16 5 12 7 4 8 3 10 2 11 1 12 5 13 6 14
REMARK SMILES IDX 7 15 11 16 8 17 10 18 9 19 13 22 14 23 20 24 21 25 22 26
REMARK SMILES IDX 23 28 24 29 25 30 86 31 26 32 85 33 27 34 28 35 29 36 79 37
REMARK SMILES IDX 30 38 84 39 78 40 80 41 31 42 83 43 77 44 76 45 32 47 64 48
REMARK SMILES IDX 44 49 63 50 45 51 48 52 62 53 81 54 46 55 47 56 61 58 82 59
REMARK SMILES IDX 49 60 33 61 34 62 42 63 35 64 37 65 43 66 36 67 38 68 39 69
REMARK SMILES IDX 40 70 41 71 65 72 66 73 74 74 67 75 69 76 75 77 68 78 70 79
REMARK SMILES IDX 71 80 72 81 73 82 50 83 51 84 59 85 52 86 54 87 60 88 53 89
REMARK SMILES IDX 55 90 56 91 57 92 58 93
REMARK H PARENT 17 6 4 9 9 20 9 21 21 27 80 46 48 57
REMARK Flexibility Score: inf
ROOT
ATOM      1  C   UNL A   1      31.872  28.817  26.135  1.00  0.00     0.042 C 
ENDROOT
BRANCH   1   2
ATOM      2  C   UNL A   1      31.208  28.211  24.891  1.00  0.00     0.118 C 
BRANCH   2   3
ATOM      3  N   UNL A   1      32.185  27.675  23.927  1.00  0.00    -0.351 N 
ATOM      4  C   UNL A   1      32.820  26.606  23.425  1.00  0.00     0.278 C 
ATOM      5  O   UNL A   1      33.436  26.971  22.392  1.00  0.00    -0.268 OA
ATOM      6  H   UNL A   1      32.524  28.452  23.424  1.00  0.00     0.163 HD
BRANCH   4   7
ATOM      7  C   UNL A   1      32.962  25.063  23.723  1.00  0.00     0.273 C 
BRANCH   7   8
ATOM      8  N   UNL A   1      33.256  24.435  25.063  1.00  0.00    -0.324 N 
ATOM      9  H   UNL A   1      32.901  23.481  25.014  1.00  0.00     0.348 HD
BRANCH   8  10
ATOM     10  C   UNL A   1      32.571  25.111  26.150  1.00  0.00     0.262 C 
BRANCH  10  11
ATOM     11  C   UNL A   1      31.656  24.122  26.865  1.00  0.00     0.058 C 
ATOM     12  C   UNL A   1      32.215  22.740  27.205  1.00  0.00     0.010 C 
ENDBRANCH  10  11
ENDBRANCH   8  10
BRANCH   8  13
ATOM     13  C   UNL A   1      34.724  24.382  25.337  1.00  0.00     0.266 C 
BRANCH  13  14
ATOM     14  C   UNL A   1      35.723  23.543  24.453  1.00  0.00     0.055 C 
ATOM     15  C   UNL A   1      35.272  22.104  24.147  1.00  0.00     0.071 C 
ATOM     16  C   UNL A   1      37.228  23.554  24.770  1.00  0.00     0.071 C 
ATOM     17  C   UNL A   1      35.799  21.046  25.108  1.00  0.00     0.261 C 
ATOM     18  C   UNL A   1      37.704  22.427  25.679  1.00  0.00     0.261 C 
ATOM     19  N   UNL A   1      37.250  21.101  25.272  1.00  0.00    -0.346 N 
ATOM     20  H   UNL A   1      37.690  20.861  24.384  1.00  0.00     0.346 HD
ATOM     21  H   UNL A   1      37.509  20.441  26.005  1.00  0.00     0.346 HD
ENDBRANCH  13  14
ENDBRANCH   8  13
ENDBRANCH   7   8
BRANCH   7  22
ATOM     22  C   UNL A   1      31.905  24.271  22.896  1.00  0.00     0.072 C 
ATOM     23  C   UNL A   1      31.776  22.782  23.186  1.00  0.00     0.011 C 
ENDBRANCH   7  22
ENDBRANCH   4   7
ENDBRANCH   2   3
ENDBRANCH   1   2
BRANCH   1  24
ATOM     24  C   UNL A   1      32.725  30.061  25.898  1.00  0.00     0.118 C 
BRANCH  24  25
ATOM     25  N   UNL A   1      32.437  31.292  26.636  1.00  0.00    -0.352 N 
ATOM     26  C   UNL A   1      33.314  32.038  27.421  1.00  0.00     0.251 C 
ATOM     27  H   UNL A   1      31.517  31.632  26.570  1.00  0.00     0.163 HD
ATOM     28  O   UNL A   1      32.948  33.100  27.924  1.00  0.00    -0.269 OA
BRANCH  26  29
ATOM     29  C   UNL A   1      34.675  31.512  27.706  1.00  0.00     0.039 A 
ATOM     30  C   UNL A   1      35.743  32.388  27.923  1.00  0.00     0.014 A 
ATOM     31  C   UNL A   1      34.854  30.150  27.916  1.00  0.00     0.014 A 
ATOM     32  C   UNL A   1      36.930  31.907  28.497  1.00  0.00     0.010 A 
ATOM     33  C   UNL A   1      35.940  29.719  28.659  1.00  0.00     0.010 A 
ATOM     34  C   UNL A   1      37.010  30.578  28.945  1.00  0.00    -0.014 A 
BRANCH  34  35
ATOM     35  C   UNL A   1      38.187  30.025  29.678  1.00  0.00     0.031 A 
ATOM     36  C   UNL A   1      38.426  30.445  31.114  1.00  0.00     0.074 A 
ATOM     37  C   UNL A   1      39.113  29.277  29.039  1.00  0.00     0.049 A 
ATOM     38  N   UNL A   1      39.476  30.258  31.869  1.00  0.00    -0.248 NA
ATOM     39  C   UNL A   1      37.375  31.256  31.757  1.00  0.00     0.031 C 
ATOM     40  C   UNL A   1      39.083  28.898  27.624  1.00  0.00     0.029 A 
ATOM     41  N   UNL A   1      40.284  28.722  29.497  1.00  0.00    -0.354 N 
ATOM     42  C   UNL A   1      39.244  30.997  33.024  1.00  0.00     0.074 A 
ATOM     43  C   UNL A   1      37.995  31.695  32.839  1.00  0.00     0.031 C 
ATOM     44  C   UNL A   1      40.161  28.146  27.340  1.00  0.00     0.029 A 
ATOM     45  C   UNL A   1      40.979  28.015  28.540  1.00  0.00     0.049 A 
ATOM     46  H   UNL A   1      40.599  28.820  30.425  1.00  0.00     0.167 HD
ATOM     47  C   UNL A   1      39.964  31.042  34.170  1.00  0.00     0.034 A 
ATOM     48  C   UNL A   1      42.139  27.332  28.627  1.00  0.00     0.034 A 
ATOM     49  C   UNL A   1      41.121  30.228  34.405  1.00  0.00     0.049 A 
ATOM     50  C   UNL A   1      42.845  27.273  29.958  1.00  0.00     0.074 A 
ATOM     51  C   UNL A   1      41.847  30.078  35.573  1.00  0.00     0.029 A 
ATOM     52  N   UNL A   1      41.699  29.395  33.460  1.00  0.00    -0.354 N 
ATOM     53  N   UNL A   1      42.522  27.853  31.089  1.00  0.00    -0.248 NA
ATOM     54  C   UNL A   1      44.051  26.434  30.038  1.00  0.00     0.031 C 
ATOM     55  C   UNL A   1      42.864  29.149  35.333  1.00  0.00     0.029 A 
ATOM     56  C   UNL A   1      42.763  28.716  34.020  1.00  0.00     0.049 A 
ATOM     57  H   UNL A   1      41.396  29.302  32.528  1.00  0.00     0.167 HD
ATOM     58  C   UNL A   1      43.458  27.420  32.022  1.00  0.00     0.074 A 
ATOM     59  C   UNL A   1      44.348  26.511  31.328  1.00  0.00     0.031 C 
ATOM     60  C   UNL A   1      43.587  27.759  33.327  1.00  0.00     0.034 A 
BRANCH  47  61
ATOM     61  C   UNL A   1      39.454  31.917  35.286  1.00  0.00     0.023 A 
ATOM     62  C   UNL A   1      38.517  31.396  36.204  1.00  0.00     0.012 A 
ATOM     63  C   UNL A   1      39.914  33.237  35.450  1.00  0.00     0.148 A 
ATOM     64  C   UNL A   1      38.005  32.188  37.229  1.00  0.00     0.002 A 
ATOM     65  C   UNL A   1      39.439  34.005  36.508  1.00  0.00     0.091 A 
ATOM     66  F   UNL A   1      40.793  33.724  34.561  1.00  0.00    -0.205 F 
ATOM     67  C   UNL A   1      38.473  33.488  37.387  1.00  0.00     0.022 A 
BRANCH  65  68
ATOM     68  S   UNL A   1      40.038  35.663  36.854  1.00  0.00     0.127 S 
ATOM     69  O   UNL A   1      39.343  35.972  38.103  1.00  0.00    -0.237 OA
ATOM     70  O   UNL A   1      41.478  35.446  36.995  1.00  0.00    -0.237 OA
ATOM     71  O   UNL A   1      39.655  36.476  35.709  1.00  0.00    -0.744 OA
ENDBRANCH  65  68
ENDBRANCH  47  61
BRANCH  48  72
ATOM     72  C   UNL A   1      42.648  26.555  27.458  1.00  0.00     0.023 A 
ATOM     73  C   UNL A   1      43.482  27.199  26.521  1.00  0.00     0.012 A 
ATOM     74  C   UNL A   1      42.336  25.196  27.270  1.00  0.00     0.148 A 
ATOM     75  C   UNL A   1      43.962  26.518  25.400  1.00  0.00     0.002 A 
ATOM     76  C   UNL A   1      42.861  24.507  26.179  1.00  0.00     0.091 A 
ATOM     77  F   UNL A   1      41.533  24.598  28.162  1.00  0.00    -0.205 F 
ATOM     78  C   UNL A   1      43.660  25.170  25.235  1.00  0.00     0.022 A 
BRANCH  76  79
ATOM     79  S   UNL A   1      42.630  22.739  25.959  1.00  0.00     0.127 S 
ATOM     80  O   UNL A   1      41.175  22.618  26.008  1.00  0.00    -0.237 OA
ATOM     81  O   UNL A   1      43.223  22.513  24.640  1.00  0.00    -0.237 OA
ATOM     82  O   UNL A   1      43.360  22.114  27.055  1.00  0.00    -0.744 OA
ENDBRANCH  76  79
ENDBRANCH  48  72
BRANCH  60  83
ATOM     83  C   UNL A   1      44.697  27.118  34.113  1.00  0.00     0.023 A 
ATOM     84  C   UNL A   1      45.983  27.691  34.093  1.00  0.00     0.012 A 
ATOM     85  C   UNL A   1      44.438  26.013  34.948  1.00  0.00     0.148 A 
ATOM     86  C   UNL A   1      47.005  27.156  34.877  1.00  0.00     0.002 A 
ATOM     87  C   UNL A   1      45.448  25.517  35.762  1.00  0.00     0.091 A 
ATOM     88  F   UNL A   1      43.210  25.475  34.935  1.00  0.00    -0.205 F 
ATOM     89  C   UNL A   1      46.734  26.081  35.720  1.00  0.00     0.022 A 
BRANCH  87  90
ATOM     90  S   UNL A   1      45.160  24.203  36.951  1.00  0.00     0.127 S 
ATOM     91  O   UNL A   1      44.834  23.077  36.078  1.00  0.00    -0.237 OA
ATOM     92  O   UNL A   1      46.456  24.100  37.622  1.00  0.00    -0.237 OA
ATOM     93  O   UNL A   1      44.076  24.669  37.806  1.00  0.00    -0.744 OA
ENDBRANCH  87  90
ENDBRANCH  60  83
ENDBRANCH  34  35
ENDBRANCH  26  29
ENDBRANCH  24  25
ENDBRANCH   1  24
TORSDOF 19
ENDMDL
MODEL 3
REMARK VINA RESULT:     -10.8      5.100     10.391
REMARK SMILES CCC[N@H+](CC1CC[NH2+]CC1)[C@@H](CC)C(=O)NCCCNC(=O)c1ccc(-c2c3nc(c(-c4cccc(S(=O)(=O)[O-])c4F)c4ccc([nH]4)c(-c4cccc(S(=O)(=O)[O-])c4F)c4nc(c(-c5cccc(S(=O)(=O)[O-])c5F)c5ccc2[nH]5)C=C4)C=C3)cc1
REMARK SMILES IDX 19 1 18 2 17 3 15 4 16 5 12 7 4 8 3 10 2 11 1 12 5 13 6 14
REMARK SMILES IDX 7 15 11 16 8 17 10 18 9 19 13 22 14 23 20 24 21 25 22 26
REMARK SMILES IDX 23 28 24 29 25 30 86 31 26 32 85 33 27 34 28 35 29 36 79 37
REMARK SMILES IDX 30 38 84 39 78 40 80 41 31 42 83 43 77 44 76 45 32 47 64 48
REMARK SMILES IDX 44 49 63 50 45 51 48 52 62 53 81 54 46 55 47 56 61 58 82 59
REMARK SMILES IDX 49 60 33 61 34 62 42 63 35 64 37 65 43 66 36 67 38 68 39 69
REMARK SMILES IDX 40 70 41 71 65 72 66 73 74 74 67 75 69 76 75 77 68 78 70 79
REMARK SMILES IDX 71 80 72 81 73 82 50 83 51 84 59 85 52 86 54 87 60 88 53 89
REMARK SMILES IDX 55 90 56 91 57 92 58 93
REMARK H PARENT 17 6 4 9 9 20 9 21 21 27 80 46 48 57
REMARK Flexibility Score: inf
ROOT
ATOM      1  C   UNL A   1      31.825  29.146  26.519  1.00  0.00     0.042 C 
ENDROOT
BRANCH   1   2
ATOM      2  C   UNL A   1      32.433  27.784  26.155  1.00  0.00     0.118 C 
BRANCH   2   3
ATOM      3  N   UNL A   1      31.460  26.681  26.245  1.00  0.00    -0.351 N 
ATOM      4  C   UNL A   1      31.202  25.374  26.088  1.00  0.00     0.278 C 
ATOM      5  O   UNL A   1      30.075  25.139  26.594  1.00  0.00    -0.268 OA
ATOM      6  H   UNL A   1      30.620  27.087  26.565  1.00  0.00     0.163 HD
BRANCH   4   7
ATOM      7  C   UNL A   1      31.912  24.086  25.518  1.00  0.00     0.273 C 
BRANCH   7   8
ATOM      8  N   UNL A   1      31.962  23.658  24.072  1.00  0.00    -0.324 N 
ATOM      9  H   UNL A   1      32.922  23.805  23.765  1.00  0.00     0.348 HD
BRANCH   8  10
ATOM     10  C   UNL A   1      31.095  24.464  23.230  1.00  0.00     0.262 C 
BRANCH  10  11
ATOM     11  C   UNL A   1      31.946  25.405  22.383  1.00  0.00     0.058 C 
ATOM     12  C   UNL A   1      31.632  26.902  22.434  1.00  0.00     0.010 C 
ENDBRANCH  10  11
ENDBRANCH   8  10
BRANCH   8  13
ATOM     13  C   UNL A   1      31.627  22.210  23.914  1.00  0.00     0.266 C 
BRANCH  13  14
ATOM     14  C   UNL A   1      32.708  21.126  23.541  1.00  0.00     0.055 C 
ATOM     15  C   UNL A   1      32.324  19.677  23.886  1.00  0.00     0.071 C 
ATOM     16  C   UNL A   1      34.188  21.361  23.887  1.00  0.00     0.071 C 
ATOM     17  C   UNL A   1      32.819  19.184  25.240  1.00  0.00     0.261 C 
ATOM     18  C   UNL A   1      34.638  20.782  25.223  1.00  0.00     0.261 C 
ATOM     19  N   UNL A   1      34.253  19.389  25.427  1.00  0.00    -0.346 N 
ATOM     20  H   UNL A   1      34.759  18.807  24.759  1.00  0.00     0.346 HD
ATOM     21  H   UNL A   1      34.484  19.136  26.388  1.00  0.00     0.346 HD
ENDBRANCH  13  14
ENDBRANCH   8  13
ENDBRANCH   7   8
BRANCH   7  22
ATOM     22  C   UNL A   1      33.257  23.854  26.270  1.00  0.00     0.072 C 
ATOM     23  C   UNL A   1      34.485  24.569  25.726  1.00  0.00     0.011 C 
ENDBRANCH   7  22
ENDBRANCH   4   7
ENDBRANCH   2   3
ENDBRANCH   1   2
BRANCH   1  24
ATOM     24  C   UNL A   1      32.646  30.370  26.121  1.00  0.00     0.118 C 
BRANCH  24  25
ATOM     25  N   UNL A   1      32.457  31.634  26.834  1.00  0.00    -0.352 N 
ATOM     26  C   UNL A   1      33.403  32.349  27.566  1.00  0.00     0.251 C 
ATOM     27  H   UNL A   1      31.555  32.026  26.791  1.00  0.00     0.163 HD
ATOM     28  O   UNL A   1      33.117  33.443  28.051  1.00  0.00    -0.269 OA
BRANCH  26  29
ATOM     29  C   UNL A   1      34.741  31.753  27.817  1.00  0.00     0.039 A 
ATOM     30  C   UNL A   1      35.869  32.570  27.947  1.00  0.00     0.014 A 
ATOM     31  C   UNL A   1      34.847  30.393  28.083  1.00  0.00     0.014 A 
ATOM     32  C   UNL A   1      37.049  32.041  28.493  1.00  0.00     0.010 A 
ATOM     33  C   UNL A   1      35.938  29.929  28.799  1.00  0.00     0.010 A 
ATOM     34  C   UNL A   1      37.069  30.731  28.999  1.00  0.00    -0.014 A 
BRANCH  34  35
ATOM     35  C   UNL A   1      38.243  30.139  29.706  1.00  0.00     0.031 A 
ATOM     36  C   UNL A   1      38.532  30.557  31.133  1.00  0.00     0.074 A 
ATOM     37  C   UNL A   1      39.125  29.354  29.050  1.00  0.00     0.049 A 
ATOM     38  N   UNL A   1      39.593  30.336  31.864  1.00  0.00    -0.248 NA
ATOM     39  C   UNL A   1      37.528  31.411  31.796  1.00  0.00     0.031 C 
ATOM     40  C   UNL A   1      39.046  28.968  27.638  1.00  0.00     0.029 A 
ATOM     41  N   UNL A   1      40.285  28.758  29.483  1.00  0.00    -0.354 N 
ATOM     42  C   UNL A   1      39.417  31.089  33.020  1.00  0.00     0.074 A 
ATOM     43  C   UNL A   1      38.190  31.833  32.861  1.00  0.00     0.031 C 
ATOM     44  C   UNL A   1      40.088  28.176  27.333  1.00  0.00     0.029 A 
ATOM     45  C   UNL A   1      40.930  28.021  28.514  1.00  0.00     0.049 A 
ATOM     46  H   UNL A   1      40.626  28.850  30.402  1.00  0.00     0.167 HD
ATOM     47  C   UNL A   1      40.166  31.114  34.147  1.00  0.00     0.034 A 
ATOM     48  C   UNL A   1      42.066  27.296  28.577  1.00  0.00     0.034 A 
ATOM     49  C   UNL A   1      41.298  30.259  34.360  1.00  0.00     0.049 A 
ATOM     50  C   UNL A   1      42.802  27.218  29.891  1.00  0.00     0.074 A 
ATOM     51  C   UNL A   1      42.046  30.089  35.511  1.00  0.00     0.029 A 
ATOM     52  N   UNL A   1      41.821  29.401  33.406  1.00  0.00    -0.354 N 
ATOM     53  N   UNL A   1      42.528  27.816  31.026  1.00  0.00    -0.248 NA
ATOM     54  C   UNL A   1      43.977  26.336  29.947  1.00  0.00     0.031 C 
ATOM     55  C   UNL A   1      43.022  29.121  35.252  1.00  0.00     0.029 A 
ATOM     56  C   UNL A   1      42.873  28.685  33.945  1.00  0.00     0.049 A 
ATOM     57  H   UNL A   1      41.492  29.313  32.483  1.00  0.00     0.167 HD
ATOM     58  C   UNL A   1      43.470  27.354  31.938  1.00  0.00     0.074 A 
ATOM     59  C   UNL A   1      44.309  26.408  31.229  1.00  0.00     0.031 C 
ATOM     60  C   UNL A   1      43.643  27.695  33.238  1.00  0.00     0.034 A 
BRANCH  47  61
ATOM     61  C   UNL A   1      39.716  32.014  35.270  1.00  0.00     0.023 A 
ATOM     62  C   UNL A   1      40.129  33.363  35.287  1.00  0.00     0.012 A 
ATOM     63  C   UNL A   1      38.868  31.541  36.290  1.00  0.00     0.148 A 
ATOM     64  C   UNL A   1      39.752  34.212  36.326  1.00  0.00     0.002 A 
ATOM     65  C   UNL A   1      38.452  32.409  37.295  1.00  0.00     0.091 A 
ATOM     66  F   UNL A   1      38.497  30.253  36.269  1.00  0.00    -0.205 F 
ATOM     67  C   UNL A   1      38.907  33.738  37.324  1.00  0.00     0.022 A 
BRANCH  65  68
ATOM     68  S   UNL A   1      37.297  31.925  38.582  1.00  0.00     0.127 S 
ATOM     69  O   UNL A   1      36.215  32.889  38.384  1.00  0.00    -0.237 OA
ATOM     70  O   UNL A   1      36.967  30.552  38.198  1.00  0.00    -0.237 OA
ATOM     71  O   UNL A   1      38.020  32.048  39.839  1.00  0.00    -0.744 OA
ENDBRANCH  65  68
ENDBRANCH  47  61
BRANCH  48  72
ATOM     72  C   UNL A   1      42.517  26.494  27.401  1.00  0.00     0.023 A 
ATOM     73  C   UNL A   1      43.306  27.118  26.412  1.00  0.00     0.012 A 
ATOM     74  C   UNL A   1      42.195  25.132  27.256  1.00  0.00     0.148 A 
ATOM     75  C   UNL A   1      43.730  26.413  25.284  1.00  0.00     0.002 A 
ATOM     76  C   UNL A   1      42.666  24.420  26.156  1.00  0.00     0.091 A 
ATOM     77  F   UNL A   1      41.436  24.555  28.197  1.00  0.00    -0.205 F 
ATOM     78  C   UNL A   1      43.419  25.062  25.161  1.00  0.00     0.022 A 
BRANCH  76  79
ATOM     79  S   UNL A   1      42.423  22.648  25.983  1.00  0.00     0.127 S 
ATOM     80  O   UNL A   1      43.150  22.131  27.139  1.00  0.00    -0.237 OA
ATOM     81  O   UNL A   1      40.966  22.528  26.066  1.00  0.00    -0.237 OA
ATOM     82  O   UNL A   1      42.975  22.308  24.678  1.00  0.00    -0.744 OA
ENDBRANCH  76  79
ENDBRANCH  48  72
BRANCH  60  83
ATOM     83  C   UNL A   1      44.748  27.018  34.001  1.00  0.00     0.023 A 
ATOM     84  C   UNL A   1      46.045  27.566  33.980  1.00  0.00     0.012 A 
ATOM     85  C   UNL A   1      44.475  25.902  34.815  1.00  0.00     0.148 A 
ATOM     86  C   UNL A   1      47.063  26.997  34.743  1.00  0.00     0.002 A 
ATOM     87  C   UNL A   1      45.483  25.370  35.610  1.00  0.00     0.091 A 
ATOM     88  F   UNL A   1      43.237  25.387  34.804  1.00  0.00    -0.205 F 
ATOM     89  C   UNL A   1      46.779  25.910  35.568  1.00  0.00     0.022 A 
BRANCH  87  90
ATOM     90  S   UNL A   1      45.181  24.038  36.776  1.00  0.00     0.127 S 
ATOM     91  O   UNL A   1      44.266  24.673  37.723  1.00  0.00    -0.237 OA
ATOM     92  O   UNL A   1      44.570  23.015  35.928  1.00  0.00    -0.237 OA
ATOM     93  O   UNL A   1      46.486  23.674  37.313  1.00  0.00    -0.744 OA
ENDBRANCH  87  90
ENDBRANCH  60  83
ENDBRANCH  34  35
ENDBRANCH  26  29
ENDBRANCH  24  25
ENDBRANCH   1  24
TORSDOF 19
ENDMDL
