MODEL 1
REMARK VINA RESULT:     -11.2      0.000      0.000
REMARK SMILES CC(C)n1c([C@H](O)CC(=O)NCCCNC(=O)c2ccc(-c3c4nc(c(-c5cccc(S(=O)(=O)[O-])c5F)c5ccc([nH]5)c(-c5cccc(S(=O)(=O)[O-])c5F)c5nc(c(-c6cccc(S(=O)(=O)[O-])c6F)c6ccc3[nH]6)C=C5)C=C4)cc2)nc2cc(Cl)ccc21
REMARK SMILES IDX 13 1 12 2 11 3 9 4 10 5 8 7 6 8 5 9 4 10 88 11 81 12 82 13
REMARK SMILES IDX 87 14 83 15 86 16 84 17 85 18 2 19 1 20 3 21 7 22 14 24
REMARK SMILES IDX 15 25 16 26 17 28 18 29 19 30 80 31 20 32 79 33 21 34 22 35
REMARK SMILES IDX 23 36 73 37 24 38 78 39 72 40 74 41 25 42 77 43 71 44 70 45
REMARK SMILES IDX 26 47 58 48 38 49 57 50 39 51 42 52 56 53 75 54 40 55 41 56
REMARK SMILES IDX 55 58 76 59 43 60 27 61 28 62 36 63 29 64 31 65 37 66 30 67
REMARK SMILES IDX 32 68 33 69 34 70 35 71 59 72 60 73 68 74 61 75 63 76 69 77
REMARK SMILES IDX 62 78 64 79 65 80 66 81 67 82 44 83 45 84 53 85 46 86 48 87
REMARK SMILES IDX 54 88 47 89 49 90 50 91 51 92 52 93
REMARK H PARENT 11 6 7 23 15 27 74 46 42 57
REMARK Flexibility Score: inf
ROOT
ATOM      1  C   UNL A   1      33.540  34.508  29.426  1.00  0.00     0.042 C 
ENDROOT
BRANCH   1   2
ATOM      2  C   UNL A   1      33.353  36.024  29.559  1.00  0.00     0.117 C 
BRANCH   2   3
ATOM      3  N   UNL A   1      32.600  36.428  30.742  1.00  0.00    -0.356 N 
ATOM      4  C   UNL A   1      32.963  36.420  32.060  1.00  0.00     0.223 C 
ATOM      5  O   UNL A   1      32.171  36.888  32.881  1.00  0.00    -0.275 OA
ATOM      6  H   UNL A   1      31.690  36.757  30.562  1.00  0.00     0.163 HD
BRANCH   4   7
ATOM      7  C   UNL A   1      34.263  35.782  32.503  1.00  0.00     0.140 C 
BRANCH   7   8
ATOM      8  C   UNL A   1      33.990  34.700  33.543  1.00  0.00     0.190 C 
BRANCH   8   9
ATOM      9  C   UNL A   1      35.256  34.124  34.133  1.00  0.00     0.139 A 
ATOM     10  N   UNL A   1      36.254  33.357  33.532  1.00  0.00    -0.323 N 
ATOM     11  C   UNL A   1      37.198  33.067  34.515  1.00  0.00     0.069 A 
ATOM     12  N   UNL A   1      35.528  34.302  35.418  1.00  0.00    -0.230 NA
ATOM     13  C   UNL A   1      36.705  33.662  35.667  1.00  0.00     0.090 A 
ATOM     14  C   UNL A   1      38.413  32.363  34.506  1.00  0.00     0.030 A 
ATOM     15  C   UNL A   1      37.415  33.559  36.872  1.00  0.00     0.051 A 
ATOM     16  C   UNL A   1      39.116  32.268  35.711  1.00  0.00     0.023 A 
ATOM     17  C   UNL A   1      38.620  32.854  36.875  1.00  0.00     0.043 A 
ATOM     18  Cl  UNL A   1      39.510  32.707  38.343  1.00  0.00    -0.084 Cl
BRANCH  10  19
ATOM     19  C   UNL A   1      36.450  32.956  32.135  1.00  0.00     0.083 C 
ATOM     20  C   UNL A   1      37.802  33.312  31.507  1.00  0.00     0.031 C 
ATOM     21  C   UNL A   1      35.949  31.543  31.852  1.00  0.00     0.031 C 
ENDBRANCH  10  19
ENDBRANCH   8   9
BRANCH   8  22
ATOM     22  O   UNL A   1      33.212  33.664  32.989  1.00  0.00    -0.385 OA
ATOM     23  H   UNL A   1      32.473  33.461  33.585  1.00  0.00     0.211 HD
ENDBRANCH   8  22
ENDBRANCH   7   8
ENDBRANCH   4   7
ENDBRANCH   2   3
ENDBRANCH   1   2
BRANCH   1  24
ATOM     24  C   UNL A   1      34.202  34.069  28.124  1.00  0.00     0.118 C 
BRANCH  24  25
ATOM     25  N   UNL A   1      33.719  32.800  27.627  1.00  0.00    -0.352 N 
ATOM     26  C   UNL A   1      34.180  31.514  27.666  1.00  0.00     0.251 C 
ATOM     27  H   UNL A   1      32.863  32.882  27.148  1.00  0.00     0.163 HD
ATOM     28  O   UNL A   1      33.404  30.666  27.216  1.00  0.00    -0.269 OA
BRANCH  26  29
ATOM     29  C   UNL A   1      35.528  31.086  28.133  1.00  0.00     0.039 A 
ATOM     30  C   UNL A   1      36.642  31.909  28.309  1.00  0.00     0.014 A 
ATOM     31  C   UNL A   1      35.673  29.705  28.377  1.00  0.00     0.014 A 
ATOM     32  C   UNL A   1      37.884  31.357  28.619  1.00  0.00     0.010 A 
ATOM     33  C   UNL A   1      36.904  29.152  28.704  1.00  0.00     0.010 A 
ATOM     34  C   UNL A   1      38.021  29.974  28.778  1.00  0.00    -0.014 A 
BRANCH  34  35
ATOM     35  C   UNL A   1      39.327  29.444  29.165  1.00  0.00     0.031 A 
ATOM     36  C   UNL A   1      39.694  29.700  30.586  1.00  0.00     0.074 A 
ATOM     37  C   UNL A   1      40.093  28.680  28.358  1.00  0.00     0.049 A 
ATOM     38  N   UNL A   1      40.668  30.422  31.038  1.00  0.00    -0.248 NA
ATOM     39  C   UNL A   1      38.785  29.199  31.630  1.00  0.00     0.031 C 
ATOM     40  C   UNL A   1      39.736  28.123  27.050  1.00  0.00     0.029 A 
ATOM     41  N   UNL A   1      41.319  28.130  28.598  1.00  0.00    -0.354 N 
ATOM     42  C   UNL A   1      40.630  30.272  32.424  1.00  0.00     0.074 A 
ATOM     43  C   UNL A   1      39.365  29.662  32.737  1.00  0.00     0.031 C 
ATOM     44  C   UNL A   1      40.605  27.136  26.733  1.00  0.00     0.029 A 
ATOM     45  C   UNL A   1      41.647  27.079  27.741  1.00  0.00     0.049 A 
ATOM     46  H   UNL A   1      41.919  28.447  29.311  1.00  0.00     0.167 HD
ATOM     47  C   UNL A   1      41.740  30.435  33.195  1.00  0.00     0.034 A 
ATOM     48  C   UNL A   1      42.658  26.187  27.900  1.00  0.00     0.034 A 
ATOM     49  C   UNL A   1      42.780  31.143  32.506  1.00  0.00     0.049 A 
ATOM     50  C   UNL A   1      43.643  26.819  28.808  1.00  0.00     0.074 A 
ATOM     51  C   UNL A   1      42.892  32.387  31.919  1.00  0.00     0.029 A 
ATOM     52  N   UNL A   1      43.822  30.395  32.018  1.00  0.00    -0.354 N 
ATOM     53  N   UNL A   1      44.341  27.876  28.498  1.00  0.00    -0.248 NA
ATOM     54  C   UNL A   1      43.566  26.504  30.225  1.00  0.00     0.031 C 
ATOM     55  C   UNL A   1      43.689  32.170  30.759  1.00  0.00     0.029 A 
ATOM     56  C   UNL A   1      44.062  30.825  30.742  1.00  0.00     0.049 A 
ATOM     57  H   UNL A   1      44.306  29.684  32.497  1.00  0.00     0.167 HD
ATOM     58  C   UNL A   1      44.404  28.599  29.680  1.00  0.00     0.074 A 
ATOM     59  C   UNL A   1      44.007  27.660  30.726  1.00  0.00     0.031 C 
ATOM     60  C   UNL A   1      44.490  29.959  29.667  1.00  0.00     0.034 A 
BRANCH  47  61
ATOM     61  C   UNL A   1      42.026  29.635  34.442  1.00  0.00     0.023 A 
ATOM     62  C   UNL A   1      42.622  30.301  35.537  1.00  0.00     0.012 A 
ATOM     63  C   UNL A   1      41.996  28.223  34.484  1.00  0.00     0.148 A 
ATOM     64  C   UNL A   1      43.179  29.591  36.606  1.00  0.00     0.002 A 
ATOM     65  C   UNL A   1      42.481  27.527  35.583  1.00  0.00     0.091 A 
ATOM     66  F   UNL A   1      41.629  27.533  33.400  1.00  0.00    -0.205 F 
ATOM     67  C   UNL A   1      43.097  28.203  36.637  1.00  0.00     0.022 A 
BRANCH  65  68
ATOM     68  S   UNL A   1      42.368  25.737  35.685  1.00  0.00     0.127 S 
ATOM     69  O   UNL A   1      42.876  25.489  37.028  1.00  0.00    -0.237 OA
ATOM     70  O   UNL A   1      40.932  25.518  35.511  1.00  0.00    -0.237 OA
ATOM     71  O   UNL A   1      43.184  25.235  34.583  1.00  0.00    -0.744 OA
ENDBRANCH  65  68
ENDBRANCH  47  61
BRANCH  48  72
ATOM     72  C   UNL A   1      42.738  24.739  27.561  1.00  0.00     0.023 A 
ATOM     73  C   UNL A   1      41.654  23.892  27.886  1.00  0.00     0.012 A 
ATOM     74  C   UNL A   1      43.713  24.239  26.669  1.00  0.00     0.148 A 
ATOM     75  C   UNL A   1      41.514  22.627  27.300  1.00  0.00     0.002 A 
ATOM     76  C   UNL A   1      43.578  22.973  26.101  1.00  0.00     0.091 A 
ATOM     77  F   UNL A   1      44.721  25.036  26.295  1.00  0.00    -0.205 F 
ATOM     78  C   UNL A   1      42.470  22.172  26.399  1.00  0.00     0.022 A 
BRANCH  76  79
ATOM     79  S   UNL A   1      44.780  22.328  24.929  1.00  0.00     0.127 S 
ATOM     80  O   UNL A   1      45.982  22.210  25.759  1.00  0.00    -0.237 OA
ATOM     81  O   UNL A   1      44.176  21.051  24.548  1.00  0.00    -0.237 OA
ATOM     82  O   UNL A   1      44.880  23.324  23.876  1.00  0.00    -0.744 OA
ENDBRANCH  76  79
ENDBRANCH  48  72
BRANCH  60  83
ATOM     83  C   UNL A   1      44.785  30.649  28.362  1.00  0.00     0.023 A 
ATOM     84  C   UNL A   1      43.761  31.116  27.513  1.00  0.00     0.012 A 
ATOM     85  C   UNL A   1      46.110  31.055  28.132  1.00  0.00     0.148 A 
ATOM     86  C   UNL A   1      44.055  31.987  26.460  1.00  0.00     0.002 A 
ATOM     87  C   UNL A   1      46.390  31.956  27.115  1.00  0.00     0.091 A 
ATOM     88  F   UNL A   1      47.060  30.602  28.963  1.00  0.00    -0.205 F 
ATOM     89  C   UNL A   1      45.366  32.422  26.273  1.00  0.00     0.022 A 
BRANCH  87  90
ATOM     90  S   UNL A   1      48.023  32.668  26.906  1.00  0.00     0.127 S 
ATOM     91  O   UNL A   1      47.807  33.609  25.810  1.00  0.00    -0.237 OA
ATOM     92  O   UNL A   1      48.253  33.289  28.212  1.00  0.00    -0.237 OA
ATOM     93  O   UNL A   1      48.917  31.558  26.602  1.00  0.00    -0.744 OA
ENDBRANCH  87  90
ENDBRANCH  60  83
ENDBRANCH  34  35
ENDBRANCH  26  29
ENDBRANCH  24  25
ENDBRANCH   1  24
TORSDOF 17
ENDMDL
MODEL 2
REMARK VINA RESULT:     -10.9      4.367     10.490
REMARK SMILES CC(C)n1c([C@H](O)CC(=O)NCCCNC(=O)c2ccc(-c3c4nc(c(-c5cccc(S(=O)(=O)[O-])c5F)c5ccc([nH]5)c(-c5cccc(S(=O)(=O)[O-])c5F)c5nc(c(-c6cccc(S(=O)(=O)[O-])c6F)c6ccc3[nH]6)C=C5)C=C4)cc2)nc2cc(Cl)ccc21
REMARK SMILES IDX 13 1 12 2 11 3 9 4 10 5 8 7 6 8 5 9 4 10 88 11 81 12 82 13
REMARK SMILES IDX 87 14 83 15 86 16 84 17 85 18 2 19 1 20 3 21 7 22 14 24
REMARK SMILES IDX 15 25 16 26 17 28 18 29 19 30 80 31 20 32 79 33 21 34 22 35
REMARK SMILES IDX 23 36 73 37 24 38 78 39 72 40 74 41 25 42 77 43 71 44 70 45
REMARK SMILES IDX 26 47 58 48 38 49 57 50 39 51 42 52 56 53 75 54 40 55 41 56
REMARK SMILES IDX 55 58 76 59 43 60 27 61 28 62 36 63 29 64 31 65 37 66 30 67
REMARK SMILES IDX 32 68 33 69 34 70 35 71 59 72 60 73 68 74 61 75 63 76 69 77
REMARK SMILES IDX 62 78 64 79 65 80 66 81 67 82 44 83 45 84 53 85 46 86 48 87
REMARK SMILES IDX 54 88 47 89 49 90 50 91 51 92 52 93
REMARK H PARENT 11 6 7 23 15 27 74 46 42 57
REMARK Flexibility Score: inf
ROOT
ATOM      1  C   UNL A   1      35.822  21.590  25.286  1.00  0.00     0.042 C 
ENDROOT
BRANCH   1   2
ATOM      2  C   UNL A   1      34.557  22.458  25.293  1.00  0.00     0.117 C 
BRANCH   2   3
ATOM      3  N   UNL A   1      33.334  21.723  25.600  1.00  0.00    -0.356 N 
ATOM      4  C   UNL A   1      32.027  22.062  25.381  1.00  0.00     0.223 C 
ATOM      5  O   UNL A   1      31.160  21.232  25.662  1.00  0.00    -0.275 OA
ATOM      6  H   UNL A   1      33.471  20.850  26.033  1.00  0.00     0.163 HD
BRANCH   4   7
ATOM      7  C   UNL A   1      31.656  23.443  24.883  1.00  0.00     0.140 C 
BRANCH   7   8
ATOM      8  C   UNL A   1      30.917  24.213  25.973  1.00  0.00     0.190 C 
BRANCH   8   9
ATOM      9  C   UNL A   1      31.192  25.698  25.928  1.00  0.00     0.139 A 
ATOM     10  N   UNL A   1      30.890  26.633  24.938  1.00  0.00    -0.323 N 
ATOM     11  C   UNL A   1      31.371  27.865  25.377  1.00  0.00     0.069 A 
ATOM     12  N   UNL A   1      31.837  26.282  26.927  1.00  0.00    -0.230 NA
ATOM     13  C   UNL A   1      31.957  27.601  26.606  1.00  0.00     0.090 A 
ATOM     14  C   UNL A   1      31.345  29.159  24.832  1.00  0.00     0.030 A 
ATOM     15  C   UNL A   1      32.559  28.636  27.337  1.00  0.00     0.051 A 
ATOM     16  C   UNL A   1      31.944  30.186  25.569  1.00  0.00     0.023 A 
ATOM     17  C   UNL A   1      32.544  29.924  26.799  1.00  0.00     0.043 A 
ATOM     18  Cl  UNL A   1      33.281  31.212  27.673  1.00  0.00    -0.084 Cl
BRANCH  10  19
ATOM     19  C   UNL A   1      30.130  26.503  23.691  1.00  0.00     0.083 C 
ATOM     20  C   UNL A   1      28.748  27.166  23.662  1.00  0.00     0.031 C 
ATOM     21  C   UNL A   1      30.990  26.732  22.452  1.00  0.00     0.031 C 
ENDBRANCH  10  19
ENDBRANCH   8   9
BRANCH   8  22
ATOM     22  O   UNL A   1      31.245  23.709  27.247  1.00  0.00    -0.385 OA
ATOM     23  H   UNL A   1      30.431  23.488  27.727  1.00  0.00     0.211 HD
ENDBRANCH   8  22
ENDBRANCH   7   8
ENDBRANCH   4   7
ENDBRANCH   2   3
ENDBRANCH   1   2
BRANCH   1  24
ATOM     24  C   UNL A   1      37.119  22.373  25.115  1.00  0.00     0.118 C 
BRANCH  24  25
ATOM     25  N   UNL A   1      38.294  21.650  25.545  1.00  0.00    -0.352 N 
ATOM     26  C   UNL A   1      39.342  21.925  26.378  1.00  0.00     0.251 C 
ATOM     27  H   UNL A   1      38.354  20.753  25.144  1.00  0.00     0.163 HD
ATOM     28  O   UNL A   1      40.109  20.981  26.586  1.00  0.00    -0.269 OA
BRANCH  26  29
ATOM     29  C   UNL A   1      39.651  23.254  26.977  1.00  0.00     0.039 A 
ATOM     30  C   UNL A   1      38.938  24.438  26.777  1.00  0.00     0.014 A 
ATOM     31  C   UNL A   1      40.802  23.297  27.789  1.00  0.00     0.014 A 
ATOM     32  C   UNL A   1      39.416  25.643  27.289  1.00  0.00     0.010 A 
ATOM     33  C   UNL A   1      41.273  24.492  28.316  1.00  0.00     0.010 A 
ATOM     34  C   UNL A   1      40.604  25.674  28.025  1.00  0.00    -0.014 A 
BRANCH  34  35
ATOM     35  C   UNL A   1      41.036  26.949  28.595  1.00  0.00     0.031 A 
ATOM     36  C   UNL A   1      42.365  27.416  28.112  1.00  0.00     0.074 A 
ATOM     37  C   UNL A   1      40.260  27.712  29.394  1.00  0.00     0.049 A 
ATOM     38  N   UNL A   1      43.451  27.577  28.798  1.00  0.00    -0.248 NA
ATOM     39  C   UNL A   1      42.541  27.598  26.661  1.00  0.00     0.031 C 
ATOM     40  C   UNL A   1      38.846  27.513  29.723  1.00  0.00     0.029 A 
ATOM     41  N   UNL A   1      40.544  28.910  29.985  1.00  0.00    -0.354 N 
ATOM     42  C   UNL A   1      44.382  28.104  27.904  1.00  0.00     0.074 A 
ATOM     43  C   UNL A   1      43.830  27.933  26.586  1.00  0.00     0.031 C 
ATOM     44  C   UNL A   1      38.342  28.659  30.237  1.00  0.00     0.029 A 
ATOM     45  C   UNL A   1      39.417  29.620  30.397  1.00  0.00     0.049 A 
ATOM     46  H   UNL A   1      41.463  29.241  30.111  1.00  0.00     0.167 HD
ATOM     47  C   UNL A   1      45.430  28.865  28.324  1.00  0.00     0.034 A 
ATOM     48  C   UNL A   1      39.371  30.926  30.767  1.00  0.00     0.034 A 
ATOM     49  C   UNL A   1      45.680  28.714  29.729  1.00  0.00     0.049 A 
ATOM     50  C   UNL A   1      40.746  31.304  31.164  1.00  0.00     0.074 A 
ATOM     51  C   UNL A   1      45.997  27.657  30.557  1.00  0.00     0.029 A 
ATOM     52  N   UNL A   1      45.246  29.724  30.549  1.00  0.00    -0.354 N 
ATOM     53  N   UNL A   1      41.362  30.813  32.202  1.00  0.00    -0.248 NA
ATOM     54  C   UNL A   1      41.592  31.943  30.170  1.00  0.00     0.031 C 
ATOM     55  C   UNL A   1      45.284  27.913  31.762  1.00  0.00     0.029 A 
ATOM     56  C   UNL A   1      44.627  29.137  31.617  1.00  0.00     0.049 A 
ATOM     57  H   UNL A   1      45.360  30.690  30.398  1.00  0.00     0.167 HD
ATOM     58  C   UNL A   1      42.677  30.677  31.784  1.00  0.00     0.074 A 
ATOM     59  C   UNL A   1      42.780  31.485  30.571  1.00  0.00     0.031 C 
ATOM     60  C   UNL A   1      43.478  29.697  32.291  1.00  0.00     0.034 A 
BRANCH  47  61
ATOM     61  C   UNL A   1      45.995  30.025  27.545  1.00  0.00     0.023 A 
ATOM     62  C   UNL A   1      47.397  30.207  27.546  1.00  0.00     0.012 A 
ATOM     63  C   UNL A   1      45.207  31.090  27.053  1.00  0.00     0.148 A 
ATOM     64  C   UNL A   1      47.978  31.400  27.101  1.00  0.00     0.002 A 
ATOM     65  C   UNL A   1      45.793  32.240  26.540  1.00  0.00     0.091 A 
ATOM     66  F   UNL A   1      43.880  31.061  27.207  1.00  0.00    -0.205 F 
ATOM     67  C   UNL A   1      47.178  32.413  26.585  1.00  0.00     0.022 A 
BRANCH  65  68
ATOM     68  S   UNL A   1      44.804  33.562  25.832  1.00  0.00     0.127 S 
ATOM     69  O   UNL A   1      44.118  34.076  27.011  1.00  0.00    -0.237 OA
ATOM     70  O   UNL A   1      45.832  34.441  25.276  1.00  0.00    -0.237 OA
ATOM     71  O   UNL A   1      43.963  32.918  24.826  1.00  0.00    -0.744 OA
ENDBRANCH  65  68
ENDBRANCH  47  61
BRANCH  48  72
ATOM     72  C   UNL A   1      38.315  31.956  30.562  1.00  0.00     0.023 A 
ATOM     73  C   UNL A   1      37.745  32.116  29.279  1.00  0.00     0.012 A 
ATOM     74  C   UNL A   1      37.654  32.567  31.650  1.00  0.00     0.148 A 
ATOM     75  C   UNL A   1      36.537  32.802  29.096  1.00  0.00     0.002 A 
ATOM     76  C   UNL A   1      36.460  33.263  31.461  1.00  0.00     0.091 A 
ATOM     77  F   UNL A   1      38.135  32.387  32.887  1.00  0.00    -0.205 F 
ATOM     78  C   UNL A   1      35.888  33.365  30.188  1.00  0.00     0.022 A 
BRANCH  76  79
ATOM     79  S   UNL A   1      35.574  34.014  32.835  1.00  0.00     0.127 S 
ATOM     80  O   UNL A   1      36.543  35.002  33.319  1.00  0.00    -0.237 OA
ATOM     81  O   UNL A   1      34.406  34.584  32.165  1.00  0.00    -0.237 OA
ATOM     82  O   UNL A   1      35.308  32.935  33.771  1.00  0.00    -0.744 OA
ENDBRANCH  76  79
ENDBRANCH  48  72
BRANCH  60  83
ATOM     83  C   UNL A   1      43.005  28.937  33.500  1.00  0.00     0.023 A 
ATOM     84  C   UNL A   1      42.111  27.851  33.401  1.00  0.00     0.012 A 
ATOM     85  C   UNL A   1      43.682  29.162  34.710  1.00  0.00     0.148 A 
ATOM     86  C   UNL A   1      41.908  26.997  34.489  1.00  0.00     0.002 A 
ATOM     87  C   UNL A   1      43.512  28.285  35.772  1.00  0.00     0.091 A 
ATOM     88  F   UNL A   1      44.534  30.196  34.771  1.00  0.00    -0.205 F 
ATOM     89  C   UNL A   1      42.623  27.203  35.667  1.00  0.00     0.022 A 
BRANCH  87  90
ATOM     90  S   UNL A   1      44.502  28.404  37.263  1.00  0.00     0.127 S 
ATOM     91  O   UNL A   1      44.075  27.221  38.007  1.00  0.00    -0.237 OA
ATOM     92  O   UNL A   1      45.864  28.334  36.730  1.00  0.00    -0.237 OA
ATOM     93  O   UNL A   1      44.162  29.679  37.880  1.00  0.00    -0.744 OA
ENDBRANCH  87  90
ENDBRANCH  60  83
ENDBRANCH  34  35
ENDBRANCH  26  29
ENDBRANCH  24  25
ENDBRANCH   1  24
TORSDOF 17
ENDMDL
MODEL 3
REMARK VINA RESULT:     -10.9      3.798     11.319
REMARK SMILES CC(C)n1c([C@H](O)CC(=O)NCCCNC(=O)c2ccc(-c3c4nc(c(-c5cccc(S(=O)(=O)[O-])c5F)c5ccc([nH]5)c(-c5cccc(S(=O)(=O)[O-])c5F)c5nc(c(-c6cccc(S(=O)(=O)[O-])c6F)c6ccc3[nH]6)C=C5)C=C4)cc2)nc2cc(Cl)ccc21
REMARK SMILES IDX 13 1 12 2 11 3 9 4 10 5 8 7 6 8 5 9 4 10 88 11 81 12 82 13
REMARK SMILES IDX 87 14 83 15 86 16 84 17 85 18 2 19 1 20 3 21 7 22 14 24
REMARK SMILES IDX 15 25 16 26 17 28 18 29 19 30 80 31 20 32 79 33 21 34 22 35
REMARK SMILES IDX 23 36 73 37 24 38 78 39 72 40 74 41 25 42 77 43 71 44 70 45
REMARK SMILES IDX 26 47 58 48 38 49 57 50 39 51 42 52 56 53 75 54 40 55 41 56
REMARK SMILES IDX 55 58 76 59 43 60 27 61 28 62 36 63 29 64 31 65 37 66 30 67
REMARK SMILES IDX 32 68 33 69 34 70 35 71 59 72 60 73 68 74 61 75 63 76 69 77
REMARK SMILES IDX 62 78 64 79 65 80 66 81 67 82 44 83 45 84 53 85 46 86 48 87
REMARK SMILES IDX 54 88 47 89 49 90 50 91 51 92 52 93
REMARK H PARENT 11 6 7 23 15 27 74 46 42 57
REMARK Flexibility Score: inf
ROOT
ATOM      1  C   UNL A   1      41.500  19.608  26.353  1.00  0.00     0.042 C 
ENDROOT
BRANCH   1   2
ATOM      2  C   UNL A   1      42.993  19.324  26.142  1.00  0.00     0.117 C 
BRANCH   2   3
ATOM      3  N   UNL A   1      43.435  19.465  24.759  1.00  0.00    -0.356 N 
ATOM      4  C   UNL A   1      44.471  20.189  24.237  1.00  0.00     0.223 C 
ATOM      5  O   UNL A   1      44.697  20.087  23.030  1.00  0.00    -0.275 OA
ATOM      6  H   UNL A   1      42.905  18.961  24.100  1.00  0.00     0.163 HD
BRANCH   4   7
ATOM      7  C   UNL A   1      45.264  21.145  25.103  1.00  0.00     0.140 C 
BRANCH   7   8
ATOM      8  C   UNL A   1      44.641  22.536  25.057  1.00  0.00     0.190 C 
BRANCH   8   9
ATOM      9  C   UNL A   1      44.567  23.190  26.416  1.00  0.00     0.139 A 
ATOM     10  N   UNL A   1      44.668  24.537  26.767  1.00  0.00    -0.323 N 
ATOM     11  C   UNL A   1      44.549  24.610  28.154  1.00  0.00     0.069 A 
ATOM     12  N   UNL A   1      44.413  22.445  27.502  1.00  0.00    -0.230 NA
ATOM     13  C   UNL A   1      44.402  23.294  28.568  1.00  0.00     0.090 A 
ATOM     14  C   UNL A   1      44.549  25.678  29.065  1.00  0.00     0.030 A 
ATOM     15  C   UNL A   1      44.263  22.996  29.931  1.00  0.00     0.051 A 
ATOM     16  C   UNL A   1      44.406  25.372  30.422  1.00  0.00     0.023 A 
ATOM     17  C   UNL A   1      44.270  24.051  30.845  1.00  0.00     0.043 A 
ATOM     18  Cl  UNL A   1      44.105  23.713  32.527  1.00  0.00    -0.084 Cl
BRANCH  10  19
ATOM     19  C   UNL A   1      44.769  25.742  25.938  1.00  0.00     0.083 C 
ATOM     20  C   UNL A   1      46.018  25.860  25.057  1.00  0.00     0.031 C 
ATOM     21  C   UNL A   1      43.452  26.100  25.257  1.00  0.00     0.031 C 
ENDBRANCH  10  19
ENDBRANCH   8   9
BRANCH   8  22
ATOM     22  O   UNL A   1      43.353  22.485  24.486  1.00  0.00    -0.385 OA
ATOM     23  H   UNL A   1      42.753  22.013  25.084  1.00  0.00     0.211 HD
ENDBRANCH   8  22
ENDBRANCH   7   8
ENDBRANCH   4   7
ENDBRANCH   2   3
ENDBRANCH   1   2
BRANCH   1  24
ATOM     24  C   UNL A   1      41.188  21.035  26.792  1.00  0.00     0.118 C 
BRANCH  24  25
ATOM     25  N   UNL A   1      39.892  21.505  26.357  1.00  0.00    -0.352 N 
ATOM     26  C   UNL A   1      39.254  22.713  26.371  1.00  0.00     0.251 C 
ATOM     27  H   UNL A   1      39.343  20.790  25.960  1.00  0.00     0.163 HD
ATOM     28  O   UNL A   1      38.168  22.739  25.785  1.00  0.00    -0.269 OA
BRANCH  26  29
ATOM     29  C   UNL A   1      39.725  23.938  27.076  1.00  0.00     0.039 A 
ATOM     30  C   UNL A   1      40.885  24.057  27.843  1.00  0.00     0.014 A 
ATOM     31  C   UNL A   1      38.876  25.059  26.970  1.00  0.00     0.014 A 
ATOM     32  C   UNL A   1      41.137  25.224  28.563  1.00  0.00     0.010 A 
ATOM     33  C   UNL A   1      39.132  26.230  27.672  1.00  0.00     0.010 A 
ATOM     34  C   UNL A   1      40.240  26.295  28.506  1.00  0.00    -0.014 A 
BRANCH  34  35
ATOM     35  C   UNL A   1      40.575  27.521  29.227  1.00  0.00     0.031 A 
ATOM     36  C   UNL A   1      41.641  28.337  28.581  1.00  0.00     0.074 A 
ATOM     37  C   UNL A   1      39.904  27.957  30.314  1.00  0.00     0.049 A 
ATOM     38  N   UNL A   1      42.819  28.614  29.041  1.00  0.00    -0.248 NA
ATOM     39  C   UNL A   1      41.416  28.788  27.198  1.00  0.00     0.031 C 
ATOM     40  C   UNL A   1      38.672  27.407  30.885  1.00  0.00     0.029 A 
ATOM     41  N   UNL A   1      40.116  29.075  31.069  1.00  0.00    -0.354 N 
ATOM     42  C   UNL A   1      43.393  29.469  28.101  1.00  0.00     0.074 A 
ATOM     43  C   UNL A   1      42.568  29.401  26.924  1.00  0.00     0.031 C 
ATOM     44  C   UNL A   1      38.123  28.316  31.723  1.00  0.00     0.029 A 
ATOM     45  C   UNL A   1      39.022  29.448  31.850  1.00  0.00     0.049 A 
ATOM     46  H   UNL A   1      40.966  29.572  31.064  1.00  0.00     0.167 HD
ATOM     47  C   UNL A   1      44.366  30.360  28.439  1.00  0.00     0.034 A 
ATOM     48  C   UNL A   1      38.847  30.634  32.487  1.00  0.00     0.034 A 
ATOM     49  C   UNL A   1      44.981  30.038  29.695  1.00  0.00     0.049 A 
ATOM     50  C   UNL A   1      40.192  31.230  32.654  1.00  0.00     0.074 A 
ATOM     51  C   UNL A   1      45.671  28.953  30.196  1.00  0.00     0.029 A 
ATOM     52  N   UNL A   1      44.599  30.783  30.782  1.00  0.00    -0.354 N 
ATOM     53  N   UNL A   1      41.123  30.720  33.412  1.00  0.00    -0.248 NA
ATOM     54  C   UNL A   1      40.641  32.191  31.660  1.00  0.00     0.031 C 
ATOM     55  C   UNL A   1      45.248  28.849  31.552  1.00  0.00     0.029 A 
ATOM     56  C   UNL A   1      44.375  29.908  31.810  1.00  0.00     0.049 A 
ATOM     57  H   UNL A   1      44.504  31.762  30.816  1.00  0.00     0.167 HD
ATOM     58  C   UNL A   1      42.295  30.942  32.705  1.00  0.00     0.074 A 
ATOM     59  C   UNL A   1      41.952  31.941  31.696  1.00  0.00     0.031 C 
ATOM     60  C   UNL A   1      43.352  30.089  32.814  1.00  0.00     0.034 A 
BRANCH  47  61
ATOM     61  C   UNL A   1      44.512  31.726  27.819  1.00  0.00     0.023 A 
ATOM     62  C   UNL A   1      45.647  31.973  27.014  1.00  0.00     0.012 A 
ATOM     63  C   UNL A   1      43.747  32.846  28.215  1.00  0.00     0.148 A 
ATOM     64  C   UNL A   1      46.009  33.273  26.642  1.00  0.00     0.002 A 
ATOM     65  C   UNL A   1      44.066  34.125  27.779  1.00  0.00     0.091 A 
ATOM     66  F   UNL A   1      42.785  32.703  29.132  1.00  0.00    -0.205 F 
ATOM     67  C   UNL A   1      45.211  34.349  27.013  1.00  0.00     0.022 A 
BRANCH  65  68
ATOM     68  S   UNL A   1      43.048  35.543  28.204  1.00  0.00     0.127 S 
ATOM     69  O   UNL A   1      43.942  36.649  27.886  1.00  0.00    -0.237 OA
ATOM     70  O   UNL A   1      41.912  35.378  27.297  1.00  0.00    -0.237 OA
ATOM     71  O   UNL A   1      42.713  35.369  29.615  1.00  0.00    -0.744 OA
ENDBRANCH  65  68
ENDBRANCH  47  61
BRANCH  48  72
ATOM     72  C   UNL A   1      37.613  31.431  32.732  1.00  0.00     0.023 A 
ATOM     73  C   UNL A   1      37.395  31.993  34.010  1.00  0.00     0.012 A 
ATOM     74  C   UNL A   1      36.806  31.894  31.669  1.00  0.00     0.148 A 
ATOM     75  C   UNL A   1      36.458  33.016  34.208  1.00  0.00     0.002 A 
ATOM     76  C   UNL A   1      35.864  32.901  31.874  1.00  0.00     0.091 A 
ATOM     77  F   UNL A   1      37.026  31.425  30.434  1.00  0.00    -0.205 F 
ATOM     78  C   UNL A   1      35.701  33.478  33.138  1.00  0.00     0.022 A 
BRANCH  76  79
ATOM     79  S   UNL A   1      34.854  33.541  30.530  1.00  0.00     0.127 S 
ATOM     80  O   UNL A   1      34.254  32.317  29.990  1.00  0.00    -0.237 OA
ATOM     81  O   UNL A   1      33.920  34.413  31.243  1.00  0.00    -0.237 OA
ATOM     82  O   UNL A   1      35.776  34.203  29.623  1.00  0.00    -0.744 OA
ENDBRANCH  76  79
ENDBRANCH  48  72
BRANCH  60  83
ATOM     83  C   UNL A   1      43.334  29.057  33.909  1.00  0.00     0.023 A 
ATOM     84  C   UNL A   1      42.828  27.756  33.704  1.00  0.00     0.012 A 
ATOM     85  C   UNL A   1      44.076  29.332  35.069  1.00  0.00     0.148 A 
ATOM     86  C   UNL A   1      43.073  26.744  34.638  1.00  0.00     0.002 A 
ATOM     87  C   UNL A   1      44.356  28.314  35.969  1.00  0.00     0.091 A 
ATOM     88  F   UNL A   1      44.553  30.575  35.230  1.00  0.00    -0.205 F 
ATOM     89  C   UNL A   1      43.854  27.019  35.759  1.00  0.00     0.022 A 
BRANCH  87  90
ATOM     90  S   UNL A   1      45.469  28.557  37.355  1.00  0.00     0.127 S 
ATOM     91  O   UNL A   1      44.597  29.200  38.335  1.00  0.00    -0.237 OA
ATOM     92  O   UNL A   1      45.852  27.183  37.683  1.00  0.00    -0.237 OA
ATOM     93  O   UNL A   1      46.562  29.386  36.861  1.00  0.00    -0.744 OA
ENDBRANCH  87  90
ENDBRANCH  60  83
ENDBRANCH  34  35
ENDBRANCH  26  29
ENDBRANCH  24  25
ENDBRANCH   1  24
TORSDOF 17
ENDMDL
