MODEL 1
REMARK VINA RESULT:     -11.9      0.000      0.000
REMARK SMILES O=C(CCCN1C(=O)/C(=C/c2cc(Br)ccc2O)SC1=S)NCCCNC(=O)c1ccc(-c2c3nc(c(-c4cccc(S(=O)(=O)[O-])c4F)c4ccc([nH]4)c(-c4cccc(S(=O)(=O)[O-])c4F)c4nc(c(-c5cccc(S(=O)(=O)[O-])c5F)c5ccc2[nH]5)C=C4)C=C3)cc1
REMARK SMILES IDX 23 1 22 2 1 3 2 4 3 6 4 7 5 8 6 9 7 10 20 11 8 12 9 13 19 14
REMARK SMILES IDX 21 15 10 16 11 17 12 18 17 19 13 20 16 21 14 22 15 23 18 24
REMARK SMILES IDX 24 26 25 27 26 28 27 29 28 31 29 32 30 33 91 34 31 35 90 36
REMARK SMILES IDX 32 37 33 38 34 39 84 40 35 41 89 42 83 43 85 44 36 45 88 46
REMARK SMILES IDX 82 47 81 48 37 50 69 51 49 52 68 53 50 54 53 55 67 56 86 57
REMARK SMILES IDX 51 58 52 59 66 61 87 62 54 63 38 64 39 65 47 66 40 67 42 68
REMARK SMILES IDX 48 69 41 70 43 71 44 72 45 73 46 74 70 75 71 76 79 77 72 78
REMARK SMILES IDX 74 79 80 80 73 81 75 82 76 83 77 84 78 85 55 86 56 87 64 88
REMARK SMILES IDX 57 89 59 90 65 91 58 92 60 93 61 94 62 95 63 96
REMARK H PARENT 22 5 18 25 26 30 85 49 53 60
REMARK Flexibility Score: inf
ROOT
ATOM      1  C   UNL A   1      31.869  28.857  23.397  1.00  0.00     0.117 C 
ENDROOT
BRANCH   1   2
ATOM      2  N   UNL A   1      31.184  27.659  23.837  1.00  0.00    -0.356 N 
ATOM      3  O   UNL A   1      31.665  26.393  21.984  1.00  0.00    -0.275 OA
ATOM      4  C   UNL A   1      31.142  26.510  23.088  1.00  0.00     0.220 C 
ATOM      5  H   UNL A   1      30.730  27.670  24.711  1.00  0.00     0.163 HD
BRANCH   4   6
ATOM      6  C   UNL A   1      30.400  25.354  23.732  1.00  0.00     0.102 C 
BRANCH   6   7
ATOM      7  C   UNL A   1      30.431  25.404  25.262  1.00  0.00     0.032 C 
BRANCH   7   8
ATOM      8  C   UNL A   1      31.771  25.039  25.921  1.00  0.00     0.128 C 
BRANCH   8   9
ATOM      9  N   UNL A   1      32.396  23.847  25.339  1.00  0.00    -0.293 N 
ATOM     10  C   UNL A   1      31.873  22.610  25.652  1.00  0.00     0.266 C 
ATOM     11  C   UNL A   1      33.480  23.844  24.485  1.00  0.00     0.148 C 
ATOM     12  O   UNL A   1      30.925  22.418  26.404  1.00  0.00    -0.268 OA
ATOM     13  C   UNL A   1      32.559  21.533  24.907  1.00  0.00     0.081 C 
ATOM     14  S   UNL A   1      33.815  22.201  23.948  1.00  0.00    -0.054 SA
ATOM     15  S   UNL A   1      34.383  25.149  23.967  1.00  0.00    -0.052 S 
ATOM     16  C   UNL A   1      32.147  20.262  25.002  1.00  0.00     0.033 C 
BRANCH  16  17
ATOM     17  C   UNL A   1      32.748  19.118  24.310  1.00  0.00     0.019 A 
ATOM     18  C   UNL A   1      33.583  18.255  25.031  1.00  0.00     0.027 A 
ATOM     19  C   UNL A   1      32.536  18.882  22.945  1.00  0.00     0.122 A 
ATOM     20  C   UNL A   1      34.159  17.155  24.395  1.00  0.00     0.018 A 
ATOM     21  C   UNL A   1      33.109  17.779  22.313  1.00  0.00     0.048 A 
ATOM     22  Br  UNL A   1      35.271  15.983  25.378  1.00  0.00    -0.051 Br
ATOM     23  C   UNL A   1      33.919  16.908  23.044  1.00  0.00     0.019 A 
BRANCH  19  24
ATOM     24  O   UNL A   1      31.770  19.758  22.224  1.00  0.00    -0.507 OA
ATOM     25  H   UNL A   1      30.839  19.769  22.336  1.00  0.00     0.293 HD
ENDBRANCH  19  24
ENDBRANCH  16  17
ENDBRANCH   8   9
ENDBRANCH   7   8
ENDBRANCH   6   7
ENDBRANCH   4   6
ENDBRANCH   1   2
BRANCH   1  26
ATOM     26  C   UNL A   1      33.307  28.949  23.899  1.00  0.00     0.042 C 
BRANCH  26  27
ATOM     27  C   UNL A   1      33.494  29.184  25.397  1.00  0.00     0.118 C 
BRANCH  27  28
ATOM     28  N   UNL A   1      32.938  30.436  25.885  1.00  0.00    -0.352 N 
ATOM     29  C   UNL A   1      33.376  31.229  26.918  1.00  0.00     0.251 C 
ATOM     30  H   UNL A   1      32.138  30.757  25.412  1.00  0.00     0.163 HD
ATOM     31  O   UNL A   1      32.732  32.224  27.240  1.00  0.00    -0.269 OA
BRANCH  29  32
ATOM     32  C   UNL A   1      34.608  30.874  27.659  1.00  0.00     0.039 A 
ATOM     33  C   UNL A   1      34.656  29.650  28.330  1.00  0.00     0.014 A 
ATOM     34  C   UNL A   1      35.699  31.745  27.712  1.00  0.00     0.014 A 
ATOM     35  C   UNL A   1      35.815  29.280  29.018  1.00  0.00     0.010 A 
ATOM     36  C   UNL A   1      36.878  31.346  28.344  1.00  0.00     0.010 A 
ATOM     37  C   UNL A   1      36.946  30.115  29.015  1.00  0.00    -0.014 A 
BRANCH  37  38
ATOM     38  C   UNL A   1      38.190  29.709  29.723  1.00  0.00     0.031 A 
ATOM     39  C   UNL A   1      38.510  30.262  31.087  1.00  0.00     0.074 A 
ATOM     40  C   UNL A   1      39.062  28.873  29.121  1.00  0.00     0.049 A 
ATOM     41  N   UNL A   1      39.537  30.010  31.860  1.00  0.00    -0.248 NA
ATOM     42  C   UNL A   1      37.567  31.241  31.650  1.00  0.00     0.031 C 
ATOM     43  C   UNL A   1      38.911  28.323  27.772  1.00  0.00     0.029 A 
ATOM     44  N   UNL A   1      40.252  28.351  29.561  1.00  0.00    -0.354 N 
ATOM     45  C   UNL A   1      39.378  30.815  32.981  1.00  0.00     0.074 A 
ATOM     46  C   UNL A   1      38.177  31.593  32.772  1.00  0.00     0.031 C 
ATOM     47  C   UNL A   1      39.963  27.535  27.499  1.00  0.00     0.029 A 
ATOM     48  C   UNL A   1      40.874  27.539  28.640  1.00  0.00     0.049 A 
ATOM     49  H   UNL A   1      40.628  28.540  30.451  1.00  0.00     0.167 HD
ATOM     50  C   UNL A   1      40.142  30.881  34.098  1.00  0.00     0.034 A 
ATOM     51  C   UNL A   1      42.044  26.872  28.706  1.00  0.00     0.034 A 
ATOM     52  C   UNL A   1      41.319  30.083  34.321  1.00  0.00     0.049 A 
ATOM     53  C   UNL A   1      42.855  26.932  29.973  1.00  0.00     0.074 A 
ATOM     54  C   UNL A   1      42.115  30.023  35.452  1.00  0.00     0.029 A 
ATOM     55  N   UNL A   1      41.874  29.214  33.395  1.00  0.00    -0.354 N 
ATOM     56  N   UNL A   1      42.604  27.581  31.084  1.00  0.00    -0.248 NA
ATOM     57  C   UNL A   1      44.090  26.134  30.011  1.00  0.00     0.031 C 
ATOM     58  C   UNL A   1      43.170  29.139  35.197  1.00  0.00     0.029 A 
ATOM     59  C   UNL A   1      43.006  28.618  33.925  1.00  0.00     0.049 A 
ATOM     60  H   UNL A   1      41.516  29.046  32.494  1.00  0.00     0.167 HD
ATOM     61  C   UNL A   1      43.621  27.232  31.967  1.00  0.00     0.074 A 
ATOM     62  C   UNL A   1      44.482  26.303  31.266  1.00  0.00     0.031 C 
ATOM     63  C   UNL A   1      43.826  27.651  33.240  1.00  0.00     0.034 A 
BRANCH  50  64
ATOM     64  C   UNL A   1      39.703  31.822  35.191  1.00  0.00     0.023 A 
ATOM     65  C   UNL A   1      40.075  33.181  35.131  1.00  0.00     0.012 A 
ATOM     66  C   UNL A   1      38.882  31.377  36.245  1.00  0.00     0.148 A 
ATOM     67  C   UNL A   1      39.668  34.074  36.121  1.00  0.00     0.002 A 
ATOM     68  C   UNL A   1      38.443  32.283  37.204  1.00  0.00     0.091 A 
ATOM     69  F   UNL A   1      38.555  30.079  36.297  1.00  0.00    -0.205 F 
ATOM     70  C   UNL A   1      38.845  33.628  37.151  1.00  0.00     0.022 A 
BRANCH  68  71
ATOM     71  S   UNL A   1      37.324  31.822  38.531  1.00  0.00     0.127 S 
ATOM     72  O   UNL A   1      37.031  30.428  38.195  1.00  0.00    -0.237 OA
ATOM     73  O   UNL A   1      38.161  32.000  39.717  1.00  0.00    -0.237 OA
ATOM     74  O   UNL A   1      36.194  32.735  38.440  1.00  0.00    -0.744 OA
ENDBRANCH  68  71
ENDBRANCH  50  64
BRANCH  51  75
ATOM     75  C   UNL A   1      42.488  26.029  27.559  1.00  0.00     0.023 A 
ATOM     76  C   UNL A   1      43.359  26.572  26.593  1.00  0.00     0.012 A 
ATOM     77  C   UNL A   1      42.062  24.694  27.425  1.00  0.00     0.148 A 
ATOM     78  C   UNL A   1      43.766  25.814  25.494  1.00  0.00     0.002 A 
ATOM     79  C   UNL A   1      42.516  23.926  26.359  1.00  0.00     0.091 A 
ATOM     80  F   UNL A   1      41.226  24.199  28.349  1.00  0.00    -0.205 F 
ATOM     81  C   UNL A   1      43.352  24.489  25.382  1.00  0.00     0.022 A 
BRANCH  79  82
ATOM     82  S   UNL A   1      42.138  22.178  26.200  1.00  0.00     0.127 S 
ATOM     83  O   UNL A   1      42.894  21.815  25.004  1.00  0.00    -0.237 OA
ATOM     84  O   UNL A   1      42.669  21.642  27.454  1.00  0.00    -0.237 OA
ATOM     85  O   UNL A   1      40.688  22.098  26.080  1.00  0.00    -0.744 OA
ENDBRANCH  79  82
ENDBRANCH  51  75
BRANCH  63  86
ATOM     86  C   UNL A   1      44.996  27.067  33.992  1.00  0.00     0.023 A 
ATOM     87  C   UNL A   1      46.228  27.749  34.029  1.00  0.00     0.012 A 
ATOM     88  C   UNL A   1      44.849  25.868  34.717  1.00  0.00     0.148 A 
ATOM     89  C   UNL A   1      47.306  27.226  34.742  1.00  0.00     0.002 A 
ATOM     90  C   UNL A   1      45.911  25.381  35.470  1.00  0.00     0.091 A 
ATOM     91  F   UNL A   1      43.674  25.223  34.656  1.00  0.00    -0.205 F 
ATOM     92  C   UNL A   1      47.144  26.051  35.472  1.00  0.00     0.022 A 
BRANCH  90  93
ATOM     93  S   UNL A   1      45.759  23.932  36.520  1.00  0.00     0.127 S 
ATOM     94  O   UNL A   1      47.119  23.397  36.489  1.00  0.00    -0.237 OA
ATOM     95  O   UNL A   1      45.364  24.518  37.802  1.00  0.00    -0.237 OA
ATOM     96  O   UNL A   1      44.741  23.093  35.903  1.00  0.00    -0.744 OA
ENDBRANCH  90  93
ENDBRANCH  63  86
ENDBRANCH  37  38
ENDBRANCH  29  32
ENDBRANCH  27  28
ENDBRANCH  26  27
ENDBRANCH   1  26
TORSDOF 18
ENDMDL
MODEL 2
REMARK VINA RESULT:     -11.8      2.352      2.986
REMARK SMILES O=C(CCCN1C(=O)/C(=C/c2cc(Br)ccc2O)SC1=S)NCCCNC(=O)c1ccc(-c2c3nc(c(-c4cccc(S(=O)(=O)[O-])c4F)c4ccc([nH]4)c(-c4cccc(S(=O)(=O)[O-])c4F)c4nc(c(-c5cccc(S(=O)(=O)[O-])c5F)c5ccc2[nH]5)C=C4)C=C3)cc1
REMARK SMILES IDX 23 1 22 2 1 3 2 4 3 6 4 7 5 8 6 9 7 10 20 11 8 12 9 13 19 14
REMARK SMILES IDX 21 15 10 16 11 17 12 18 17 19 13 20 16 21 14 22 15 23 18 24
REMARK SMILES IDX 24 26 25 27 26 28 27 29 28 31 29 32 30 33 91 34 31 35 90 36
REMARK SMILES IDX 32 37 33 38 34 39 84 40 35 41 89 42 83 43 85 44 36 45 88 46
REMARK SMILES IDX 82 47 81 48 37 50 69 51 49 52 68 53 50 54 53 55 67 56 86 57
REMARK SMILES IDX 51 58 52 59 66 61 87 62 54 63 38 64 39 65 47 66 40 67 42 68
REMARK SMILES IDX 48 69 41 70 43 71 44 72 45 73 46 74 70 75 71 76 79 77 72 78
REMARK SMILES IDX 74 79 80 80 73 81 75 82 76 83 77 84 78 85 55 86 56 87 64 88
REMARK SMILES IDX 57 89 59 90 65 91 58 92 60 93 61 94 62 95 63 96
REMARK H PARENT 22 5 18 25 26 30 85 49 53 60
REMARK Flexibility Score: inf
ROOT
ATOM      1  C   UNL A   1      32.720  29.237  24.097  1.00  0.00     0.117 C 
ENDROOT
BRANCH   1   2
ATOM      2  N   UNL A   1      31.503  28.459  24.194  1.00  0.00    -0.356 N 
ATOM      3  O   UNL A   1      30.607  29.133  22.192  1.00  0.00    -0.275 OA
ATOM      4  C   UNL A   1      30.536  28.467  23.220  1.00  0.00     0.220 C 
ATOM      5  H   UNL A   1      31.363  27.900  24.993  1.00  0.00     0.163 HD
BRANCH   4   6
ATOM      6  C   UNL A   1      29.348  27.565  23.492  1.00  0.00     0.102 C 
BRANCH   6   7
ATOM      7  C   UNL A   1      29.724  26.298  24.265  1.00  0.00     0.032 C 
BRANCH   7   8
ATOM      8  C   UNL A   1      29.992  25.046  23.416  1.00  0.00     0.128 C 
BRANCH   8   9
ATOM      9  N   UNL A   1      31.374  24.565  23.511  1.00  0.00    -0.293 N 
ATOM     10  C   UNL A   1      31.713  23.741  24.564  1.00  0.00     0.266 C 
ATOM     11  C   UNL A   1      32.389  24.858  22.624  1.00  0.00     0.148 C 
ATOM     12  O   UNL A   1      30.949  23.389  25.455  1.00  0.00    -0.268 OA
ATOM     13  C   UNL A   1      33.111  23.274  24.451  1.00  0.00     0.081 C 
ATOM     14  S   UNL A   1      33.845  23.972  23.066  1.00  0.00    -0.054 SA
ATOM     15  S   UNL A   1      32.333  25.868  21.296  1.00  0.00    -0.052 S 
ATOM     16  C   UNL A   1      33.616  22.397  25.329  1.00  0.00     0.033 C 
BRANCH  16  17
ATOM     17  C   UNL A   1      34.981  21.865  25.312  1.00  0.00     0.019 A 
ATOM     18  C   UNL A   1      36.039  22.710  25.674  1.00  0.00     0.027 A 
ATOM     19  C   UNL A   1      35.261  20.550  24.916  1.00  0.00     0.122 A 
ATOM     20  C   UNL A   1      37.347  22.223  25.674  1.00  0.00     0.018 A 
ATOM     21  C   UNL A   1      36.568  20.065  24.922  1.00  0.00     0.048 A 
ATOM     22  Br  UNL A   1      38.769  23.362  26.182  1.00  0.00    -0.051 Br
ATOM     23  C   UNL A   1      37.615  20.904  25.309  1.00  0.00     0.019 A 
BRANCH  19  24
ATOM     24  O   UNL A   1      34.236  19.743  24.504  1.00  0.00    -0.507 OA
ATOM     25  H   UNL A   1      33.570  19.484  25.110  1.00  0.00     0.293 HD
ENDBRANCH  19  24
ENDBRANCH  16  17
ENDBRANCH   8   9
ENDBRANCH   7   8
ENDBRANCH   6   7
ENDBRANCH   4   6
ENDBRANCH   1   2
BRANCH   1  26
ATOM     26  C   UNL A   1      33.929  28.548  24.725  1.00  0.00     0.042 C 
BRANCH  26  27
ATOM     27  C   UNL A   1      34.072  28.666  26.241  1.00  0.00     0.118 C 
BRANCH  27  28
ATOM     28  N   UNL A   1      33.844  30.002  26.767  1.00  0.00    -0.352 N 
ATOM     29  C   UNL A   1      34.618  30.729  27.639  1.00  0.00     0.251 C 
ATOM     30  H   UNL A   1      33.022  30.445  26.456  1.00  0.00     0.163 HD
ATOM     31  O   UNL A   1      34.228  31.824  28.035  1.00  0.00    -0.269 OA
BRANCH  29  32
ATOM     32  C   UNL A   1      35.907  30.185  28.121  1.00  0.00     0.039 A 
ATOM     33  C   UNL A   1      37.030  30.290  27.296  1.00  0.00     0.014 A 
ATOM     34  C   UNL A   1      36.011  29.558  29.366  1.00  0.00     0.014 A 
ATOM     35  C   UNL A   1      38.264  29.805  27.737  1.00  0.00     0.010 A 
ATOM     36  C   UNL A   1      37.256  29.135  29.831  1.00  0.00     0.010 A 
ATOM     37  C   UNL A   1      38.395  29.242  29.018  1.00  0.00    -0.014 A 
BRANCH  37  38
ATOM     38  C   UNL A   1      39.715  28.752  29.499  1.00  0.00     0.031 A 
ATOM     39  C   UNL A   1      40.435  29.463  30.615  1.00  0.00     0.074 A 
ATOM     40  C   UNL A   1      40.294  27.688  28.903  1.00  0.00     0.049 A 
ATOM     41  N   UNL A   1      41.582  29.172  31.174  1.00  0.00    -0.248 NA
ATOM     42  C   UNL A   1      39.796  30.672  31.160  1.00  0.00     0.031 C 
ATOM     43  C   UNL A   1      39.741  26.954  27.764  1.00  0.00     0.029 A 
ATOM     44  N   UNL A   1      41.481  27.050  29.165  1.00  0.00    -0.354 N 
ATOM     45  C   UNL A   1      41.814  30.170  32.113  1.00  0.00     0.074 A 
ATOM     46  C   UNL A   1      40.708  31.097  32.021  1.00  0.00     0.031 C 
ATOM     47  C   UNL A   1      40.582  25.960  27.432  1.00  0.00     0.029 A 
ATOM     48  C   UNL A   1      41.743  26.000  28.316  1.00  0.00     0.049 A 
ATOM     49  H   UNL A   1      42.089  27.319  29.891  1.00  0.00     0.167 HD
ATOM     50  C   UNL A   1      42.837  30.290  32.994  1.00  0.00     0.034 A 
ATOM     51  C   UNL A   1      42.797  25.162  28.256  1.00  0.00     0.034 A 
ATOM     52  C   UNL A   1      43.920  29.350  33.110  1.00  0.00     0.049 A 
ATOM     53  C   UNL A   1      43.901  25.294  29.270  1.00  0.00     0.074 A 
ATOM     54  C   UNL A   1      44.960  29.345  34.022  1.00  0.00     0.029 A 
ATOM     55  N   UNL A   1      44.110  28.255  32.281  1.00  0.00    -0.354 N 
ATOM     56  N   UNL A   1      44.022  26.154  30.252  1.00  0.00    -0.248 NA
ATOM     57  C   UNL A   1      44.994  24.313  29.196  1.00  0.00     0.031 C 
ATOM     58  C   UNL A   1      45.796  28.263  33.727  1.00  0.00     0.029 A 
ATOM     59  C   UNL A   1      45.253  27.571  32.657  1.00  0.00     0.049 A 
ATOM     60  H   UNL A   1      43.519  28.001  31.537  1.00  0.00     0.167 HD
ATOM     61  C   UNL A   1      45.175  25.789  30.939  1.00  0.00     0.074 A 
ATOM     62  C   UNL A   1      45.708  24.620  30.270  1.00  0.00     0.031 C 
ATOM     63  C   UNL A   1      45.745  26.374  32.021  1.00  0.00     0.034 A 
BRANCH  50  64
ATOM     64  C   UNL A   1      42.809  31.463  33.941  1.00  0.00     0.023 A 
ATOM     65  C   UNL A   1      43.346  32.702  33.531  1.00  0.00     0.012 A 
ATOM     66  C   UNL A   1      42.208  31.359  35.209  1.00  0.00     0.148 A 
ATOM     67  C   UNL A   1      43.318  33.806  34.381  1.00  0.00     0.002 A 
ATOM     68  C   UNL A   1      42.144  32.476  36.035  1.00  0.00     0.091 A 
ATOM     69  F   UNL A   1      41.720  30.170  35.590  1.00  0.00    -0.205 F 
ATOM     70  C   UNL A   1      42.709  33.696  35.627  1.00  0.00     0.022 A 
BRANCH  68  71
ATOM     71  S   UNL A   1      41.319  32.456  37.629  1.00  0.00     0.127 S 
ATOM     72  O   UNL A   1      41.367  33.870  38.001  1.00  0.00    -0.237 OA
ATOM     73  O   UNL A   1      39.986  31.963  37.281  1.00  0.00    -0.237 OA
ATOM     74  O   UNL A   1      42.097  31.563  38.475  1.00  0.00    -0.744 OA
ENDBRANCH  68  71
ENDBRANCH  50  64
BRANCH  51  75
ATOM     75  C   UNL A   1      42.828  24.073  27.237  1.00  0.00     0.023 A 
ATOM     76  C   UNL A   1      43.463  24.298  25.999  1.00  0.00     0.012 A 
ATOM     77  C   UNL A   1      42.243  22.818  27.490  1.00  0.00     0.148 A 
ATOM     78  C   UNL A   1      43.479  23.306  25.017  1.00  0.00     0.002 A 
ATOM     79  C   UNL A   1      42.313  21.815  26.529  1.00  0.00     0.091 A 
ATOM     80  F   UNL A   1      41.636  22.627  28.671  1.00  0.00    -0.205 F 
ATOM     81  C   UNL A   1      42.913  22.063  25.286  1.00  0.00     0.022 A 
BRANCH  79  82
ATOM     82  S   UNL A   1      41.723  20.146  26.834  1.00  0.00     0.127 S 
ATOM     83  O   UNL A   1      41.948  19.509  25.540  1.00  0.00    -0.237 OA
ATOM     84  O   UNL A   1      42.617  19.704  27.905  1.00  0.00    -0.237 OA
ATOM     85  O   UNL A   1      40.330  20.288  27.236  1.00  0.00    -0.744 OA
ENDBRANCH  79  82
ENDBRANCH  51  75
BRANCH  63  86
ATOM     86  C   UNL A   1      46.982  25.733  32.597  1.00  0.00     0.023 A 
ATOM     87  C   UNL A   1      48.259  26.127  32.152  1.00  0.00     0.012 A 
ATOM     88  C   UNL A   1      46.875  24.782  33.631  1.00  0.00     0.148 A 
ATOM     89  C   UNL A   1      49.408  25.554  32.698  1.00  0.00     0.002 A 
ATOM     90  C   UNL A   1      48.024  24.256  34.208  1.00  0.00     0.091 A 
ATOM     91  F   UNL A   1      45.650  24.406  34.030  1.00  0.00    -0.205 F 
ATOM     92  C   UNL A   1      49.291  24.629  33.734  1.00  0.00     0.022 A 
BRANCH  90  93
ATOM     93  S   UNL A   1      47.968  23.139  35.614  1.00  0.00     0.127 S 
ATOM     94  O   UNL A   1      49.300  23.317  36.190  1.00  0.00    -0.237 OA
ATOM     95  O   UNL A   1      46.879  23.700  36.414  1.00  0.00    -0.237 OA
ATOM     96  O   UNL A   1      47.694  21.817  35.067  1.00  0.00    -0.744 OA
ENDBRANCH  90  93
ENDBRANCH  63  86
ENDBRANCH  37  38
ENDBRANCH  29  32
ENDBRANCH  27  28
ENDBRANCH  26  27
ENDBRANCH   1  26
TORSDOF 18
ENDMDL
MODEL 3
REMARK VINA RESULT:     -11.4      2.655      3.666
REMARK SMILES O=C(CCCN1C(=O)/C(=C/c2cc(Br)ccc2O)SC1=S)NCCCNC(=O)c1ccc(-c2c3nc(c(-c4cccc(S(=O)(=O)[O-])c4F)c4ccc([nH]4)c(-c4cccc(S(=O)(=O)[O-])c4F)c4nc(c(-c5cccc(S(=O)(=O)[O-])c5F)c5ccc2[nH]5)C=C4)C=C3)cc1
REMARK SMILES IDX 23 1 22 2 1 3 2 4 3 6 4 7 5 8 6 9 7 10 20 11 8 12 9 13 19 14
REMARK SMILES IDX 21 15 10 16 11 17 12 18 17 19 13 20 16 21 14 22 15 23 18 24
REMARK SMILES IDX 24 26 25 27 26 28 27 29 28 31 29 32 30 33 91 34 31 35 90 36
REMARK SMILES IDX 32 37 33 38 34 39 84 40 35 41 89 42 83 43 85 44 36 45 88 46
REMARK SMILES IDX 82 47 81 48 37 50 69 51 49 52 68 53 50 54 53 55 67 56 86 57
REMARK SMILES IDX 51 58 52 59 66 61 87 62 54 63 38 64 39 65 47 66 40 67 42 68
REMARK SMILES IDX 48 69 41 70 43 71 44 72 45 73 46 74 70 75 71 76 79 77 72 78
REMARK SMILES IDX 74 79 80 80 73 81 75 82 76 83 77 84 78 85 55 86 56 87 64 88
REMARK SMILES IDX 57 89 59 90 65 91 58 92 60 93 61 94 62 95 63 96
REMARK H PARENT 22 5 18 25 26 30 85 49 53 60
REMARK Flexibility Score: inf
ROOT
ATOM      1  C   UNL A   1      31.924  31.082  26.702  1.00  0.00     0.117 C 
ENDROOT
BRANCH   1   2
ATOM      2  N   UNL A   1      31.321  30.710  25.439  1.00  0.00    -0.356 N 
ATOM      3  O   UNL A   1      32.367  28.678  25.242  1.00  0.00    -0.275 OA
ATOM      4  C   UNL A   1      31.591  29.523  24.807  1.00  0.00     0.220 C 
ATOM      5  H   UNL A   1      30.689  31.337  25.016  1.00  0.00     0.163 HD
BRANCH   4   6
ATOM      6  C   UNL A   1      30.839  29.304  23.508  1.00  0.00     0.102 C 
BRANCH   6   7
ATOM      7  C   UNL A   1      31.613  28.442  22.507  1.00  0.00     0.032 C 
BRANCH   7   8
ATOM      8  C   UNL A   1      31.019  27.056  22.213  1.00  0.00     0.128 C 
BRANCH   8   9
ATOM      9  N   UNL A   1      31.661  25.977  22.970  1.00  0.00    -0.293 N 
ATOM     10  C   UNL A   1      32.781  25.373  22.436  1.00  0.00     0.266 C 
ATOM     11  C   UNL A   1      31.247  25.500  24.197  1.00  0.00     0.148 C 
ATOM     12  O   UNL A   1      33.281  25.654  21.353  1.00  0.00    -0.268 OA
ATOM     13  C   UNL A   1      33.352  24.381  23.370  1.00  0.00     0.081 C 
ATOM     14  S   UNL A   1      32.381  24.286  24.781  1.00  0.00    -0.054 SA
ATOM     15  S   UNL A   1      29.904  25.957  25.076  1.00  0.00    -0.052 S 
ATOM     16  C   UNL A   1      34.493  23.741  23.080  1.00  0.00     0.033 C 
BRANCH  16  17
ATOM     17  C   UNL A   1      35.150  22.743  23.929  1.00  0.00     0.019 A 
ATOM     18  C   UNL A   1      36.411  23.038  24.464  1.00  0.00     0.027 A 
ATOM     19  C   UNL A   1      34.569  21.496  24.193  1.00  0.00     0.122 A 
ATOM     20  C   UNL A   1      37.051  22.107  25.282  1.00  0.00     0.018 A 
ATOM     21  C   UNL A   1      35.210  20.569  25.014  1.00  0.00     0.048 A 
ATOM     22  Br  UNL A   1      38.744  22.517  26.018  1.00  0.00    -0.051 Br
ATOM     23  C   UNL A   1      36.454  20.879  25.566  1.00  0.00     0.019 A 
BRANCH  19  24
ATOM     24  O   UNL A   1      33.366  21.182  23.620  1.00  0.00    -0.507 OA
ATOM     25  H   UNL A   1      32.632  21.754  23.729  1.00  0.00     0.293 HD
ENDBRANCH  19  24
ENDBRANCH  16  17
ENDBRANCH   8   9
ENDBRANCH   7   8
ENDBRANCH   6   7
ENDBRANCH   4   6
ENDBRANCH   1   2
BRANCH   1  26
ATOM     26  C   UNL A   1      31.699  32.545  27.071  1.00  0.00     0.042 C 
BRANCH  26  27
ATOM     27  C   UNL A   1      32.944  33.364  27.409  1.00  0.00     0.118 C 
BRANCH  27  28
ATOM     28  N   UNL A   1      32.684  34.562  28.191  1.00  0.00    -0.352 N 
ATOM     29  C   UNL A   1      33.336  35.017  29.312  1.00  0.00     0.251 C 
ATOM     30  H   UNL A   1      31.939  35.122  27.875  1.00  0.00     0.163 HD
ATOM     31  O   UNL A   1      32.928  36.021  29.890  1.00  0.00    -0.269 OA
BRANCH  29  32
ATOM     32  C   UNL A   1      34.511  34.288  29.838  1.00  0.00     0.039 A 
ATOM     33  C   UNL A   1      35.768  34.559  29.292  1.00  0.00     0.014 A 
ATOM     34  C   UNL A   1      34.379  33.329  30.847  1.00  0.00     0.014 A 
ATOM     35  C   UNL A   1      36.897  33.900  29.787  1.00  0.00     0.010 A 
ATOM     36  C   UNL A   1      35.514  32.722  31.384  1.00  0.00     0.010 A 
ATOM     37  C   UNL A   1      36.786  32.990  30.852  1.00  0.00    -0.014 A 
BRANCH  37  38
ATOM     38  C   UNL A   1      37.991  32.311  31.399  1.00  0.00     0.031 A 
ATOM     39  C   UNL A   1      38.646  32.811  32.659  1.00  0.00     0.074 A 
ATOM     40  C   UNL A   1      38.529  31.265  30.738  1.00  0.00     0.049 A 
ATOM     41  N   UNL A   1      39.691  32.338  33.291  1.00  0.00    -0.248 NA
ATOM     42  C   UNL A   1      38.068  34.013  33.283  1.00  0.00     0.031 C 
ATOM     43  C   UNL A   1      38.039  30.726  29.467  1.00  0.00     0.029 A 
ATOM     44  N   UNL A   1      39.613  30.478  31.036  1.00  0.00    -0.354 N 
ATOM     45  C   UNL A   1      39.911  33.194  34.363  1.00  0.00     0.074 A 
ATOM     46  C   UNL A   1      38.915  34.239  34.276  1.00  0.00     0.031 C 
ATOM     47  C   UNL A   1      38.814  29.692  29.102  1.00  0.00     0.029 A 
ATOM     48  C   UNL A   1      39.868  29.507  30.095  1.00  0.00     0.049 A 
ATOM     49  H   UNL A   1      40.160  30.596  31.847  1.00  0.00     0.167 HD
ATOM     50  C   UNL A   1      40.835  33.104  35.350  1.00  0.00     0.034 A 
ATOM     51  C   UNL A   1      40.837  28.572  30.037  1.00  0.00     0.034 A 
ATOM     52  C   UNL A   1      41.805  32.046  35.456  1.00  0.00     0.049 A 
ATOM     53  C   UNL A   1      41.829  28.471  31.165  1.00  0.00     0.074 A 
ATOM     54  C   UNL A   1      42.731  31.828  36.460  1.00  0.00     0.029 A 
ATOM     55  N   UNL A   1      41.981  31.037  34.523  1.00  0.00    -0.354 N 
ATOM     56  N   UNL A   1      41.921  29.198  32.252  1.00  0.00    -0.248 NA
ATOM     57  C   UNL A   1      42.825  27.392  31.081  1.00  0.00     0.031 C 
ATOM     58  C   UNL A   1      43.489  30.701  36.119  1.00  0.00     0.029 A 
ATOM     59  C   UNL A   1      43.005  30.195  34.924  1.00  0.00     0.049 A 
ATOM     60  H   UNL A   1      41.455  30.933  33.697  1.00  0.00     0.167 HD
ATOM     61  C   UNL A   1      42.950  28.636  33.001  1.00  0.00     0.074 A 
ATOM     62  C   UNL A   1      43.441  27.499  32.250  1.00  0.00     0.031 C 
ATOM     63  C   UNL A   1      43.449  29.032  34.198  1.00  0.00     0.034 A 
BRANCH  50  64
ATOM     64  C   UNL A   1      40.814  34.160  36.425  1.00  0.00     0.023 A 
ATOM     65  C   UNL A   1      41.375  35.428  36.168  1.00  0.00     0.012 A 
ATOM     66  C   UNL A   1      40.194  33.920  37.667  1.00  0.00     0.148 A 
ATOM     67  C   UNL A   1      41.354  36.427  37.141  1.00  0.00     0.002 A 
ATOM     68  C   UNL A   1      40.137  34.934  38.616  1.00  0.00     0.091 A 
ATOM     69  F   UNL A   1      39.683  32.703  37.902  1.00  0.00    -0.205 F 
ATOM     70  C   UNL A   1      40.727  36.183  38.359  1.00  0.00     0.022 A 
BRANCH  68  71
ATOM     71  S   UNL A   1      39.291  34.744  40.188  1.00  0.00     0.127 S 
ATOM     72  O   UNL A   1      37.993  34.221  39.760  1.00  0.00    -0.237 OA
ATOM     73  O   UNL A   1      40.141  33.774  40.879  1.00  0.00    -0.237 OA
ATOM     74  O   UNL A   1      39.261  36.068  40.792  1.00  0.00    -0.744 OA
ENDBRANCH  68  71
ENDBRANCH  50  64
BRANCH  51  75
ATOM     75  C   UNL A   1      40.879  27.608  28.901  1.00  0.00     0.023 A 
ATOM     76  C   UNL A   1      39.978  26.524  28.875  1.00  0.00     0.012 A 
ATOM     77  C   UNL A   1      41.797  27.763  27.844  1.00  0.00     0.148 A 
ATOM     78  C   UNL A   1      40.017  25.591  27.838  1.00  0.00     0.002 A 
ATOM     79  C   UNL A   1      41.792  26.861  26.786  1.00  0.00     0.091 A 
ATOM     80  F   UNL A   1      42.652  28.795  27.893  1.00  0.00    -0.205 F 
ATOM     81  C   UNL A   1      40.917  25.765  26.790  1.00  0.00     0.022 A 
BRANCH  79  82
ATOM     82  S   UNL A   1      42.827  27.075  25.334  1.00  0.00     0.127 S 
ATOM     83  O   UNL A   1      44.145  27.266  25.933  1.00  0.00    -0.237 OA
ATOM     84  O   UNL A   1      42.641  25.798  24.643  1.00  0.00    -0.237 OA
ATOM     85  O   UNL A   1      42.281  28.226  24.627  1.00  0.00    -0.744 OA
ENDBRANCH  79  82
ENDBRANCH  51  75
BRANCH  63  86
ATOM     86  C   UNL A   1      44.548  28.202  34.811  1.00  0.00     0.023 A 
ATOM     87  C   UNL A   1      45.896  28.577  34.652  1.00  0.00     0.012 A 
ATOM     88  C   UNL A   1      44.233  27.079  35.603  1.00  0.00     0.148 A 
ATOM     89  C   UNL A   1      46.915  27.825  35.237  1.00  0.00     0.002 A 
ATOM     90  C   UNL A   1      45.250  26.367  36.227  1.00  0.00     0.091 A 
ATOM     91  F   UNL A   1      42.945  26.725  35.729  1.00  0.00    -0.205 F 
ATOM     92  C   UNL A   1      46.592  26.730  36.034  1.00  0.00     0.022 A 
BRANCH  90  93
ATOM     93  S   UNL A   1      44.919  25.007  37.353  1.00  0.00     0.127 S 
ATOM     94  O   UNL A   1      43.907  24.251  36.617  1.00  0.00    -0.237 OA
ATOM     95  O   UNL A   1      46.224  24.351  37.441  1.00  0.00    -0.237 OA
ATOM     96  O   UNL A   1      44.465  25.615  38.596  1.00  0.00    -0.744 OA
ENDBRANCH  90  93
ENDBRANCH  63  86
ENDBRANCH  37  38
ENDBRANCH  29  32
ENDBRANCH  27  28
ENDBRANCH  26  27
ENDBRANCH   1  26
TORSDOF 18
ENDMDL
