MODEL 1
REMARK VINA RESULT:     -11.2      0.000      0.000
REMARK SMILES C[C@@H]([N@@H+](C)[C@@H]1COC[C@@H]1C(=O)NCCCNC(=O)c1ccc(-c2c3nc(c(-c4cccc(S(=O)(=O)[O-])c4F)c4ccc([nH]4)c(-c4cccc(S(=O)(=O)[O-])c4F)c4nc(c(-c5cccc(S(=O)(=O)[O-])c5F)c5ccc2[nH]5)C=C4)C=C3)cc1)C1(C)CC1
REMARK SMILES IDX 14 1 13 2 12 3 10 4 11 5 9 7 5 8 6 9 7 10 8 11 3 12 4 13
REMARK SMILES IDX 2 15 1 16 82 17 83 18 84 19 85 20 15 21 16 22 17 23 18 25
REMARK SMILES IDX 19 26 20 27 81 28 21 29 80 30 22 31 23 32 24 33 74 34 25 35
REMARK SMILES IDX 79 36 73 37 75 38 26 39 78 40 72 41 71 42 27 44 59 45 39 46
REMARK SMILES IDX 58 47 40 48 43 49 57 50 76 51 41 52 42 53 56 55 77 56 44 57
REMARK SMILES IDX 28 58 29 59 37 60 30 61 32 62 38 63 31 64 33 65 34 66 35 67
REMARK SMILES IDX 36 68 60 69 61 70 69 71 62 72 64 73 70 74 63 75 65 76 66 77
REMARK SMILES IDX 67 78 68 79 45 80 46 81 54 82 47 83 49 84 55 85 48 86 50 87
REMARK SMILES IDX 51 88 52 89 53 90
REMARK H PARENT 12 6 3 14 16 24 75 43 43 54
REMARK Flexibility Score: inf
ROOT
ATOM      1  C   UNL A   1      34.878  21.982  26.936  1.00  0.00     0.042 C 
ENDROOT
BRANCH   1   2
ATOM      2  C   UNL A   1      33.449  21.466  26.697  1.00  0.00     0.117 C 
BRANCH   2   3
ATOM      3  N   UNL A   1      32.375  22.355  27.127  1.00  0.00    -0.356 N 
ATOM      4  C   UNL A   1      31.761  23.431  26.544  1.00  0.00     0.231 C 
ATOM      5  O   UNL A   1      30.787  23.888  27.148  1.00  0.00    -0.274 OA
ATOM      6  H   UNL A   1      32.017  22.135  28.018  1.00  0.00     0.163 HD
BRANCH   4   7
ATOM      7  C   UNL A   1      32.243  24.005  25.216  1.00  0.00     0.164 C 
ATOM      8  C   UNL A   1      31.433  25.077  24.461  1.00  0.00     0.225 C 
ATOM      9  C   UNL A   1      30.664  24.332  23.360  1.00  0.00     0.226 C 
ATOM     10  O   UNL A   1      31.200  23.011  23.262  1.00  0.00    -0.374 OA
ATOM     11  C   UNL A   1      32.296  22.878  24.174  1.00  0.00     0.180 C 
BRANCH   8  12
ATOM     12  N   UNL A   1      30.683  26.222  25.056  1.00  0.00    -0.330 N 
ATOM     13  C   UNL A   1      29.330  26.222  24.500  1.00  0.00     0.333 C 
ATOM     14  H   UNL A   1      30.596  26.077  26.062  1.00  0.00     0.348 HD
BRANCH  12  15
ATOM     15  C   UNL A   1      31.406  27.524  25.125  1.00  0.00     0.186 C 
ATOM     16  C   UNL A   1      32.369  27.639  23.914  1.00  0.00     0.076 C 
BRANCH  15  17
ATOM     17  C   UNL A   1      32.195  28.004  26.383  1.00  0.00     0.019 C 
ATOM     18  C   UNL A   1      33.666  27.593  26.379  1.00  0.00     0.018 C 
ATOM     19  C   UNL A   1      31.960  29.350  27.050  1.00  0.00     0.013 C 
ATOM     20  C   UNL A   1      31.526  28.083  27.736  1.00  0.00     0.013 C 
ENDBRANCH  15  17
ENDBRANCH  12  15
ENDBRANCH   8  12
ENDBRANCH   4   7
ENDBRANCH   2   3
ENDBRANCH   1   2
BRANCH   1  21
ATOM     21  C   UNL A   1      35.784  22.138  25.709  1.00  0.00     0.118 C 
BRANCH  21  22
ATOM     22  N   UNL A   1      36.801  21.108  25.609  1.00  0.00    -0.352 N 
ATOM     23  C   UNL A   1      38.166  21.169  25.779  1.00  0.00     0.251 C 
ATOM     24  H   UNL A   1      36.458  20.215  25.381  1.00  0.00     0.163 HD
ATOM     25  O   UNL A   1      38.826  20.169  25.492  1.00  0.00    -0.269 OA
BRANCH  23  26
ATOM     26  C   UNL A   1      38.881  22.382  26.268  1.00  0.00     0.039 A 
ATOM     27  C   UNL A   1      38.476  23.626  25.768  1.00  0.00     0.014 A 
ATOM     28  C   UNL A   1      40.006  22.329  27.098  1.00  0.00     0.014 A 
ATOM     29  C   UNL A   1      39.158  24.801  26.119  1.00  0.00     0.010 A 
ATOM     30  C   UNL A   1      40.661  23.515  27.488  1.00  0.00     0.010 A 
ATOM     31  C   UNL A   1      40.251  24.766  27.000  1.00  0.00    -0.014 A 
BRANCH  31  32
ATOM     32  C   UNL A   1      40.944  26.031  27.405  1.00  0.00     0.031 A 
ATOM     33  C   UNL A   1      42.382  26.295  27.027  1.00  0.00     0.074 A 
ATOM     34  C   UNL A   1      40.291  26.952  28.146  1.00  0.00     0.049 A 
ATOM     35  N   UNL A   1      43.132  27.334  27.303  1.00  0.00    -0.248 NA
ATOM     36  C   UNL A   1      43.069  25.257  26.245  1.00  0.00     0.031 C 
ATOM     37  C   UNL A   1      38.913  26.828  28.621  1.00  0.00     0.029 A 
ATOM     38  N   UNL A   1      40.704  28.167  28.645  1.00  0.00    -0.354 N 
ATOM     39  C   UNL A   1      44.385  27.065  26.760  1.00  0.00     0.074 A 
ATOM     40  C   UNL A   1      44.297  25.753  26.152  1.00  0.00     0.031 C 
ATOM     41  C   UNL A   1      38.594  27.916  29.340  1.00  0.00     0.029 A 
ATOM     42  C   UNL A   1      39.754  28.803  29.412  1.00  0.00     0.049 A 
ATOM     43  H   UNL A   1      41.596  28.546  28.470  1.00  0.00     0.167 HD
ATOM     44  C   UNL A   1      45.500  27.837  26.751  1.00  0.00     0.034 A 
ATOM     45  C   UNL A   1      39.804  29.957  30.111  1.00  0.00     0.034 A 
ATOM     46  C   UNL A   1      45.591  29.157  27.323  1.00  0.00     0.049 A 
ATOM     47  C   UNL A   1      41.057  30.793  30.087  1.00  0.00     0.074 A 
ATOM     48  C   UNL A   1      46.660  30.036  27.284  1.00  0.00     0.029 A 
ATOM     49  N   UNL A   1      44.592  29.780  28.052  1.00  0.00    -0.354 N 
ATOM     50  N   UNL A   1      42.179  30.581  29.444  1.00  0.00    -0.248 NA
ATOM     51  C   UNL A   1      41.040  32.045  30.862  1.00  0.00     0.031 C 
ATOM     52  C   UNL A   1      46.322  31.175  28.023  1.00  0.00     0.029 A 
ATOM     53  C   UNL A   1      45.026  31.023  28.486  1.00  0.00     0.049 A 
ATOM     54  H   UNL A   1      43.704  29.397  28.235  1.00  0.00     0.167 HD
ATOM     55  C   UNL A   1      42.982  31.689  29.701  1.00  0.00     0.074 A 
ATOM     56  C   UNL A   1      42.213  32.576  30.547  1.00  0.00     0.031 C 
ATOM     57  C   UNL A   1      44.246  31.937  29.280  1.00  0.00     0.034 A 
BRANCH  44  58
ATOM     58  C   UNL A   1      46.731  27.293  26.065  1.00  0.00     0.023 A 
ATOM     59  C   UNL A   1      46.915  27.509  24.684  1.00  0.00     0.012 A 
ATOM     60  C   UNL A   1      47.743  26.647  26.803  1.00  0.00     0.148 A 
ATOM     61  C   UNL A   1      48.069  27.060  24.042  1.00  0.00     0.002 A 
ATOM     62  C   UNL A   1      48.910  26.243  26.166  1.00  0.00     0.091 A 
ATOM     63  F   UNL A   1      47.547  26.442  28.113  1.00  0.00    -0.205 F 
ATOM     64  C   UNL A   1      49.069  26.437  24.783  1.00  0.00     0.022 A 
BRANCH  62  65
ATOM     65  S   UNL A   1      50.294  25.508  27.046  1.00  0.00     0.127 S 
ATOM     66  O   UNL A   1      51.258  25.309  25.965  1.00  0.00    -0.237 OA
ATOM     67  O   UNL A   1      50.652  26.563  27.995  1.00  0.00    -0.237 OA
ATOM     68  O   UNL A   1      49.781  24.290  27.657  1.00  0.00    -0.744 OA
ENDBRANCH  62  65
ENDBRANCH  44  58
BRANCH  45  69
ATOM     69  C   UNL A   1      38.607  30.418  30.873  1.00  0.00     0.023 A 
ATOM     70  C   UNL A   1      38.506  30.132  32.250  1.00  0.00     0.012 A 
ATOM     71  C   UNL A   1      37.574  31.141  30.246  1.00  0.00     0.148 A 
ATOM     72  C   UNL A   1      37.383  30.528  32.978  1.00  0.00     0.002 A 
ATOM     73  C   UNL A   1      36.488  31.586  30.990  1.00  0.00     0.091 A 
ATOM     74  F   UNL A   1      37.681  31.389  28.932  1.00  0.00    -0.205 F 
ATOM     75  C   UNL A   1      36.381  31.263  32.351  1.00  0.00     0.022 A 
BRANCH  73  76
ATOM     76  S   UNL A   1      35.217  32.650  30.301  1.00  0.00     0.127 S 
ATOM     77  O   UNL A   1      34.314  32.813  31.435  1.00  0.00    -0.237 OA
ATOM     78  O   UNL A   1      35.984  33.842  29.943  1.00  0.00    -0.237 OA
ATOM     79  O   UNL A   1      34.671  31.923  29.158  1.00  0.00    -0.744 OA
ENDBRANCH  73  76
ENDBRANCH  45  69
BRANCH  57  80
ATOM     80  C   UNL A   1      44.884  33.245  29.676  1.00  0.00     0.023 A 
ATOM     81  C   UNL A   1      45.680  33.323  30.835  1.00  0.00     0.012 A 
ATOM     82  C   UNL A   1      44.762  34.380  28.848  1.00  0.00     0.148 A 
ATOM     83  C   UNL A   1      46.321  34.514  31.179  1.00  0.00     0.002 A 
ATOM     84  C   UNL A   1      45.444  35.548  29.169  1.00  0.00     0.091 A 
ATOM     85  F   UNL A   1      43.985  34.294  27.757  1.00  0.00    -0.205 F 
ATOM     86  C   UNL A   1      46.214  35.621  30.340  1.00  0.00     0.022 A 
BRANCH  84  87
ATOM     87  S   UNL A   1      45.443  36.994  28.101  1.00  0.00     0.127 S 
ATOM     88  O   UNL A   1      46.137  37.978  28.931  1.00  0.00    -0.237 OA
ATOM     89  O   UNL A   1      46.208  36.524  26.946  1.00  0.00    -0.237 OA
ATOM     90  O   UNL A   1      44.045  37.290  27.823  1.00  0.00    -0.744 OA
ENDBRANCH  84  87
ENDBRANCH  57  80
ENDBRANCH  31  32
ENDBRANCH  23  26
ENDBRANCH  21  22
ENDBRANCH   1  21
TORSDOF 16
ENDMDL
MODEL 2
REMARK VINA RESULT:     -11.2      5.242      9.997
REMARK SMILES C[C@@H]([N@@H+](C)[C@@H]1COC[C@@H]1C(=O)NCCCNC(=O)c1ccc(-c2c3nc(c(-c4cccc(S(=O)(=O)[O-])c4F)c4ccc([nH]4)c(-c4cccc(S(=O)(=O)[O-])c4F)c4nc(c(-c5cccc(S(=O)(=O)[O-])c5F)c5ccc2[nH]5)C=C4)C=C3)cc1)C1(C)CC1
REMARK SMILES IDX 14 1 13 2 12 3 10 4 11 5 9 7 5 8 6 9 7 10 8 11 3 12 4 13
REMARK SMILES IDX 2 15 1 16 82 17 83 18 84 19 85 20 15 21 16 22 17 23 18 25
REMARK SMILES IDX 19 26 20 27 81 28 21 29 80 30 22 31 23 32 24 33 74 34 25 35
REMARK SMILES IDX 79 36 73 37 75 38 26 39 78 40 72 41 71 42 27 44 59 45 39 46
REMARK SMILES IDX 58 47 40 48 43 49 57 50 76 51 41 52 42 53 56 55 77 56 44 57
REMARK SMILES IDX 28 58 29 59 37 60 30 61 32 62 38 63 31 64 33 65 34 66 35 67
REMARK SMILES IDX 36 68 60 69 61 70 69 71 62 72 64 73 70 74 63 75 65 76 66 77
REMARK SMILES IDX 67 78 68 79 45 80 46 81 54 82 47 83 49 84 55 85 48 86 50 87
REMARK SMILES IDX 51 88 52 89 53 90
REMARK H PARENT 12 6 3 14 16 24 75 43 43 54
REMARK Flexibility Score: inf
ROOT
ATOM      1  C   UNL A   1      33.393  29.079  24.043  1.00  0.00     0.042 C 
ENDROOT
BRANCH   1   2
ATOM      2  C   UNL A   1      32.570  28.783  22.778  1.00  0.00     0.117 C 
BRANCH   2   3
ATOM      3  N   UNL A   1      33.009  27.634  21.992  1.00  0.00    -0.356 N 
ATOM      4  C   UNL A   1      32.958  26.282  22.200  1.00  0.00     0.231 C 
ATOM      5  O   UNL A   1      33.320  25.577  21.255  1.00  0.00    -0.274 OA
ATOM      6  H   UNL A   1      33.426  27.883  21.135  1.00  0.00     0.163 HD
BRANCH   4   7
ATOM      7  C   UNL A   1      32.455  25.693  23.514  1.00  0.00     0.164 C 
ATOM      8  C   UNL A   1      32.350  24.171  23.726  1.00  0.00     0.225 C 
ATOM      9  C   UNL A   1      30.872  23.811  23.505  1.00  0.00     0.226 C 
ATOM     10  O   UNL A   1      30.120  25.027  23.481  1.00  0.00    -0.374 OA
ATOM     11  C   UNL A   1      30.998  26.130  23.732  1.00  0.00     0.180 C 
BRANCH   8  12
ATOM     12  N   UNL A   1      33.304  23.128  23.247  1.00  0.00    -0.330 N 
ATOM     13  C   UNL A   1      32.614  22.289  22.267  1.00  0.00     0.333 C 
ATOM     14  H   UNL A   1      34.079  23.582  22.764  1.00  0.00     0.348 HD
BRANCH  12  15
ATOM     15  C   UNL A   1      34.120  22.447  24.292  1.00  0.00     0.186 C 
ATOM     16  C   UNL A   1      33.345  21.212  24.822  1.00  0.00     0.076 C 
BRANCH  15  17
ATOM     17  C   UNL A   1      34.711  23.182  25.536  1.00  0.00     0.019 C 
ATOM     18  C   UNL A   1      33.829  23.093  26.779  1.00  0.00     0.018 C 
ATOM     19  C   UNL A   1      36.196  23.198  25.865  1.00  0.00     0.013 C 
ATOM     20  C   UNL A   1      35.519  24.449  25.377  1.00  0.00     0.013 C 
ENDBRANCH  15  17
ENDBRANCH  12  15
ENDBRANCH   8  12
ENDBRANCH   4   7
ENDBRANCH   2   3
ENDBRANCH   1   2
BRANCH   1  21
ATOM     21  C   UNL A   1      32.644  29.107  25.380  1.00  0.00     0.118 C 
BRANCH  21  22
ATOM     22  N   UNL A   1      32.294  30.446  25.817  1.00  0.00    -0.352 N 
ATOM     23  C   UNL A   1      32.873  31.267  26.758  1.00  0.00     0.251 C 
ATOM     24  H   UNL A   1      31.511  30.833  25.364  1.00  0.00     0.163 HD
ATOM     25  O   UNL A   1      32.289  32.313  27.045  1.00  0.00    -0.269 OA
BRANCH  23  26
ATOM     26  C   UNL A   1      34.151  30.947  27.456  1.00  0.00     0.039 A 
ATOM     27  C   UNL A   1      34.292  29.665  28.005  1.00  0.00     0.014 A 
ATOM     28  C   UNL A   1      35.154  31.891  27.696  1.00  0.00     0.014 A 
ATOM     29  C   UNL A   1      35.431  29.321  28.748  1.00  0.00     0.010 A 
ATOM     30  C   UNL A   1      36.319  31.530  28.402  1.00  0.00     0.010 A 
ATOM     31  C   UNL A   1      36.472  30.243  28.943  1.00  0.00    -0.014 A 
BRANCH  31  32
ATOM     32  C   UNL A   1      37.705  29.852  29.699  1.00  0.00     0.031 A 
ATOM     33  C   UNL A   1      37.983  30.391  31.082  1.00  0.00     0.074 A 
ATOM     34  C   UNL A   1      38.608  29.021  29.135  1.00  0.00     0.049 A 
ATOM     35  N   UNL A   1      39.005  30.158  31.870  1.00  0.00    -0.248 NA
ATOM     36  C   UNL A   1      36.992  31.315  31.652  1.00  0.00     0.031 C 
ATOM     37  C   UNL A   1      38.502  28.445  27.795  1.00  0.00     0.029 A 
ATOM     38  N   UNL A   1      39.804  28.531  29.611  1.00  0.00    -0.354 N 
ATOM     39  C   UNL A   1      38.800  30.928  33.011  1.00  0.00     0.074 A 
ATOM     40  C   UNL A   1      37.560  31.649  32.804  1.00  0.00     0.031 C 
ATOM     41  C   UNL A   1      39.581  27.683  27.555  1.00  0.00     0.029 A 
ATOM     42  C   UNL A   1      40.479  27.742  28.706  1.00  0.00     0.049 A 
ATOM     43  H   UNL A   1      40.144  28.725  30.514  1.00  0.00     0.167 HD
ATOM     44  C   UNL A   1      39.556  31.019  34.133  1.00  0.00     0.034 A 
ATOM     45  C   UNL A   1      41.687  27.144  28.778  1.00  0.00     0.034 A 
ATOM     46  C   UNL A   1      40.773  30.283  34.365  1.00  0.00     0.049 A 
ATOM     47  C   UNL A   1      42.509  27.265  30.035  1.00  0.00     0.074 A 
ATOM     48  C   UNL A   1      41.555  30.257  35.508  1.00  0.00     0.029 A 
ATOM     49  N   UNL A   1      41.397  29.463  33.441  1.00  0.00    -0.354 N 
ATOM     50  N   UNL A   1      42.221  27.882  31.154  1.00  0.00    -0.248 NA
ATOM     51  C   UNL A   1      43.812  26.580  30.049  1.00  0.00     0.031 C 
ATOM     52  C   UNL A   1      42.672  29.453  35.260  1.00  0.00     0.029 A 
ATOM     53  C   UNL A   1      42.564  28.942  33.978  1.00  0.00     0.049 A 
ATOM     54  H   UNL A   1      41.061  29.275  32.534  1.00  0.00     0.167 HD
ATOM     55  C   UNL A   1      43.282  27.625  32.016  1.00  0.00     0.074 A 
ATOM     56  C   UNL A   1      44.214  26.784  31.296  1.00  0.00     0.031 C 
ATOM     57  C   UNL A   1      43.468  28.059  33.287  1.00  0.00     0.034 A 
BRANCH  44  58
ATOM     58  C   UNL A   1      39.078  31.932  35.237  1.00  0.00     0.023 A 
ATOM     59  C   UNL A   1      39.182  33.330  35.081  1.00  0.00     0.012 A 
ATOM     60  C   UNL A   1      38.450  31.410  36.385  1.00  0.00     0.148 A 
ATOM     61  C   UNL A   1      38.700  34.192  36.067  1.00  0.00     0.002 A 
ATOM     62  C   UNL A   1      37.931  32.276  37.341  1.00  0.00     0.091 A 
ATOM     63  F   UNL A   1      38.369  30.079  36.520  1.00  0.00    -0.205 F 
ATOM     64  C   UNL A   1      38.067  33.666  37.190  1.00  0.00     0.022 A 
BRANCH  62  65
ATOM     65  S   UNL A   1      37.022  31.702  38.781  1.00  0.00     0.127 S 
ATOM     66  O   UNL A   1      38.010  31.884  39.844  1.00  0.00    -0.237 OA
ATOM     67  O   UNL A   1      35.897  32.636  38.829  1.00  0.00    -0.237 OA
ATOM     68  O   UNL A   1      36.655  30.320  38.501  1.00  0.00    -0.744 OA
ENDBRANCH  62  65
ENDBRANCH  44  58
BRANCH  45  69
ATOM     69  C   UNL A   1      42.187  26.337  27.627  1.00  0.00     0.023 A 
ATOM     70  C   UNL A   1      43.038  26.934  26.676  1.00  0.00     0.012 A 
ATOM     71  C   UNL A   1      41.830  24.983  27.474  1.00  0.00     0.148 A 
ATOM     72  C   UNL A   1      43.495  26.207  25.575  1.00  0.00     0.002 A 
ATOM     73  C   UNL A   1      42.339  24.248  26.410  1.00  0.00     0.091 A 
ATOM     74  F   UNL A   1      41.007  24.437  28.381  1.00  0.00    -0.205 F 
ATOM     75  C   UNL A   1      43.155  24.863  25.448  1.00  0.00     0.022 A 
BRANCH  73  76
ATOM     76  S   UNL A   1      42.064  22.482  26.238  1.00  0.00     0.127 S 
ATOM     77  O   UNL A   1      40.611  22.413  26.127  1.00  0.00    -0.237 OA
ATOM     78  O   UNL A   1      42.795  22.182  25.007  1.00  0.00    -0.237 OA
ATOM     79  O   UNL A   1      42.636  21.876  27.437  1.00  0.00    -0.744 OA
ENDBRANCH  73  76
ENDBRANCH  45  69
BRANCH  57  80
ATOM     80  C   UNL A   1      44.703  27.600  34.023  1.00  0.00     0.023 A 
ATOM     81  C   UNL A   1      45.865  28.395  34.021  1.00  0.00     0.012 A 
ATOM     82  C   UNL A   1      44.679  26.416  34.788  1.00  0.00     0.148 A 
ATOM     83  C   UNL A   1      46.993  28.007  34.745  1.00  0.00     0.002 A 
ATOM     84  C   UNL A   1      45.789  26.061  35.548  1.00  0.00     0.091 A 
ATOM     85  F   UNL A   1      43.571  25.661  34.765  1.00  0.00    -0.205 F 
ATOM     86  C   UNL A   1      46.950  26.848  35.518  1.00  0.00     0.022 A 
BRANCH  84  87
ATOM     87  S   UNL A   1      45.794  24.640  36.648  1.00  0.00     0.127 S 
ATOM     88  O   UNL A   1      45.667  23.531  35.703  1.00  0.00    -0.237 OA
ATOM     89  O   UNL A   1      47.106  24.749  37.286  1.00  0.00    -0.237 OA
ATOM     90  O   UNL A   1      44.664  24.821  37.549  1.00  0.00    -0.744 OA
ENDBRANCH  84  87
ENDBRANCH  57  80
ENDBRANCH  31  32
ENDBRANCH  23  26
ENDBRANCH  21  22
ENDBRANCH   1  21
TORSDOF 16
ENDMDL
MODEL 3
REMARK VINA RESULT:     -11.1      4.573      9.421
REMARK SMILES C[C@@H]([N@@H+](C)[C@@H]1COC[C@@H]1C(=O)NCCCNC(=O)c1ccc(-c2c3nc(c(-c4cccc(S(=O)(=O)[O-])c4F)c4ccc([nH]4)c(-c4cccc(S(=O)(=O)[O-])c4F)c4nc(c(-c5cccc(S(=O)(=O)[O-])c5F)c5ccc2[nH]5)C=C4)C=C3)cc1)C1(C)CC1
REMARK SMILES IDX 14 1 13 2 12 3 10 4 11 5 9 7 5 8 6 9 7 10 8 11 3 12 4 13
REMARK SMILES IDX 2 15 1 16 82 17 83 18 84 19 85 20 15 21 16 22 17 23 18 25
REMARK SMILES IDX 19 26 20 27 81 28 21 29 80 30 22 31 23 32 24 33 74 34 25 35
REMARK SMILES IDX 79 36 73 37 75 38 26 39 78 40 72 41 71 42 27 44 59 45 39 46
REMARK SMILES IDX 58 47 40 48 43 49 57 50 76 51 41 52 42 53 56 55 77 56 44 57
REMARK SMILES IDX 28 58 29 59 37 60 30 61 32 62 38 63 31 64 33 65 34 66 35 67
REMARK SMILES IDX 36 68 60 69 61 70 69 71 62 72 64 73 70 74 63 75 65 76 66 77
REMARK SMILES IDX 67 78 68 79 45 80 46 81 54 82 47 83 49 84 55 85 48 86 50 87
REMARK SMILES IDX 51 88 52 89 53 90
REMARK H PARENT 12 6 3 14 16 24 75 43 43 54
REMARK Flexibility Score: inf
ROOT
ATOM      1  C   UNL A   1      33.209  28.774  24.668  1.00  0.00     0.042 C 
ENDROOT
BRANCH   1   2
ATOM      2  C   UNL A   1      33.728  27.670  23.733  1.00  0.00     0.117 C 
BRANCH   2   3
ATOM      3  N   UNL A   1      32.728  26.717  23.263  1.00  0.00    -0.356 N 
ATOM      4  C   UNL A   1      31.953  25.784  23.898  1.00  0.00     0.231 C 
ATOM      5  O   UNL A   1      31.108  25.218  23.199  1.00  0.00    -0.274 OA
ATOM      6  H   UNL A   1      32.579  26.752  22.290  1.00  0.00     0.163 HD
BRANCH   4   7
ATOM      7  C   UNL A   1      32.113  25.489  25.386  1.00  0.00     0.164 C 
ATOM      8  C   UNL A   1      32.132  24.045  25.924  1.00  0.00     0.225 C 
ATOM      9  C   UNL A   1      30.721  23.774  26.468  1.00  0.00     0.226 C 
ATOM     10  O   UNL A   1      30.029  25.022  26.541  1.00  0.00    -0.374 OA
ATOM     11  C   UNL A   1      30.912  26.077  26.144  1.00  0.00     0.180 C 
BRANCH   8  12
ATOM     12  N   UNL A   1      32.774  22.857  25.287  1.00  0.00    -0.330 N 
ATOM     13  C   UNL A   1      31.837  21.737  25.358  1.00  0.00     0.333 C 
ATOM     14  H   UNL A   1      32.935  23.055  24.299  1.00  0.00     0.348 HD
BRANCH  12  15
ATOM     15  C   UNL A   1      34.196  22.598  25.652  1.00  0.00     0.186 C 
ATOM     16  C   UNL A   1      34.397  22.885  27.162  1.00  0.00     0.076 C 
BRANCH  15  17
ATOM     17  C   UNL A   1      35.406  23.236  24.901  1.00  0.00     0.019 C 
ATOM     18  C   UNL A   1      36.471  23.813  25.831  1.00  0.00     0.018 C 
ATOM     19  C   UNL A   1      35.990  22.659  23.621  1.00  0.00     0.013 C 
ATOM     20  C   UNL A   1      35.214  23.947  23.581  1.00  0.00     0.013 C 
ENDBRANCH  15  17
ENDBRANCH  12  15
ENDBRANCH   8  12
ENDBRANCH   4   7
ENDBRANCH   2   3
ENDBRANCH   1   2
BRANCH   1  21
ATOM     21  C   UNL A   1      33.698  28.754  26.120  1.00  0.00     0.118 C 
BRANCH  21  22
ATOM     22  N   UNL A   1      33.561  30.033  26.793  1.00  0.00    -0.352 N 
ATOM     23  C   UNL A   1      34.376  30.665  27.705  1.00  0.00     0.251 C 
ATOM     24  H   UNL A   1      32.747  30.534  26.558  1.00  0.00     0.163 HD
ATOM     25  O   UNL A   1      33.954  31.692  28.238  1.00  0.00    -0.269 OA
BRANCH  23  26
ATOM     26  C   UNL A   1      35.724  30.160  28.092  1.00  0.00     0.039 A 
ATOM     27  C   UNL A   1      35.872  29.600  29.368  1.00  0.00     0.014 A 
ATOM     28  C   UNL A   1      36.865  30.329  27.300  1.00  0.00     0.014 A 
ATOM     29  C   UNL A   1      37.129  29.182  29.830  1.00  0.00     0.010 A 
ATOM     30  C   UNL A   1      38.118  29.865  27.747  1.00  0.00     0.010 A 
ATOM     31  C   UNL A   1      38.270  29.291  29.020  1.00  0.00    -0.014 A 
BRANCH  31  32
ATOM     32  C   UNL A   1      39.599  28.800  29.505  1.00  0.00     0.031 A 
ATOM     33  C   UNL A   1      40.341  29.507  30.615  1.00  0.00     0.074 A 
ATOM     34  C   UNL A   1      40.171  27.720  28.931  1.00  0.00     0.049 A 
ATOM     35  N   UNL A   1      41.504  29.217  31.148  1.00  0.00    -0.248 NA
ATOM     36  C   UNL A   1      39.701  30.696  31.195  1.00  0.00     0.031 C 
ATOM     37  C   UNL A   1      39.599  26.951  27.826  1.00  0.00     0.029 A 
ATOM     38  N   UNL A   1      41.370  27.092  29.185  1.00  0.00    -0.354 N 
ATOM     39  C   UNL A   1      41.751  30.200  32.100  1.00  0.00     0.074 A 
ATOM     40  C   UNL A   1      40.622  31.107  32.059  1.00  0.00     0.031 C 
ATOM     41  C   UNL A   1      40.441  25.958  27.497  1.00  0.00     0.029 A 
ATOM     42  C   UNL A   1      41.633  26.037  28.338  1.00  0.00     0.049 A 
ATOM     43  H   UNL A   1      41.982  27.370  29.903  1.00  0.00     0.167 HD
ATOM     44  C   UNL A   1      42.805  30.334  32.943  1.00  0.00     0.034 A 
ATOM     45  C   UNL A   1      42.711  25.231  28.232  1.00  0.00     0.034 A 
ATOM     46  C   UNL A   1      43.918  29.421  33.017  1.00  0.00     0.049 A 
ATOM     47  C   UNL A   1      43.870  25.404  29.178  1.00  0.00     0.074 A 
ATOM     48  C   UNL A   1      44.986  29.441  33.898  1.00  0.00     0.029 A 
ATOM     49  N   UNL A   1      44.123  28.343  32.172  1.00  0.00    -0.354 N 
ATOM     50  N   UNL A   1      44.011  26.253  30.166  1.00  0.00    -0.248 NA
ATOM     51  C   UNL A   1      45.010  24.485  29.014  1.00  0.00     0.031 C 
ATOM     52  C   UNL A   1      45.856  28.398  33.562  1.00  0.00     0.029 A 
ATOM     53  C   UNL A   1      45.308  27.703  32.497  1.00  0.00     0.049 A 
ATOM     54  H   UNL A   1      43.515  28.071  31.447  1.00  0.00     0.167 HD
ATOM     55  C   UNL A   1      45.229  25.945  30.764  1.00  0.00     0.074 A 
ATOM     56  C   UNL A   1      45.781  24.821  30.038  1.00  0.00     0.031 C 
ATOM     57  C   UNL A   1      45.836  26.549  31.815  1.00  0.00     0.034 A 
BRANCH  44  58
ATOM     58  C   UNL A   1      42.805  31.503  33.898  1.00  0.00     0.023 A 
ATOM     59  C   UNL A   1      43.243  32.768  33.454  1.00  0.00     0.012 A 
ATOM     60  C   UNL A   1      42.290  31.370  35.203  1.00  0.00     0.148 A 
ATOM     61  C   UNL A   1      43.203  33.873  34.306  1.00  0.00     0.002 A 
ATOM     62  C   UNL A   1      42.210  32.485  36.030  1.00  0.00     0.091 A 
ATOM     63  F   UNL A   1      41.887  30.158  35.611  1.00  0.00    -0.205 F 
ATOM     64  C   UNL A   1      42.678  33.734  35.588  1.00  0.00     0.022 A 
BRANCH  62  65
ATOM     65  S   UNL A   1      41.472  32.429  37.668  1.00  0.00     0.127 S 
ATOM     66  O   UNL A   1      41.599  33.822  38.095  1.00  0.00    -0.237 OA
ATOM     67  O   UNL A   1      40.103  32.004  37.375  1.00  0.00    -0.237 OA
ATOM     68  O   UNL A   1      42.258  31.468  38.431  1.00  0.00    -0.744 OA
ENDBRANCH  62  65
ENDBRANCH  44  58
BRANCH  45  69
ATOM     69  C   UNL A   1      42.734  24.151  27.204  1.00  0.00     0.023 A 
ATOM     70  C   UNL A   1      43.379  24.378  25.971  1.00  0.00     0.012 A 
ATOM     71  C   UNL A   1      42.127  22.903  27.441  1.00  0.00     0.148 A 
ATOM     72  C   UNL A   1      43.389  23.392  24.982  1.00  0.00     0.002 A 
ATOM     73  C   UNL A   1      42.195  21.904  26.476  1.00  0.00     0.091 A 
ATOM     74  F   UNL A   1      41.505  22.712  28.613  1.00  0.00    -0.205 F 
ATOM     75  C   UNL A   1      42.807  22.154  25.239  1.00  0.00     0.022 A 
BRANCH  73  76
ATOM     76  S   UNL A   1      41.592  20.238  26.767  1.00  0.00     0.127 S 
ATOM     77  O   UNL A   1      40.196  20.481  27.115  1.00  0.00    -0.237 OA
ATOM     78  O   UNL A   1      41.806  19.609  25.465  1.00  0.00    -0.237 OA
ATOM     79  O   UNL A   1      42.426  19.699  27.837  1.00  0.00    -0.744 OA
ENDBRANCH  73  76
ENDBRANCH  45  69
BRANCH  57  80
ATOM     80  C   UNL A   1      47.152  25.989  32.296  1.00  0.00     0.023 A 
ATOM     81  C   UNL A   1      48.364  26.488  31.782  1.00  0.00     0.012 A 
ATOM     82  C   UNL A   1      47.185  25.024  33.323  1.00  0.00     0.148 A 
ATOM     83  C   UNL A   1      49.587  26.016  32.261  1.00  0.00     0.002 A 
ATOM     84  C   UNL A   1      48.406  24.595  33.832  1.00  0.00     0.091 A 
ATOM     85  F   UNL A   1      46.021  24.546  33.789  1.00  0.00    -0.205 F 
ATOM     86  C   UNL A   1      49.608  25.081  33.294  1.00  0.00     0.022 A 
BRANCH  84  87
ATOM     87  S   UNL A   1      48.532  23.466  35.225  1.00  0.00     0.127 S 
ATOM     88  O   UNL A   1      49.976  23.246  35.299  1.00  0.00    -0.237 OA
ATOM     89  O   UNL A   1      47.980  24.264  36.319  1.00  0.00    -0.237 OA
ATOM     90  O   UNL A   1      47.743  22.296  34.869  1.00  0.00    -0.744 OA
ENDBRANCH  84  87
ENDBRANCH  57  80
ENDBRANCH  31  32
ENDBRANCH  23  26
ENDBRANCH  21  22
ENDBRANCH   1  21
TORSDOF 16
ENDMDL
