MODEL 1
REMARK VINA RESULT:     -12.1      0.000      0.000
REMARK SMILES C[C@H]1[C@@H](C(=O)NCCCNC(=O)c2ccc(-c3c4nc(c(-c5cccc(S(=O)(=O)[O-])c5F)c5ccc([nH]5)c(-c5cccc(S(=O)(=O)[O-])c5F)c5nc(c(-c6cccc(S(=O)(=O)[O-])c6F)c6ccc3[nH]6)C=C5)C=C4)cc2)CCN1C(=O)c1cc([N+](=O)[O-])ccc1Br
REMARK SMILES IDX 8 1 7 2 6 3 4 4 5 5 3 7 1 8 2 9 78 10 76 11 77 12 79 13
REMARK SMILES IDX 80 14 81 15 82 16 89 17 83 18 88 19 90 20 87 21 84 22 85 23
REMARK SMILES IDX 86 24 9 25 10 26 11 27 12 29 13 30 14 31 75 32 15 33 74 34
REMARK SMILES IDX 16 35 17 36 18 37 68 38 19 39 73 40 67 41 69 42 20 43 72 44
REMARK SMILES IDX 66 45 65 46 21 48 53 49 33 50 52 51 34 52 37 53 51 54 70 55
REMARK SMILES IDX 35 56 36 57 50 59 71 60 38 61 22 62 23 63 31 64 24 65 26 66
REMARK SMILES IDX 32 67 25 68 27 69 28 70 29 71 30 72 54 73 55 74 63 75 56 76
REMARK SMILES IDX 58 77 64 78 57 79 59 80 60 81 61 82 62 83 39 84 40 85 48 86
REMARK SMILES IDX 41 87 43 88 49 89 42 90 44 91 45 92 46 93 47 94
REMARK H PARENT 6 6 10 28 69 47 37 58
REMARK Flexibility Score: inf
ROOT
ATOM      1  C   UNL A   1      31.649  30.312  25.987  1.00  0.00     0.042 C 
ENDROOT
BRANCH   1   2
ATOM      2  C   UNL A   1      32.100  29.273  24.951  1.00  0.00     0.117 C 
BRANCH   2   3
ATOM      3  N   UNL A   1      30.972  28.742  24.201  1.00  0.00    -0.356 N 
ATOM      4  C   UNL A   1      30.617  27.479  23.833  1.00  0.00     0.225 C 
ATOM      5  O   UNL A   1      29.625  27.394  23.104  1.00  0.00    -0.275 OA
ATOM      6  H   UNL A   1      30.340  29.434  23.899  1.00  0.00     0.163 HD
BRANCH   4   7
ATOM      7  C   UNL A   1      31.322  26.229  24.379  1.00  0.00     0.102 C 
ATOM      8  C   UNL A   1      33.186  26.561  22.591  1.00  0.00     0.032 C 
ATOM      9  C   UNL A   1      32.606  25.696  23.688  1.00  0.00     0.094 C 
ATOM     10  N   UNL A   1      32.263  24.379  23.146  1.00  0.00    -0.335 N 
ATOM     11  C   UNL A   1      30.374  25.001  24.336  1.00  0.00     0.037 C 
ATOM     12  C   UNL A   1      30.828  24.214  23.117  1.00  0.00     0.121 C 
BRANCH  10  13
ATOM     13  C   UNL A   1      33.125  23.393  22.679  1.00  0.00     0.255 C 
ATOM     14  O   UNL A   1      33.646  23.404  21.569  1.00  0.00    -0.269 OA
BRANCH  13  15
ATOM     15  C   UNL A   1      33.452  22.269  23.590  1.00  0.00     0.061 A 
ATOM     16  C   UNL A   1      32.652  21.116  23.518  1.00  0.00     0.100 A 
ATOM     17  C   UNL A   1      34.569  22.301  24.436  1.00  0.00     0.031 A 
ATOM     18  C   UNL A   1      33.050  19.963  24.209  1.00  0.00     0.270 A 
ATOM     19  C   UNL A   1      34.936  21.153  25.147  1.00  0.00     0.023 A 
ATOM     20  Br  UNL A   1      35.635  23.856  24.661  1.00  0.00    -0.050 Br
ATOM     21  C   UNL A   1      34.191  19.977  25.021  1.00  0.00     0.087 A 
BRANCH  18  22
ATOM     22  N   UNL A   1      32.343  18.694  23.989  1.00  0.00     0.062 N 
ATOM     23  O   UNL A   1      32.159  18.351  22.816  1.00  0.00    -0.258 OA
ATOM     24  O   UNL A   1      32.067  18.022  24.992  1.00  0.00    -0.258 OA
ENDBRANCH  18  22
ENDBRANCH  13  15
ENDBRANCH  10  13
ENDBRANCH   4   7
ENDBRANCH   2   3
ENDBRANCH   1   2
BRANCH   1  25
ATOM     25  C   UNL A   1      32.683  30.663  27.047  1.00  0.00     0.118 C 
BRANCH  25  26
ATOM     26  N   UNL A   1      32.908  32.093  27.115  1.00  0.00    -0.352 N 
ATOM     27  C   UNL A   1      33.874  32.820  27.769  1.00  0.00     0.251 C 
ATOM     28  H   UNL A   1      32.262  32.634  26.607  1.00  0.00     0.163 HD
ATOM     29  O   UNL A   1      33.680  34.026  27.916  1.00  0.00    -0.269 OA
BRANCH  27  30
ATOM     30  C   UNL A   1      35.125  32.210  28.301  1.00  0.00     0.039 A 
ATOM     31  C   UNL A   1      35.055  30.917  28.836  1.00  0.00     0.014 A 
ATOM     32  C   UNL A   1      36.333  32.907  28.390  1.00  0.00     0.014 A 
ATOM     33  C   UNL A   1      36.178  30.330  29.434  1.00  0.00     0.010 A 
ATOM     34  C   UNL A   1      37.479  32.285  28.897  1.00  0.00     0.010 A 
ATOM     35  C   UNL A   1      37.409  31.004  29.461  1.00  0.00    -0.014 A 
BRANCH  35  36
ATOM     36  C   UNL A   1      38.606  30.400  30.115  1.00  0.00     0.031 A 
ATOM     37  C   UNL A   1      39.016  30.822  31.507  1.00  0.00     0.074 A 
ATOM     38  C   UNL A   1      39.363  29.509  29.444  1.00  0.00     0.049 A 
ATOM     39  N   UNL A   1      40.032  30.419  32.229  1.00  0.00    -0.248 NA
ATOM     40  C   UNL A   1      38.194  31.850  32.166  1.00  0.00     0.031 C 
ATOM     41  C   UNL A   1      39.138  29.078  28.063  1.00  0.00     0.029 A 
ATOM     42  N   UNL A   1      40.489  28.819  29.826  1.00  0.00    -0.354 N 
ATOM     43  C   UNL A   1      39.993  31.168  33.400  1.00  0.00     0.074 A 
ATOM     44  C   UNL A   1      38.877  32.080  33.278  1.00  0.00     0.031 C 
ATOM     45  C   UNL A   1      40.089  28.196  27.716  1.00  0.00     0.029 A 
ATOM     46  C   UNL A   1      41.002  28.010  28.838  1.00  0.00     0.049 A 
ATOM     47  H   UNL A   1      40.891  28.898  30.722  1.00  0.00     0.167 HD
ATOM     48  C   UNL A   1      40.786  31.085  34.498  1.00  0.00     0.034 A 
ATOM     49  C   UNL A   1      42.084  27.207  28.836  1.00  0.00     0.034 A 
ATOM     50  C   UNL A   1      41.861  30.141  34.646  1.00  0.00     0.049 A 
ATOM     51  C   UNL A   1      42.906  27.076  30.090  1.00  0.00     0.074 A 
ATOM     52  C   UNL A   1      42.664  29.916  35.751  1.00  0.00     0.029 A 
ATOM     53  N   UNL A   1      42.285  29.263  33.660  1.00  0.00    -0.354 N 
ATOM     54  N   UNL A   1      42.749  27.675  31.246  1.00  0.00    -0.248 NA
ATOM     55  C   UNL A   1      44.028  26.125  30.054  1.00  0.00     0.031 C 
ATOM     56  C   UNL A   1      43.583  28.910  35.427  1.00  0.00     0.029 A 
ATOM     57  C   UNL A   1      43.338  28.496  34.128  1.00  0.00     0.049 A 
ATOM     58  H   UNL A   1      41.894  29.194  32.759  1.00  0.00     0.167 HD
ATOM     59  C   UNL A   1      43.734  27.158  32.082  1.00  0.00     0.074 A 
ATOM     60  C   UNL A   1      44.462  26.173  31.307  1.00  0.00     0.031 C 
ATOM     61  C   UNL A   1      44.023  27.483  33.365  1.00  0.00     0.034 A 
BRANCH  48  62
ATOM     62  C   UNL A   1      40.472  31.996  35.658  1.00  0.00     0.023 A 
ATOM     63  C   UNL A   1      41.320  33.091  35.926  1.00  0.00     0.012 A 
ATOM     64  C   UNL A   1      39.321  31.808  36.449  1.00  0.00     0.148 A 
ATOM     65  C   UNL A   1      41.053  33.958  36.985  1.00  0.00     0.002 A 
ATOM     66  C   UNL A   1      39.036  32.703  37.475  1.00  0.00     0.091 A 
ATOM     67  F   UNL A   1      38.534  30.753  36.194  1.00  0.00    -0.205 F 
ATOM     68  C   UNL A   1      39.908  33.770  37.752  1.00  0.00     0.022 A 
BRANCH  66  69
ATOM     69  S   UNL A   1      37.546  32.595  38.473  1.00  0.00     0.127 S 
ATOM     70  O   UNL A   1      37.857  33.512  39.569  1.00  0.00    -0.237 OA
ATOM     71  O   UNL A   1      36.519  33.076  37.549  1.00  0.00    -0.237 OA
ATOM     72  O   UNL A   1      37.416  31.193  38.846  1.00  0.00    -0.744 OA
ENDBRANCH  66  69
ENDBRANCH  48  62
BRANCH  49  73
ATOM     73  C   UNL A   1      42.404  26.400  27.624  1.00  0.00     0.023 A 
ATOM     74  C   UNL A   1      43.143  26.988  26.578  1.00  0.00     0.012 A 
ATOM     75  C   UNL A   1      42.015  25.051  27.516  1.00  0.00     0.148 A 
ATOM     76  C   UNL A   1      43.464  26.257  25.434  1.00  0.00     0.002 A 
ATOM     77  C   UNL A   1      42.381  24.314  26.394  1.00  0.00     0.091 A 
ATOM     78  F   UNL A   1      41.303  24.514  28.515  1.00  0.00    -0.205 F 
ATOM     79  C   UNL A   1      43.093  24.919  25.347  1.00  0.00     0.022 A 
BRANCH  77  80
ATOM     80  S   UNL A   1      42.038  22.556  26.241  1.00  0.00     0.127 S 
ATOM     81  O   UNL A   1      42.641  22.029  27.466  1.00  0.00    -0.237 OA
ATOM     82  O   UNL A   1      40.572  22.534  26.225  1.00  0.00    -0.237 OA
ATOM     83  O   UNL A   1      42.663  22.137  25.001  1.00  0.00    -0.744 OA
ENDBRANCH  77  80
ENDBRANCH  49  73
BRANCH  61  84
ATOM     84  C   UNL A   1      45.163  26.756  34.030  1.00  0.00     0.023 A 
ATOM     85  C   UNL A   1      46.464  27.298  33.971  1.00  0.00     0.012 A 
ATOM     86  C   UNL A   1      44.941  25.576  34.763  1.00  0.00     0.148 A 
ATOM     87  C   UNL A   1      47.529  26.655  34.600  1.00  0.00     0.002 A 
ATOM     88  C   UNL A   1      46.000  24.966  35.427  1.00  0.00     0.091 A 
ATOM     89  F   UNL A   1      43.702  25.063  34.793  1.00  0.00    -0.205 F 
ATOM     90  C   UNL A   1      47.296  25.496  35.336  1.00  0.00     0.022 A 
BRANCH  88  91
ATOM     91  S   UNL A   1      45.771  23.523  36.474  1.00  0.00     0.127 S 
ATOM     92  O   UNL A   1      45.345  22.515  35.505  1.00  0.00    -0.237 OA
ATOM     93  O   UNL A   1      47.113  23.316  37.021  1.00  0.00    -0.237 OA
ATOM     94  O   UNL A   1      44.773  23.905  37.465  1.00  0.00    -0.744 OA
ENDBRANCH  88  91
ENDBRANCH  61  84
ENDBRANCH  35  36
ENDBRANCH  27  30
ENDBRANCH  25  26
ENDBRANCH   1  25
TORSDOF 16
ENDMDL
MODEL 2
REMARK VINA RESULT:     -12.1      1.748      2.235
REMARK SMILES C[C@H]1[C@@H](C(=O)NCCCNC(=O)c2ccc(-c3c4nc(c(-c5cccc(S(=O)(=O)[O-])c5F)c5ccc([nH]5)c(-c5cccc(S(=O)(=O)[O-])c5F)c5nc(c(-c6cccc(S(=O)(=O)[O-])c6F)c6ccc3[nH]6)C=C5)C=C4)cc2)CCN1C(=O)c1cc([N+](=O)[O-])ccc1Br
REMARK SMILES IDX 8 1 7 2 6 3 4 4 5 5 3 7 1 8 2 9 78 10 76 11 77 12 79 13
REMARK SMILES IDX 80 14 81 15 82 16 89 17 83 18 88 19 90 20 87 21 84 22 85 23
REMARK SMILES IDX 86 24 9 25 10 26 11 27 12 29 13 30 14 31 75 32 15 33 74 34
REMARK SMILES IDX 16 35 17 36 18 37 68 38 19 39 73 40 67 41 69 42 20 43 72 44
REMARK SMILES IDX 66 45 65 46 21 48 53 49 33 50 52 51 34 52 37 53 51 54 70 55
REMARK SMILES IDX 35 56 36 57 50 59 71 60 38 61 22 62 23 63 31 64 24 65 26 66
REMARK SMILES IDX 32 67 25 68 27 69 28 70 29 71 30 72 54 73 55 74 63 75 56 76
REMARK SMILES IDX 58 77 64 78 57 79 59 80 60 81 61 82 62 83 39 84 40 85 48 86
REMARK SMILES IDX 41 87 43 88 49 89 42 90 44 91 45 92 46 93 47 94
REMARK H PARENT 6 6 10 28 69 47 37 58
REMARK Flexibility Score: inf
ROOT
ATOM      1  C   UNL A   1      33.365  28.064  27.041  1.00  0.00     0.042 C 
ENDROOT
BRANCH   1   2
ATOM      2  C   UNL A   1      31.839  28.191  27.154  1.00  0.00     0.117 C 
BRANCH   2   3
ATOM      3  N   UNL A   1      31.204  28.179  25.845  1.00  0.00    -0.356 N 
ATOM      4  C   UNL A   1      31.105  27.229  24.872  1.00  0.00     0.225 C 
ATOM      5  O   UNL A   1      30.564  27.591  23.825  1.00  0.00    -0.275 OA
ATOM      6  H   UNL A   1      30.756  29.025  25.617  1.00  0.00     0.163 HD
BRANCH   4   7
ATOM      7  C   UNL A   1      31.527  25.769  25.096  1.00  0.00     0.102 C 
ATOM      8  C   UNL A   1      33.775  26.285  23.888  1.00  0.00     0.032 C 
ATOM      9  C   UNL A   1      32.869  25.249  24.514  1.00  0.00     0.094 C 
ATOM     10  N   UNL A   1      32.517  24.236  23.516  1.00  0.00    -0.335 N 
ATOM     11  C   UNL A   1      30.485  24.797  24.480  1.00  0.00     0.037 C 
ATOM     12  C   UNL A   1      31.117  24.342  23.174  1.00  0.00     0.121 C 
BRANCH  10  13
ATOM     13  C   UNL A   1      33.350  23.298  22.917  1.00  0.00     0.255 C 
ATOM     14  O   UNL A   1      33.799  23.404  21.781  1.00  0.00    -0.269 OA
BRANCH  13  15
ATOM     15  C   UNL A   1      33.736  22.105  23.709  1.00  0.00     0.061 A 
ATOM     16  C   UNL A   1      32.834  21.028  23.751  1.00  0.00     0.100 A 
ATOM     17  C   UNL A   1      34.990  22.000  24.327  1.00  0.00     0.031 A 
ATOM     18  C   UNL A   1      33.247  19.812  24.314  1.00  0.00     0.270 A 
ATOM     19  C   UNL A   1      35.376  20.790  24.915  1.00  0.00     0.023 A 
ATOM     20  Br  UNL A   1      36.218  23.447  24.399  1.00  0.00    -0.050 Br
ATOM     21  C   UNL A   1      34.516  19.689  24.894  1.00  0.00     0.087 A 
BRANCH  18  22
ATOM     22  N   UNL A   1      32.398  18.620  24.189  1.00  0.00     0.062 N 
ATOM     23  O   UNL A   1      32.001  18.103  25.240  1.00  0.00    -0.258 OA
ATOM     24  O   UNL A   1      32.069  18.280  23.045  1.00  0.00    -0.258 OA
ENDBRANCH  18  22
ENDBRANCH  13  15
ENDBRANCH  10  13
ENDBRANCH   4   7
ENDBRANCH   2   3
ENDBRANCH   1   2
BRANCH   1  25
ATOM     25  C   UNL A   1      34.043  29.120  26.180  1.00  0.00     0.118 C 
BRANCH  25  26
ATOM     26  N   UNL A   1      33.864  30.448  26.732  1.00  0.00    -0.352 N 
ATOM     27  C   UNL A   1      34.505  31.084  27.768  1.00  0.00     0.251 C 
ATOM     28  H   UNL A   1      33.168  30.985  26.289  1.00  0.00     0.163 HD
ATOM     29  O   UNL A   1      33.976  32.092  28.235  1.00  0.00    -0.269 OA
BRANCH  27  30
ATOM     30  C   UNL A   1      35.794  30.602  28.340  1.00  0.00     0.039 A 
ATOM     31  C   UNL A   1      36.958  30.765  27.577  1.00  0.00     0.014 A 
ATOM     32  C   UNL A   1      35.876  29.903  29.546  1.00  0.00     0.014 A 
ATOM     33  C   UNL A   1      38.182  30.248  28.024  1.00  0.00     0.010 A 
ATOM     34  C   UNL A   1      37.114  29.474  30.040  1.00  0.00     0.010 A 
ATOM     35  C   UNL A   1      38.276  29.606  29.269  1.00  0.00    -0.014 A 
BRANCH  35  36
ATOM     36  C   UNL A   1      39.568  29.032  29.745  1.00  0.00     0.031 A 
ATOM     37  C   UNL A   1      40.313  29.667  30.896  1.00  0.00     0.074 A 
ATOM     38  C   UNL A   1      40.106  27.968  29.115  1.00  0.00     0.049 A 
ATOM     39  N   UNL A   1      41.454  29.317  31.438  1.00  0.00    -0.248 NA
ATOM     40  C   UNL A   1      39.715  30.867  31.503  1.00  0.00     0.031 C 
ATOM     41  C   UNL A   1      39.542  27.311  27.935  1.00  0.00     0.029 A 
ATOM     42  N   UNL A   1      41.260  27.266  29.366  1.00  0.00    -0.354 N 
ATOM     43  C   UNL A   1      41.725  30.270  32.414  1.00  0.00     0.074 A 
ATOM     44  C   UNL A   1      40.651  31.238  32.364  1.00  0.00     0.031 C 
ATOM     45  C   UNL A   1      40.345  26.299  27.568  1.00  0.00     0.029 A 
ATOM     46  C   UNL A   1      41.490  26.246  28.471  1.00  0.00     0.049 A 
ATOM     47  H   UNL A   1      41.866  27.473  30.113  1.00  0.00     0.167 HD
ATOM     48  C   UNL A   1      42.751  30.323  33.299  1.00  0.00     0.034 A 
ATOM     49  C   UNL A   1      42.506  25.364  28.387  1.00  0.00     0.034 A 
ATOM     50  C   UNL A   1      43.790  29.333  33.389  1.00  0.00     0.049 A 
ATOM     51  C   UNL A   1      43.596  25.397  29.425  1.00  0.00     0.074 A 
ATOM     52  C   UNL A   1      44.822  29.247  34.307  1.00  0.00     0.029 A 
ATOM     53  N   UNL A   1      43.931  28.254  32.529  1.00  0.00    -0.354 N 
ATOM     54  N   UNL A   1      43.743  26.211  30.442  1.00  0.00    -0.248 NA
ATOM     55  C   UNL A   1      44.636  24.361  29.330  1.00  0.00     0.031 C 
ATOM     56  C   UNL A   1      45.595  28.122  33.995  1.00  0.00     0.029 A 
ATOM     57  C   UNL A   1      45.032  27.497  32.894  1.00  0.00     0.049 A 
ATOM     58  H   UNL A   1      43.335  28.053  31.772  1.00  0.00     0.167 HD
ATOM     59  C   UNL A   1      44.875  25.774  31.122  1.00  0.00     0.074 A 
ATOM     60  C   UNL A   1      45.356  24.602  30.418  1.00  0.00     0.031 C 
ATOM     61  C   UNL A   1      45.473  26.304  32.216  1.00  0.00     0.034 A 
BRANCH  48  62
ATOM     62  C   UNL A   1      42.760  31.458  34.293  1.00  0.00     0.023 A 
ATOM     63  C   UNL A   1      43.520  32.613  34.017  1.00  0.00     0.012 A 
ATOM     64  C   UNL A   1      41.983  31.411  35.468  1.00  0.00     0.148 A 
ATOM     65  C   UNL A   1      43.542  33.684  34.910  1.00  0.00     0.002 A 
ATOM     66  C   UNL A   1      41.975  32.501  36.332  1.00  0.00     0.091 A 
ATOM     67  F   UNL A   1      41.279  30.300  35.726  1.00  0.00    -0.205 F 
ATOM     68  C   UNL A   1      42.763  33.632  36.061  1.00  0.00     0.022 A 
BRANCH  66  69
ATOM     69  S   UNL A   1      40.945  32.566  37.804  1.00  0.00     0.127 S 
ATOM     70  O   UNL A   1      41.763  31.832  38.768  1.00  0.00    -0.237 OA
ATOM     71  O   UNL A   1      40.852  34.004  38.053  1.00  0.00    -0.237 OA
ATOM     72  O   UNL A   1      39.685  31.932  37.438  1.00  0.00    -0.744 OA
ENDBRANCH  66  69
ENDBRANCH  48  62
BRANCH  49  73
ATOM     73  C   UNL A   1      42.496  24.322  27.321  1.00  0.00     0.023 A 
ATOM     74  C   UNL A   1      43.397  24.427  26.243  1.00  0.00     0.012 A 
ATOM     75  C   UNL A   1      41.629  23.214  27.386  1.00  0.00     0.148 A 
ATOM     76  C   UNL A   1      43.416  23.464  25.234  1.00  0.00     0.002 A 
ATOM     77  C   UNL A   1      41.687  22.232  26.402  1.00  0.00     0.091 A 
ATOM     78  F   UNL A   1      40.771  23.139  28.412  1.00  0.00    -0.205 F 
ATOM     79  C   UNL A   1      42.570  22.362  25.319  1.00  0.00     0.022 A 
BRANCH  77  80
ATOM     80  S   UNL A   1      40.709  20.726  26.483  1.00  0.00     0.127 S 
ATOM     81  O   UNL A   1      41.441  19.848  25.570  1.00  0.00    -0.237 OA
ATOM     82  O   UNL A   1      40.827  20.365  27.900  1.00  0.00    -0.237 OA
ATOM     83  O   UNL A   1      39.372  21.099  26.063  1.00  0.00    -0.744 OA
ENDBRANCH  77  80
ENDBRANCH  49  73
BRANCH  61  84
ATOM     84  C   UNL A   1      46.707  25.617  32.740  1.00  0.00     0.023 A 
ATOM     85  C   UNL A   1      47.976  25.993  32.251  1.00  0.00     0.012 A 
ATOM     86  C   UNL A   1      46.619  24.646  33.756  1.00  0.00     0.148 A 
ATOM     87  C   UNL A   1      49.132  25.387  32.741  1.00  0.00     0.002 A 
ATOM     88  C   UNL A   1      47.780  24.080  34.271  1.00  0.00     0.091 A 
ATOM     89  F   UNL A   1      45.405  24.286  34.196  1.00  0.00    -0.205 F 
ATOM     90  C   UNL A   1      49.036  24.440  33.757  1.00  0.00     0.022 A 
BRANCH  88  91
ATOM     91  S   UNL A   1      47.753  22.922  35.646  1.00  0.00     0.127 S 
ATOM     92  O   UNL A   1      46.987  21.811  35.085  1.00  0.00    -0.237 OA
ATOM     93  O   UNL A   1      49.176  22.642  35.848  1.00  0.00    -0.237 OA
ATOM     94  O   UNL A   1      47.120  23.630  36.750  1.00  0.00    -0.744 OA
ENDBRANCH  88  91
ENDBRANCH  61  84
ENDBRANCH  35  36
ENDBRANCH  27  30
ENDBRANCH  25  26
ENDBRANCH   1  25
TORSDOF 16
ENDMDL
MODEL 3
REMARK VINA RESULT:     -12.1      1.574      1.990
REMARK SMILES C[C@H]1[C@@H](C(=O)NCCCNC(=O)c2ccc(-c3c4nc(c(-c5cccc(S(=O)(=O)[O-])c5F)c5ccc([nH]5)c(-c5cccc(S(=O)(=O)[O-])c5F)c5nc(c(-c6cccc(S(=O)(=O)[O-])c6F)c6ccc3[nH]6)C=C5)C=C4)cc2)CCN1C(=O)c1cc([N+](=O)[O-])ccc1Br
REMARK SMILES IDX 8 1 7 2 6 3 4 4 5 5 3 7 1 8 2 9 78 10 76 11 77 12 79 13
REMARK SMILES IDX 80 14 81 15 82 16 89 17 83 18 88 19 90 20 87 21 84 22 85 23
REMARK SMILES IDX 86 24 9 25 10 26 11 27 12 29 13 30 14 31 75 32 15 33 74 34
REMARK SMILES IDX 16 35 17 36 18 37 68 38 19 39 73 40 67 41 69 42 20 43 72 44
REMARK SMILES IDX 66 45 65 46 21 48 53 49 33 50 52 51 34 52 37 53 51 54 70 55
REMARK SMILES IDX 35 56 36 57 50 59 71 60 38 61 22 62 23 63 31 64 24 65 26 66
REMARK SMILES IDX 32 67 25 68 27 69 28 70 29 71 30 72 54 73 55 74 63 75 56 76
REMARK SMILES IDX 58 77 64 78 57 79 59 80 60 81 61 82 62 83 39 84 40 85 48 86
REMARK SMILES IDX 41 87 43 88 49 89 42 90 44 91 45 92 46 93 47 94
REMARK H PARENT 6 6 10 28 69 47 37 58
REMARK Flexibility Score: inf
ROOT
ATOM      1  C   UNL A   1      33.040  29.152  24.141  1.00  0.00     0.042 C 
ENDROOT
BRANCH   1   2
ATOM      2  C   UNL A   1      31.879  28.957  23.156  1.00  0.00     0.117 C 
BRANCH   2   3
ATOM      3  N   UNL A   1      32.097  27.807  22.293  1.00  0.00    -0.356 N 
ATOM      4  C   UNL A   1      32.007  26.463  22.500  1.00  0.00     0.225 C 
ATOM      5  O   UNL A   1      32.360  25.752  21.555  1.00  0.00    -0.275 OA
ATOM      6  H   UNL A   1      32.362  28.048  21.376  1.00  0.00     0.163 HD
BRANCH   4   7
ATOM      7  C   UNL A   1      31.396  25.862  23.774  1.00  0.00     0.102 C 
ATOM      8  C   UNL A   1      33.796  25.642  24.761  1.00  0.00     0.032 C 
ATOM      9  C   UNL A   1      32.319  25.354  24.915  1.00  0.00     0.094 C 
ATOM     10  N   UNL A   1      32.107  23.906  24.999  1.00  0.00    -0.335 N 
ATOM     11  C   UNL A   1      30.546  24.607  23.436  1.00  0.00     0.037 C 
ATOM     12  C   UNL A   1      31.437  23.434  23.810  1.00  0.00     0.121 C 
BRANCH  10  13
ATOM     13  C   UNL A   1      32.489  23.043  26.019  1.00  0.00     0.255 C 
ATOM     14  O   UNL A   1      32.215  23.213  27.202  1.00  0.00    -0.269 OA
BRANCH  13  15
ATOM     15  C   UNL A   1      33.257  21.829  25.650  1.00  0.00     0.061 A 
ATOM     16  C   UNL A   1      32.532  20.678  25.297  1.00  0.00     0.100 A 
ATOM     17  C   UNL A   1      34.656  21.835  25.564  1.00  0.00     0.031 A 
ATOM     18  C   UNL A   1      33.213  19.583  24.748  1.00  0.00     0.270 A 
ATOM     19  C   UNL A   1      35.326  20.721  25.046  1.00  0.00     0.023 A 
ATOM     20  Br  UNL A   1      35.707  23.316  26.120  1.00  0.00    -0.050 Br
ATOM     21  C   UNL A   1      34.608  19.601  24.619  1.00  0.00     0.087 A 
BRANCH  18  22
ATOM     22  N   UNL A   1      32.457  18.454  24.190  1.00  0.00     0.062 N 
ATOM     23  O   UNL A   1      31.777  17.789  24.980  1.00  0.00    -0.258 OA
ATOM     24  O   UNL A   1      32.485  18.310  22.960  1.00  0.00    -0.258 OA
ENDBRANCH  18  22
ENDBRANCH  13  15
ENDBRANCH  10  13
ENDBRANCH   4   7
ENDBRANCH   2   3
ENDBRANCH   1   2
BRANCH   1  25
ATOM     25  C   UNL A   1      32.637  29.280  25.603  1.00  0.00     0.118 C 
BRANCH  25  26
ATOM     26  N   UNL A   1      32.444  30.666  25.980  1.00  0.00    -0.352 N 
ATOM     27  C   UNL A   1      33.072  31.434  26.931  1.00  0.00     0.251 C 
ATOM     28  H   UNL A   1      31.747  31.136  25.468  1.00  0.00     0.163 HD
ATOM     29  O   UNL A   1      32.531  32.489  27.262  1.00  0.00    -0.269 OA
BRANCH  27  30
ATOM     30  C   UNL A   1      34.360  31.040  27.569  1.00  0.00     0.039 A 
ATOM     31  C   UNL A   1      34.494  29.723  28.028  1.00  0.00     0.014 A 
ATOM     32  C   UNL A   1      35.390  31.947  27.826  1.00  0.00     0.014 A 
ATOM     33  C   UNL A   1      35.647  29.323  28.719  1.00  0.00     0.010 A 
ATOM     34  C   UNL A   1      36.581  31.523  28.426  1.00  0.00     0.010 A 
ATOM     35  C   UNL A   1      36.711  30.217  28.915  1.00  0.00    -0.014 A 
BRANCH  35  36
ATOM     36  C   UNL A   1      37.932  29.810  29.668  1.00  0.00     0.031 A 
ATOM     37  C   UNL A   1      38.197  30.351  31.054  1.00  0.00     0.074 A 
ATOM     38  C   UNL A   1      38.838  28.993  29.093  1.00  0.00     0.049 A 
ATOM     39  N   UNL A   1      39.209  30.123  31.853  1.00  0.00    -0.248 NA
ATOM     40  C   UNL A   1      37.210  31.294  31.606  1.00  0.00     0.031 C 
ATOM     41  C   UNL A   1      38.756  28.468  27.729  1.00  0.00     0.029 A 
ATOM     42  N   UNL A   1      40.017  28.478  29.576  1.00  0.00    -0.354 N 
ATOM     43  C   UNL A   1      39.002  30.917  32.975  1.00  0.00     0.074 A 
ATOM     44  C   UNL A   1      37.788  31.667  32.739  1.00  0.00     0.031 C 
ATOM     45  C   UNL A   1      39.832  27.702  27.487  1.00  0.00     0.029 A 
ATOM     46  C   UNL A   1      40.690  27.695  28.666  1.00  0.00     0.049 A 
ATOM     47  H   UNL A   1      40.349  28.654  30.486  1.00  0.00     0.167 HD
ATOM     48  C   UNL A   1      39.729  30.995  34.117  1.00  0.00     0.034 A 
ATOM     49  C   UNL A   1      41.865  27.042  28.770  1.00  0.00     0.034 A 
ATOM     50  C   UNL A   1      40.905  30.210  34.379  1.00  0.00     0.049 A 
ATOM     51  C   UNL A   1      42.617  27.084  30.073  1.00  0.00     0.074 A 
ATOM     52  C   UNL A   1      41.660  30.149  35.538  1.00  0.00     0.029 A 
ATOM     53  N   UNL A   1      41.499  29.347  33.470  1.00  0.00    -0.354 N 
ATOM     54  N   UNL A   1      42.313  27.715  31.182  1.00  0.00    -0.248 NA
ATOM     55  C   UNL A   1      43.852  26.289  30.154  1.00  0.00     0.031 C 
ATOM     56  C   UNL A   1      42.719  29.257  35.324  1.00  0.00     0.029 A 
ATOM     57  C   UNL A   1      42.611  28.750  34.040  1.00  0.00     0.049 A 
ATOM     58  H   UNL A   1      41.177  29.182  32.555  1.00  0.00     0.167 HD
ATOM     59  C   UNL A   1      43.303  27.375  32.099  1.00  0.00     0.074 A 
ATOM     60  C   UNL A   1      44.198  26.456  31.424  1.00  0.00     0.031 C 
ATOM     61  C   UNL A   1      43.467  27.799  33.376  1.00  0.00     0.034 A 
BRANCH  48  62
ATOM     62  C   UNL A   1      39.229  31.915  35.204  1.00  0.00     0.023 A 
ATOM     63  C   UNL A   1      38.243  31.454  36.100  1.00  0.00     0.012 A 
ATOM     64  C   UNL A   1      39.765  33.207  35.376  1.00  0.00     0.148 A 
ATOM     65  C   UNL A   1      37.767  32.275  37.122  1.00  0.00     0.002 A 
ATOM     66  C   UNL A   1      39.317  34.004  36.425  1.00  0.00     0.091 A 
ATOM     67  F   UNL A   1      40.689  33.638  34.506  1.00  0.00    -0.205 F 
ATOM     68  C   UNL A   1      38.310  33.544  37.289  1.00  0.00     0.022 A 
BRANCH  66  69
ATOM     69  S   UNL A   1      40.007  35.626  36.774  1.00  0.00     0.127 S 
ATOM     70  O   UNL A   1      39.358  35.955  38.043  1.00  0.00    -0.237 OA
ATOM     71  O   UNL A   1      41.437  35.338  36.878  1.00  0.00    -0.237 OA
ATOM     72  O   UNL A   1      39.640  36.469  35.644  1.00  0.00    -0.744 OA
ENDBRANCH  66  69
ENDBRANCH  48  62
BRANCH  49  73
ATOM     73  C   UNL A   1      42.361  26.225  27.626  1.00  0.00     0.023 A 
ATOM     74  C   UNL A   1      43.274  26.793  26.716  1.00  0.00     0.012 A 
ATOM     75  C   UNL A   1      41.964  24.884  27.455  1.00  0.00     0.148 A 
ATOM     76  C   UNL A   1      43.762  26.051  25.640  1.00  0.00     0.002 A 
ATOM     77  C   UNL A   1      42.491  24.136  26.408  1.00  0.00     0.091 A 
ATOM     78  F   UNL A   1      41.085  24.367  28.323  1.00  0.00    -0.205 F 
ATOM     79  C   UNL A   1      43.380  24.721  25.492  1.00  0.00     0.022 A 
BRANCH  77  80
ATOM     80  S   UNL A   1      42.138  22.386  26.200  1.00  0.00     0.127 S 
ATOM     81  O   UNL A   1      42.917  22.067  25.003  1.00  0.00    -0.237 OA
ATOM     82  O   UNL A   1      42.673  21.819  27.442  1.00  0.00    -0.237 OA
ATOM     83  O   UNL A   1      40.698  22.286  26.060  1.00  0.00    -0.744 OA
ENDBRANCH  77  80
ENDBRANCH  49  73
BRANCH  61  84
ATOM     84  C   UNL A   1      44.647  27.264  34.143  1.00  0.00     0.023 A 
ATOM     85  C   UNL A   1      45.869  27.968  34.124  1.00  0.00     0.012 A 
ATOM     86  C   UNL A   1      44.533  26.102  34.930  1.00  0.00     0.148 A 
ATOM     87  C   UNL A   1      46.966  27.504  34.847  1.00  0.00     0.002 A 
ATOM     88  C   UNL A   1      45.619  25.671  35.686  1.00  0.00     0.091 A 
ATOM     89  F   UNL A   1      43.371  25.433  34.922  1.00  0.00    -0.205 F 
ATOM     90  C   UNL A   1      46.839  26.363  35.636  1.00  0.00     0.022 A 
BRANCH  88  91
ATOM     91  S   UNL A   1      45.513  24.266  36.801  1.00  0.00     0.127 S 
ATOM     92  O   UNL A   1      46.905  24.110  37.219  1.00  0.00    -0.237 OA
ATOM     93  O   UNL A   1      44.613  24.761  37.845  1.00  0.00    -0.237 OA
ATOM     94  O   UNL A   1      44.966  23.171  36.010  1.00  0.00    -0.744 OA
ENDBRANCH  88  91
ENDBRANCH  61  84
ENDBRANCH  35  36
ENDBRANCH  27  30
ENDBRANCH  25  26
ENDBRANCH   1  25
TORSDOF 16
ENDMDL
