MODEL 1
REMARK VINA RESULT:     -12.5      0.000      0.000
REMARK SMILES Cc1nsc(NC(=O)c2ccc(N)cc2)c1C(=O)NCCCNC(=O)c1ccc(-c2c3nc(c(-c4cccc(S(=O)(=O)[O-])c4F)c4ccc([nH]4)c(-c4cccc(S(=O)(=O)[O-])c4F)c4nc(c(-c5cccc(S(=O)(=O)[O-])c5F)c5ccc2[nH]5)C=C4)C=C3)cc1
REMARK SMILES IDX 21 1 20 2 19 3 17 4 18 5 16 7 1 8 2 9 3 10 4 11 5 12 6 13
REMARK SMILES IDX 7 14 8 16 9 17 10 18 15 19 11 20 14 21 12 22 13 23 22 26
REMARK SMILES IDX 23 27 24 28 25 30 26 31 27 32 88 33 28 34 87 35 29 36 30 37
REMARK SMILES IDX 31 38 81 39 32 40 86 41 80 42 82 43 33 44 85 45 79 46 78 47
REMARK SMILES IDX 34 49 66 50 46 51 65 52 47 53 50 54 64 55 83 56 48 57 49 58
REMARK SMILES IDX 63 60 84 61 51 62 35 63 36 64 44 65 37 66 39 67 45 68 38 69
REMARK SMILES IDX 40 70 41 71 42 72 43 73 67 74 68 75 76 76 69 77 71 78 77 79
REMARK SMILES IDX 70 80 72 81 73 82 74 83 75 84 52 85 53 86 61 87 54 88 56 89
REMARK SMILES IDX 62 90 55 91 57 92 58 93 59 94 60 95
REMARK H PARENT 19 6 6 15 13 24 13 25 23 29 82 48 50 59
REMARK Flexibility Score: inf
ROOT
ATOM      1  C   UNL A   1      37.747  19.963  24.841  1.00  0.00     0.042 C 
ENDROOT
BRANCH   1   2
ATOM      2  C   UNL A   1      36.511  20.837  25.080  1.00  0.00     0.118 C 
BRANCH   2   3
ATOM      3  N   UNL A   1      36.392  21.905  24.119  1.00  0.00    -0.352 N 
ATOM      4  C   UNL A   1      35.460  22.865  23.854  1.00  0.00     0.256 C 
ATOM      5  O   UNL A   1      35.879  23.733  23.076  1.00  0.00    -0.269 OA
ATOM      6  H   UNL A   1      37.165  21.952  23.510  1.00  0.00     0.163 HD
BRANCH   4   7
ATOM      7  C   UNL A   1      34.080  22.953  24.370  1.00  0.00     0.097 A 
ATOM      8  C   UNL A   1      33.921  22.465  27.026  1.00  0.00     0.069 C 
ATOM      9  C   UNL A   1      33.415  22.741  25.661  1.00  0.00     0.066 A 
ATOM     10  N   UNL A   1      32.081  22.811  25.656  1.00  0.00    -0.195 NA
ATOM     11  S   UNL A   1      31.556  23.030  24.132  1.00  0.00    -0.017 S 
ATOM     12  C   UNL A   1      33.078  23.347  23.462  1.00  0.00     0.129 A 
BRANCH  12  13
ATOM     13  N   UNL A   1      33.225  23.805  22.158  1.00  0.00    -0.312 N 
ATOM     14  C   UNL A   1      32.958  25.029  21.583  1.00  0.00     0.256 C 
ATOM     15  H   UNL A   1      33.585  23.135  21.533  1.00  0.00     0.171 HD
ATOM     16  O   UNL A   1      33.038  25.193  20.367  1.00  0.00    -0.269 OA
BRANCH  14  17
ATOM     17  C   UNL A   1      32.630  26.216  22.394  1.00  0.00     0.040 A 
ATOM     18  C   UNL A   1      31.303  26.568  22.657  1.00  0.00     0.016 A 
ATOM     19  C   UNL A   1      33.678  27.001  22.877  1.00  0.00     0.016 A 
ATOM     20  C   UNL A   1      31.030  27.777  23.302  1.00  0.00     0.026 A 
ATOM     21  C   UNL A   1      33.392  28.195  23.540  1.00  0.00     0.026 A 
ATOM     22  C   UNL A   1      32.070  28.620  23.707  1.00  0.00     0.031 A 
BRANCH  22  23
ATOM     23  N   UNL A   1      31.793  29.801  24.381  1.00  0.00    -0.399 N 
ATOM     24  H   UNL A   1      30.894  30.200  24.326  1.00  0.00     0.156 HD
ATOM     25  H   UNL A   1      32.494  30.239  24.915  1.00  0.00     0.156 HD
ENDBRANCH  22  23
ENDBRANCH  14  17
ENDBRANCH  12  13
ENDBRANCH   4   7
ENDBRANCH   2   3
ENDBRANCH   1   2
BRANCH   1  26
ATOM     26  C   UNL A   1      38.947  20.412  25.635  1.00  0.00     0.118 C 
BRANCH  26  27
ATOM     27  N   UNL A   1      39.946  19.340  25.762  1.00  0.00    -0.352 N 
ATOM     28  C   UNL A   1      41.301  19.470  25.989  1.00  0.00     0.251 C 
ATOM     29  H   UNL A   1      39.607  18.419  25.674  1.00  0.00     0.163 HD
ATOM     30  O   UNL A   1      42.076  18.545  25.737  1.00  0.00    -0.269 OA
BRANCH  28  31
ATOM     31  C   UNL A   1      41.788  20.739  26.544  1.00  0.00     0.039 A 
ATOM     32  C   UNL A   1      42.305  21.769  25.755  1.00  0.00     0.014 A 
ATOM     33  C   UNL A   1      41.614  20.907  27.911  1.00  0.00     0.014 A 
ATOM     34  C   UNL A   1      42.578  22.987  26.369  1.00  0.00     0.010 A 
ATOM     35  C   UNL A   1      41.582  22.163  28.424  1.00  0.00     0.010 A 
ATOM     36  C   UNL A   1      42.192  23.173  27.705  1.00  0.00    -0.014 A 
BRANCH  36  37
ATOM     37  C   UNL A   1      42.316  24.445  28.392  1.00  0.00     0.031 A 
ATOM     38  C   UNL A   1      41.127  25.310  28.231  1.00  0.00     0.074 A 
ATOM     39  C   UNL A   1      43.311  24.687  29.276  1.00  0.00     0.049 A 
ATOM     40  N   UNL A   1      41.031  26.351  27.475  1.00  0.00    -0.248 NA
ATOM     41  C   UNL A   1      39.841  24.860  28.788  1.00  0.00     0.031 C 
ATOM     42  C   UNL A   1      44.356  23.771  29.763  1.00  0.00     0.029 A 
ATOM     43  N   UNL A   1      43.508  25.781  30.054  1.00  0.00    -0.354 N 
ATOM     44  C   UNL A   1      39.755  26.852  27.702  1.00  0.00     0.074 A 
ATOM     45  C   UNL A   1      39.005  25.770  28.279  1.00  0.00     0.031 C 
ATOM     46  C   UNL A   1      44.880  24.250  30.913  1.00  0.00     0.029 A 
ATOM     47  C   UNL A   1      44.342  25.575  31.150  1.00  0.00     0.049 A 
ATOM     48  H   UNL A   1      43.093  26.652  29.858  1.00  0.00     0.167 HD
ATOM     49  C   UNL A   1      39.528  28.195  27.683  1.00  0.00     0.034 A 
ATOM     50  C   UNL A   1      44.530  26.424  32.192  1.00  0.00     0.034 A 
ATOM     51  C   UNL A   1      40.664  28.898  27.128  1.00  0.00     0.049 A 
ATOM     52  C   UNL A   1      44.099  27.765  31.727  1.00  0.00     0.074 A 
ATOM     53  C   UNL A   1      41.364  28.831  25.938  1.00  0.00     0.029 A 
ATOM     54  N   UNL A   1      41.505  29.518  28.025  1.00  0.00    -0.354 N 
ATOM     55  N   UNL A   1      44.721  28.426  30.791  1.00  0.00    -0.248 NA
ATOM     56  C   UNL A   1      42.710  28.141  31.946  1.00  0.00     0.031 C 
ATOM     57  C   UNL A   1      42.734  28.954  26.315  1.00  0.00     0.029 A 
ATOM     58  C   UNL A   1      42.791  29.190  27.690  1.00  0.00     0.049 A 
ATOM     59  H   UNL A   1      41.229  30.095  28.773  1.00  0.00     0.167 HD
ATOM     60  C   UNL A   1      43.700  28.929  29.996  1.00  0.00     0.074 A 
ATOM     61  C   UNL A   1      42.489  28.815  30.812  1.00  0.00     0.031 C 
ATOM     62  C   UNL A   1      43.869  29.091  28.650  1.00  0.00     0.034 A 
BRANCH  49  63
ATOM     63  C   UNL A   1      38.504  28.927  28.523  1.00  0.00     0.023 A 
ATOM     64  C   UNL A   1      37.719  29.896  27.857  1.00  0.00     0.012 A 
ATOM     65  C   UNL A   1      38.457  28.932  29.935  1.00  0.00     0.148 A 
ATOM     66  C   UNL A   1      36.999  30.870  28.556  1.00  0.00     0.002 A 
ATOM     67  C   UNL A   1      37.682  29.856  30.628  1.00  0.00     0.091 A 
ATOM     68  F   UNL A   1      39.256  28.130  30.641  1.00  0.00    -0.205 F 
ATOM     69  C   UNL A   1      36.981  30.849  29.944  1.00  0.00     0.022 A 
BRANCH  67  70
ATOM     70  S   UNL A   1      37.588  29.852  32.424  1.00  0.00     0.127 S 
ATOM     71  O   UNL A   1      38.916  30.338  32.784  1.00  0.00    -0.237 OA
ATOM     72  O   UNL A   1      36.494  30.793  32.664  1.00  0.00    -0.237 OA
ATOM     73  O   UNL A   1      37.287  28.478  32.802  1.00  0.00    -0.744 OA
ENDBRANCH  67  70
ENDBRANCH  49  63
BRANCH  50  74
ATOM     74  C   UNL A   1      44.817  26.150  33.622  1.00  0.00     0.023 A 
ATOM     75  C   UNL A   1      46.144  26.218  34.096  1.00  0.00     0.012 A 
ATOM     76  C   UNL A   1      43.776  26.117  34.576  1.00  0.00     0.148 A 
ATOM     77  C   UNL A   1      46.422  26.298  35.468  1.00  0.00     0.002 A 
ATOM     78  C   UNL A   1      44.057  26.198  35.937  1.00  0.00     0.091 A 
ATOM     79  F   UNL A   1      42.508  26.107  34.145  1.00  0.00    -0.205 F 
ATOM     80  C   UNL A   1      45.379  26.300  36.387  1.00  0.00     0.022 A 
BRANCH  78  81
ATOM     81  S   UNL A   1      42.757  26.252  37.179  1.00  0.00     0.127 S 
ATOM     82  O   UNL A   1      42.049  27.481  36.823  1.00  0.00    -0.237 OA
ATOM     83  O   UNL A   1      42.025  25.018  36.899  1.00  0.00    -0.237 OA
ATOM     84  O   UNL A   1      43.443  26.303  38.464  1.00  0.00    -0.744 OA
ENDBRANCH  78  81
ENDBRANCH  50  74
BRANCH  62  85
ATOM     85  C   UNL A   1      45.256  28.923  28.076  1.00  0.00     0.023 A 
ATOM     86  C   UNL A   1      46.249  29.922  28.168  1.00  0.00     0.012 A 
ATOM     87  C   UNL A   1      45.621  27.652  27.603  1.00  0.00     0.148 A 
ATOM     88  C   UNL A   1      47.567  29.664  27.777  1.00  0.00     0.002 A 
ATOM     89  C   UNL A   1      46.939  27.384  27.261  1.00  0.00     0.091 A 
ATOM     90  F   UNL A   1      44.668  26.710  27.527  1.00  0.00    -0.205 F 
ATOM     91  C   UNL A   1      47.916  28.390  27.338  1.00  0.00     0.022 A 
BRANCH  89  92
ATOM     92  S   UNL A   1      47.469  25.732  26.814  1.00  0.00     0.127 S 
ATOM     93  O   UNL A   1      46.735  25.503  25.571  1.00  0.00    -0.237 OA
ATOM     94  O   UNL A   1      48.915  25.898  26.650  1.00  0.00    -0.237 OA
ATOM     95  O   UNL A   1      47.094  24.874  27.931  1.00  0.00    -0.744 OA
ENDBRANCH  89  92
ENDBRANCH  62  85
ENDBRANCH  36  37
ENDBRANCH  28  31
ENDBRANCH  26  27
ENDBRANCH   1  26
TORSDOF 16
ENDMDL
MODEL 2
REMARK VINA RESULT:     -12.4      4.122      9.551
REMARK SMILES Cc1nsc(NC(=O)c2ccc(N)cc2)c1C(=O)NCCCNC(=O)c1ccc(-c2c3nc(c(-c4cccc(S(=O)(=O)[O-])c4F)c4ccc([nH]4)c(-c4cccc(S(=O)(=O)[O-])c4F)c4nc(c(-c5cccc(S(=O)(=O)[O-])c5F)c5ccc2[nH]5)C=C4)C=C3)cc1
REMARK SMILES IDX 21 1 20 2 19 3 17 4 18 5 16 7 1 8 2 9 3 10 4 11 5 12 6 13
REMARK SMILES IDX 7 14 8 16 9 17 10 18 15 19 11 20 14 21 12 22 13 23 22 26
REMARK SMILES IDX 23 27 24 28 25 30 26 31 27 32 88 33 28 34 87 35 29 36 30 37
REMARK SMILES IDX 31 38 81 39 32 40 86 41 80 42 82 43 33 44 85 45 79 46 78 47
REMARK SMILES IDX 34 49 66 50 46 51 65 52 47 53 50 54 64 55 83 56 48 57 49 58
REMARK SMILES IDX 63 60 84 61 51 62 35 63 36 64 44 65 37 66 39 67 45 68 38 69
REMARK SMILES IDX 40 70 41 71 42 72 43 73 67 74 68 75 76 76 69 77 71 78 77 79
REMARK SMILES IDX 70 80 72 81 73 82 74 83 75 84 52 85 53 86 61 87 54 88 56 89
REMARK SMILES IDX 62 90 55 91 57 92 58 93 59 94 60 95
REMARK H PARENT 19 6 6 15 13 24 13 25 23 29 82 48 50 59
REMARK Flexibility Score: inf
ROOT
ATOM      1  C   UNL A   1      31.506  31.702  26.604  1.00  0.00     0.042 C 
ENDROOT
BRANCH   1   2
ATOM      2  C   UNL A   1      31.849  30.385  25.901  1.00  0.00     0.118 C 
BRANCH   2   3
ATOM      3  N   UNL A   1      31.614  29.233  26.737  1.00  0.00    -0.352 N 
ATOM      4  C   UNL A   1      31.657  27.882  26.551  1.00  0.00     0.256 C 
ATOM      5  O   UNL A   1      31.610  27.254  27.617  1.00  0.00    -0.269 OA
ATOM      6  H   UNL A   1      31.364  29.479  27.656  1.00  0.00     0.163 HD
BRANCH   4   7
ATOM      7  C   UNL A   1      31.738  27.146  25.275  1.00  0.00     0.097 A 
ATOM      8  C   UNL A   1      33.517  28.234  23.550  1.00  0.00     0.069 C 
ATOM      9  C   UNL A   1      32.458  27.303  24.005  1.00  0.00     0.066 A 
ATOM     10  N   UNL A   1      32.132  26.445  23.033  1.00  0.00    -0.195 NA
ATOM     11  S   UNL A   1      30.911  25.495  23.536  1.00  0.00    -0.017 S 
ATOM     12  C   UNL A   1      30.971  25.971  25.159  1.00  0.00     0.129 A 
BRANCH  12  13
ATOM     13  N   UNL A   1      30.238  25.318  26.143  1.00  0.00    -0.312 N 
ATOM     14  C   UNL A   1      30.335  24.045  26.662  1.00  0.00     0.256 C 
ATOM     15  H   UNL A   1      29.520  25.863  26.541  1.00  0.00     0.171 HD
ATOM     16  O   UNL A   1      29.494  23.612  27.449  1.00  0.00    -0.269 OA
BRANCH  14  17
ATOM     17  C   UNL A   1      31.478  23.165  26.359  1.00  0.00     0.040 A 
ATOM     18  C   UNL A   1      31.368  22.135  25.421  1.00  0.00     0.016 A 
ATOM     19  C   UNL A   1      32.674  23.367  27.051  1.00  0.00     0.016 A 
ATOM     20  C   UNL A   1      32.423  21.232  25.269  1.00  0.00     0.026 A 
ATOM     21  C   UNL A   1      33.729  22.471  26.871  1.00  0.00     0.026 A 
ATOM     22  C   UNL A   1      33.592  21.366  26.025  1.00  0.00     0.031 A 
BRANCH  22  23
ATOM     23  N   UNL A   1      34.651  20.489  25.841  1.00  0.00    -0.399 N 
ATOM     24  H   UNL A   1      34.591  19.780  25.160  1.00  0.00     0.156 HD
ATOM     25  H   UNL A   1      35.463  20.574  26.391  1.00  0.00     0.156 HD
ENDBRANCH  22  23
ENDBRANCH  14  17
ENDBRANCH  12  13
ENDBRANCH   4   7
ENDBRANCH   2   3
ENDBRANCH   1   2
BRANCH   1  26
ATOM     26  C   UNL A   1      32.687  32.314  27.314  1.00  0.00     0.118 C 
BRANCH  26  27
ATOM     27  N   UNL A   1      32.447  33.725  27.651  1.00  0.00    -0.352 N 
ATOM     28  C   UNL A   1      33.085  34.486  28.611  1.00  0.00     0.251 C 
ATOM     29  H   UNL A   1      31.747  34.182  27.130  1.00  0.00     0.163 HD
ATOM     30  O   UNL A   1      32.578  35.528  29.031  1.00  0.00    -0.269 OA
BRANCH  28  31
ATOM     31  C   UNL A   1      34.385  34.019  29.107  1.00  0.00     0.039 A 
ATOM     32  C   UNL A   1      34.531  33.269  30.275  1.00  0.00     0.014 A 
ATOM     33  C   UNL A   1      35.475  34.283  28.288  1.00  0.00     0.014 A 
ATOM     34  C   UNL A   1      35.786  32.739  30.558  1.00  0.00     0.010 A 
ATOM     35  C   UNL A   1      36.588  33.515  28.402  1.00  0.00     0.010 A 
ATOM     36  C   UNL A   1      36.803  32.858  29.598  1.00  0.00    -0.014 A 
BRANCH  36  37
ATOM     37  C   UNL A   1      38.102  32.230  29.744  1.00  0.00     0.031 A 
ATOM     38  C   UNL A   1      38.153  30.862  29.183  1.00  0.00     0.074 A 
ATOM     39  C   UNL A   1      39.196  32.927  30.129  1.00  0.00     0.049 A 
ATOM     40  N   UNL A   1      38.154  29.758  29.850  1.00  0.00    -0.248 NA
ATOM     41  C   UNL A   1      37.959  30.680  27.736  1.00  0.00     0.031 C 
ATOM     42  C   UNL A   1      39.325  34.371  30.388  1.00  0.00     0.029 A 
ATOM     43  N   UNL A   1      40.481  32.505  30.226  1.00  0.00    -0.354 N 
ATOM     44  C   UNL A   1      38.264  28.753  28.896  1.00  0.00     0.074 A 
ATOM     45  C   UNL A   1      37.867  29.350  27.650  1.00  0.00     0.031 C 
ATOM     46  C   UNL A   1      40.629  34.726  30.342  1.00  0.00     0.029 A 
ATOM     47  C   UNL A   1      41.431  33.525  30.227  1.00  0.00     0.049 A 
ATOM     48  H   UNL A   1      40.724  31.553  30.290  1.00  0.00     0.167 HD
ATOM     49  C   UNL A   1      38.969  27.619  29.167  1.00  0.00     0.034 A 
ATOM     50  C   UNL A   1      42.774  33.376  30.096  1.00  0.00     0.034 A 
ATOM     51  C   UNL A   1      39.269  27.529  30.579  1.00  0.00     0.049 A 
ATOM     52  C   UNL A   1      43.079  31.967  30.444  1.00  0.00     0.074 A 
ATOM     53  C   UNL A   1      38.515  27.537  31.738  1.00  0.00     0.029 A 
ATOM     54  N   UNL A   1      40.549  27.863  30.961  1.00  0.00    -0.354 N 
ATOM     55  N   UNL A   1      42.922  31.482  31.644  1.00  0.00    -0.248 NA
ATOM     56  C   UNL A   1      43.079  30.989  29.365  1.00  0.00     0.031 C 
ATOM     57  C   UNL A   1      39.255  28.349  32.647  1.00  0.00     0.029 A 
ATOM     58  C   UNL A   1      40.459  28.705  32.036  1.00  0.00     0.049 A 
ATOM     59  H   UNL A   1      41.380  27.551  30.535  1.00  0.00     0.167 HD
ATOM     60  C   UNL A   1      42.323  30.247  31.434  1.00  0.00     0.074 A 
ATOM     61  C   UNL A   1      42.543  29.951  30.016  1.00  0.00     0.031 C 
ATOM     62  C   UNL A   1      41.435  29.731  32.335  1.00  0.00     0.034 A 
BRANCH  49  63
ATOM     63  C   UNL A   1      39.752  26.806  28.159  1.00  0.00     0.023 A 
ATOM     64  C   UNL A   1      39.612  25.402  28.235  1.00  0.00     0.012 A 
ATOM     65  C   UNL A   1      40.803  27.298  27.351  1.00  0.00     0.148 A 
ATOM     66  C   UNL A   1      40.519  24.536  27.618  1.00  0.00     0.002 A 
ATOM     67  C   UNL A   1      41.659  26.434  26.678  1.00  0.00     0.091 A 
ATOM     68  F   UNL A   1      41.076  28.603  27.319  1.00  0.00    -0.205 F 
ATOM     69  C   UNL A   1      41.545  25.053  26.838  1.00  0.00     0.022 A 
BRANCH  67  70
ATOM     70  S   UNL A   1      42.981  27.046  25.623  1.00  0.00     0.127 S 
ATOM     71  O   UNL A   1      43.470  25.807  25.024  1.00  0.00    -0.237 OA
ATOM     72  O   UNL A   1      42.249  27.929  24.716  1.00  0.00    -0.237 OA
ATOM     73  O   UNL A   1      43.908  27.735  26.510  1.00  0.00    -0.744 OA
ENDBRANCH  67  70
ENDBRANCH  49  63
BRANCH  50  74
ATOM     74  C   UNL A   1      43.787  34.261  29.469  1.00  0.00     0.023 A 
ATOM     75  C   UNL A   1      44.639  35.037  30.283  1.00  0.00     0.012 A 
ATOM     76  C   UNL A   1      44.121  34.125  28.104  1.00  0.00     0.148 A 
ATOM     77  C   UNL A   1      45.805  35.617  29.767  1.00  0.00     0.002 A 
ATOM     78  C   UNL A   1      45.282  34.703  27.597  1.00  0.00     0.091 A 
ATOM     79  F   UNL A   1      43.355  33.349  27.327  1.00  0.00    -0.205 F 
ATOM     80  C   UNL A   1      46.134  35.441  28.427  1.00  0.00     0.022 A 
BRANCH  78  81
ATOM     81  S   UNL A   1      45.792  34.477  25.886  1.00  0.00     0.127 S 
ATOM     82  O   UNL A   1      46.738  35.578  25.704  1.00  0.00    -0.237 OA
ATOM     83  O   UNL A   1      46.397  33.147  25.928  1.00  0.00    -0.237 OA
ATOM     84  O   UNL A   1      44.574  34.593  25.095  1.00  0.00    -0.744 OA
ENDBRANCH  78  81
ENDBRANCH  50  74
BRANCH  62  85
ATOM     85  C   UNL A   1      41.284  30.422  33.669  1.00  0.00     0.023 A 
ATOM     86  C   UNL A   1      42.199  30.247  34.730  1.00  0.00     0.012 A 
ATOM     87  C   UNL A   1      40.301  31.419  33.784  1.00  0.00     0.148 A 
ATOM     88  C   UNL A   1      42.120  31.033  35.885  1.00  0.00     0.002 A 
ATOM     89  C   UNL A   1      40.255  32.229  34.910  1.00  0.00     0.091 A 
ATOM     90  F   UNL A   1      39.442  31.577  32.765  1.00  0.00    -0.205 F 
ATOM     91  C   UNL A   1      41.157  32.035  35.968  1.00  0.00     0.022 A 
BRANCH  89  92
ATOM     92  S   UNL A   1      39.122  33.614  35.015  1.00  0.00     0.127 S 
ATOM     93  O   UNL A   1      39.617  34.494  33.959  1.00  0.00    -0.237 OA
ATOM     94  O   UNL A   1      37.829  32.986  34.733  1.00  0.00    -0.237 OA
ATOM     95  O   UNL A   1      39.245  34.132  36.372  1.00  0.00    -0.744 OA
ENDBRANCH  89  92
ENDBRANCH  62  85
ENDBRANCH  36  37
ENDBRANCH  28  31
ENDBRANCH  26  27
ENDBRANCH   1  26
TORSDOF 16
ENDMDL
MODEL 3
REMARK VINA RESULT:     -12.4      1.789      3.031
REMARK SMILES Cc1nsc(NC(=O)c2ccc(N)cc2)c1C(=O)NCCCNC(=O)c1ccc(-c2c3nc(c(-c4cccc(S(=O)(=O)[O-])c4F)c4ccc([nH]4)c(-c4cccc(S(=O)(=O)[O-])c4F)c4nc(c(-c5cccc(S(=O)(=O)[O-])c5F)c5ccc2[nH]5)C=C4)C=C3)cc1
REMARK SMILES IDX 21 1 20 2 19 3 17 4 18 5 16 7 1 8 2 9 3 10 4 11 5 12 6 13
REMARK SMILES IDX 7 14 8 16 9 17 10 18 15 19 11 20 14 21 12 22 13 23 22 26
REMARK SMILES IDX 23 27 24 28 25 30 26 31 27 32 88 33 28 34 87 35 29 36 30 37
REMARK SMILES IDX 31 38 81 39 32 40 86 41 80 42 82 43 33 44 85 45 79 46 78 47
REMARK SMILES IDX 34 49 66 50 46 51 65 52 47 53 50 54 64 55 83 56 48 57 49 58
REMARK SMILES IDX 63 60 84 61 51 62 35 63 36 64 44 65 37 66 39 67 45 68 38 69
REMARK SMILES IDX 40 70 41 71 42 72 43 73 67 74 68 75 76 76 69 77 71 78 77 79
REMARK SMILES IDX 70 80 72 81 73 82 74 83 75 84 52 85 53 86 61 87 54 88 56 89
REMARK SMILES IDX 62 90 55 91 57 92 58 93 59 94 60 95
REMARK H PARENT 19 6 6 15 13 24 13 25 23 29 82 48 50 59
REMARK Flexibility Score: inf
ROOT
ATOM      1  C   UNL A   1      37.802  20.205  24.624  1.00  0.00     0.042 C 
ENDROOT
BRANCH   1   2
ATOM      2  C   UNL A   1      36.362  20.022  25.115  1.00  0.00     0.118 C 
BRANCH   2   3
ATOM      3  N   UNL A   1      35.954  21.054  26.035  1.00  0.00    -0.352 N 
ATOM      4  C   UNL A   1      35.247  22.216  25.930  1.00  0.00     0.256 C 
ATOM      5  O   UNL A   1      34.930  22.681  27.033  1.00  0.00    -0.269 OA
ATOM      6  H   UNL A   1      36.258  20.880  26.955  1.00  0.00     0.163 HD
BRANCH   4   7
ATOM      7  C   UNL A   1      34.858  22.930  24.699  1.00  0.00     0.097 A 
ATOM      8  C   UNL A   1      36.898  23.170  22.937  1.00  0.00     0.069 C 
ATOM      9  C   UNL A   1      35.534  23.380  23.476  1.00  0.00     0.066 A 
ATOM     10  N   UNL A   1      34.806  24.128  22.641  1.00  0.00    -0.195 NA
ATOM     11  S   UNL A   1      33.346  24.410  23.300  1.00  0.00    -0.017 S 
ATOM     12  C   UNL A   1      33.506  23.304  24.571  1.00  0.00     0.129 A 
BRANCH  12  13
ATOM     13  N   UNL A   1      32.436  22.971  25.394  1.00  0.00    -0.312 N 
ATOM     14  C   UNL A   1      31.724  21.801  25.540  1.00  0.00     0.256 C 
ATOM     15  H   UNL A   1      32.133  23.704  25.978  1.00  0.00     0.171 HD
ATOM     16  O   UNL A   1      30.715  21.751  26.241  1.00  0.00    -0.269 OA
BRANCH  14  17
ATOM     17  C   UNL A   1      32.168  20.537  24.923  1.00  0.00     0.040 A 
ATOM     18  C   UNL A   1      32.102  20.346  23.540  1.00  0.00     0.016 A 
ATOM     19  C   UNL A   1      32.635  19.519  25.755  1.00  0.00     0.016 A 
ATOM     20  C   UNL A   1      32.391  19.087  23.007  1.00  0.00     0.026 A 
ATOM     21  C   UNL A   1      32.944  18.273  25.207  1.00  0.00     0.026 A 
ATOM     22  C   UNL A   1      32.769  18.030  23.841  1.00  0.00     0.031 A 
BRANCH  22  23
ATOM     23  N   UNL A   1      33.092  16.793  23.302  1.00  0.00    -0.399 N 
ATOM     24  H   UNL A   1      32.604  16.454  22.517  1.00  0.00     0.156 HD
ATOM     25  H   UNL A   1      33.810  16.253  23.704  1.00  0.00     0.156 HD
ENDBRANCH  22  23
ENDBRANCH  14  17
ENDBRANCH  12  13
ENDBRANCH   4   7
ENDBRANCH   2   3
ENDBRANCH   1   2
BRANCH   1  26
ATOM     26  C   UNL A   1      38.782  20.428  25.748  1.00  0.00     0.118 C 
BRANCH  26  27
ATOM     27  N   UNL A   1      39.793  19.362  25.807  1.00  0.00    -0.352 N 
ATOM     28  C   UNL A   1      41.157  19.498  25.970  1.00  0.00     0.251 C 
ATOM     29  H   UNL A   1      39.457  18.440  25.719  1.00  0.00     0.163 HD
ATOM     30  O   UNL A   1      41.925  18.583  25.664  1.00  0.00    -0.269 OA
BRANCH  28  31
ATOM     31  C   UNL A   1      41.662  20.761  26.523  1.00  0.00     0.039 A 
ATOM     32  C   UNL A   1      42.184  21.786  25.732  1.00  0.00     0.014 A 
ATOM     33  C   UNL A   1      41.500  20.928  27.892  1.00  0.00     0.014 A 
ATOM     34  C   UNL A   1      42.475  23.000  26.345  1.00  0.00     0.010 A 
ATOM     35  C   UNL A   1      41.486  22.184  28.406  1.00  0.00     0.010 A 
ATOM     36  C   UNL A   1      42.102  23.188  27.685  1.00  0.00    -0.014 A 
BRANCH  36  37
ATOM     37  C   UNL A   1      42.245  24.457  28.372  1.00  0.00     0.031 A 
ATOM     38  C   UNL A   1      41.077  25.348  28.198  1.00  0.00     0.074 A 
ATOM     39  C   UNL A   1      43.235  24.680  29.268  1.00  0.00     0.049 A 
ATOM     40  N   UNL A   1      41.011  26.390  27.440  1.00  0.00    -0.248 NA
ATOM     41  C   UNL A   1      39.775  24.926  28.741  1.00  0.00     0.031 C 
ATOM     42  C   UNL A   1      44.255  23.741  29.767  1.00  0.00     0.029 A 
ATOM     43  N   UNL A   1      43.446  25.769  30.047  1.00  0.00    -0.354 N 
ATOM     44  C   UNL A   1      39.743  26.918  27.653  1.00  0.00     0.074 A 
ATOM     45  C   UNL A   1      38.964  25.852  28.222  1.00  0.00     0.031 C 
ATOM     46  C   UNL A   1      44.776  24.210  30.922  1.00  0.00     0.029 A 
ATOM     47  C   UNL A   1      44.264  25.546  31.152  1.00  0.00     0.049 A 
ATOM     48  H   UNL A   1      43.052  26.649  29.846  1.00  0.00     0.167 HD
ATOM     49  C   UNL A   1      39.546  28.266  27.631  1.00  0.00     0.034 A 
ATOM     50  C   UNL A   1      44.458  26.392  32.196  1.00  0.00     0.034 A 
ATOM     51  C   UNL A   1      40.702  28.944  27.089  1.00  0.00     0.049 A 
ATOM     52  C   UNL A   1      44.060  27.741  31.726  1.00  0.00     0.074 A 
ATOM     53  C   UNL A   1      41.414  28.861  25.906  1.00  0.00     0.029 A 
ATOM     54  N   UNL A   1      41.546  29.547  27.994  1.00  0.00    -0.354 N 
ATOM     55  N   UNL A   1      44.707  28.388  30.797  1.00  0.00    -0.248 NA
ATOM     56  C   UNL A   1      42.677  28.147  31.929  1.00  0.00     0.031 C 
ATOM     57  C   UNL A   1      42.782  28.955  26.298  1.00  0.00     0.029 A 
ATOM     58  C   UNL A   1      42.828  29.191  27.673  1.00  0.00     0.049 A 
ATOM     59  H   UNL A   1      41.274  30.130  28.739  1.00  0.00     0.167 HD
ATOM     60  C   UNL A   1      43.706  28.912  29.990  1.00  0.00     0.074 A 
ATOM     61  C   UNL A   1      42.483  28.825  30.793  1.00  0.00     0.031 C 
ATOM     62  C   UNL A   1      43.893  29.070  28.646  1.00  0.00     0.034 A 
BRANCH  49  63
ATOM     63  C   UNL A   1      38.527  29.020  28.459  1.00  0.00     0.023 A 
ATOM     64  C   UNL A   1      37.791  30.025  27.791  1.00  0.00     0.012 A 
ATOM     65  C   UNL A   1      38.448  29.006  29.870  1.00  0.00     0.148 A 
ATOM     66  C   UNL A   1      37.089  31.012  28.489  1.00  0.00     0.002 A 
ATOM     67  C   UNL A   1      37.689  29.945  30.559  1.00  0.00     0.091 A 
ATOM     68  F   UNL A   1      39.204  28.167  30.581  1.00  0.00    -0.205 F 
ATOM     69  C   UNL A   1      37.038  30.972  29.875  1.00  0.00     0.022 A 
BRANCH  67  70
ATOM     70  S   UNL A   1      37.555  29.919  32.352  1.00  0.00     0.127 S 
ATOM     71  O   UNL A   1      38.868  30.417  32.749  1.00  0.00    -0.237 OA
ATOM     72  O   UNL A   1      36.444  30.842  32.579  1.00  0.00    -0.237 OA
ATOM     73  O   UNL A   1      37.265  28.536  32.707  1.00  0.00    -0.744 OA
ENDBRANCH  67  70
ENDBRANCH  49  63
BRANCH  50  74
ATOM     74  C   UNL A   1      44.723  26.113  33.629  1.00  0.00     0.023 A 
ATOM     75  C   UNL A   1      46.047  26.138  34.115  1.00  0.00     0.012 A 
ATOM     76  C   UNL A   1      43.673  26.117  34.574  1.00  0.00     0.148 A 
ATOM     77  C   UNL A   1      46.315  26.213  35.489  1.00  0.00     0.002 A 
ATOM     78  C   UNL A   1      43.945  26.192  35.937  1.00  0.00     0.091 A 
ATOM     79  F   UNL A   1      42.409  26.147  34.131  1.00  0.00    -0.205 F 
ATOM     80  C   UNL A   1      45.265  26.252  36.399  1.00  0.00     0.022 A 
BRANCH  78  81
ATOM     81  S   UNL A   1      42.636  26.292  37.167  1.00  0.00     0.127 S 
ATOM     82  O   UNL A   1      43.395  26.301  38.418  1.00  0.00    -0.237 OA
ATOM     83  O   UNL A   1      42.001  27.564  36.825  1.00  0.00    -0.237 OA
ATOM     84  O   UNL A   1      41.818  25.103  36.968  1.00  0.00    -0.744 OA
ENDBRANCH  78  81
ENDBRANCH  50  74
BRANCH  62  85
ATOM     85  C   UNL A   1      45.283  28.872  28.088  1.00  0.00     0.023 A 
ATOM     86  C   UNL A   1      46.292  29.854  28.181  1.00  0.00     0.012 A 
ATOM     87  C   UNL A   1      45.629  27.591  27.629  1.00  0.00     0.148 A 
ATOM     88  C   UNL A   1      47.609  29.570  27.806  1.00  0.00     0.002 A 
ATOM     89  C   UNL A   1      46.946  27.297  27.303  1.00  0.00     0.091 A 
ATOM     90  F   UNL A   1      44.660  26.666  27.551  1.00  0.00    -0.205 F 
ATOM     91  C   UNL A   1      47.940  28.286  27.381  1.00  0.00     0.022 A 
BRANCH  89  92
ATOM     92  S   UNL A   1      47.450  25.631  26.874  1.00  0.00     0.127 S 
ATOM     93  O   UNL A   1      46.501  25.288  25.817  1.00  0.00    -0.237 OA
ATOM     94  O   UNL A   1      48.829  25.826  26.421  1.00  0.00    -0.237 OA
ATOM     95  O   UNL A   1      47.334  24.849  28.099  1.00  0.00    -0.744 OA
ENDBRANCH  89  92
ENDBRANCH  62  85
ENDBRANCH  36  37
ENDBRANCH  28  31
ENDBRANCH  26  27
ENDBRANCH   1  26
TORSDOF 16
ENDMDL
