MODEL 1
REMARK VINA RESULT:     -12.0      0.000      0.000
REMARK SMILES COc1ccc(/C=C/c2cc(OC)cc(OC)c2/C=C/C(=O)NCCCNC(=O)c2ccc(-c3c4nc(c(-c5cccc(S(=O)(=O)[O-])c5F)c5ccc([nH]5)c(-c5cccc(S(=O)(=O)[O-])c5F)c5nc(c(-c6cccc(S(=O)(=O)[O-])c6F)c6ccc3[nH]6)C=C5)C=C4)cc2)cc1
REMARK SMILES IDX 24 1 23 2 21 3 22 4 20 6 19 7 18 8 9 9 10 10 11 11 15 12
REMARK SMILES IDX 14 13 8 14 7 15 6 16 3 17 4 18 94 19 5 20 93 21 2 22 1 23
REMARK SMILES IDX 12 24 13 25 16 26 17 27 25 28 26 29 27 30 28 31 29 33 30 34
REMARK SMILES IDX 31 35 92 36 32 37 91 38 33 39 34 40 35 41 85 42 36 43 90 44
REMARK SMILES IDX 84 45 86 46 37 47 89 48 83 49 82 50 38 52 70 53 50 54 69 55
REMARK SMILES IDX 51 56 54 57 68 58 87 59 52 60 53 61 67 63 88 64 55 65 39 66
REMARK SMILES IDX 40 67 48 68 41 69 43 70 49 71 42 72 44 73 45 74 46 75 47 76
REMARK SMILES IDX 71 77 72 78 80 79 73 80 75 81 81 82 74 83 76 84 77 85 78 86
REMARK SMILES IDX 79 87 56 88 57 89 65 90 58 91 60 92 66 93 59 94 61 95 62 96
REMARK SMILES IDX 63 97 64 98
REMARK H PARENT 23 5 27 32 86 51 54 62
REMARK Flexibility Score: inf
ROOT
ATOM      1  C   UNL A   1      32.120  30.169  26.933  1.00  0.00     0.118 C 
ENDROOT
BRANCH   1   2
ATOM      2  N   UNL A   1      33.442  29.878  27.448  1.00  0.00    -0.352 N 
ATOM      3  C   UNL A   1      34.266  28.861  27.082  1.00  0.00     0.244 C 
ATOM      4  O   UNL A   1      35.419  28.792  27.496  1.00  0.00    -0.270 OA
ATOM      5  H   UNL A   1      33.783  30.487  28.143  1.00  0.00     0.163 HD
BRANCH   3   6
ATOM      6  C   UNL A   1      33.762  27.860  26.125  1.00  0.00     0.072 C 
ATOM      7  C   UNL A   1      33.139  26.764  26.584  1.00  0.00     0.018 C 
BRANCH   7   8
ATOM      8  C   UNL A   1      32.762  25.643  25.710  1.00  0.00     0.024 A 
ATOM      9  C   UNL A   1      31.752  25.864  24.731  1.00  0.00    -0.011 A 
ATOM     10  C   UNL A   1      31.333  24.812  23.898  1.00  0.00     0.055 A 
ATOM     11  C   UNL A   1      31.878  23.538  24.029  1.00  0.00     0.123 A 
ATOM     12  C   UNL A   1      33.328  24.353  25.819  1.00  0.00     0.130 A 
ATOM     13  C   UNL A   1      32.882  23.327  24.968  1.00  0.00     0.093 A 
BRANCH   9  14
ATOM     14  C   UNL A   1      31.046  27.151  24.549  1.00  0.00     0.009 C 
ATOM     15  C   UNL A   1      30.241  27.415  23.505  1.00  0.00     0.009 C 
BRANCH  15  16
ATOM     16  C   UNL A   1      29.555  28.704  23.275  1.00  0.00    -0.025 A 
ATOM     17  C   UNL A   1      28.268  31.210  22.973  1.00  0.00     0.118 A 
ATOM     18  C   UNL A   1      27.733  30.059  22.395  1.00  0.00     0.047 A 
ATOM     19  C   UNL A   1      29.448  31.112  23.706  1.00  0.00     0.047 A 
ATOM     20  C   UNL A   1      28.373  28.820  22.535  1.00  0.00     0.012 A 
ATOM     21  C   UNL A   1      30.093  29.873  23.839  1.00  0.00     0.012 A 
BRANCH  17  22
ATOM     22  O   UNL A   1      27.542  32.351  22.768  1.00  0.00    -0.497 OA
ATOM     23  C   UNL A   1      27.877  33.120  21.619  1.00  0.00     0.278 C 
ENDBRANCH  17  22
ENDBRANCH  15  16
ENDBRANCH   9  14
BRANCH  11  24
ATOM     24  O   UNL A   1      31.368  22.583  23.193  1.00  0.00    -0.497 OA
ATOM     25  C   UNL A   1      32.269  21.545  22.818  1.00  0.00     0.278 C 
ENDBRANCH  11  24
BRANCH  12  26
ATOM     26  O   UNL A   1      34.305  23.874  26.653  1.00  0.00    -0.496 OA
ATOM     27  C   UNL A   1      35.468  23.229  26.162  1.00  0.00     0.278 C 
ENDBRANCH  12  26
ENDBRANCH   7   8
ENDBRANCH   3   6
ENDBRANCH   1   2
BRANCH   1  28
ATOM     28  C   UNL A   1      31.832  31.661  26.908  1.00  0.00     0.042 C 
BRANCH  28  29
ATOM     29  C   UNL A   1      33.051  32.503  27.245  1.00  0.00     0.118 C 
BRANCH  29  30
ATOM     30  N   UNL A   1      32.697  33.872  27.614  1.00  0.00    -0.352 N 
ATOM     31  C   UNL A   1      33.143  34.638  28.665  1.00  0.00     0.251 C 
ATOM     32  H   UNL A   1      32.042  34.311  27.024  1.00  0.00     0.163 HD
ATOM     33  O   UNL A   1      32.585  35.691  28.941  1.00  0.00    -0.269 OA
BRANCH  31  34
ATOM     34  C   UNL A   1      34.309  34.175  29.444  1.00  0.00     0.039 A 
ATOM     35  C   UNL A   1      34.112  33.465  30.630  1.00  0.00     0.014 A 
ATOM     36  C   UNL A   1      35.600  34.439  28.982  1.00  0.00     0.014 A 
ATOM     37  C   UNL A   1      35.216  32.965  31.324  1.00  0.00     0.010 A 
ATOM     38  C   UNL A   1      36.687  33.864  29.620  1.00  0.00     0.010 A 
ATOM     39  C   UNL A   1      36.509  33.136  30.806  1.00  0.00    -0.014 A 
BRANCH  39  40
ATOM     40  C   UNL A   1      37.715  32.600  31.482  1.00  0.00     0.031 A 
ATOM     41  C   UNL A   1      38.466  31.464  30.842  1.00  0.00     0.074 A 
ATOM     42  C   UNL A   1      38.043  33.030  32.716  1.00  0.00     0.049 A 
ATOM     43  N   UNL A   1      39.417  30.718  31.336  1.00  0.00    -0.248 NA
ATOM     44  C   UNL A   1      38.057  31.087  29.476  1.00  0.00     0.031 C 
ATOM     45  C   UNL A   1      37.343  34.077  33.464  1.00  0.00     0.029 A 
ATOM     46  N   UNL A   1      39.024  32.607  33.576  1.00  0.00    -0.354 N 
ATOM     47  C   UNL A   1      39.676  29.750  30.373  1.00  0.00     0.074 A 
ATOM     48  C   UNL A   1      38.763  29.984  29.277  1.00  0.00     0.031 C 
ATOM     49  C   UNL A   1      37.911  34.207  34.674  1.00  0.00     0.029 A 
ATOM     50  C   UNL A   1      38.990  33.233  34.801  1.00  0.00     0.049 A 
ATOM     51  H   UNL A   1      39.689  31.922  33.340  1.00  0.00     0.167 HD
ATOM     52  C   UNL A   1      40.610  28.772  30.388  1.00  0.00     0.034 A 
ATOM     53  C   UNL A   1      39.735  33.029  35.905  1.00  0.00     0.034 A 
ATOM     54  C   UNL A   1      41.561  28.598  31.449  1.00  0.00     0.049 A 
ATOM     55  C   UNL A   1      40.815  31.982  35.869  1.00  0.00     0.074 A 
ATOM     56  C   UNL A   1      42.615  27.706  31.522  1.00  0.00     0.029 A 
ATOM     57  N   UNL A   1      41.578  29.338  32.621  1.00  0.00    -0.354 N 
ATOM     58  N   UNL A   1      41.141  31.167  34.893  1.00  0.00    -0.248 NA
ATOM     59  C   UNL A   1      41.653  31.844  37.069  1.00  0.00     0.031 C 
ATOM     60  C   UNL A   1      43.265  27.902  32.745  1.00  0.00     0.029 A 
ATOM     61  C   UNL A   1      42.625  28.927  33.424  1.00  0.00     0.049 A 
ATOM     62  H   UNL A   1      40.938  30.051  32.848  1.00  0.00     0.167 HD
ATOM     63  C   UNL A   1      42.245  30.453  35.343  1.00  0.00     0.074 A 
ATOM     64  C   UNL A   1      42.540  30.938  36.676  1.00  0.00     0.031 C 
ATOM     65  C   UNL A   1      42.944  29.476  34.716  1.00  0.00     0.034 A 
BRANCH  52  66
ATOM     66  C   UNL A   1      40.688  27.858  29.193  1.00  0.00     0.023 A 
ATOM     67  C   UNL A   1      39.848  26.727  29.129  1.00  0.00     0.012 A 
ATOM     68  C   UNL A   1      41.553  28.138  28.118  1.00  0.00     0.148 A 
ATOM     69  C   UNL A   1      39.896  25.868  28.031  1.00  0.00     0.002 A 
ATOM     70  C   UNL A   1      41.562  27.303  27.007  1.00  0.00     0.091 A 
ATOM     71  F   UNL A   1      42.361  29.204  28.207  1.00  0.00    -0.205 F 
ATOM     72  C   UNL A   1      40.744  26.162  26.967  1.00  0.00     0.022 A 
BRANCH  70  73
ATOM     73  S   UNL A   1      42.559  27.638  25.551  1.00  0.00     0.127 S 
ATOM     74  O   UNL A   1      43.900  27.728  26.127  1.00  0.00    -0.237 OA
ATOM     75  O   UNL A   1      42.326  26.446  24.735  1.00  0.00    -0.237 OA
ATOM     76  O   UNL A   1      42.037  28.874  24.984  1.00  0.00    -0.744 OA
ENDBRANCH  70  73
ENDBRANCH  52  66
BRANCH  53  77
ATOM     77  C   UNL A   1      39.533  33.887  37.107  1.00  0.00     0.023 A 
ATOM     78  C   UNL A   1      39.952  35.230  37.069  1.00  0.00     0.012 A 
ATOM     79  C   UNL A   1      38.902  33.399  38.268  1.00  0.00     0.148 A 
ATOM     80  C   UNL A   1      39.773  36.067  38.172  1.00  0.00     0.002 A 
ATOM     81  C   UNL A   1      38.680  34.251  39.346  1.00  0.00     0.091 A 
ATOM     82  F   UNL A   1      38.519  32.114  38.293  1.00  0.00    -0.205 F 
ATOM     83  C   UNL A   1      39.129  35.580  39.306  1.00  0.00     0.022 A 
BRANCH  81  84
ATOM     84  S   UNL A   1      37.743  33.747  40.794  1.00  0.00     0.127 S 
ATOM     85  O   UNL A   1      37.560  35.018  41.489  1.00  0.00    -0.237 OA
ATOM     86  O   UNL A   1      36.528  33.194  40.194  1.00  0.00    -0.237 OA
ATOM     87  O   UNL A   1      38.574  32.764  41.476  1.00  0.00    -0.744 OA
ENDBRANCH  81  84
ENDBRANCH  53  77
BRANCH  65  88
ATOM     88  C   UNL A   1      44.133  28.892  35.429  1.00  0.00     0.023 A 
ATOM     89  C   UNL A   1      45.393  29.508  35.310  1.00  0.00     0.012 A 
ATOM     90  C   UNL A   1      43.970  27.805  36.311  1.00  0.00     0.148 A 
ATOM     91  C   UNL A   1      46.480  29.040  36.046  1.00  0.00     0.002 A 
ATOM     92  C   UNL A   1      45.046  27.374  37.077  1.00  0.00     0.091 A 
ATOM     93  F   UNL A   1      42.764  27.225  36.395  1.00  0.00    -0.205 F 
ATOM     94  C   UNL A   1      46.303  27.985  36.939  1.00  0.00     0.022 A 
BRANCH  92  95
ATOM     95  S   UNL A   1      44.889  26.090  38.323  1.00  0.00     0.127 S 
ATOM     96  O   UNL A   1      43.867  26.653  39.203  1.00  0.00    -0.237 OA
ATOM     97  O   UNL A   1      44.446  24.942  37.529  1.00  0.00    -0.237 OA
ATOM     98  O   UNL A   1      46.210  25.941  38.917  1.00  0.00    -0.744 OA
ENDBRANCH  92  95
ENDBRANCH  65  88
ENDBRANCH  39  40
ENDBRANCH  31  34
ENDBRANCH  29  30
ENDBRANCH  28  29
ENDBRANCH   1  28
TORSDOF 19
ENDMDL
MODEL 2
REMARK VINA RESULT:     -11.4      6.001     12.068
REMARK SMILES COc1ccc(/C=C/c2cc(OC)cc(OC)c2/C=C/C(=O)NCCCNC(=O)c2ccc(-c3c4nc(c(-c5cccc(S(=O)(=O)[O-])c5F)c5ccc([nH]5)c(-c5cccc(S(=O)(=O)[O-])c5F)c5nc(c(-c6cccc(S(=O)(=O)[O-])c6F)c6ccc3[nH]6)C=C5)C=C4)cc2)cc1
REMARK SMILES IDX 24 1 23 2 21 3 22 4 20 6 19 7 18 8 9 9 10 10 11 11 15 12
REMARK SMILES IDX 14 13 8 14 7 15 6 16 3 17 4 18 94 19 5 20 93 21 2 22 1 23
REMARK SMILES IDX 12 24 13 25 16 26 17 27 25 28 26 29 27 30 28 31 29 33 30 34
REMARK SMILES IDX 31 35 92 36 32 37 91 38 33 39 34 40 35 41 85 42 36 43 90 44
REMARK SMILES IDX 84 45 86 46 37 47 89 48 83 49 82 50 38 52 70 53 50 54 69 55
REMARK SMILES IDX 51 56 54 57 68 58 87 59 52 60 53 61 67 63 88 64 55 65 39 66
REMARK SMILES IDX 40 67 48 68 41 69 43 70 49 71 42 72 44 73 45 74 46 75 47 76
REMARK SMILES IDX 71 77 72 78 80 79 73 80 75 81 81 82 74 83 76 84 77 85 78 86
REMARK SMILES IDX 79 87 56 88 57 89 65 90 58 91 60 92 66 93 59 94 61 95 62 96
REMARK SMILES IDX 63 97 64 98
REMARK H PARENT 23 5 27 32 86 51 54 62
REMARK Flexibility Score: inf
ROOT
ATOM      1  C   UNL A   1      37.012  21.237  24.769  1.00  0.00     0.118 C 
ENDROOT
BRANCH   1   2
ATOM      2  N   UNL A   1      36.776  21.915  26.026  1.00  0.00    -0.352 N 
ATOM      3  C   UNL A   1      36.059  23.053  26.229  1.00  0.00     0.244 C 
ATOM      4  O   UNL A   1      35.819  23.464  27.359  1.00  0.00    -0.270 OA
ATOM      5  H   UNL A   1      37.179  21.506  26.825  1.00  0.00     0.163 HD
BRANCH   3   6
ATOM      6  C   UNL A   1      35.525  23.764  25.053  1.00  0.00     0.072 C 
ATOM      7  C   UNL A   1      34.295  24.295  25.106  1.00  0.00     0.018 C 
BRANCH   7   8
ATOM      8  C   UNL A   1      33.627  24.866  23.927  1.00  0.00     0.024 A 
ATOM      9  C   UNL A   1      33.135  23.972  22.933  1.00  0.00    -0.011 A 
ATOM     10  C   UNL A   1      32.523  24.474  21.772  1.00  0.00     0.055 A 
ATOM     11  C   UNL A   1      32.408  25.844  21.561  1.00  0.00     0.123 A 
ATOM     12  C   UNL A   1      33.483  26.256  23.717  1.00  0.00     0.130 A 
ATOM     13  C   UNL A   1      32.865  26.718  22.542  1.00  0.00     0.093 A 
BRANCH   9  14
ATOM     14  C   UNL A   1      33.269  22.501  23.009  1.00  0.00     0.009 C 
ATOM     15  C   UNL A   1      32.525  21.730  23.821  1.00  0.00     0.009 C 
BRANCH  15  16
ATOM     16  C   UNL A   1      32.662  20.263  23.949  1.00  0.00    -0.025 A 
ATOM     17  C   UNL A   1      32.800  17.438  24.118  1.00  0.00     0.118 A 
ATOM     18  C   UNL A   1      33.129  18.236  25.214  1.00  0.00     0.047 A 
ATOM     19  C   UNL A   1      32.399  18.051  22.934  1.00  0.00     0.047 A 
ATOM     20  C   UNL A   1      33.071  19.634  25.130  1.00  0.00     0.012 A 
ATOM     21  C   UNL A   1      32.348  19.450  22.847  1.00  0.00     0.012 A 
BRANCH  17  22
ATOM     22  O   UNL A   1      32.891  16.091  24.336  1.00  0.00    -0.497 OA
ATOM     23  C   UNL A   1      33.535  15.682  25.536  1.00  0.00     0.278 C 
ENDBRANCH  17  22
ENDBRANCH  15  16
ENDBRANCH   9  14
BRANCH  11  24
ATOM     24  O   UNL A   1      31.830  26.219  20.379  1.00  0.00    -0.497 OA
ATOM     25  C   UNL A   1      32.268  25.508  19.225  1.00  0.00     0.278 C 
ENDBRANCH  11  24
BRANCH  12  26
ATOM     26  O   UNL A   1      33.851  27.320  24.499  1.00  0.00    -0.496 OA
ATOM     27  C   UNL A   1      33.091  27.731  25.622  1.00  0.00     0.278 C 
ENDBRANCH  12  26
ENDBRANCH   7   8
ENDBRANCH   3   6
ENDBRANCH   1   2
BRANCH   1  28
ATOM     28  C   UNL A   1      38.039  20.125  24.904  1.00  0.00     0.042 C 
BRANCH  28  29
ATOM     29  C   UNL A   1      39.155  20.467  25.878  1.00  0.00     0.118 C 
BRANCH  29  30
ATOM     30  N   UNL A   1      40.116  19.377  26.028  1.00  0.00    -0.352 N 
ATOM     31  C   UNL A   1      41.482  19.429  26.172  1.00  0.00     0.251 C 
ATOM     32  H   UNL A   1      39.729  18.472  26.025  1.00  0.00     0.163 HD
ATOM     33  O   UNL A   1      42.152  18.410  26.078  1.00  0.00    -0.269 OA
BRANCH  31  34
ATOM     34  C   UNL A   1      42.124  20.731  26.453  1.00  0.00     0.039 A 
ATOM     35  C   UNL A   1      42.440  21.588  25.397  1.00  0.00     0.014 A 
ATOM     36  C   UNL A   1      42.396  21.098  27.771  1.00  0.00     0.014 A 
ATOM     37  C   UNL A   1      42.976  22.848  25.672  1.00  0.00     0.010 A 
ATOM     38  C   UNL A   1      42.841  22.381  28.047  1.00  0.00     0.010 A 
ATOM     39  C   UNL A   1      43.152  23.263  27.001  1.00  0.00    -0.014 A 
BRANCH  39  40
ATOM     40  C   UNL A   1      43.688  24.600  27.353  1.00  0.00     0.031 A 
ATOM     41  C   UNL A   1      42.745  25.651  27.873  1.00  0.00     0.074 A 
ATOM     42  C   UNL A   1      44.971  24.906  27.077  1.00  0.00     0.049 A 
ATOM     43  N   UNL A   1      42.948  26.927  28.058  1.00  0.00    -0.248 NA
ATOM     44  C   UNL A   1      41.370  25.213  28.179  1.00  0.00     0.031 C 
ATOM     45  C   UNL A   1      45.958  23.988  26.506  1.00  0.00     0.029 A 
ATOM     46  N   UNL A   1      45.651  26.092  27.197  1.00  0.00    -0.354 N 
ATOM     47  C   UNL A   1      41.720  27.453  28.440  1.00  0.00     0.074 A 
ATOM     48  C   UNL A   1      40.769  26.365  28.433  1.00  0.00     0.031 C 
ATOM     49  C   UNL A   1      47.114  24.647  26.318  1.00  0.00     0.029 A 
ATOM     50  C   UNL A   1      46.940  26.038  26.720  1.00  0.00     0.049 A 
ATOM     51  H   UNL A   1      45.254  26.903  27.588  1.00  0.00     0.167 HD
ATOM     52  C   UNL A   1      41.418  28.724  28.793  1.00  0.00     0.034 A 
ATOM     53  C   UNL A   1      47.868  27.008  26.606  1.00  0.00     0.034 A 
ATOM     54  C   UNL A   1      42.389  29.779  28.869  1.00  0.00     0.049 A 
ATOM     55  C   UNL A   1      47.527  28.398  27.073  1.00  0.00     0.074 A 
ATOM     56  C   UNL A   1      42.215  31.078  29.311  1.00  0.00     0.029 A 
ATOM     57  N   UNL A   1      43.719  29.654  28.500  1.00  0.00    -0.354 N 
ATOM     58  N   UNL A   1      46.398  28.847  27.568  1.00  0.00    -0.248 NA
ATOM     59  C   UNL A   1      48.593  29.408  27.000  1.00  0.00     0.031 C 
ATOM     60  C   UNL A   1      43.440  31.741  29.201  1.00  0.00     0.029 A 
ATOM     61  C   UNL A   1      44.380  30.850  28.706  1.00  0.00     0.049 A 
ATOM     62  H   UNL A   1      44.131  28.835  28.142  1.00  0.00     0.167 HD
ATOM     63  C   UNL A   1      46.629  30.175  27.904  1.00  0.00     0.074 A 
ATOM     64  C   UNL A   1      48.010  30.456  27.567  1.00  0.00     0.031 C 
ATOM     65  C   UNL A   1      45.774  31.085  28.432  1.00  0.00     0.034 A 
BRANCH  52  66
ATOM     66  C   UNL A   1      39.995  29.024  29.185  1.00  0.00     0.023 A 
ATOM     67  C   UNL A   1      39.027  29.229  28.180  1.00  0.00     0.012 A 
ATOM     68  C   UNL A   1      39.605  29.059  30.538  1.00  0.00     0.148 A 
ATOM     69  C   UNL A   1      37.701  29.501  28.515  1.00  0.00     0.002 A 
ATOM     70  C   UNL A   1      38.273  29.286  30.862  1.00  0.00     0.091 A 
ATOM     71  F   UNL A   1      40.543  28.885  31.479  1.00  0.00    -0.205 F 
ATOM     72  C   UNL A   1      37.323  29.519  29.855  1.00  0.00     0.022 A 
BRANCH  70  73
ATOM     73  S   UNL A   1      37.669  29.249  32.554  1.00  0.00     0.127 S 
ATOM     74  O   UNL A   1      36.298  29.730  32.389  1.00  0.00    -0.237 OA
ATOM     75  O   UNL A   1      37.780  27.830  32.891  1.00  0.00    -0.237 OA
ATOM     76  O   UNL A   1      38.552  30.124  33.314  1.00  0.00    -0.744 OA
ENDBRANCH  70  73
ENDBRANCH  52  66
BRANCH  53  77
ATOM     77  C   UNL A   1      49.229  26.679  26.096  1.00  0.00     0.023 A 
ATOM     78  C   UNL A   1      50.080  25.878  26.882  1.00  0.00     0.012 A 
ATOM     79  C   UNL A   1      49.674  27.117  24.834  1.00  0.00     0.148 A 
ATOM     80  C   UNL A   1      51.359  25.542  26.435  1.00  0.00     0.002 A 
ATOM     81  C   UNL A   1      50.931  26.736  24.371  1.00  0.00     0.091 A 
ATOM     82  F   UNL A   1      48.856  27.888  24.103  1.00  0.00    -0.205 F 
ATOM     83  C   UNL A   1      51.780  25.963  25.177  1.00  0.00     0.022 A 
BRANCH  81  84
ATOM     84  S   UNL A   1      51.503  27.123  22.713  1.00  0.00     0.127 S 
ATOM     85  O   UNL A   1      52.737  26.346  22.634  1.00  0.00    -0.237 OA
ATOM     86  O   UNL A   1      50.405  26.618  21.886  1.00  0.00    -0.237 OA
ATOM     87  O   UNL A   1      51.660  28.570  22.679  1.00  0.00    -0.744 OA
ENDBRANCH  81  84
ENDBRANCH  53  77
BRANCH  65  88
ATOM     88  C   UNL A   1      46.305  32.459  28.734  1.00  0.00     0.023 A 
ATOM     89  C   UNL A   1      46.861  32.733  29.998  1.00  0.00     0.012 A 
ATOM     90  C   UNL A   1      46.360  33.439  27.722  1.00  0.00     0.148 A 
ATOM     91  C   UNL A   1      47.450  33.969  30.257  1.00  0.00     0.002 A 
ATOM     92  C   UNL A   1      46.991  34.651  27.973  1.00  0.00     0.091 A 
ATOM     93  F   UNL A   1      45.809  33.160  26.533  1.00  0.00    -0.205 F 
ATOM     94  C   UNL A   1      47.528  34.920  29.242  1.00  0.00     0.022 A 
BRANCH  92  95
ATOM     95  S   UNL A   1      47.227  35.895  26.700  1.00  0.00     0.127 S 
ATOM     96  O   UNL A   1      47.634  35.080  25.558  1.00  0.00    -0.237 OA
ATOM     97  O   UNL A   1      45.889  36.479  26.588  1.00  0.00    -0.237 OA
ATOM     98  O   UNL A   1      48.243  36.806  27.210  1.00  0.00    -0.744 OA
ENDBRANCH  92  95
ENDBRANCH  65  88
ENDBRANCH  39  40
ENDBRANCH  31  34
ENDBRANCH  29  30
ENDBRANCH  28  29
ENDBRANCH   1  28
TORSDOF 19
ENDMDL
MODEL 3
REMARK VINA RESULT:     -11.2      5.700      9.445
REMARK SMILES COc1ccc(/C=C/c2cc(OC)cc(OC)c2/C=C/C(=O)NCCCNC(=O)c2ccc(-c3c4nc(c(-c5cccc(S(=O)(=O)[O-])c5F)c5ccc([nH]5)c(-c5cccc(S(=O)(=O)[O-])c5F)c5nc(c(-c6cccc(S(=O)(=O)[O-])c6F)c6ccc3[nH]6)C=C5)C=C4)cc2)cc1
REMARK SMILES IDX 24 1 23 2 21 3 22 4 20 6 19 7 18 8 9 9 10 10 11 11 15 12
REMARK SMILES IDX 14 13 8 14 7 15 6 16 3 17 4 18 94 19 5 20 93 21 2 22 1 23
REMARK SMILES IDX 12 24 13 25 16 26 17 27 25 28 26 29 27 30 28 31 29 33 30 34
REMARK SMILES IDX 31 35 92 36 32 37 91 38 33 39 34 40 35 41 85 42 36 43 90 44
REMARK SMILES IDX 84 45 86 46 37 47 89 48 83 49 82 50 38 52 70 53 50 54 69 55
REMARK SMILES IDX 51 56 54 57 68 58 87 59 52 60 53 61 67 63 88 64 55 65 39 66
REMARK SMILES IDX 40 67 48 68 41 69 43 70 49 71 42 72 44 73 45 74 46 75 47 76
REMARK SMILES IDX 71 77 72 78 80 79 73 80 75 81 81 82 74 83 76 84 77 85 78 86
REMARK SMILES IDX 79 87 56 88 57 89 65 90 58 91 60 92 66 93 59 94 61 95 62 96
REMARK SMILES IDX 63 97 64 98
REMARK H PARENT 23 5 27 32 86 51 54 62
REMARK Flexibility Score: inf
ROOT
ATOM      1  C   UNL A   1      35.681  22.606  26.199  1.00  0.00     0.118 C 
ENDROOT
BRANCH   1   2
ATOM      2  N   UNL A   1      34.737  22.425  27.282  1.00  0.00    -0.352 N 
ATOM      3  C   UNL A   1      33.526  23.025  27.432  1.00  0.00     0.244 C 
ATOM      4  O   UNL A   1      32.755  22.694  28.326  1.00  0.00    -0.270 OA
ATOM      5  H   UNL A   1      35.002  21.796  27.991  1.00  0.00     0.163 HD
BRANCH   3   6
ATOM      6  C   UNL A   1      33.129  24.055  26.455  1.00  0.00     0.072 C 
ATOM      7  C   UNL A   1      31.905  24.598  26.530  1.00  0.00     0.018 C 
BRANCH   7   8
ATOM      8  C   UNL A   1      31.374  25.500  25.496  1.00  0.00     0.024 A 
ATOM      9  C   UNL A   1      30.938  24.931  24.266  1.00  0.00    -0.011 A 
ATOM     10  C   UNL A   1      30.458  25.758  23.236  1.00  0.00     0.055 A 
ATOM     11  C   UNL A   1      30.420  27.140  23.389  1.00  0.00     0.123 A 
ATOM     12  C   UNL A   1      31.310  26.902  25.653  1.00  0.00     0.130 A 
ATOM     13  C   UNL A   1      30.823  27.695  24.599  1.00  0.00     0.093 A 
BRANCH   9  14
ATOM     14  C   UNL A   1      31.000  23.485  23.958  1.00  0.00     0.009 C 
ATOM     15  C   UNL A   1      32.151  22.817  23.766  1.00  0.00     0.009 C 
BRANCH  15  16
ATOM     16  C   UNL A   1      32.245  21.383  23.417  1.00  0.00    -0.025 A 
ATOM     17  C   UNL A   1      32.548  18.628  22.830  1.00  0.00     0.118 A 
ATOM     18  C   UNL A   1      32.148  19.529  21.843  1.00  0.00     0.047 A 
ATOM     19  C   UNL A   1      32.800  19.103  24.115  1.00  0.00     0.047 A 
ATOM     20  C   UNL A   1      31.988  20.890  22.133  1.00  0.00     0.012 A 
ATOM     21  C   UNL A   1      32.632  20.465  24.408  1.00  0.00     0.012 A 
BRANCH  17  22
ATOM     22  O   UNL A   1      32.673  17.332  22.413  1.00  0.00    -0.497 OA
ATOM     23  C   UNL A   1      33.645  16.538  23.084  1.00  0.00     0.278 C 
ENDBRANCH  17  22
ENDBRANCH  15  16
ENDBRANCH   9  14
BRANCH  11  24
ATOM     24  O   UNL A   1      29.971  27.848  22.308  1.00  0.00    -0.497 OA
ATOM     25  C   UNL A   1      29.786  29.245  22.519  1.00  0.00     0.278 C 
ENDBRANCH  11  24
BRANCH  12  26
ATOM     26  O   UNL A   1      31.649  27.699  26.716  1.00  0.00    -0.496 OA
ATOM     27  C   UNL A   1      32.748  28.591  26.672  1.00  0.00     0.278 C 
ENDBRANCH  12  26
ENDBRANCH   7   8
ENDBRANCH   3   6
ENDBRANCH   1   2
BRANCH   1  28
ATOM     28  C   UNL A   1      36.020  21.294  25.512  1.00  0.00     0.042 C 
BRANCH  28  29
ATOM     29  C   UNL A   1      37.399  21.301  24.873  1.00  0.00     0.118 C 
BRANCH  29  30
ATOM     30  N   UNL A   1      38.318  20.368  25.522  1.00  0.00    -0.352 N 
ATOM     31  C   UNL A   1      39.565  20.594  26.053  1.00  0.00     0.251 C 
ATOM     32  H   UNL A   1      37.996  19.439  25.588  1.00  0.00     0.163 HD
ATOM     33  O   UNL A   1      40.280  19.654  26.373  1.00  0.00    -0.269 OA
BRANCH  31  34
ATOM     34  C   UNL A   1      40.021  21.987  26.241  1.00  0.00     0.039 A 
ATOM     35  C   UNL A   1      39.081  23.014  26.348  1.00  0.00     0.014 A 
ATOM     36  C   UNL A   1      41.387  22.264  26.323  1.00  0.00     0.014 A 
ATOM     37  C   UNL A   1      39.513  24.318  26.600  1.00  0.00     0.010 A 
ATOM     38  C   UNL A   1      41.808  23.539  26.665  1.00  0.00     0.010 A 
ATOM     39  C   UNL A   1      40.879  24.582  26.790  1.00  0.00    -0.014 A 
BRANCH  39  40
ATOM     40  C   UNL A   1      41.393  25.940  27.091  1.00  0.00     0.031 A 
ATOM     41  C   UNL A   1      42.798  26.295  26.685  1.00  0.00     0.074 A 
ATOM     42  C   UNL A   1      40.660  26.787  27.841  1.00  0.00     0.049 A 
ATOM     43  N   UNL A   1      43.515  27.337  27.011  1.00  0.00    -0.248 NA
ATOM     44  C   UNL A   1      43.507  25.321  25.836  1.00  0.00     0.031 C 
ATOM     45  C   UNL A   1      39.313  26.521  28.351  1.00  0.00     0.029 A 
ATOM     46  N   UNL A   1      40.967  28.027  28.342  1.00  0.00    -0.354 N 
ATOM     47  C   UNL A   1      44.772  27.114  26.462  1.00  0.00     0.074 A 
ATOM     48  C   UNL A   1      44.730  25.827  25.808  1.00  0.00     0.031 C 
ATOM     49  C   UNL A   1      38.914  27.563  29.099  1.00  0.00     0.029 A 
ATOM     50  C   UNL A   1      39.985  28.551  29.152  1.00  0.00     0.049 A 
ATOM     51  H   UNL A   1      41.808  28.497  28.141  1.00  0.00     0.167 HD
ATOM     52  C   UNL A   1      45.856  27.924  26.478  1.00  0.00     0.034 A 
ATOM     53  C   UNL A   1      39.964  29.692  29.868  1.00  0.00     0.034 A 
ATOM     54  C   UNL A   1      45.861  29.234  27.068  1.00  0.00     0.049 A 
ATOM     55  C   UNL A   1      41.157  30.608  29.810  1.00  0.00     0.074 A 
ATOM     56  C   UNL A   1      46.869  30.180  27.053  1.00  0.00     0.029 A 
ATOM     57  N   UNL A   1      44.801  29.785  27.770  1.00  0.00    -0.354 N 
ATOM     58  N   UNL A   1      42.289  30.447  29.167  1.00  0.00    -0.248 NA
ATOM     59  C   UNL A   1      41.061  31.878  30.546  1.00  0.00     0.031 C 
ATOM     60  C   UNL A   1      46.421  31.302  27.756  1.00  0.00     0.029 A 
ATOM     61  C   UNL A   1      45.127  31.060  28.193  1.00  0.00     0.049 A 
ATOM     62  H   UNL A   1      43.942  29.335  27.943  1.00  0.00     0.167 HD
ATOM     63  C   UNL A   1      43.021  31.609  29.384  1.00  0.00     0.074 A 
ATOM     64  C   UNL A   1      42.200  32.470  30.210  1.00  0.00     0.031 C 
ATOM     65  C   UNL A   1      44.265  31.929  28.951  1.00  0.00     0.034 A 
BRANCH  52  66
ATOM     66  C   UNL A   1      47.103  27.441  25.785  1.00  0.00     0.023 A 
ATOM     67  C   UNL A   1      47.261  27.668  24.403  1.00  0.00     0.012 A 
ATOM     68  C   UNL A   1      48.136  26.808  26.504  1.00  0.00     0.148 A 
ATOM     69  C   UNL A   1      48.409  27.237  23.739  1.00  0.00     0.002 A 
ATOM     70  C   UNL A   1      49.296  26.423  25.844  1.00  0.00     0.091 A 
ATOM     71  F   UNL A   1      47.959  26.581  27.813  1.00  0.00    -0.205 F 
ATOM     72  C   UNL A   1      49.430  26.625  24.460  1.00  0.00     0.022 A 
BRANCH  70  73
ATOM     73  S   UNL A   1      50.702  25.700  26.698  1.00  0.00     0.127 S 
ATOM     74  O   UNL A   1      50.110  24.490  27.266  1.00  0.00    -0.237 OA
ATOM     75  O   UNL A   1      51.641  25.462  25.601  1.00  0.00    -0.237 OA
ATOM     76  O   UNL A   1      51.139  26.697  27.665  1.00  0.00    -0.744 OA
ENDBRANCH  70  73
ENDBRANCH  52  66
BRANCH  53  77
ATOM     77  C   UNL A   1      38.743  30.065  30.637  1.00  0.00     0.023 A 
ATOM     78  C   UNL A   1      38.604  29.612  31.964  1.00  0.00     0.012 A 
ATOM     79  C   UNL A   1      37.742  30.888  30.086  1.00  0.00     0.148 A 
ATOM     80  C   UNL A   1      37.479  29.947  32.719  1.00  0.00     0.002 A 
ATOM     81  C   UNL A   1      36.647  31.260  30.861  1.00  0.00     0.091 A 
ATOM     82  F   UNL A   1      37.884  31.301  28.819  1.00  0.00    -0.205 F 
ATOM     83  C   UNL A   1      36.506  30.778  32.171  1.00  0.00     0.022 A 
BRANCH  81  84
ATOM     84  S   UNL A   1      35.413  32.431  30.282  1.00  0.00     0.127 S 
ATOM     85  O   UNL A   1      34.948  31.793  29.054  1.00  0.00    -0.237 OA
ATOM     86  O   UNL A   1      34.447  32.424  31.383  1.00  0.00    -0.237 OA
ATOM     87  O   UNL A   1      36.119  33.694  30.115  1.00  0.00    -0.744 OA
ENDBRANCH  81  84
ENDBRANCH  53  77
BRANCH  65  88
ATOM     88  C   UNL A   1      44.808  33.285  29.307  1.00  0.00     0.023 A 
ATOM     89  C   UNL A   1      45.563  33.450  30.485  1.00  0.00     0.012 A 
ATOM     90  C   UNL A   1      44.670  34.364  28.412  1.00  0.00     0.148 A 
ATOM     91  C   UNL A   1      46.159  34.675  30.774  1.00  0.00     0.002 A 
ATOM     92  C   UNL A   1      45.307  35.568  28.684  1.00  0.00     0.091 A 
ATOM     93  F   UNL A   1      43.934  34.187  27.306  1.00  0.00    -0.205 F 
ATOM     94  C   UNL A   1      46.044  35.728  29.869  1.00  0.00     0.022 A 
BRANCH  92  95
ATOM     95  S   UNL A   1      45.298  36.945  27.530  1.00  0.00     0.127 S 
ATOM     96  O   UNL A   1      45.952  36.359  26.362  1.00  0.00    -0.237 OA
ATOM     97  O   UNL A   1      43.866  37.200  27.365  1.00  0.00    -0.237 OA
ATOM     98  O   UNL A   1      46.032  38.021  28.182  1.00  0.00    -0.744 OA
ENDBRANCH  92  95
ENDBRANCH  65  88
ENDBRANCH  39  40
ENDBRANCH  31  34
ENDBRANCH  29  30
ENDBRANCH  28  29
ENDBRANCH   1  28
TORSDOF 19
ENDMDL
