MODEL 1
REMARK VINA RESULT:     -12.8      0.000      0.000
REMARK SMILES CCOc1ccccc1-c1cc(C(=O)NCCCNC(=O)c2ccc(-c3c4nc(c(-c5cccc(S(=O)(=O)[O-])c5F)c5ccc([nH]5)c(-c5cccc(S(=O)(=O)[O-])c5F)c5nc(c(-c6cccc(S(=O)(=O)[O-])c6F)c6ccc3[nH]6)C=C5)C=C4)cc2)c2cc(C)cc(C)c2n1
REMARK SMILES IDX 17 1 16 2 15 3 13 4 14 5 12 7 10 8 11 9 93 10 92 11 85 12
REMARK SMILES IDX 90 13 86 14 89 15 91 16 87 17 88 18 9 19 4 20 5 21 6 22 8 23
REMARK SMILES IDX 7 24 3 25 2 26 1 27 18 28 19 29 20 30 21 32 22 33 23 34
REMARK SMILES IDX 84 35 24 36 83 37 25 38 26 39 27 40 77 41 28 42 82 43 76 44
REMARK SMILES IDX 78 45 29 46 81 47 75 48 74 49 30 51 62 52 42 53 61 54 43 55
REMARK SMILES IDX 46 56 60 57 79 58 44 59 45 60 59 62 80 63 47 64 31 65 32 66
REMARK SMILES IDX 40 67 33 68 35 69 41 70 34 71 36 72 37 73 38 74 39 75 63 76
REMARK SMILES IDX 64 77 72 78 65 79 67 80 73 81 66 82 68 83 69 84 70 85 71 86
REMARK SMILES IDX 48 87 49 88 57 89 50 90 52 91 58 92 51 93 53 94 54 95 55 96
REMARK SMILES IDX 56 97
REMARK H PARENT 15 6 19 31 78 50 46 61
REMARK Flexibility Score: inf
ROOT
ATOM      1  C   UNL A   1      31.478  32.176  26.780  1.00  0.00     0.042 C 
ENDROOT
BRANCH   1   2
ATOM      2  C   UNL A   1      31.432  30.663  27.003  1.00  0.00     0.118 C 
BRANCH   2   3
ATOM      3  N   UNL A   1      32.762  30.072  27.027  1.00  0.00    -0.352 N 
ATOM      4  C   UNL A   1      33.563  29.328  26.201  1.00  0.00     0.252 C 
ATOM      5  O   UNL A   1      34.733  29.258  26.592  1.00  0.00    -0.269 OA
ATOM      6  H   UNL A   1      33.215  30.261  27.881  1.00  0.00     0.163 HD
BRANCH   4   7
ATOM      7  C   UNL A   1      33.182  28.674  24.908  1.00  0.00     0.051 A 
ATOM      8  C   UNL A   1      31.973  28.487  22.886  1.00  0.00     0.075 A 
ATOM      9  C   UNL A   1      32.326  29.257  23.973  1.00  0.00     0.043 A 
ATOM     10  N   UNL A   1      32.884  27.614  22.427  1.00  0.00    -0.247 NA
ATOM     11  C   UNL A   1      33.376  26.815  23.366  1.00  0.00     0.075 A 
ATOM     12  C   UNL A   1      33.484  27.285  24.690  1.00  0.00     0.014 A 
ATOM     13  C   UNL A   1      33.531  25.461  23.055  1.00  0.00    -0.024 A 
ATOM     14  C   UNL A   1      33.614  26.303  25.707  1.00  0.00     0.014 A 
ATOM     15  C   UNL A   1      33.585  24.519  24.088  1.00  0.00     0.009 A 
ATOM     16  C   UNL A   1      33.386  24.961  21.641  1.00  0.00     0.047 C 
ATOM     17  C   UNL A   1      33.563  24.931  25.418  1.00  0.00    -0.050 A 
ATOM     18  C   UNL A   1      33.270  23.949  26.514  1.00  0.00     0.044 C 
BRANCH   8  19
ATOM     19  C   UNL A   1      30.612  27.851  22.791  1.00  0.00     0.042 A 
ATOM     20  C   UNL A   1      29.493  28.599  22.330  1.00  0.00     0.128 A 
ATOM     21  C   UNL A   1      28.216  28.368  22.848  1.00  0.00     0.047 A 
ATOM     22  C   UNL A   1      28.008  27.315  23.732  1.00  0.00     0.004 A 
ATOM     23  C   UNL A   1      30.351  26.719  23.583  1.00  0.00     0.014 A 
ATOM     24  C   UNL A   1      29.060  26.457  24.052  1.00  0.00     0.001 A 
BRANCH  20  25
ATOM     25  O   UNL A   1      29.682  29.738  21.584  1.00  0.00    -0.493 OA
BRANCH  25  26
ATOM     26  C   UNL A   1      29.120  30.923  22.154  1.00  0.00     0.226 C 
ATOM     27  C   UNL A   1      28.407  31.764  21.110  1.00  0.00     0.049 C 
ENDBRANCH  25  26
ENDBRANCH  20  25
ENDBRANCH   8  19
ENDBRANCH   4   7
ENDBRANCH   2   3
ENDBRANCH   1   2
BRANCH   1  28
ATOM     28  C   UNL A   1      32.766  32.851  27.251  1.00  0.00     0.118 C 
BRANCH  28  29
ATOM     29  N   UNL A   1      32.539  34.203  27.745  1.00  0.00    -0.352 N 
ATOM     30  C   UNL A   1      33.094  34.875  28.806  1.00  0.00     0.251 C 
ATOM     31  H   UNL A   1      31.878  34.721  27.232  1.00  0.00     0.163 HD
ATOM     32  O   UNL A   1      32.578  35.928  29.178  1.00  0.00    -0.269 OA
BRANCH  30  33
ATOM     33  C   UNL A   1      34.288  34.355  29.510  1.00  0.00     0.039 A 
ATOM     34  C   UNL A   1      34.114  33.678  30.722  1.00  0.00     0.014 A 
ATOM     35  C   UNL A   1      35.578  34.576  29.021  1.00  0.00     0.014 A 
ATOM     36  C   UNL A   1      35.223  33.169  31.405  1.00  0.00     0.010 A 
ATOM     37  C   UNL A   1      36.675  34.004  29.662  1.00  0.00     0.010 A 
ATOM     38  C   UNL A   1      36.512  33.295  30.862  1.00  0.00    -0.014 A 
BRANCH  38  39
ATOM     39  C   UNL A   1      37.692  32.667  31.512  1.00  0.00     0.031 A 
ATOM     40  C   UNL A   1      38.405  31.514  30.857  1.00  0.00     0.074 A 
ATOM     41  C   UNL A   1      38.061  33.072  32.744  1.00  0.00     0.049 A 
ATOM     42  N   UNL A   1      39.391  30.787  31.315  1.00  0.00    -0.248 NA
ATOM     43  C   UNL A   1      37.932  31.110  29.523  1.00  0.00     0.031 C 
ATOM     44  C   UNL A   1      37.409  34.131  33.516  1.00  0.00     0.029 A 
ATOM     45  N   UNL A   1      39.053  32.618  33.579  1.00  0.00    -0.354 N 
ATOM     46  C   UNL A   1      39.632  29.818  30.348  1.00  0.00     0.074 A 
ATOM     47  C   UNL A   1      38.672  30.035  29.287  1.00  0.00     0.031 C 
ATOM     48  C   UNL A   1      38.011  34.243  34.709  1.00  0.00     0.029 A 
ATOM     49  C   UNL A   1      39.067  33.240  34.806  1.00  0.00     0.049 A 
ATOM     50  H   UNL A   1      39.692  31.914  33.324  1.00  0.00     0.167 HD
ATOM     51  C   UNL A   1      40.582  28.851  30.332  1.00  0.00     0.034 A 
ATOM     52  C   UNL A   1      39.829  33.017  35.895  1.00  0.00     0.034 A 
ATOM     53  C   UNL A   1      41.559  28.662  31.370  1.00  0.00     0.049 A 
ATOM     54  C   UNL A   1      40.887  31.949  35.843  1.00  0.00     0.074 A 
ATOM     55  C   UNL A   1      42.620  27.773  31.402  1.00  0.00     0.029 A 
ATOM     56  N   UNL A   1      41.591  29.361  32.567  1.00  0.00    -0.354 N 
ATOM     57  N   UNL A   1      41.205  31.151  34.854  1.00  0.00    -0.248 NA
ATOM     58  C   UNL A   1      41.712  31.772  37.047  1.00  0.00     0.031 C 
ATOM     59  C   UNL A   1      43.272  27.913  32.632  1.00  0.00     0.029 A 
ATOM     60  C   UNL A   1      42.637  28.910  33.354  1.00  0.00     0.049 A 
ATOM     61  H   UNL A   1      40.960  30.074  32.821  1.00  0.00     0.167 HD
ATOM     62  C   UNL A   1      42.282  30.395  35.304  1.00  0.00     0.074 A 
ATOM     63  C   UNL A   1      42.580  30.853  36.645  1.00  0.00     0.031 C 
ATOM     64  C   UNL A   1      42.951  29.400  34.671  1.00  0.00     0.034 A 
BRANCH  51  65
ATOM     65  C   UNL A   1      40.643  27.946  29.127  1.00  0.00     0.023 A 
ATOM     66  C   UNL A   1      39.747  26.863  29.024  1.00  0.00     0.012 A 
ATOM     67  C   UNL A   1      41.538  28.204  28.069  1.00  0.00     0.148 A 
ATOM     68  C   UNL A   1      39.763  26.029  27.906  1.00  0.00     0.002 A 
ATOM     69  C   UNL A   1      41.518  27.395  26.939  1.00  0.00     0.091 A 
ATOM     70  F   UNL A   1      42.395  29.227  28.192  1.00  0.00    -0.205 F 
ATOM     71  C   UNL A   1      40.640  26.301  26.861  1.00  0.00     0.022 A 
BRANCH  69  72
ATOM     72  S   UNL A   1      42.552  27.709  25.503  1.00  0.00     0.127 S 
ATOM     73  O   UNL A   1      42.301  26.517  24.693  1.00  0.00    -0.237 OA
ATOM     74  O   UNL A   1      41.971  28.941  24.969  1.00  0.00    -0.237 OA
ATOM     75  O   UNL A   1      43.910  27.846  26.008  1.00  0.00    -0.744 OA
ENDBRANCH  69  72
ENDBRANCH  51  65
BRANCH  52  76
ATOM     76  C   UNL A   1      39.646  33.855  37.114  1.00  0.00     0.023 A 
ATOM     77  C   UNL A   1      40.158  35.167  37.136  1.00  0.00     0.012 A 
ATOM     78  C   UNL A   1      38.945  33.373  38.236  1.00  0.00     0.148 A 
ATOM     79  C   UNL A   1      40.003  35.972  38.265  1.00  0.00     0.002 A 
ATOM     80  C   UNL A   1      38.744  34.201  39.335  1.00  0.00     0.091 A 
ATOM     81  F   UNL A   1      38.475  32.118  38.201  1.00  0.00    -0.205 F 
ATOM     82  C   UNL A   1      39.288  35.494  39.359  1.00  0.00     0.022 A 
BRANCH  80  83
ATOM     83  S   UNL A   1      37.716  33.714  40.727  1.00  0.00     0.127 S 
ATOM     84  O   UNL A   1      37.594  34.974  41.461  1.00  0.00    -0.237 OA
ATOM     85  O   UNL A   1      36.489  33.276  40.055  1.00  0.00    -0.237 OA
ATOM     86  O   UNL A   1      38.440  32.655  41.402  1.00  0.00    -0.744 OA
ENDBRANCH  80  83
ENDBRANCH  52  76
BRANCH  64  87
ATOM     87  C   UNL A   1      44.088  28.744  35.413  1.00  0.00     0.023 A 
ATOM     88  C   UNL A   1      45.405  29.206  35.223  1.00  0.00     0.012 A 
ATOM     89  C   UNL A   1      43.843  27.717  36.346  1.00  0.00     0.148 A 
ATOM     90  C   UNL A   1      46.465  28.634  35.925  1.00  0.00     0.002 A 
ATOM     91  C   UNL A   1      44.898  27.186  37.079  1.00  0.00     0.091 A 
ATOM     92  F   UNL A   1      42.584  27.280  36.500  1.00  0.00    -0.205 F 
ATOM     93  C   UNL A   1      46.210  27.634  36.860  1.00  0.00     0.022 A 
BRANCH  91  94
ATOM     94  S   UNL A   1      44.656  25.963  38.372  1.00  0.00     0.127 S 
ATOM     95  O   UNL A   1      43.825  26.697  39.325  1.00  0.00    -0.237 OA
ATOM     96  O   UNL A   1      43.964  24.890  37.658  1.00  0.00    -0.237 OA
ATOM     97  O   UNL A   1      45.988  25.611  38.848  1.00  0.00    -0.744 OA
ENDBRANCH  91  94
ENDBRANCH  64  87
ENDBRANCH  38  39
ENDBRANCH  30  33
ENDBRANCH  28  29
ENDBRANCH   1  28
TORSDOF 16
ENDMDL
MODEL 2
REMARK VINA RESULT:     -12.8      6.139     12.054
REMARK SMILES CCOc1ccccc1-c1cc(C(=O)NCCCNC(=O)c2ccc(-c3c4nc(c(-c5cccc(S(=O)(=O)[O-])c5F)c5ccc([nH]5)c(-c5cccc(S(=O)(=O)[O-])c5F)c5nc(c(-c6cccc(S(=O)(=O)[O-])c6F)c6ccc3[nH]6)C=C5)C=C4)cc2)c2cc(C)cc(C)c2n1
REMARK SMILES IDX 17 1 16 2 15 3 13 4 14 5 12 7 10 8 11 9 93 10 92 11 85 12
REMARK SMILES IDX 90 13 86 14 89 15 91 16 87 17 88 18 9 19 4 20 5 21 6 22 8 23
REMARK SMILES IDX 7 24 3 25 2 26 1 27 18 28 19 29 20 30 21 32 22 33 23 34
REMARK SMILES IDX 84 35 24 36 83 37 25 38 26 39 27 40 77 41 28 42 82 43 76 44
REMARK SMILES IDX 78 45 29 46 81 47 75 48 74 49 30 51 62 52 42 53 61 54 43 55
REMARK SMILES IDX 46 56 60 57 79 58 44 59 45 60 59 62 80 63 47 64 31 65 32 66
REMARK SMILES IDX 40 67 33 68 35 69 41 70 34 71 36 72 37 73 38 74 39 75 63 76
REMARK SMILES IDX 64 77 72 78 65 79 67 80 73 81 66 82 68 83 69 84 70 85 71 86
REMARK SMILES IDX 48 87 49 88 57 89 50 90 52 91 58 92 51 93 53 94 54 95 55 96
REMARK SMILES IDX 56 97
REMARK H PARENT 15 6 19 31 78 50 46 61
REMARK Flexibility Score: inf
ROOT
ATOM      1  C   UNL A   1      38.096  19.891  24.980  1.00  0.00     0.042 C 
ENDROOT
BRANCH   1   2
ATOM      2  C   UNL A   1      37.565  21.099  24.206  1.00  0.00     0.118 C 
BRANCH   2   3
ATOM      3  N   UNL A   1      37.590  22.315  25.006  1.00  0.00    -0.352 N 
ATOM      4  C   UNL A   1      36.741  23.015  25.824  1.00  0.00     0.252 C 
ATOM      5  O   UNL A   1      37.311  23.898  26.474  1.00  0.00    -0.269 OA
ATOM      6  H   UNL A   1      38.465  22.762  24.941  1.00  0.00     0.163 HD
BRANCH   4   7
ATOM      7  C   UNL A   1      35.275  22.782  26.031  1.00  0.00     0.051 A 
ATOM      8  C   UNL A   1      33.329  21.453  26.200  1.00  0.00     0.075 A 
ATOM      9  C   UNL A   1      34.704  21.512  26.128  1.00  0.00     0.043 A 
ATOM     10  N   UNL A   1      32.699  22.461  26.823  1.00  0.00    -0.247 NA
ATOM     11  C   UNL A   1      33.044  23.662  26.374  1.00  0.00     0.075 A 
ATOM     12  C   UNL A   1      34.347  23.870  25.880  1.00  0.00     0.014 A 
ATOM     13  C   UNL A   1      32.029  24.602  26.178  1.00  0.00    -0.024 A 
ATOM     14  C   UNL A   1      34.542  25.007  25.053  1.00  0.00     0.014 A 
ATOM     15  C   UNL A   1      32.239  25.671  25.299  1.00  0.00     0.009 A 
ATOM     16  C   UNL A   1      30.631  24.362  26.685  1.00  0.00     0.047 C 
ATOM     17  C   UNL A   1      33.477  25.842  24.684  1.00  0.00    -0.050 A 
ATOM     18  C   UNL A   1      33.617  26.749  23.497  1.00  0.00     0.044 C 
BRANCH   8  19
ATOM     19  C   UNL A   1      32.505  21.037  25.011  1.00  0.00     0.042 A 
ATOM     20  C   UNL A   1      32.322  19.661  24.701  1.00  0.00     0.128 A 
ATOM     21  C   UNL A   1      32.224  19.233  23.374  1.00  0.00     0.047 A 
ATOM     22  C   UNL A   1      32.180  20.169  22.347  1.00  0.00     0.004 A 
ATOM     23  C   UNL A   1      32.330  21.964  23.967  1.00  0.00     0.014 A 
ATOM     24  C   UNL A   1      32.174  21.531  22.646  1.00  0.00     0.001 A 
BRANCH  20  25
ATOM     25  O   UNL A   1      32.516  18.702  25.667  1.00  0.00    -0.493 OA
BRANCH  25  26
ATOM     26  C   UNL A   1      32.460  17.356  25.189  1.00  0.00     0.226 C 
ATOM     27  C   UNL A   1      33.764  16.618  25.434  1.00  0.00     0.049 C 
ENDBRANCH  25  26
ENDBRANCH  20  25
ENDBRANCH   8  19
ENDBRANCH   4   7
ENDBRANCH   2   3
ENDBRANCH   1   2
BRANCH   1  28
ATOM     28  C   UNL A   1      39.180  20.217  26.007  1.00  0.00     0.118 C 
BRANCH  28  29
ATOM     29  N   UNL A   1      40.259  19.238  26.011  1.00  0.00    -0.352 N 
ATOM     30  C   UNL A   1      41.621  19.404  26.057  1.00  0.00     0.251 C 
ATOM     31  H   UNL A   1      39.961  18.300  25.973  1.00  0.00     0.163 HD
ATOM     32  O   UNL A   1      42.346  18.441  25.811  1.00  0.00    -0.269 OA
BRANCH  30  33
ATOM     33  C   UNL A   1      42.228  20.712  26.390  1.00  0.00     0.039 A 
ATOM     34  C   UNL A   1      42.578  21.577  25.346  1.00  0.00     0.014 A 
ATOM     35  C   UNL A   1      42.509  21.074  27.709  1.00  0.00     0.014 A 
ATOM     36  C   UNL A   1      43.145  22.823  25.629  1.00  0.00     0.010 A 
ATOM     37  C   UNL A   1      43.004  22.344  27.996  1.00  0.00     0.010 A 
ATOM     38  C   UNL A   1      43.330  23.234  26.960  1.00  0.00    -0.014 A 
BRANCH  38  39
ATOM     39  C   UNL A   1      43.827  24.596  27.289  1.00  0.00     0.031 A 
ATOM     40  C   UNL A   1      42.881  25.660  27.778  1.00  0.00     0.074 A 
ATOM     41  C   UNL A   1      45.118  24.904  27.050  1.00  0.00     0.049 A 
ATOM     42  N   UNL A   1      43.118  26.922  28.027  1.00  0.00    -0.248 NA
ATOM     43  C   UNL A   1      41.481  25.260  27.994  1.00  0.00     0.031 C 
ATOM     44  C   UNL A   1      46.120  23.982  26.510  1.00  0.00     0.029 A 
ATOM     45  N   UNL A   1      45.801  26.085  27.197  1.00  0.00    -0.354 N 
ATOM     46  C   UNL A   1      41.896  27.476  28.390  1.00  0.00     0.074 A 
ATOM     47  C   UNL A   1      40.913  26.416  28.305  1.00  0.00     0.031 C 
ATOM     48  C   UNL A   1      47.285  24.631  26.367  1.00  0.00     0.029 A 
ATOM     49  C   UNL A   1      47.107  26.023  26.766  1.00  0.00     0.049 A 
ATOM     50  H   UNL A   1      45.396  26.899  27.574  1.00  0.00     0.167 HD
ATOM     51  C   UNL A   1      41.619  28.743  28.783  1.00  0.00     0.034 A 
ATOM     52  C   UNL A   1      48.050  26.982  26.683  1.00  0.00     0.034 A 
ATOM     53  C   UNL A   1      42.605  29.784  28.902  1.00  0.00     0.049 A 
ATOM     54  C   UNL A   1      47.721  28.377  27.141  1.00  0.00     0.074 A 
ATOM     55  C   UNL A   1      42.441  31.073  29.380  1.00  0.00     0.029 A 
ATOM     56  N   UNL A   1      43.934  29.665  28.528  1.00  0.00    -0.354 N 
ATOM     57  N   UNL A   1      46.599  28.839  27.635  1.00  0.00    -0.248 NA
ATOM     58  C   UNL A   1      48.798  29.374  27.059  1.00  0.00     0.031 C 
ATOM     59  C   UNL A   1      43.664  31.741  29.265  1.00  0.00     0.029 A 
ATOM     60  C   UNL A   1      44.598  30.861  28.744  1.00  0.00     0.049 A 
ATOM     61  H   UNL A   1      44.346  28.849  28.162  1.00  0.00     0.167 HD
ATOM     62  C   UNL A   1      46.839  30.172  27.947  1.00  0.00     0.074 A 
ATOM     63  C   UNL A   1      48.225  30.434  27.614  1.00  0.00     0.031 C 
ATOM     64  C   UNL A   1      45.987  31.100  28.447  1.00  0.00     0.034 A 
BRANCH  51  65
ATOM     65  C   UNL A   1      40.195  29.068  29.157  1.00  0.00     0.023 A 
ATOM     66  C   UNL A   1      39.253  29.340  28.145  1.00  0.00     0.012 A 
ATOM     67  C   UNL A   1      39.774  29.040  30.502  1.00  0.00     0.148 A 
ATOM     68  C   UNL A   1      37.923  29.614  28.465  1.00  0.00     0.002 A 
ATOM     69  C   UNL A   1      38.438  29.269  30.809  1.00  0.00     0.091 A 
ATOM     70  F   UNL A   1      40.687  28.797  31.453  1.00  0.00    -0.205 F 
ATOM     71  C   UNL A   1      37.514  29.568  29.794  1.00  0.00     0.022 A 
BRANCH  69  72
ATOM     72  S   UNL A   1      37.794  29.155  32.483  1.00  0.00     0.127 S 
ATOM     73  O   UNL A   1      38.702  30.042  33.209  1.00  0.00    -0.237 OA
ATOM     74  O   UNL A   1      36.434  29.674  32.325  1.00  0.00    -0.237 OA
ATOM     75  O   UNL A   1      37.869  27.749  32.848  1.00  0.00    -0.744 OA
ENDBRANCH  69  72
ENDBRANCH  51  65
BRANCH  52  76
ATOM     76  C   UNL A   1      49.413  26.642  26.183  1.00  0.00     0.023 A 
ATOM     77  C   UNL A   1      50.251  25.821  26.961  1.00  0.00     0.012 A 
ATOM     78  C   UNL A   1      49.870  27.102  24.932  1.00  0.00     0.148 A 
ATOM     79  C   UNL A   1      51.532  25.489  26.518  1.00  0.00     0.002 A 
ATOM     80  C   UNL A   1      51.125  26.719  24.471  1.00  0.00     0.091 A 
ATOM     81  F   UNL A   1      49.062  27.892  24.212  1.00  0.00    -0.205 F 
ATOM     82  C   UNL A   1      51.964  25.929  25.270  1.00  0.00     0.022 A 
BRANCH  80  83
ATOM     83  S   UNL A   1      51.703  27.125  22.818  1.00  0.00     0.127 S 
ATOM     84  O   UNL A   1      51.922  28.568  22.926  1.00  0.00    -0.237 OA
ATOM     85  O   UNL A   1      52.929  26.326  22.725  1.00  0.00    -0.237 OA
ATOM     86  O   UNL A   1      50.647  26.710  21.916  1.00  0.00    -0.744 OA
ENDBRANCH  80  83
ENDBRANCH  52  76
BRANCH  64  87
ATOM     87  C   UNL A   1      46.527  32.487  28.683  1.00  0.00     0.023 A 
ATOM     88  C   UNL A   1      47.073  32.820  29.938  1.00  0.00     0.012 A 
ATOM     89  C   UNL A   1      46.555  33.438  27.643  1.00  0.00     0.148 A 
ATOM     90  C   UNL A   1      47.608  34.087  30.166  1.00  0.00     0.002 A 
ATOM     91  C   UNL A   1      47.135  34.682  27.862  1.00  0.00     0.091 A 
ATOM     92  F   UNL A   1      46.014  33.107  26.461  1.00  0.00    -0.205 F 
ATOM     93  C   UNL A   1      47.650  35.012  29.126  1.00  0.00     0.022 A 
BRANCH  91  94
ATOM     94  S   UNL A   1      47.320  35.904  26.559  1.00  0.00     0.127 S 
ATOM     95  O   UNL A   1      47.991  35.128  25.517  1.00  0.00    -0.237 OA
ATOM     96  O   UNL A   1      45.930  36.252  26.261  1.00  0.00    -0.237 OA
ATOM     97  O   UNL A   1      48.105  36.989  27.132  1.00  0.00    -0.744 OA
ENDBRANCH  91  94
ENDBRANCH  64  87
ENDBRANCH  38  39
ENDBRANCH  30  33
ENDBRANCH  28  29
ENDBRANCH   1  28
TORSDOF 16
ENDMDL
MODEL 3
REMARK VINA RESULT:     -12.7      5.588     10.223
REMARK SMILES CCOc1ccccc1-c1cc(C(=O)NCCCNC(=O)c2ccc(-c3c4nc(c(-c5cccc(S(=O)(=O)[O-])c5F)c5ccc([nH]5)c(-c5cccc(S(=O)(=O)[O-])c5F)c5nc(c(-c6cccc(S(=O)(=O)[O-])c6F)c6ccc3[nH]6)C=C5)C=C4)cc2)c2cc(C)cc(C)c2n1
REMARK SMILES IDX 17 1 16 2 15 3 13 4 14 5 12 7 10 8 11 9 93 10 92 11 85 12
REMARK SMILES IDX 90 13 86 14 89 15 91 16 87 17 88 18 9 19 4 20 5 21 6 22 8 23
REMARK SMILES IDX 7 24 3 25 2 26 1 27 18 28 19 29 20 30 21 32 22 33 23 34
REMARK SMILES IDX 84 35 24 36 83 37 25 38 26 39 27 40 77 41 28 42 82 43 76 44
REMARK SMILES IDX 78 45 29 46 81 47 75 48 74 49 30 51 62 52 42 53 61 54 43 55
REMARK SMILES IDX 46 56 60 57 79 58 44 59 45 60 59 62 80 63 47 64 31 65 32 66
REMARK SMILES IDX 40 67 33 68 35 69 41 70 34 71 36 72 37 73 38 74 39 75 63 76
REMARK SMILES IDX 64 77 72 78 65 79 67 80 73 81 66 82 68 83 69 84 70 85 71 86
REMARK SMILES IDX 48 87 49 88 57 89 50 90 52 91 58 92 51 93 53 94 54 95 55 96
REMARK SMILES IDX 56 97
REMARK H PARENT 15 6 19 31 78 50 46 61
REMARK Flexibility Score: inf
ROOT
ATOM      1  C   UNL A   1      34.530  21.643  26.657  1.00  0.00     0.042 C 
ENDROOT
BRANCH   1   2
ATOM      2  C   UNL A   1      33.995  22.513  27.798  1.00  0.00     0.118 C 
BRANCH   2   3
ATOM      3  N   UNL A   1      32.543  22.615  27.774  1.00  0.00    -0.352 N 
ATOM      4  C   UNL A   1      31.580  23.286  27.066  1.00  0.00     0.252 C 
ATOM      5  O   UNL A   1      30.439  22.859  27.273  1.00  0.00    -0.269 OA
ATOM      6  H   UNL A   1      32.138  22.037  28.461  1.00  0.00     0.163 HD
BRANCH   4   7
ATOM      7  C   UNL A   1      31.780  24.394  26.077  1.00  0.00     0.051 A 
ATOM      8  C   UNL A   1      31.378  26.535  25.162  1.00  0.00     0.075 A 
ATOM      9  C   UNL A   1      31.201  25.657  26.209  1.00  0.00     0.043 A 
ATOM     10  N   UNL A   1      32.529  26.453  24.476  1.00  0.00    -0.247 NA
ATOM     11  C   UNL A   1      32.807  25.227  24.048  1.00  0.00     0.075 A 
ATOM     12  C   UNL A   1      32.377  24.116  24.799  1.00  0.00     0.014 A 
ATOM     13  C   UNL A   1      33.294  25.085  22.746  1.00  0.00    -0.024 A 
ATOM     14  C   UNL A   1      32.327  22.868  24.123  1.00  0.00     0.014 A 
ATOM     15  C   UNL A   1      33.161  23.856  22.090  1.00  0.00     0.009 A 
ATOM     16  C   UNL A   1      33.726  26.281  21.937  1.00  0.00     0.047 C 
ATOM     17  C   UNL A   1      32.620  22.760  22.755  1.00  0.00    -0.050 A 
ATOM     18  C   UNL A   1      32.152  21.559  21.987  1.00  0.00     0.044 C 
BRANCH   8  19
ATOM     19  C   UNL A   1      30.263  26.825  24.192  1.00  0.00     0.042 A 
ATOM     20  C   UNL A   1      30.111  28.122  23.628  1.00  0.00     0.128 A 
ATOM     21  C   UNL A   1      28.843  28.634  23.345  1.00  0.00     0.047 A 
ATOM     22  C   UNL A   1      27.720  27.828  23.499  1.00  0.00     0.004 A 
ATOM     23  C   UNL A   1      29.129  25.993  24.216  1.00  0.00     0.014 A 
ATOM     24  C   UNL A   1      27.869  26.494  23.876  1.00  0.00     0.001 A 
BRANCH  20  25
ATOM     25  O   UNL A   1      31.172  28.996  23.609  1.00  0.00    -0.493 OA
BRANCH  25  26
ATOM     26  C   UNL A   1      31.026  30.126  24.473  1.00  0.00     0.226 C 
ATOM     27  C   UNL A   1      31.897  30.002  25.711  1.00  0.00     0.049 C 
ENDBRANCH  25  26
ENDBRANCH  20  25
ENDBRANCH   8  19
ENDBRANCH   4   7
ENDBRANCH   2   3
ENDBRANCH   1   2
BRANCH   1  28
ATOM     28  C   UNL A   1      35.773  22.197  25.961  1.00  0.00     0.118 C 
BRANCH  28  29
ATOM     29  N   UNL A   1      36.803  21.185  25.770  1.00  0.00    -0.352 N 
ATOM     30  C   UNL A   1      38.173  21.283  25.794  1.00  0.00     0.251 C 
ATOM     31  H   UNL A   1      36.460  20.279  25.594  1.00  0.00     0.163 HD
ATOM     32  O   UNL A   1      38.844  20.342  25.372  1.00  0.00    -0.269 OA
BRANCH  30  33
ATOM     33  C   UNL A   1      38.851  22.494  26.309  1.00  0.00     0.039 A 
ATOM     34  C   UNL A   1      39.991  22.339  27.104  1.00  0.00     0.014 A 
ATOM     35  C   UNL A   1      38.346  23.773  26.066  1.00  0.00     0.014 A 
ATOM     36  C   UNL A   1      40.658  23.465  27.598  1.00  0.00     0.010 A 
ATOM     37  C   UNL A   1      39.052  24.896  26.494  1.00  0.00     0.010 A 
ATOM     38  C   UNL A   1      40.215  24.756  27.266  1.00  0.00    -0.014 A 
BRANCH  38  39
ATOM     39  C   UNL A   1      40.969  25.967  27.686  1.00  0.00     0.031 A 
ATOM     40  C   UNL A   1      40.280  27.080  28.428  1.00  0.00     0.074 A 
ATOM     41  C   UNL A   1      42.256  26.108  27.307  1.00  0.00     0.049 A 
ATOM     42  N   UNL A   1      40.752  28.245  28.792  1.00  0.00    -0.248 NA
ATOM     43  C   UNL A   1      38.868  26.868  28.786  1.00  0.00     0.031 C 
ATOM     44  C   UNL A   1      43.018  25.132  26.526  1.00  0.00     0.029 A 
ATOM     45  N   UNL A   1      43.140  27.141  27.500  1.00  0.00    -0.354 N 
ATOM     46  C   UNL A   1      39.692  28.918  29.386  1.00  0.00     0.074 A 
ATOM     47  C   UNL A   1      38.543  28.041  29.312  1.00  0.00     0.031 C 
ATOM     48  C   UNL A   1      44.250  25.613  26.301  1.00  0.00     0.029 A 
ATOM     49  C   UNL A   1      44.356  26.945  26.887  1.00  0.00     0.049 A 
ATOM     50  H   UNL A   1      42.924  27.945  28.025  1.00  0.00     0.167 HD
ATOM     51  C   UNL A   1      39.680  30.144  29.965  1.00  0.00     0.034 A 
ATOM     52  C   UNL A   1      45.430  27.753  26.789  1.00  0.00     0.034 A 
ATOM     53  C   UNL A   1      40.833  30.998  30.070  1.00  0.00     0.049 A 
ATOM     54  C   UNL A   1      45.396  29.102  27.454  1.00  0.00     0.074 A 
ATOM     55  C   UNL A   1      40.946  32.215  30.720  1.00  0.00     0.029 A 
ATOM     56  N   UNL A   1      42.070  30.734  29.503  1.00  0.00    -0.354 N 
ATOM     57  N   UNL A   1      44.434  29.653  28.152  1.00  0.00    -0.248 NA
ATOM     58  C   UNL A   1      46.608  29.928  27.344  1.00  0.00     0.031 C 
ATOM     59  C   UNL A   1      42.241  32.702  30.517  1.00  0.00     0.029 A 
ATOM     60  C   UNL A   1      42.945  31.774  29.767  1.00  0.00     0.049 A 
ATOM     61  H   UNL A   1      42.293  29.926  28.986  1.00  0.00     0.167 HD
ATOM     62  C   UNL A   1      44.929  30.877  28.587  1.00  0.00     0.074 A 
ATOM     63  C   UNL A   1      46.290  30.972  28.098  1.00  0.00     0.031 C 
ATOM     64  C   UNL A   1      44.309  31.841  29.310  1.00  0.00     0.034 A 
BRANCH  51  65
ATOM     65  C   UNL A   1      38.385  30.623  30.572  1.00  0.00     0.023 A 
ATOM     66  C   UNL A   1      38.116  30.366  31.932  1.00  0.00     0.012 A 
ATOM     67  C   UNL A   1      37.466  31.380  29.817  1.00  0.00     0.148 A 
ATOM     68  C   UNL A   1      36.939  30.824  32.523  1.00  0.00     0.002 A 
ATOM     69  C   UNL A   1      36.316  31.871  30.426  1.00  0.00     0.091 A 
ATOM     70  F   UNL A   1      37.729  31.598  28.521  1.00  0.00    -0.205 F 
ATOM     71  C   UNL A   1      36.046  31.584  31.774  1.00  0.00     0.022 A 
BRANCH  69  72
ATOM     72  S   UNL A   1      35.141  32.926  29.570  1.00  0.00     0.127 S 
ATOM     73  O   UNL A   1      34.661  32.036  28.513  1.00  0.00    -0.237 OA
ATOM     74  O   UNL A   1      34.161  33.209  30.620  1.00  0.00    -0.237 OA
ATOM     75  O   UNL A   1      35.896  34.084  29.115  1.00  0.00    -0.744 OA
ENDBRANCH  69  72
ENDBRANCH  51  65
BRANCH  52  76
ATOM     76  C   UNL A   1      46.648  27.287  26.066  1.00  0.00     0.023 A 
ATOM     77  C   UNL A   1      46.750  27.495  24.676  1.00  0.00     0.012 A 
ATOM     78  C   UNL A   1      47.713  26.668  26.748  1.00  0.00     0.148 A 
ATOM     79  C   UNL A   1      47.878  27.066  23.975  1.00  0.00     0.002 A 
ATOM     80  C   UNL A   1      48.858  26.297  26.052  1.00  0.00     0.091 A 
ATOM     81  F   UNL A   1      47.592  26.468  28.067  1.00  0.00    -0.205 F 
ATOM     82  C   UNL A   1      48.935  26.478  24.663  1.00  0.00     0.022 A 
BRANCH  80  83
ATOM     83  S   UNL A   1      50.320  25.661  26.881  1.00  0.00     0.127 S 
ATOM     84  O   UNL A   1      49.798  24.452  27.519  1.00  0.00    -0.237 OA
ATOM     85  O   UNL A   1      51.222  25.416  25.752  1.00  0.00    -0.237 OA
ATOM     86  O   UNL A   1      50.756  26.713  27.779  1.00  0.00    -0.744 OA
ENDBRANCH  80  83
ENDBRANCH  52  76
BRANCH  64  87
ATOM     87  C   UNL A   1      45.099  33.084  29.635  1.00  0.00     0.023 A 
ATOM     88  C   UNL A   1      45.893  33.123  30.798  1.00  0.00     0.012 A 
ATOM     89  C   UNL A   1      45.106  34.185  28.756  1.00  0.00     0.148 A 
ATOM     90  C   UNL A   1      46.657  34.251  31.098  1.00  0.00     0.002 A 
ATOM     91  C   UNL A   1      45.907  35.286  29.035  1.00  0.00     0.091 A 
ATOM     92  F   UNL A   1      44.329  34.135  27.663  1.00  0.00    -0.205 F 
ATOM     93  C   UNL A   1      46.673  35.325  30.212  1.00  0.00     0.022 A 
BRANCH  91  94
ATOM     94  S   UNL A   1      46.067  36.676  27.909  1.00  0.00     0.127 S 
ATOM     95  O   UNL A   1      44.708  37.214  27.907  1.00  0.00    -0.237 OA
ATOM     96  O   UNL A   1      47.054  37.514  28.589  1.00  0.00    -0.237 OA
ATOM     97  O   UNL A   1      46.518  36.118  26.641  1.00  0.00    -0.744 OA
ENDBRANCH  91  94
ENDBRANCH  64  87
ENDBRANCH  38  39
ENDBRANCH  30  33
ENDBRANCH  28  29
ENDBRANCH   1  28
TORSDOF 16
ENDMDL
