MODEL 1
REMARK VINA RESULT:     -11.2      0.000      0.000
REMARK SMILES CC(C)(C)N(CC(=O)NCCCNC(=O)c1ccc(-c2c3nc(c(-c4cccc(S(=O)(=O)[O-])c4F)c4ccc([nH]4)c(-c4cccc(S(=O)(=O)[O-])c4F)c4nc(c(-c5cccc(S(=O)(=O)[O-])c5F)c5ccc2[nH]5)C=C4)C=C3)cc1)c1cccc(C#N)n1
REMARK SMILES IDX 11 1 10 2 9 3 7 4 8 5 6 7 5 8 2 9 1 10 3 11 4 12 79 13 80 14
REMARK SMILES IDX 86 15 81 16 83 17 82 18 84 19 85 20 12 21 13 22 14 23 15 25
REMARK SMILES IDX 16 26 17 27 78 28 18 29 77 30 19 31 20 32 21 33 71 34 22 35
REMARK SMILES IDX 76 36 70 37 72 38 23 39 75 40 69 41 68 42 24 44 56 45 36 46
REMARK SMILES IDX 55 47 37 48 40 49 54 50 73 51 38 52 39 53 53 55 74 56 41 57
REMARK SMILES IDX 25 58 26 59 34 60 27 61 29 62 35 63 28 64 30 65 31 66 32 67
REMARK SMILES IDX 33 68 57 69 58 70 66 71 59 72 61 73 67 74 60 75 62 76 63 77
REMARK SMILES IDX 64 78 65 79 42 80 43 81 51 82 44 83 46 84 52 85 45 86 47 87
REMARK SMILES IDX 48 88 49 89 50 90
REMARK H PARENT 9 6 13 24 72 43 40 54
REMARK Flexibility Score: inf
ROOT
ATOM      1  C   UNL A   1      32.639  28.156  27.043  1.00  0.00     0.042 C 
ENDROOT
BRANCH   1   2
ATOM      2  C   UNL A   1      31.583  27.448  26.211  1.00  0.00     0.117 C 
BRANCH   2   3
ATOM      3  N   UNL A   1      31.222  26.158  26.742  1.00  0.00    -0.354 N 
ATOM      4  C   UNL A   1      31.868  24.962  26.598  1.00  0.00     0.239 C 
ATOM      5  O   UNL A   1      31.427  24.005  27.248  1.00  0.00    -0.273 OA
ATOM      6  H   UNL A   1      30.397  26.135  27.279  1.00  0.00     0.163 HD
BRANCH   4   7
ATOM      7  C   UNL A   1      33.188  24.841  25.802  1.00  0.00     0.218 C 
BRANCH   7   8
ATOM      8  N   UNL A   1      33.187  24.053  24.535  1.00  0.00    -0.342 N 
BRANCH   8   9
ATOM      9  C   UNL A   1      32.629  24.609  23.249  1.00  0.00     0.034 C 
ATOM     10  C   UNL A   1      33.145  23.871  21.985  1.00  0.00     0.034 C 
ATOM     11  C   UNL A   1      33.013  26.096  23.118  1.00  0.00     0.034 C 
ATOM     12  C   UNL A   1      31.097  24.499  23.129  1.00  0.00     0.034 C 
ENDBRANCH   8   9
BRANCH   8  13
ATOM     13  C   UNL A   1      33.876  22.840  24.650  1.00  0.00     0.130 A 
ATOM     14  C   UNL A   1      35.266  22.736  24.670  1.00  0.00     0.047 A 
ATOM     15  N   UNL A   1      33.153  21.713  24.818  1.00  0.00    -0.220 NA
ATOM     16  C   UNL A   1      35.910  21.503  24.817  1.00  0.00     0.007 A 
ATOM     17  C   UNL A   1      33.780  20.516  24.980  1.00  0.00     0.142 A 
ATOM     18  C   UNL A   1      35.152  20.361  24.973  1.00  0.00     0.040 A 
BRANCH  17  19
ATOM     19  C   UNL A   1      32.931  19.378  25.211  1.00  0.00     0.120 C 
ATOM     20  N   UNL A   1      32.210  18.477  25.340  1.00  0.00    -0.191 NA
ENDBRANCH  17  19
ENDBRANCH   8  13
ENDBRANCH   7   8
ENDBRANCH   4   7
ENDBRANCH   2   3
ENDBRANCH   1   2
BRANCH   1  21
ATOM     21  C   UNL A   1      33.689  28.860  26.205  1.00  0.00     0.118 C 
BRANCH  21  22
ATOM     22  N   UNL A   1      33.762  30.285  26.516  1.00  0.00    -0.352 N 
ATOM     23  C   UNL A   1      34.583  30.968  27.378  1.00  0.00     0.251 C 
ATOM     24  H   UNL A   1      33.116  30.846  26.029  1.00  0.00     0.163 HD
ATOM     25  O   UNL A   1      34.298  32.123  27.687  1.00  0.00    -0.269 OA
BRANCH  23  26
ATOM     26  C   UNL A   1      35.795  30.328  27.935  1.00  0.00     0.039 A 
ATOM     27  C   UNL A   1      36.979  30.349  27.193  1.00  0.00     0.014 A 
ATOM     28  C   UNL A   1      35.764  29.675  29.169  1.00  0.00     0.014 A 
ATOM     29  C   UNL A   1      38.133  29.760  27.713  1.00  0.00     0.010 A 
ATOM     30  C   UNL A   1      36.941  29.203  29.739  1.00  0.00     0.010 A 
ATOM     31  C   UNL A   1      38.133  29.212  29.006  1.00  0.00    -0.014 A 
BRANCH  31  32
ATOM     32  C   UNL A   1      39.364  28.626  29.595  1.00  0.00     0.031 A 
ATOM     33  C   UNL A   1      39.965  29.218  30.844  1.00  0.00     0.074 A 
ATOM     34  C   UNL A   1      39.975  27.600  28.973  1.00  0.00     0.049 A 
ATOM     35  N   UNL A   1      41.042  28.854  31.491  1.00  0.00    -0.248 NA
ATOM     36  C   UNL A   1      39.286  30.387  31.432  1.00  0.00     0.031 C 
ATOM     37  C   UNL A   1      39.537  26.990  27.716  1.00  0.00     0.029 A 
ATOM     38  N   UNL A   1      41.107  26.896  29.303  1.00  0.00    -0.354 N 
ATOM     39  C   UNL A   1      41.188  29.764  32.532  1.00  0.00     0.074 A 
ATOM     40  C   UNL A   1      40.115  30.725  32.406  1.00  0.00     0.031 C 
ATOM     41  C   UNL A   1      40.374  25.992  27.394  1.00  0.00     0.029 A 
ATOM     42  C   UNL A   1      41.433  25.920  28.393  1.00  0.00     0.049 A 
ATOM     43  H   UNL A   1      41.634  27.076  30.115  1.00  0.00     0.167 HD
ATOM     44  C   UNL A   1      42.112  29.784  33.522  1.00  0.00     0.034 A 
ATOM     45  C   UNL A   1      42.478  25.070  28.357  1.00  0.00     0.034 A 
ATOM     46  C   UNL A   1      43.164  28.814  33.655  1.00  0.00     0.049 A 
ATOM     47  C   UNL A   1      43.483  25.104  29.476  1.00  0.00     0.074 A 
ATOM     48  C   UNL A   1      44.102  28.698  34.664  1.00  0.00     0.029 A 
ATOM     49  N   UNL A   1      43.431  27.806  32.742  1.00  0.00    -0.354 N 
ATOM     50  N   UNL A   1      43.518  25.880  30.531  1.00  0.00    -0.248 NA
ATOM     51  C   UNL A   1      44.574  24.121  29.416  1.00  0.00     0.031 C 
ATOM     52  C   UNL A   1      44.971  27.654  34.333  1.00  0.00     0.029 A 
ATOM     53  C   UNL A   1      44.534  27.077  33.152  1.00  0.00     0.049 A 
ATOM     54  H   UNL A   1      42.913  27.634  31.922  1.00  0.00     0.167 HD
ATOM     55  C   UNL A   1      44.607  25.453  31.282  1.00  0.00     0.074 A 
ATOM     56  C   UNL A   1      45.193  24.337  30.569  1.00  0.00     0.031 C 
ATOM     57  C   UNL A   1      45.085  25.945  32.453  1.00  0.00     0.034 A 
BRANCH  44  58
ATOM     58  C   UNL A   1      42.014  30.880  34.552  1.00  0.00     0.023 A 
ATOM     59  C   UNL A   1      41.269  30.675  35.733  1.00  0.00     0.012 A 
ATOM     60  C   UNL A   1      42.706  32.094  34.377  1.00  0.00     0.148 A 
ATOM     61  C   UNL A   1      41.180  31.675  36.701  1.00  0.00     0.002 A 
ATOM     62  C   UNL A   1      42.658  33.064  35.371  1.00  0.00     0.091 A 
ATOM     63  F   UNL A   1      43.396  32.279  33.242  1.00  0.00    -0.205 F 
ATOM     64  C   UNL A   1      41.883  32.863  36.525  1.00  0.00     0.022 A 
BRANCH  62  65
ATOM     65  S   UNL A   1      43.598  34.591  35.282  1.00  0.00     0.127 S 
ATOM     66  O   UNL A   1      43.243  35.230  36.549  1.00  0.00    -0.237 OA
ATOM     67  O   UNL A   1      44.974  34.099  35.211  1.00  0.00    -0.237 OA
ATOM     68  O   UNL A   1      43.135  35.283  34.088  1.00  0.00    -0.744 OA
ENDBRANCH  62  65
ENDBRANCH  44  58
BRANCH  45  69
ATOM     69  C   UNL A   1      42.606  24.088  27.244  1.00  0.00     0.023 A 
ATOM     70  C   UNL A   1      43.349  24.424  26.096  1.00  0.00     0.012 A 
ATOM     71  C   UNL A   1      42.002  22.818  27.325  1.00  0.00     0.148 A 
ATOM     72  C   UNL A   1      43.453  23.529  25.029  1.00  0.00     0.002 A 
ATOM     73  C   UNL A   1      42.159  21.909  26.286  1.00  0.00     0.091 A 
ATOM     74  F   UNL A   1      41.297  22.519  28.424  1.00  0.00    -0.205 F 
ATOM     75  C   UNL A   1      42.866  22.270  25.128  1.00  0.00     0.022 A 
BRANCH  73  76
ATOM     76  S   UNL A   1      41.549  20.223  26.378  1.00  0.00     0.127 S 
ATOM     77  O   UNL A   1      42.262  19.585  25.276  1.00  0.00    -0.237 OA
ATOM     78  O   UNL A   1      41.988  19.820  27.714  1.00  0.00    -0.237 OA
ATOM     79  O   UNL A   1      40.103  20.315  26.223  1.00  0.00    -0.744 OA
ENDBRANCH  73  76
ENDBRANCH  45  69
BRANCH  57  80
ATOM     80  C   UNL A   1      46.269  25.246  33.072  1.00  0.00     0.023 A 
ATOM     81  C   UNL A   1      47.577  25.711  32.833  1.00  0.00     0.012 A 
ATOM     82  C   UNL A   1      46.070  24.154  33.940  1.00  0.00     0.148 A 
ATOM     83  C   UNL A   1      48.672  25.069  33.411  1.00  0.00     0.002 A 
ATOM     84  C   UNL A   1      47.161  23.558  34.559  1.00  0.00     0.091 A 
ATOM     85  F   UNL A   1      44.819  23.717  34.144  1.00  0.00    -0.205 F 
ATOM     86  C   UNL A   1      48.464  24.003  34.282  1.00  0.00     0.022 A 
BRANCH  84  87
ATOM     87  S   UNL A   1      46.983  22.246  35.771  1.00  0.00     0.127 S 
ATOM     88  O   UNL A   1      47.985  22.624  36.767  1.00  0.00    -0.237 OA
ATOM     89  O   UNL A   1      45.596  22.415  36.206  1.00  0.00    -0.237 OA
ATOM     90  O   UNL A   1      47.250  21.001  35.063  1.00  0.00    -0.744 OA
ENDBRANCH  84  87
ENDBRANCH  57  80
ENDBRANCH  31  32
ENDBRANCH  23  26
ENDBRANCH  21  22
ENDBRANCH   1  21
TORSDOF 17
ENDMDL
MODEL 2
REMARK VINA RESULT:     -11.1      1.879      2.583
REMARK SMILES CC(C)(C)N(CC(=O)NCCCNC(=O)c1ccc(-c2c3nc(c(-c4cccc(S(=O)(=O)[O-])c4F)c4ccc([nH]4)c(-c4cccc(S(=O)(=O)[O-])c4F)c4nc(c(-c5cccc(S(=O)(=O)[O-])c5F)c5ccc2[nH]5)C=C4)C=C3)cc1)c1cccc(C#N)n1
REMARK SMILES IDX 11 1 10 2 9 3 7 4 8 5 6 7 5 8 2 9 1 10 3 11 4 12 79 13 80 14
REMARK SMILES IDX 86 15 81 16 83 17 82 18 84 19 85 20 12 21 13 22 14 23 15 25
REMARK SMILES IDX 16 26 17 27 78 28 18 29 77 30 19 31 20 32 21 33 71 34 22 35
REMARK SMILES IDX 76 36 70 37 72 38 23 39 75 40 69 41 68 42 24 44 56 45 36 46
REMARK SMILES IDX 55 47 37 48 40 49 54 50 73 51 38 52 39 53 53 55 74 56 41 57
REMARK SMILES IDX 25 58 26 59 34 60 27 61 29 62 35 63 28 64 30 65 31 66 32 67
REMARK SMILES IDX 33 68 57 69 58 70 66 71 59 72 61 73 67 74 60 75 62 76 63 77
REMARK SMILES IDX 64 78 65 79 42 80 43 81 51 82 44 83 46 84 52 85 45 86 47 87
REMARK SMILES IDX 48 88 49 89 50 90
REMARK H PARENT 9 6 13 24 72 43 40 54
REMARK Flexibility Score: inf
ROOT
ATOM      1  C   UNL A   1      31.777  28.427  25.939  1.00  0.00     0.042 C 
ENDROOT
BRANCH   1   2
ATOM      2  C   UNL A   1      32.281  27.254  26.763  1.00  0.00     0.117 C 
BRANCH   2   3
ATOM      3  N   UNL A   1      31.318  26.187  26.869  1.00  0.00    -0.354 N 
ATOM      4  C   UNL A   1      31.463  24.868  26.540  1.00  0.00     0.239 C 
ATOM      5  O   UNL A   1      30.528  24.113  26.832  1.00  0.00    -0.273 OA
ATOM      6  H   UNL A   1      30.438  26.443  27.227  1.00  0.00     0.163 HD
BRANCH   4   7
ATOM      7  C   UNL A   1      32.795  24.309  25.988  1.00  0.00     0.218 C 
BRANCH   7   8
ATOM      8  N   UNL A   1      32.786  23.629  24.660  1.00  0.00    -0.342 N 
BRANCH   8   9
ATOM      9  C   UNL A   1      32.607  24.392  23.372  1.00  0.00     0.034 C 
ATOM     10  C   UNL A   1      33.205  23.665  22.138  1.00  0.00     0.034 C 
ATOM     11  C   UNL A   1      33.292  25.768  23.486  1.00  0.00     0.034 C 
ATOM     12  C   UNL A   1      31.136  24.621  22.976  1.00  0.00     0.034 C 
ENDBRANCH   8   9
BRANCH   8  13
ATOM     13  C   UNL A   1      33.101  22.267  24.746  1.00  0.00     0.130 A 
ATOM     14  C   UNL A   1      32.161  21.244  24.635  1.00  0.00     0.047 A 
ATOM     15  N   UNL A   1      34.400  21.924  24.878  1.00  0.00    -0.220 NA
ATOM     16  C   UNL A   1      32.529  19.896  24.699  1.00  0.00     0.007 A 
ATOM     17  C   UNL A   1      34.759  20.612  24.920  1.00  0.00     0.142 A 
ATOM     18  C   UNL A   1      33.860  19.567  24.847  1.00  0.00     0.040 A 
BRANCH  17  19
ATOM     19  C   UNL A   1      36.170  20.341  25.002  1.00  0.00     0.120 C 
ATOM     20  N   UNL A   1      37.312  20.135  25.001  1.00  0.00    -0.191 NA
ENDBRANCH  17  19
ENDBRANCH   8  13
ENDBRANCH   7   8
ENDBRANCH   4   7
ENDBRANCH   2   3
ENDBRANCH   1   2
BRANCH   1  21
ATOM     21  C   UNL A   1      32.877  29.386  25.527  1.00  0.00     0.118 C 
BRANCH  21  22
ATOM     22  N   UNL A   1      32.594  30.752  25.961  1.00  0.00    -0.352 N 
ATOM     23  C   UNL A   1      33.122  31.486  26.994  1.00  0.00     0.251 C 
ATOM     24  H   UNL A   1      31.913  31.221  25.427  1.00  0.00     0.163 HD
ATOM     25  O   UNL A   1      32.552  32.515  27.349  1.00  0.00    -0.269 OA
BRANCH  23  26
ATOM     26  C   UNL A   1      34.358  31.047  27.680  1.00  0.00     0.039 A 
ATOM     27  C   UNL A   1      35.346  31.991  27.970  1.00  0.00     0.014 A 
ATOM     28  C   UNL A   1      34.565  29.706  28.007  1.00  0.00     0.014 A 
ATOM     29  C   UNL A   1      36.511  31.593  28.628  1.00  0.00     0.010 A 
ATOM     30  C   UNL A   1      35.664  29.336  28.773  1.00  0.00     0.010 A 
ATOM     31  C   UNL A   1      36.665  30.268  29.067  1.00  0.00    -0.014 A 
BRANCH  31  32
ATOM     32  C   UNL A   1      37.875  29.838  29.813  1.00  0.00     0.031 A 
ATOM     33  C   UNL A   1      38.151  30.380  31.192  1.00  0.00     0.074 A 
ATOM     34  C   UNL A   1      38.757  29.006  29.226  1.00  0.00     0.049 A 
ATOM     35  N   UNL A   1      39.161  30.135  31.985  1.00  0.00    -0.248 NA
ATOM     36  C   UNL A   1      37.182  31.344  31.744  1.00  0.00     0.031 C 
ATOM     37  C   UNL A   1      38.643  28.474  27.866  1.00  0.00     0.029 A 
ATOM     38  N   UNL A   1      39.933  28.472  29.691  1.00  0.00    -0.354 N 
ATOM     39  C   UNL A   1      38.969  30.934  33.106  1.00  0.00     0.074 A 
ATOM     40  C   UNL A   1      37.770  31.707  32.873  1.00  0.00     0.031 C 
ATOM     41  C   UNL A   1      39.691  27.675  27.616  1.00  0.00     0.029 A 
ATOM     42  C   UNL A   1      40.575  27.673  28.776  1.00  0.00     0.049 A 
ATOM     43  H   UNL A   1      40.283  28.647  30.594  1.00  0.00     0.167 HD
ATOM     44  C   UNL A   1      39.705  31.001  34.240  1.00  0.00     0.034 A 
ATOM     45  C   UNL A   1      41.752  27.022  28.854  1.00  0.00     0.034 A 
ATOM     46  C   UNL A   1      40.885  30.215  34.477  1.00  0.00     0.049 A 
ATOM     47  C   UNL A   1      42.544  27.102  30.131  1.00  0.00     0.074 A 
ATOM     48  C   UNL A   1      41.658  30.149  35.621  1.00  0.00     0.029 A 
ATOM     49  N   UNL A   1      41.476  29.375  33.546  1.00  0.00    -0.354 N 
ATOM     50  N   UNL A   1      42.267  27.750  31.235  1.00  0.00    -0.248 NA
ATOM     51  C   UNL A   1      43.795  26.331  30.183  1.00  0.00     0.031 C 
ATOM     52  C   UNL A   1      42.747  29.311  35.365  1.00  0.00     0.029 A 
ATOM     53  C   UNL A   1      42.617  28.803  34.082  1.00  0.00     0.049 A 
ATOM     54  H   UNL A   1      41.135  29.209  32.637  1.00  0.00     0.167 HD
ATOM     55  C   UNL A   1      43.285  27.434  32.128  1.00  0.00     0.074 A 
ATOM     56  C   UNL A   1      44.173  26.519  31.440  1.00  0.00     0.031 C 
ATOM     57  C   UNL A   1      43.472  27.866  33.400  1.00  0.00     0.034 A 
BRANCH  44  58
ATOM     58  C   UNL A   1      39.244  31.943  35.323  1.00  0.00     0.023 A 
ATOM     59  C   UNL A   1      38.322  31.503  36.296  1.00  0.00     0.012 A 
ATOM     60  C   UNL A   1      39.768  33.247  35.411  1.00  0.00     0.148 A 
ATOM     61  C   UNL A   1      37.895  32.359  37.311  1.00  0.00     0.002 A 
ATOM     62  C   UNL A   1      39.380  34.076  36.457  1.00  0.00     0.091 A 
ATOM     63  F   UNL A   1      40.631  33.655  34.470  1.00  0.00    -0.205 F 
ATOM     64  C   UNL A   1      38.433  33.639  37.398  1.00  0.00     0.022 A 
BRANCH  62  65
ATOM     65  S   UNL A   1      40.079  35.710  36.710  1.00  0.00     0.127 S 
ATOM     66  O   UNL A   1      41.509  35.413  36.773  1.00  0.00    -0.237 OA
ATOM     67  O   UNL A   1      39.656  36.414  35.499  1.00  0.00    -0.237 OA
ATOM     68  O   UNL A   1      39.495  36.215  37.944  1.00  0.00    -0.744 OA
ENDBRANCH  62  65
ENDBRANCH  44  58
BRANCH  45  69
ATOM     69  C   UNL A   1      42.234  26.206  27.705  1.00  0.00     0.023 A 
ATOM     70  C   UNL A   1      43.031  26.802  26.708  1.00  0.00     0.012 A 
ATOM     71  C   UNL A   1      41.913  24.839  27.602  1.00  0.00     0.148 A 
ATOM     72  C   UNL A   1      43.466  26.062  25.608  1.00  0.00     0.002 A 
ATOM     73  C   UNL A   1      42.399  24.092  26.535  1.00  0.00     0.091 A 
ATOM     74  F   UNL A   1      41.151  24.291  28.558  1.00  0.00    -0.205 F 
ATOM     75  C   UNL A   1      43.157  24.706  25.526  1.00  0.00     0.022 A 
BRANCH  73  76
ATOM     76  S   UNL A   1      42.160  22.317  26.412  1.00  0.00     0.127 S 
ATOM     77  O   UNL A   1      42.655  21.857  27.706  1.00  0.00    -0.237 OA
ATOM     78  O   UNL A   1      40.711  22.222  26.235  1.00  0.00    -0.237 OA
ATOM     79  O   UNL A   1      42.936  21.891  25.254  1.00  0.00    -0.744 OA
ENDBRANCH  73  76
ENDBRANCH  45  69
BRANCH  57  80
ATOM     80  C   UNL A   1      44.652  27.314  34.159  1.00  0.00     0.023 A 
ATOM     81  C   UNL A   1      45.877  28.011  34.179  1.00  0.00     0.012 A 
ATOM     82  C   UNL A   1      44.523  26.122  34.899  1.00  0.00     0.148 A 
ATOM     83  C   UNL A   1      46.967  27.504  34.885  1.00  0.00     0.002 A 
ATOM     84  C   UNL A   1      45.594  25.656  35.648  1.00  0.00     0.091 A 
ATOM     85  F   UNL A   1      43.354  25.465  34.855  1.00  0.00    -0.205 F 
ATOM     86  C   UNL A   1      46.822  26.335  35.629  1.00  0.00     0.022 A 
BRANCH  84  87
ATOM     87  S   UNL A   1      45.471  24.216  36.714  1.00  0.00     0.127 S 
ATOM     88  O   UNL A   1      46.851  24.069  37.175  1.00  0.00    -0.237 OA
ATOM     89  O   UNL A   1      44.530  24.672  37.739  1.00  0.00    -0.237 OA
ATOM     90  O   UNL A   1      44.977  23.132  35.876  1.00  0.00    -0.744 OA
ENDBRANCH  84  87
ENDBRANCH  57  80
ENDBRANCH  31  32
ENDBRANCH  23  26
ENDBRANCH  21  22
ENDBRANCH   1  21
TORSDOF 17
ENDMDL
MODEL 3
REMARK VINA RESULT:     -10.9      2.050      8.233
REMARK SMILES CC(C)(C)N(CC(=O)NCCCNC(=O)c1ccc(-c2c3nc(c(-c4cccc(S(=O)(=O)[O-])c4F)c4ccc([nH]4)c(-c4cccc(S(=O)(=O)[O-])c4F)c4nc(c(-c5cccc(S(=O)(=O)[O-])c5F)c5ccc2[nH]5)C=C4)C=C3)cc1)c1cccc(C#N)n1
REMARK SMILES IDX 11 1 10 2 9 3 7 4 8 5 6 7 5 8 2 9 1 10 3 11 4 12 79 13 80 14
REMARK SMILES IDX 86 15 81 16 83 17 82 18 84 19 85 20 12 21 13 22 14 23 15 25
REMARK SMILES IDX 16 26 17 27 78 28 18 29 77 30 19 31 20 32 21 33 71 34 22 35
REMARK SMILES IDX 76 36 70 37 72 38 23 39 75 40 69 41 68 42 24 44 56 45 36 46
REMARK SMILES IDX 55 47 37 48 40 49 54 50 73 51 38 52 39 53 53 55 74 56 41 57
REMARK SMILES IDX 25 58 26 59 34 60 27 61 29 62 35 63 28 64 30 65 31 66 32 67
REMARK SMILES IDX 33 68 57 69 58 70 66 71 59 72 61 73 67 74 60 75 62 76 63 77
REMARK SMILES IDX 64 78 65 79 42 80 43 81 51 82 44 83 46 84 52 85 45 86 47 87
REMARK SMILES IDX 48 88 49 89 50 90
REMARK H PARENT 9 6 13 24 72 43 40 54
REMARK Flexibility Score: inf
ROOT
ATOM      1  C   UNL A   1      31.635  28.453  25.842  1.00  0.00     0.042 C 
ENDROOT
BRANCH   1   2
ATOM      2  C   UNL A   1      32.017  27.353  26.817  1.00  0.00     0.117 C 
BRANCH   2   3
ATOM      3  N   UNL A   1      31.066  26.271  26.845  1.00  0.00    -0.354 N 
ATOM      4  C   UNL A   1      31.261  24.953  26.539  1.00  0.00     0.239 C 
ATOM      5  O   UNL A   1      30.315  24.184  26.752  1.00  0.00    -0.273 OA
ATOM      6  H   UNL A   1      30.153  26.515  27.121  1.00  0.00     0.163 HD
BRANCH   4   7
ATOM      7  C   UNL A   1      32.644  24.412  26.112  1.00  0.00     0.218 C 
BRANCH   7   8
ATOM      8  N   UNL A   1      32.777  23.776  24.769  1.00  0.00    -0.342 N 
BRANCH   8   9
ATOM      9  C   UNL A   1      32.697  24.576  23.493  1.00  0.00     0.034 C 
ATOM     10  C   UNL A   1      33.266  23.825  22.260  1.00  0.00     0.034 C 
ATOM     11  C   UNL A   1      33.491  25.888  23.655  1.00  0.00     0.034 C 
ATOM     12  C   UNL A   1      31.262  24.935  23.066  1.00  0.00     0.034 C 
ENDBRANCH   8   9
BRANCH   8  13
ATOM     13  C   UNL A   1      33.121  22.421  24.843  1.00  0.00     0.130 A 
ATOM     14  C   UNL A   1      32.196  21.380  24.770  1.00  0.00     0.047 A 
ATOM     15  N   UNL A   1      34.430  22.102  24.923  1.00  0.00    -0.220 NA
ATOM     16  C   UNL A   1      32.591  20.040  24.819  1.00  0.00     0.007 A 
ATOM     17  C   UNL A   1      34.815  20.797  24.952  1.00  0.00     0.142 A 
ATOM     18  C   UNL A   1      33.933  19.735  24.915  1.00  0.00     0.040 A 
BRANCH  17  19
ATOM     19  C   UNL A   1      36.232  20.551  24.978  1.00  0.00     0.120 C 
ATOM     20  N   UNL A   1      37.385  20.421  25.009  1.00  0.00    -0.191 NA
ENDBRANCH  17  19
ENDBRANCH   8  13
ENDBRANCH   7   8
ENDBRANCH   4   7
ENDBRANCH   2   3
ENDBRANCH   1   2
BRANCH   1  21
ATOM     21  C   UNL A   1      32.775  29.406  25.536  1.00  0.00     0.118 C 
BRANCH  21  22
ATOM     22  N   UNL A   1      32.450  30.777  25.917  1.00  0.00    -0.352 N 
ATOM     23  C   UNL A   1      32.963  31.571  26.913  1.00  0.00     0.251 C 
ATOM     24  H   UNL A   1      31.748  31.201  25.373  1.00  0.00     0.163 HD
ATOM     25  O   UNL A   1      32.363  32.594  27.232  1.00  0.00    -0.269 OA
BRANCH  23  26
ATOM     26  C   UNL A   1      34.221  31.202  27.601  1.00  0.00     0.039 A 
ATOM     27  C   UNL A   1      35.190  32.185  27.819  1.00  0.00     0.014 A 
ATOM     28  C   UNL A   1      34.467  29.888  28.000  1.00  0.00     0.014 A 
ATOM     29  C   UNL A   1      36.375  31.854  28.479  1.00  0.00     0.010 A 
ATOM     30  C   UNL A   1      35.587  29.589  28.767  1.00  0.00     0.010 A 
ATOM     31  C   UNL A   1      36.570  30.560  28.990  1.00  0.00    -0.014 A 
BRANCH  31  32
ATOM     32  C   UNL A   1      37.802  30.203  29.738  1.00  0.00     0.031 A 
ATOM     33  C   UNL A   1      38.802  29.246  29.144  1.00  0.00     0.074 A 
ATOM     34  C   UNL A   1      37.992  30.695  30.978  1.00  0.00     0.049 A 
ATOM     35  N   UNL A   1      39.922  28.804  29.655  1.00  0.00    -0.248 NA
ATOM     36  C   UNL A   1      38.494  28.688  27.815  1.00  0.00     0.031 C 
ATOM     37  C   UNL A   1      37.060  31.569  31.695  1.00  0.00     0.029 A 
ATOM     38  N   UNL A   1      39.026  30.517  31.864  1.00  0.00    -0.354 N 
ATOM     39  C   UNL A   1      40.431  27.897  28.731  1.00  0.00     0.074 A 
ATOM     40  C   UNL A   1      39.476  27.816  27.649  1.00  0.00     0.031 C 
ATOM     41  C   UNL A   1      37.574  31.868  32.897  1.00  0.00     0.029 A 
ATOM     42  C   UNL A   1      38.845  31.173  33.058  1.00  0.00     0.049 A 
ATOM     43  H   UNL A   1      39.819  29.971  31.662  1.00  0.00     0.167 HD
ATOM     44  C   UNL A   1      41.599  27.215  28.765  1.00  0.00     0.034 A 
ATOM     45  C   UNL A   1      39.611  31.202  34.166  1.00  0.00     0.034 A 
ATOM     46  C   UNL A   1      42.556  27.315  29.833  1.00  0.00     0.049 A 
ATOM     47  C   UNL A   1      40.911  30.444  34.172  1.00  0.00     0.074 A 
ATOM     48  C   UNL A   1      43.804  26.727  29.926  1.00  0.00     0.029 A 
ATOM     49  N   UNL A   1      42.362  28.032  31.004  1.00  0.00    -0.354 N 
ATOM     50  N   UNL A   1      41.443  29.710  33.227  1.00  0.00    -0.248 NA
ATOM     51  C   UNL A   1      41.733  30.550  35.386  1.00  0.00     0.031 C 
ATOM     52  C   UNL A   1      44.343  27.045  31.176  1.00  0.00     0.029 A 
ATOM     53  C   UNL A   1      43.459  27.883  31.835  1.00  0.00     0.049 A 
ATOM     54  H   UNL A   1      41.563  28.567  31.213  1.00  0.00     0.167 HD
ATOM     55  C   UNL A   1      42.679  29.299  33.713  1.00  0.00     0.074 A 
ATOM     56  C   UNL A   1      42.824  29.885  35.030  1.00  0.00     0.031 C 
ATOM     57  C   UNL A   1      43.607  28.502  33.127  1.00  0.00     0.034 A 
BRANCH  44  58
ATOM     58  C   UNL A   1      41.919  26.312  27.600  1.00  0.00     0.023 A 
ATOM     59  C   UNL A   1      42.587  26.829  26.469  1.00  0.00     0.012 A 
ATOM     60  C   UNL A   1      41.610  24.939  27.649  1.00  0.00     0.148 A 
ATOM     61  C   UNL A   1      42.901  26.004  25.390  1.00  0.00     0.002 A 
ATOM     62  C   UNL A   1      41.975  24.113  26.593  1.00  0.00     0.091 A 
ATOM     63  F   UNL A   1      40.961  24.468  28.723  1.00  0.00    -0.205 F 
ATOM     64  C   UNL A   1      42.606  24.646  25.457  1.00  0.00     0.022 A 
BRANCH  62  65
ATOM     65  S   UNL A   1      41.719  22.336  26.620  1.00  0.00     0.127 S 
ATOM     66  O   UNL A   1      40.260  22.248  26.616  1.00  0.00    -0.237 OA
ATOM     67  O   UNL A   1      42.359  21.917  25.372  1.00  0.00    -0.237 OA
ATOM     68  O   UNL A   1      42.367  21.851  27.830  1.00  0.00    -0.744 OA
ENDBRANCH  62  65
ENDBRANCH  44  58
BRANCH  45  69
ATOM     69  C   UNL A   1      39.188  32.004  35.348  1.00  0.00     0.023 A 
ATOM     70  C   UNL A   1      38.287  31.455  36.281  1.00  0.00     0.012 A 
ATOM     71  C   UNL A   1      39.684  33.306  35.555  1.00  0.00     0.148 A 
ATOM     72  C   UNL A   1      37.855  32.204  37.377  1.00  0.00     0.002 A 
ATOM     73  C   UNL A   1      39.297  34.024  36.680  1.00  0.00     0.091 A 
ATOM     74  F   UNL A   1      40.537  33.811  34.654  1.00  0.00    -0.205 F 
ATOM     75  C   UNL A   1      38.366  33.483  37.581  1.00  0.00     0.022 A 
BRANCH  73  76
ATOM     76  S   UNL A   1      39.998  35.624  37.092  1.00  0.00     0.127 S 
ATOM     77  O   UNL A   1      41.416  35.304  37.228  1.00  0.00    -0.237 OA
ATOM     78  O   UNL A   1      39.653  36.414  35.910  1.00  0.00    -0.237 OA
ATOM     79  O   UNL A   1      39.328  36.049  38.315  1.00  0.00    -0.744 OA
ENDBRANCH  73  76
ENDBRANCH  45  69
BRANCH  57  80
ATOM     80  C   UNL A   1      44.893  28.260  33.877  1.00  0.00     0.023 A 
ATOM     81  C   UNL A   1      45.976  29.151  33.742  1.00  0.00     0.012 A 
ATOM     82  C   UNL A   1      45.001  27.168  34.761  1.00  0.00     0.148 A 
ATOM     83  C   UNL A   1      47.163  28.932  34.440  1.00  0.00     0.002 A 
ATOM     84  C   UNL A   1      46.165  26.991  35.497  1.00  0.00     0.091 A 
ATOM     85  F   UNL A   1      43.966  26.323  34.864  1.00  0.00    -0.205 F 
ATOM     86  C   UNL A   1      47.253  27.861  35.325  1.00  0.00     0.022 A 
BRANCH  84  87
ATOM     87  S   UNL A   1      46.335  25.700  36.734  1.00  0.00     0.127 S 
ATOM     88  O   UNL A   1      45.211  25.992  37.624  1.00  0.00    -0.237 OA
ATOM     89  O   UNL A   1      46.179  24.484  35.934  1.00  0.00    -0.237 OA
ATOM     90  O   UNL A   1      47.656  25.874  37.322  1.00  0.00    -0.744 OA
ENDBRANCH  84  87
ENDBRANCH  57  80
ENDBRANCH  31  32
ENDBRANCH  23  26
ENDBRANCH  21  22
ENDBRANCH   1  21
TORSDOF 17
ENDMDL
