MODEL 1
REMARK VINA RESULT:     -13.2      0.000      0.000
REMARK SMILES O=C(NCCCNC(=O)c1ccc(-c2c3nc(c(-c4cccc(S(=O)(=O)[O-])c4F)c4ccc([nH]4)c(-c4cccc(S(=O)(=O)[O-])c4F)c4nc(c(-c5cccc(S(=O)(=O)[O-])c5F)c5ccc2[nH]5)C=C4)C=C3)cc1)C1=Cc2cc(Cl)c(Cl)c(Cl)c2O[C@@H]1C(F)(F)F
REMARK SMILES IDX 6 1 5 2 4 3 3 4 1 5 2 6 73 8 74 9 85 10 75 11 84 12 76 13
REMARK SMILES IDX 83 14 77 15 81 16 78 17 79 18 82 19 80 20 86 21 87 22 88 23
REMARK SMILES IDX 89 24 7 25 8 26 9 28 10 29 11 30 72 31 12 32 71 33 13 34
REMARK SMILES IDX 14 35 15 36 65 37 16 38 70 39 64 40 66 41 17 42 69 43 63 44
REMARK SMILES IDX 62 45 18 47 50 48 30 49 49 50 31 51 34 52 48 53 67 54 32 55
REMARK SMILES IDX 33 56 47 58 68 59 35 60 19 61 20 62 28 63 21 64 23 65 29 66
REMARK SMILES IDX 22 67 24 68 25 69 26 70 27 71 51 72 52 73 60 74 53 75 55 76
REMARK SMILES IDX 61 77 54 78 56 79 57 80 58 81 59 82 36 83 37 84 45 85 38 86
REMARK SMILES IDX 40 87 46 88 39 89 41 90 42 91 43 92 44 93
REMARK H PARENT 3 7 7 27 66 46 34 57
REMARK Flexibility Score: inf
ROOT
ATOM      1  C   UNL A   1      37.370  21.511  25.014  1.00  0.00     0.118 C 
ENDROOT
BRANCH   1   2
ATOM      2  C   UNL A   1      36.112  21.457  25.868  1.00  0.00     0.042 C 
BRANCH   2   3
ATOM      3  C   UNL A   1      34.868  21.205  25.027  1.00  0.00     0.118 C 
BRANCH   3   4
ATOM      4  N   UNL A   1      34.802  22.034  23.821  1.00  0.00    -0.352 N 
ATOM      5  O   UNL A   1      34.476  23.960  22.660  1.00  0.00    -0.270 OA
ATOM      6  C   UNL A   1      34.230  23.269  23.637  1.00  0.00     0.251 C 
ATOM      7  H   UNL A   1      35.233  21.647  23.025  1.00  0.00     0.163 HD
BRANCH   6   8
ATOM      8  C   UNL A   1      33.373  23.770  24.728  1.00  0.00     0.067 C 
ATOM      9  C   UNL A   1      33.870  24.751  25.492  1.00  0.00     0.025 C 
ATOM     10  C   UNL A   1      31.914  23.460  24.634  1.00  0.00     0.314 C 
ATOM     11  C   UNL A   1      32.929  25.856  25.717  1.00  0.00     0.020 A 
ATOM     12  O   UNL A   1      31.107  24.662  24.607  1.00  0.00    -0.474 OA
ATOM     13  C   UNL A   1      33.470  27.077  26.125  1.00  0.00     0.034 A 
ATOM     14  C   UNL A   1      31.657  25.821  25.111  1.00  0.00     0.148 A 
ATOM     15  C   UNL A   1      32.813  28.270  25.815  1.00  0.00     0.062 A 
ATOM     16  C   UNL A   1      30.986  27.024  24.823  1.00  0.00     0.103 A 
ATOM     17  Cl  UNL A   1      33.648  29.738  26.189  1.00  0.00    -0.083 Cl
ATOM     18  C   UNL A   1      31.583  28.255  25.140  1.00  0.00     0.082 A 
ATOM     19  Cl  UNL A   1      29.494  26.951  23.928  1.00  0.00    -0.079 Cl
ATOM     20  Cl  UNL A   1      30.852  29.746  24.625  1.00  0.00    -0.081 Cl
BRANCH  10  21
ATOM     21  C   UNL A   1      31.451  22.518  25.756  1.00  0.00     0.429 C 
ATOM     22  F   UNL A   1      30.174  22.793  26.122  1.00  0.00    -0.167 F 
ATOM     23  F   UNL A   1      31.476  21.220  25.378  1.00  0.00    -0.167 F 
ATOM     24  F   UNL A   1      32.215  22.631  26.868  1.00  0.00    -0.167 F 
ENDBRANCH  10  21
ENDBRANCH   6   8
ENDBRANCH   3   4
ENDBRANCH   2   3
ENDBRANCH   1   2
BRANCH   1  25
ATOM     25  N   UNL A   1      38.401  20.557  25.419  1.00  0.00    -0.352 N 
ATOM     26  C   UNL A   1      39.571  20.763  26.128  1.00  0.00     0.251 C 
ATOM     27  H   UNL A   1      38.237  19.625  25.148  1.00  0.00     0.163 HD
ATOM     28  O   UNL A   1      40.349  19.839  26.310  1.00  0.00    -0.269 OA
BRANCH  26  29
ATOM     29  C   UNL A   1      39.890  22.119  26.629  1.00  0.00     0.039 A 
ATOM     30  C   UNL A   1      40.909  22.288  27.570  1.00  0.00     0.014 A 
ATOM     31  C   UNL A   1      39.225  23.227  26.112  1.00  0.00     0.014 A 
ATOM     32  C   UNL A   1      41.341  23.579  27.899  1.00  0.00     0.010 A 
ATOM     33  C   UNL A   1      39.740  24.494  26.336  1.00  0.00     0.010 A 
ATOM     34  C   UNL A   1      40.803  24.691  27.232  1.00  0.00    -0.014 A 
BRANCH  34  35
ATOM     35  C   UNL A   1      41.294  26.082  27.431  1.00  0.00     0.031 A 
ATOM     36  C   UNL A   1      42.676  26.442  26.952  1.00  0.00     0.074 A 
ATOM     37  C   UNL A   1      40.592  26.956  28.181  1.00  0.00     0.049 A 
ATOM     38  N   UNL A   1      43.423  27.467  27.263  1.00  0.00    -0.248 NA
ATOM     39  C   UNL A   1      43.334  25.472  26.056  1.00  0.00     0.031 C 
ATOM     40  C   UNL A   1      39.272  26.713  28.768  1.00  0.00     0.029 A 
ATOM     41  N   UNL A   1      40.916  28.219  28.614  1.00  0.00    -0.354 N 
ATOM     42  C   UNL A   1      44.660  27.223  26.678  1.00  0.00     0.074 A 
ATOM     43  C   UNL A   1      44.574  25.935  26.026  1.00  0.00     0.031 C 
ATOM     44  C   UNL A   1      38.896  27.792  29.473  1.00  0.00     0.029 A 
ATOM     45  C   UNL A   1      39.964  28.785  29.432  1.00  0.00     0.049 A 
ATOM     46  H   UNL A   1      41.750  28.676  28.364  1.00  0.00     0.167 HD
ATOM     47  C   UNL A   1      45.760  28.012  26.655  1.00  0.00     0.034 A 
ATOM     48  C   UNL A   1      39.959  29.965  30.083  1.00  0.00     0.034 A 
ATOM     49  C   UNL A   1      45.799  29.337  27.206  1.00  0.00     0.049 A 
ATOM     50  C   UNL A   1      41.151  30.874  29.951  1.00  0.00     0.074 A 
ATOM     51  C   UNL A   1      46.819  30.267  27.143  1.00  0.00     0.029 A 
ATOM     52  N   UNL A   1      44.754  29.931  27.898  1.00  0.00    -0.354 N 
ATOM     53  N   UNL A   1      42.272  30.674  29.302  1.00  0.00    -0.248 NA
ATOM     54  C   UNL A   1      41.068  32.183  30.615  1.00  0.00     0.031 C 
ATOM     55  C   UNL A   1      46.388  31.430  27.793  1.00  0.00     0.029 A 
ATOM     56  C   UNL A   1      45.096  31.223  28.253  1.00  0.00     0.049 A 
ATOM     57  H   UNL A   1      43.895  29.498  28.106  1.00  0.00     0.167 HD
ATOM     58  C   UNL A   1      43.007  31.845  29.439  1.00  0.00     0.074 A 
ATOM     59  C   UNL A   1      42.201  32.755  30.228  1.00  0.00     0.031 C 
ATOM     60  C   UNL A   1      44.245  32.137  28.969  1.00  0.00     0.034 A 
BRANCH  47  61
ATOM     61  C   UNL A   1      46.980  27.484  25.944  1.00  0.00     0.023 A 
ATOM     62  C   UNL A   1      47.910  26.693  26.651  1.00  0.00     0.012 A 
ATOM     63  C   UNL A   1      47.202  27.751  24.579  1.00  0.00     0.148 A 
ATOM     64  C   UNL A   1      49.066  26.225  26.029  1.00  0.00     0.002 A 
ATOM     65  C   UNL A   1      48.332  27.237  23.952  1.00  0.00     0.091 A 
ATOM     66  F   UNL A   1      46.323  28.523  23.923  1.00  0.00    -0.205 F 
ATOM     67  C   UNL A   1      49.272  26.489  24.678  1.00  0.00     0.022 A 
BRANCH  65  68
ATOM     68  S   UNL A   1      48.638  27.454  22.194  1.00  0.00     0.127 S 
ATOM     69  O   UNL A   1      47.508  28.293  21.799  1.00  0.00    -0.237 OA
ATOM     70  O   UNL A   1      49.934  28.134  22.185  1.00  0.00    -0.237 OA
ATOM     71  O   UNL A   1      48.659  26.112  21.628  1.00  0.00    -0.744 OA
ENDBRANCH  65  68
ENDBRANCH  47  61
BRANCH  48  72
ATOM     72  C   UNL A   1      38.746  30.393  30.838  1.00  0.00     0.023 A 
ATOM     73  C   UNL A   1      38.673  30.115  32.217  1.00  0.00     0.012 A 
ATOM     74  C   UNL A   1      37.695  31.104  30.226  1.00  0.00     0.148 A 
ATOM     75  C   UNL A   1      37.566  30.510  32.968  1.00  0.00     0.002 A 
ATOM     76  C   UNL A   1      36.617  31.540  30.991  1.00  0.00     0.091 A 
ATOM     77  F   UNL A   1      37.777  31.353  28.911  1.00  0.00    -0.205 F 
ATOM     78  C   UNL A   1      36.544  31.232  32.358  1.00  0.00     0.022 A 
BRANCH  76  79
ATOM     79  S   UNL A   1      35.315  32.582  30.320  1.00  0.00     0.127 S 
ATOM     80  O   UNL A   1      34.817  31.766  29.216  1.00  0.00    -0.237 OA
ATOM     81  O   UNL A   1      34.404  32.699  31.459  1.00  0.00    -0.237 OA
ATOM     82  O   UNL A   1      35.965  33.830  29.943  1.00  0.00    -0.744 OA
ENDBRANCH  76  79
ENDBRANCH  48  72
BRANCH  60  83
ATOM     83  C   UNL A   1      44.792  33.513  29.235  1.00  0.00     0.023 A 
ATOM     84  C   UNL A   1      45.532  33.758  30.407  1.00  0.00     0.012 A 
ATOM     85  C   UNL A   1      44.662  34.531  28.269  1.00  0.00     0.148 A 
ATOM     86  C   UNL A   1      46.121  35.003  30.622  1.00  0.00     0.002 A 
ATOM     87  C   UNL A   1      45.289  35.754  28.470  1.00  0.00     0.091 A 
ATOM     88  F   UNL A   1      43.935  34.281  27.170  1.00  0.00    -0.205 F 
ATOM     89  C   UNL A   1      46.011  35.995  29.650  1.00  0.00     0.022 A 
BRANCH  87  90
ATOM     90  S   UNL A   1      45.282  37.052  27.228  1.00  0.00     0.127 S 
ATOM     91  O   UNL A   1      46.000  38.125  27.914  1.00  0.00    -0.237 OA
ATOM     92  O   UNL A   1      46.018  36.432  26.127  1.00  0.00    -0.237 OA
ATOM     93  O   UNL A   1      43.880  37.321  26.939  1.00  0.00    -0.744 OA
ENDBRANCH  87  90
ENDBRANCH  60  83
ENDBRANCH  34  35
ENDBRANCH  26  29
ENDBRANCH   1  25
TORSDOF 14
ENDMDL
MODEL 2
REMARK VINA RESULT:     -13.2      5.403     10.266
REMARK SMILES O=C(NCCCNC(=O)c1ccc(-c2c3nc(c(-c4cccc(S(=O)(=O)[O-])c4F)c4ccc([nH]4)c(-c4cccc(S(=O)(=O)[O-])c4F)c4nc(c(-c5cccc(S(=O)(=O)[O-])c5F)c5ccc2[nH]5)C=C4)C=C3)cc1)C1=Cc2cc(Cl)c(Cl)c(Cl)c2O[C@@H]1C(F)(F)F
REMARK SMILES IDX 6 1 5 2 4 3 3 4 1 5 2 6 73 8 74 9 85 10 75 11 84 12 76 13
REMARK SMILES IDX 83 14 77 15 81 16 78 17 79 18 82 19 80 20 86 21 87 22 88 23
REMARK SMILES IDX 89 24 7 25 8 26 9 28 10 29 11 30 72 31 12 32 71 33 13 34
REMARK SMILES IDX 14 35 15 36 65 37 16 38 70 39 64 40 66 41 17 42 69 43 63 44
REMARK SMILES IDX 62 45 18 47 50 48 30 49 49 50 31 51 34 52 48 53 67 54 32 55
REMARK SMILES IDX 33 56 47 58 68 59 35 60 19 61 20 62 28 63 21 64 23 65 29 66
REMARK SMILES IDX 22 67 24 68 25 69 26 70 27 71 51 72 52 73 60 74 53 75 55 76
REMARK SMILES IDX 61 77 54 78 56 79 57 80 58 81 59 82 36 83 37 84 45 85 38 86
REMARK SMILES IDX 40 87 46 88 39 89 41 90 42 91 43 92 44 93
REMARK H PARENT 3 7 7 27 66 46 34 57
REMARK Flexibility Score: inf
ROOT
ATOM      1  C   UNL A   1      32.240  30.362  26.776  1.00  0.00     0.118 C 
ENDROOT
BRANCH   1   2
ATOM      2  C   UNL A   1      32.530  29.927  25.347  1.00  0.00     0.042 C 
BRANCH   2   3
ATOM      3  C   UNL A   1      31.494  28.936  24.837  1.00  0.00     0.118 C 
BRANCH   3   4
ATOM      4  N   UNL A   1      31.168  27.884  25.803  1.00  0.00    -0.352 N 
ATOM      5  O   UNL A   1      31.496  25.923  26.903  1.00  0.00    -0.270 OA
ATOM      6  C   UNL A   1      31.652  26.602  25.899  1.00  0.00     0.251 C 
ATOM      7  H   UNL A   1      30.503  28.134  26.485  1.00  0.00     0.163 HD
BRANCH   6   8
ATOM      8  C   UNL A   1      32.458  26.113  24.765  1.00  0.00     0.067 C 
ATOM      9  C   UNL A   1      33.771  25.951  24.976  1.00  0.00     0.025 C 
ATOM     10  C   UNL A   1      31.717  25.453  23.648  1.00  0.00     0.314 C 
ATOM     11  C   UNL A   1      34.291  24.669  24.484  1.00  0.00     0.020 A 
ATOM     12  O   UNL A   1      32.160  24.091  23.436  1.00  0.00    -0.474 OA
ATOM     13  C   UNL A   1      35.508  24.233  25.013  1.00  0.00     0.034 A 
ATOM     14  C   UNL A   1      33.411  23.739  23.895  1.00  0.00     0.148 A 
ATOM     15  C   UNL A   1      35.792  22.867  25.079  1.00  0.00     0.062 A 
ATOM     16  C   UNL A   1      33.711  22.366  23.940  1.00  0.00     0.103 A 
ATOM     17  Cl  UNL A   1      37.231  22.410  25.922  1.00  0.00    -0.083 Cl
ATOM     18  C   UNL A   1      34.887  21.923  24.569  1.00  0.00     0.082 A 
ATOM     19  Cl  UNL A   1      32.526  21.235  23.351  1.00  0.00    -0.079 Cl
ATOM     20  Cl  UNL A   1      35.179  20.224  24.794  1.00  0.00    -0.081 Cl
BRANCH  10  21
ATOM     21  C   UNL A   1      31.800  26.263  22.344  1.00  0.00     0.429 C 
ATOM     22  F   UNL A   1      31.933  25.441  21.273  1.00  0.00    -0.167 F 
ATOM     23  F   UNL A   1      30.689  27.003  22.130  1.00  0.00    -0.167 F 
ATOM     24  F   UNL A   1      32.858  27.107  22.331  1.00  0.00    -0.167 F 
ENDBRANCH  10  21
ENDBRANCH   6   8
ENDBRANCH   3   4
ENDBRANCH   2   3
ENDBRANCH   1   2
BRANCH   1  25
ATOM     25  N   UNL A   1      32.335  31.806  26.985  1.00  0.00    -0.352 N 
ATOM     26  C   UNL A   1      33.363  32.559  27.524  1.00  0.00     0.251 C 
ATOM     27  H   UNL A   1      31.547  32.322  26.698  1.00  0.00     0.163 HD
ATOM     28  O   UNL A   1      33.224  33.762  27.682  1.00  0.00    -0.269 OA
BRANCH  26  29
ATOM     29  C   UNL A   1      34.616  31.889  27.941  1.00  0.00     0.039 A 
ATOM     30  C   UNL A   1      35.777  32.645  28.127  1.00  0.00     0.014 A 
ATOM     31  C   UNL A   1      34.618  30.524  28.214  1.00  0.00     0.014 A 
ATOM     32  C   UNL A   1      36.904  32.049  28.704  1.00  0.00     0.010 A 
ATOM     33  C   UNL A   1      35.685  29.972  28.905  1.00  0.00     0.010 A 
ATOM     34  C   UNL A   1      36.844  30.722  29.160  1.00  0.00    -0.014 A 
BRANCH  34  35
ATOM     35  C   UNL A   1      37.953  30.057  29.896  1.00  0.00     0.031 A 
ATOM     36  C   UNL A   1      38.221  30.455  31.324  1.00  0.00     0.074 A 
ATOM     37  C   UNL A   1      38.815  29.245  29.249  1.00  0.00     0.049 A 
ATOM     38  N   UNL A   1      39.280  30.246  32.060  1.00  0.00    -0.248 NA
ATOM     39  C   UNL A   1      37.180  31.262  31.987  1.00  0.00     0.031 C 
ATOM     40  C   UNL A   1      38.716  28.835  27.847  1.00  0.00     0.029 A 
ATOM     41  N   UNL A   1      39.977  28.652  29.683  1.00  0.00    -0.354 N 
ATOM     42  C   UNL A   1      39.072  30.967  33.231  1.00  0.00     0.074 A 
ATOM     43  C   UNL A   1      37.803  31.647  33.090  1.00  0.00     0.031 C 
ATOM     44  C   UNL A   1      39.762  28.051  27.540  1.00  0.00     0.029 A 
ATOM     45  C   UNL A   1      40.634  27.941  28.704  1.00  0.00     0.049 A 
ATOM     46  H   UNL A   1      40.307  28.729  30.606  1.00  0.00     0.167 HD
ATOM     47  C   UNL A   1      39.848  31.032  34.338  1.00  0.00     0.034 A 
ATOM     48  C   UNL A   1      41.811  27.286  28.740  1.00  0.00     0.034 A 
ATOM     49  C   UNL A   1      41.047  30.262  34.513  1.00  0.00     0.049 A 
ATOM     50  C   UNL A   1      42.603  27.281  30.019  1.00  0.00     0.074 A 
ATOM     51  C   UNL A   1      41.852  30.163  35.633  1.00  0.00     0.029 A 
ATOM     52  N   UNL A   1      41.598  29.435  33.547  1.00  0.00    -0.354 N 
ATOM     53  N   UNL A   1      42.337  27.879  31.156  1.00  0.00    -0.248 NA
ATOM     54  C   UNL A   1      43.841  26.489  30.035  1.00  0.00     0.031 C 
ATOM     55  C   UNL A   1      42.889  29.268  35.346  1.00  0.00     0.029 A 
ATOM     56  C   UNL A   1      42.722  28.805  34.049  1.00  0.00     0.049 A 
ATOM     57  H   UNL A   1      41.242  29.312  32.638  1.00  0.00     0.167 HD
ATOM     58  C   UNL A   1      43.346  27.500  32.033  1.00  0.00     0.074 A 
ATOM     59  C   UNL A   1      44.226  26.613  31.299  1.00  0.00     0.031 C 
ATOM     60  C   UNL A   1      43.537  27.864  33.324  1.00  0.00     0.034 A 
BRANCH  47  61
ATOM     61  C   UNL A   1      39.374  31.908  35.469  1.00  0.00     0.023 A 
ATOM     62  C   UNL A   1      38.467  31.391  36.417  1.00  0.00     0.012 A 
ATOM     63  C   UNL A   1      39.835  33.232  35.609  1.00  0.00     0.148 A 
ATOM     64  C   UNL A   1      37.982  32.191  37.451  1.00  0.00     0.002 A 
ATOM     65  C   UNL A   1      39.386  34.008  36.673  1.00  0.00     0.091 A 
ATOM     66  F   UNL A   1      40.680  33.720  34.689  1.00  0.00    -0.205 F 
ATOM     67  C   UNL A   1      38.449  33.496  37.584  1.00  0.00     0.022 A 
BRANCH  65  68
ATOM     68  S   UNL A   1      39.997  35.671  36.974  1.00  0.00     0.127 S 
ATOM     69  O   UNL A   1      39.296  36.025  38.207  1.00  0.00    -0.237 OA
ATOM     70  O   UNL A   1      41.435  35.450  37.134  1.00  0.00    -0.237 OA
ATOM     71  O   UNL A   1      39.635  36.445  35.795  1.00  0.00    -0.744 OA
ENDBRANCH  65  68
ENDBRANCH  47  61
BRANCH  48  72
ATOM     72  C   UNL A   1      42.261  26.500  27.555  1.00  0.00     0.023 A 
ATOM     73  C   UNL A   1      43.042  27.143  26.573  1.00  0.00     0.012 A 
ATOM     74  C   UNL A   1      41.970  25.131  27.409  1.00  0.00     0.148 A 
ATOM     75  C   UNL A   1      43.500  26.446  25.455  1.00  0.00     0.002 A 
ATOM     76  C   UNL A   1      42.473  24.428  26.318  1.00  0.00     0.091 A 
ATOM     77  F   UNL A   1      41.219  24.537  28.348  1.00  0.00    -0.205 F 
ATOM     78  C   UNL A   1      43.225  25.087  25.333  1.00  0.00     0.022 A 
BRANCH  76  79
ATOM     79  S   UNL A   1      42.276  22.651  26.139  1.00  0.00     0.127 S 
ATOM     80  O   UNL A   1      42.944  22.402  24.864  1.00  0.00    -0.237 OA
ATOM     81  O   UNL A   1      42.988  22.148  27.315  1.00  0.00    -0.237 OA
ATOM     82  O   UNL A   1      40.840  22.410  26.160  1.00  0.00    -0.744 OA
ENDBRANCH  76  79
ENDBRANCH  48  72
BRANCH  60  83
ATOM     83  C   UNL A   1      44.706  27.265  34.058  1.00  0.00     0.023 A 
ATOM     84  C   UNL A   1      45.950  27.924  34.051  1.00  0.00     0.012 A 
ATOM     85  C   UNL A   1      44.536  26.107  34.843  1.00  0.00     0.148 A 
ATOM     86  C   UNL A   1      47.015  27.428  34.801  1.00  0.00     0.002 A 
ATOM     87  C   UNL A   1      45.589  25.645  35.623  1.00  0.00     0.091 A 
ATOM     88  F   UNL A   1      43.348  25.486  34.818  1.00  0.00    -0.205 F 
ATOM     89  C   UNL A   1      46.832  26.298  35.595  1.00  0.00     0.022 A 
BRANCH  87  90
ATOM     90  S   UNL A   1      45.412  24.257  36.749  1.00  0.00     0.127 S 
ATOM     91  O   UNL A   1      44.368  24.738  37.652  1.00  0.00    -0.237 OA
ATOM     92  O   UNL A   1      44.995  23.179  35.853  1.00  0.00    -0.237 OA
ATOM     93  O   UNL A   1      46.723  24.063  37.355  1.00  0.00    -0.744 OA
ENDBRANCH  87  90
ENDBRANCH  60  83
ENDBRANCH  34  35
ENDBRANCH  26  29
ENDBRANCH   1  25
TORSDOF 14
ENDMDL
MODEL 3
REMARK VINA RESULT:     -13.2      1.425      1.769
REMARK SMILES O=C(NCCCNC(=O)c1ccc(-c2c3nc(c(-c4cccc(S(=O)(=O)[O-])c4F)c4ccc([nH]4)c(-c4cccc(S(=O)(=O)[O-])c4F)c4nc(c(-c5cccc(S(=O)(=O)[O-])c5F)c5ccc2[nH]5)C=C4)C=C3)cc1)C1=Cc2cc(Cl)c(Cl)c(Cl)c2O[C@@H]1C(F)(F)F
REMARK SMILES IDX 6 1 5 2 4 3 3 4 1 5 2 6 73 8 74 9 85 10 75 11 84 12 76 13
REMARK SMILES IDX 83 14 77 15 81 16 78 17 79 18 82 19 80 20 86 21 87 22 88 23
REMARK SMILES IDX 89 24 7 25 8 26 9 28 10 29 11 30 72 31 12 32 71 33 13 34
REMARK SMILES IDX 14 35 15 36 65 37 16 38 70 39 64 40 66 41 17 42 69 43 63 44
REMARK SMILES IDX 62 45 18 47 50 48 30 49 49 50 31 51 34 52 48 53 67 54 32 55
REMARK SMILES IDX 33 56 47 58 68 59 35 60 19 61 20 62 28 63 21 64 23 65 29 66
REMARK SMILES IDX 22 67 24 68 25 69 26 70 27 71 51 72 52 73 60 74 53 75 55 76
REMARK SMILES IDX 61 77 54 78 56 79 57 80 58 81 59 82 36 83 37 84 45 85 38 86
REMARK SMILES IDX 40 87 46 88 39 89 41 90 42 91 43 92 44 93
REMARK H PARENT 3 7 7 27 66 46 34 57
REMARK Flexibility Score: inf
ROOT
ATOM      1  C   UNL A   1      37.508  21.080  25.163  1.00  0.00     0.118 C 
ENDROOT
BRANCH   1   2
ATOM      2  C   UNL A   1      36.147  20.409  25.050  1.00  0.00     0.042 C 
BRANCH   2   3
ATOM      3  C   UNL A   1      35.013  21.424  25.071  1.00  0.00     0.118 C 
BRANCH   3   4
ATOM      4  N   UNL A   1      34.955  22.259  23.869  1.00  0.00    -0.352 N 
ATOM      5  O   UNL A   1      34.602  24.183  22.711  1.00  0.00    -0.270 OA
ATOM      6  C   UNL A   1      34.350  23.477  23.677  1.00  0.00     0.251 C 
ATOM      7  H   UNL A   1      35.418  21.892  23.082  1.00  0.00     0.163 HD
BRANCH   6   8
ATOM      8  C   UNL A   1      33.448  23.944  24.747  1.00  0.00     0.067 C 
ATOM      9  C   UNL A   1      33.895  24.934  25.531  1.00  0.00     0.025 C 
ATOM     10  C   UNL A   1      32.003  23.591  24.612  1.00  0.00     0.314 C 
ATOM     11  C   UNL A   1      32.914  26.008  25.737  1.00  0.00     0.020 A 
ATOM     12  O   UNL A   1      31.161  24.768  24.570  1.00  0.00    -0.474 OA
ATOM     13  C   UNL A   1      33.406  27.242  26.168  1.00  0.00     0.034 A 
ATOM     14  C   UNL A   1      31.661  25.939  25.097  1.00  0.00     0.148 A 
ATOM     15  C   UNL A   1      32.722  28.417  25.848  1.00  0.00     0.062 A 
ATOM     16  C   UNL A   1      30.962  27.123  24.798  1.00  0.00     0.103 A 
ATOM     17  Cl  UNL A   1      33.501  29.907  26.255  1.00  0.00    -0.083 Cl
ATOM     18  C   UNL A   1      31.512  28.370  25.139  1.00  0.00     0.082 A 
ATOM     19  Cl  UNL A   1      29.498  27.012  23.862  1.00  0.00    -0.079 Cl
ATOM     20  Cl  UNL A   1      30.750  29.842  24.614  1.00  0.00    -0.081 Cl
BRANCH  10  21
ATOM     21  C   UNL A   1      31.539  22.627  25.714  1.00  0.00     0.429 C 
ATOM     22  F   UNL A   1      32.329  22.732  26.812  1.00  0.00    -0.167 F 
ATOM     23  F   UNL A   1      30.274  22.885  26.120  1.00  0.00    -0.167 F 
ATOM     24  F   UNL A   1      31.581  21.335  25.316  1.00  0.00    -0.167 F 
ENDBRANCH  10  21
ENDBRANCH   6   8
ENDBRANCH   3   4
ENDBRANCH   2   3
ENDBRANCH   1   2
BRANCH   1  25
ATOM     25  N   UNL A   1      38.586  20.170  25.546  1.00  0.00    -0.352 N 
ATOM     26  C   UNL A   1      39.766  20.426  26.221  1.00  0.00     0.251 C 
ATOM     27  H   UNL A   1      38.451  19.230  25.285  1.00  0.00     0.163 HD
ATOM     28  O   UNL A   1      40.584  19.534  26.387  1.00  0.00    -0.269 OA
BRANCH  26  29
ATOM     29  C   UNL A   1      40.046  21.797  26.705  1.00  0.00     0.039 A 
ATOM     30  C   UNL A   1      41.009  21.998  27.697  1.00  0.00     0.014 A 
ATOM     31  C   UNL A   1      39.402  22.886  26.124  1.00  0.00     0.014 A 
ATOM     32  C   UNL A   1      41.411  23.300  28.017  1.00  0.00     0.010 A 
ATOM     33  C   UNL A   1      39.894  24.162  26.344  1.00  0.00     0.010 A 
ATOM     34  C   UNL A   1      40.904  24.391  27.294  1.00  0.00    -0.014 A 
BRANCH  34  35
ATOM     35  C   UNL A   1      41.372  25.790  27.485  1.00  0.00     0.031 A 
ATOM     36  C   UNL A   1      42.769  26.156  27.055  1.00  0.00     0.074 A 
ATOM     37  C   UNL A   1      40.630  26.672  28.187  1.00  0.00     0.049 A 
ATOM     38  N   UNL A   1      43.491  27.196  27.376  1.00  0.00    -0.248 NA
ATOM     39  C   UNL A   1      43.473  25.177  26.207  1.00  0.00     0.031 C 
ATOM     40  C   UNL A   1      39.290  26.426  28.724  1.00  0.00     0.029 A 
ATOM     41  N   UNL A   1      40.923  27.947  28.608  1.00  0.00    -0.354 N 
ATOM     42  C   UNL A   1      44.755  26.954  26.848  1.00  0.00     0.074 A 
ATOM     43  C   UNL A   1      44.708  25.652  26.219  1.00  0.00     0.031 C 
ATOM     44  C   UNL A   1      38.874  27.514  29.391  1.00  0.00     0.029 A 
ATOM     45  C   UNL A   1      39.932  28.518  29.374  1.00  0.00     0.049 A 
ATOM     46  H   UNL A   1      41.763  28.408  28.383  1.00  0.00     0.167 HD
ATOM     47  C   UNL A   1      45.846  27.754  26.854  1.00  0.00     0.034 A 
ATOM     48  C   UNL A   1      39.888  29.710  30.001  1.00  0.00     0.034 A 
ATOM     49  C   UNL A   1      45.849  29.090  27.380  1.00  0.00     0.049 A 
ATOM     50  C   UNL A   1      41.075  30.629  29.900  1.00  0.00     0.074 A 
ATOM     51  C   UNL A   1      46.861  30.030  27.341  1.00  0.00     0.029 A 
ATOM     52  N   UNL A   1      44.770  29.686  28.016  1.00  0.00    -0.354 N 
ATOM     53  N   UNL A   1      42.225  30.429  29.301  1.00  0.00    -0.248 NA
ATOM     54  C   UNL A   1      40.952  31.950  30.533  1.00  0.00     0.031 C 
ATOM     55  C   UNL A   1      46.392  31.200  27.949  1.00  0.00     0.029 A 
ATOM     56  C   UNL A   1      45.084  30.988  28.359  1.00  0.00     0.049 A 
ATOM     57  H   UNL A   1      43.907  29.247  28.197  1.00  0.00     0.167 HD
ATOM     58  C   UNL A   1      42.942  31.611  29.446  1.00  0.00     0.074 A 
ATOM     59  C   UNL A   1      42.094  32.527  30.182  1.00  0.00     0.031 C 
ATOM     60  C   UNL A   1      44.195  31.907  29.021  1.00  0.00     0.034 A 
BRANCH  47  61
ATOM     61  C   UNL A   1      47.100  27.226  26.205  1.00  0.00     0.023 A 
ATOM     62  C   UNL A   1      47.298  27.414  24.821  1.00  0.00     0.012 A 
ATOM     63  C   UNL A   1      48.089  26.563  26.958  1.00  0.00     0.148 A 
ATOM     64  C   UNL A   1      48.429  26.902  24.187  1.00  0.00     0.002 A 
ATOM     65  C   UNL A   1      49.239  26.101  26.327  1.00  0.00     0.091 A 
ATOM     66  F   UNL A   1      47.879  26.371  28.268  1.00  0.00    -0.205 F 
ATOM     67  C   UNL A   1      49.403  26.254  24.941  1.00  0.00     0.022 A 
BRANCH  65  68
ATOM     68  S   UNL A   1      50.587  25.330  27.231  1.00  0.00     0.127 S 
ATOM     69  O   UNL A   1      49.913  24.188  27.849  1.00  0.00    -0.237 OA
ATOM     70  O   UNL A   1      51.521  24.979  26.161  1.00  0.00    -0.237 OA
ATOM     71  O   UNL A   1      51.079  26.347  28.150  1.00  0.00    -0.744 OA
ENDBRANCH  65  68
ENDBRANCH  47  61
BRANCH  48  72
ATOM     72  C   UNL A   1      38.641  30.140  30.696  1.00  0.00     0.023 A 
ATOM     73  C   UNL A   1      38.471  29.800  32.054  1.00  0.00     0.012 A 
ATOM     74  C   UNL A   1      37.652  30.909  30.054  1.00  0.00     0.148 A 
ATOM     75  C   UNL A   1      37.328  30.194  32.750  1.00  0.00     0.002 A 
ATOM     76  C   UNL A   1      36.539  31.343  30.768  1.00  0.00     0.091 A 
ATOM     77  F   UNL A   1      37.827  31.217  28.760  1.00  0.00    -0.205 F 
ATOM     78  C   UNL A   1      36.368  30.973  32.112  1.00  0.00     0.022 A 
BRANCH  76  79
ATOM     79  S   UNL A   1      35.313  32.453  30.067  1.00  0.00     0.127 S 
ATOM     80  O   UNL A   1      36.124  33.617  29.721  1.00  0.00    -0.237 OA
ATOM     81  O   UNL A   1      34.825  31.681  28.923  1.00  0.00    -0.237 OA
ATOM     82  O   UNL A   1      34.322  32.659  31.115  1.00  0.00    -0.744 OA
ENDBRANCH  76  79
ENDBRANCH  48  72
BRANCH  60  83
ATOM     83  C   UNL A   1      44.716  33.294  29.282  1.00  0.00     0.023 A 
ATOM     84  C   UNL A   1      45.398  33.572  30.482  1.00  0.00     0.012 A 
ATOM     85  C   UNL A   1      44.623  34.289  28.288  1.00  0.00     0.148 A 
ATOM     86  C   UNL A   1      45.965  34.827  30.696  1.00  0.00     0.002 A 
ATOM     87  C   UNL A   1      45.229  35.523  28.492  1.00  0.00     0.091 A 
ATOM     88  F   UNL A   1      43.950  34.008  27.163  1.00  0.00    -0.205 F 
ATOM     89  C   UNL A   1      45.892  35.796  29.699  1.00  0.00     0.022 A 
BRANCH  87  90
ATOM     90  S   UNL A   1      45.268  36.793  27.222  1.00  0.00     0.127 S 
ATOM     91  O   UNL A   1      46.003  36.121  26.152  1.00  0.00    -0.237 OA
ATOM     92  O   UNL A   1      43.847  37.004  26.948  1.00  0.00    -0.237 OA
ATOM     93  O   UNL A   1      45.942  37.937  27.822  1.00  0.00    -0.744 OA
ENDBRANCH  87  90
ENDBRANCH  60  83
ENDBRANCH  34  35
ENDBRANCH  26  29
ENDBRANCH   1  25
TORSDOF 14
ENDMDL
