MODEL 1
REMARK VINA RESULT:     -11.1      0.000      0.000
REMARK SMILES COc1ccc(CSc2ncccc2C(=O)NCCCNC(=O)c2ccc(-c3c4nc(c(-c5cccc(S(=O)(=O)[O-])c5F)c5ccc([nH]5)c(-c5cccc(S(=O)(=O)[O-])c5F)c5nc(c(-c6cccc(S(=O)(=O)[O-])c6F)c6ccc3[nH]6)C=C5)C=C4)cc2)cc1
REMARK SMILES IDX 18 1 17 2 15 3 16 4 14 6 9 7 10 8 11 9 13 10 12 11 8 12 7 13
REMARK SMILES IDX 6 14 3 15 4 16 88 17 5 18 87 19 2 20 1 21 19 22 20 23 21 24
REMARK SMILES IDX 22 25 23 27 24 28 25 29 86 30 26 31 85 32 27 33 28 34 29 35
REMARK SMILES IDX 79 36 30 37 84 38 78 39 80 40 31 41 83 42 77 43 76 44 32 46
REMARK SMILES IDX 64 47 44 48 63 49 45 50 48 51 62 52 81 53 46 54 47 55 61 57
REMARK SMILES IDX 82 58 49 59 33 60 34 61 42 62 35 63 37 64 43 65 36 66 38 67
REMARK SMILES IDX 39 68 40 69 41 70 65 71 66 72 74 73 67 74 69 75 75 76 68 77
REMARK SMILES IDX 70 78 71 79 72 80 73 81 50 82 51 83 59 84 52 85 54 86 60 87
REMARK SMILES IDX 53 88 55 89 56 90 57 91 58 92
REMARK H PARENT 17 5 21 26 80 45 48 56
REMARK Flexibility Score: inf
ROOT
ATOM      1  C   UNL A   1      34.981  21.996  26.113  1.00  0.00     0.118 C 
ENDROOT
BRANCH   1   2
ATOM      2  N   UNL A   1      34.277  21.544  24.924  1.00  0.00    -0.352 N 
ATOM      3  C   UNL A   1      32.991  21.670  24.455  1.00  0.00     0.254 C 
ATOM      4  O   UNL A   1      32.721  20.968  23.482  1.00  0.00    -0.269 OA
ATOM      5  H   UNL A   1      34.853  21.029  24.315  1.00  0.00     0.163 HD
BRANCH   3   6
ATOM      6  C   UNL A   1      31.989  22.614  25.037  1.00  0.00     0.072 A 
ATOM      7  C   UNL A   1      31.738  23.882  24.476  1.00  0.00     0.109 A 
ATOM      8  N   UNL A   1      30.949  24.801  25.097  1.00  0.00    -0.249 NA
ATOM      9  C   UNL A   1      30.285  24.436  26.210  1.00  0.00     0.112 A 
ATOM     10  C   UNL A   1      31.237  22.264  26.167  1.00  0.00     0.018 A 
ATOM     11  C   UNL A   1      30.380  23.181  26.767  1.00  0.00     0.021 A 
BRANCH   7  12
ATOM     12  S   UNL A   1      32.382  24.416  22.889  1.00  0.00    -0.101 SA
BRANCH  12  13
ATOM     13  C   UNL A   1      33.901  25.311  23.319  1.00  0.00     0.112 C 
BRANCH  13  14
ATOM     14  C   UNL A   1      33.769  26.619  24.067  1.00  0.00    -0.037 A 
ATOM     15  C   UNL A   1      33.369  29.080  25.384  1.00  0.00     0.118 A 
ATOM     16  C   UNL A   1      33.775  27.953  26.100  1.00  0.00     0.047 A 
ATOM     17  C   UNL A   1      33.194  28.992  24.006  1.00  0.00     0.047 A 
ATOM     18  C   UNL A   1      33.960  26.725  25.450  1.00  0.00     0.008 A 
ATOM     19  C   UNL A   1      33.384  27.769  23.357  1.00  0.00     0.008 A 
BRANCH  15  20
ATOM     20  O   UNL A   1      33.212  30.232  26.105  1.00  0.00    -0.497 OA
ATOM     21  C   UNL A   1      32.092  30.225  26.986  1.00  0.00     0.278 C 
ENDBRANCH  15  20
ENDBRANCH  13  14
ENDBRANCH  12  13
ENDBRANCH   7  12
ENDBRANCH   3   6
ENDBRANCH   1   2
BRANCH   1  22
ATOM     22  C   UNL A   1      35.489  23.428  25.920  1.00  0.00     0.042 C 
BRANCH  22  23
ATOM     23  C   UNL A   1      36.870  23.506  25.267  1.00  0.00     0.118 C 
BRANCH  23  24
ATOM     24  N   UNL A   1      37.785  22.510  25.807  1.00  0.00    -0.352 N 
ATOM     25  C   UNL A   1      39.000  22.671  26.426  1.00  0.00     0.251 C 
ATOM     26  H   UNL A   1      37.486  21.577  25.715  1.00  0.00     0.163 HD
ATOM     27  O   UNL A   1      39.724  21.693  26.588  1.00  0.00    -0.269 OA
BRANCH  25  28
ATOM     28  C   UNL A   1      39.440  24.004  26.896  1.00  0.00     0.039 A 
ATOM     29  C   UNL A   1      39.236  24.347  28.236  1.00  0.00     0.014 A 
ATOM     30  C   UNL A   1      39.992  24.938  26.015  1.00  0.00     0.014 A 
ATOM     31  C   UNL A   1      39.619  25.608  28.700  1.00  0.00     0.010 A 
ATOM     32  C   UNL A   1      40.435  26.170  26.492  1.00  0.00     0.010 A 
ATOM     33  C   UNL A   1      40.240  26.525  27.836  1.00  0.00    -0.014 A 
BRANCH  33  34
ATOM     34  C   UNL A   1      40.689  27.857  28.319  1.00  0.00     0.031 A 
ATOM     35  C   UNL A   1      42.158  28.167  28.435  1.00  0.00     0.074 A 
ATOM     36  C   UNL A   1      39.775  28.756  28.733  1.00  0.00     0.049 A 
ATOM     37  N   UNL A   1      42.739  29.248  28.889  1.00  0.00    -0.248 NA
ATOM     38  C   UNL A   1      43.101  27.118  28.010  1.00  0.00     0.031 C 
ATOM     39  C   UNL A   1      38.326  28.543  28.749  1.00  0.00     0.029 A 
ATOM     40  N   UNL A   1      39.928  30.019  29.251  1.00  0.00    -0.354 N 
ATOM     41  C   UNL A   1      44.105  28.995  28.847  1.00  0.00     0.074 A 
ATOM     42  C   UNL A   1      44.269  27.649  28.345  1.00  0.00     0.031 C 
ATOM     43  C   UNL A   1      37.725  29.633  29.253  1.00  0.00     0.029 A 
ATOM     44  C   UNL A   1      38.743  30.612  29.620  1.00  0.00     0.049 A 
ATOM     45  H   UNL A   1      40.804  30.458  29.348  1.00  0.00     0.167 HD
ATOM     46  C   UNL A   1      45.132  29.817  29.171  1.00  0.00     0.034 A 
ATOM     47  C   UNL A   1      38.503  31.806  30.197  1.00  0.00     0.034 A 
ATOM     48  C   UNL A   1      44.966  31.174  29.616  1.00  0.00     0.049 A 
ATOM     49  C   UNL A   1      39.661  32.725  30.480  1.00  0.00     0.074 A 
ATOM     50  C   UNL A   1      45.944  32.120  29.874  1.00  0.00     0.029 A 
ATOM     51  N   UNL A   1      43.746  31.780  29.869  1.00  0.00    -0.354 N 
ATOM     52  N   UNL A   1      40.941  32.527  30.272  1.00  0.00    -0.248 NA
ATOM     53  C   UNL A   1      39.342  34.048  31.035  1.00  0.00     0.031 C 
ATOM     54  C   UNL A   1      45.313  33.294  30.300  1.00  0.00     0.029 A 
ATOM     55  C   UNL A   1      43.944  33.086  30.284  1.00  0.00     0.049 A 
ATOM     56  H   UNL A   1      42.869  31.347  29.769  1.00  0.00     0.167 HD
ATOM     57  C   UNL A   1      41.572  33.712  30.633  1.00  0.00     0.074 A 
ATOM     58  C   UNL A   1      40.533  34.629  31.051  1.00  0.00     0.031 C 
ATOM     59  C   UNL A   1      42.895  34.008  30.635  1.00  0.00     0.034 A 
BRANCH  46  60
ATOM     60  C   UNL A   1      46.536  29.296  29.002  1.00  0.00     0.023 A 
ATOM     61  C   UNL A   1      47.248  28.840  30.129  1.00  0.00     0.012 A 
ATOM     62  C   UNL A   1      47.117  29.180  27.724  1.00  0.00     0.148 A 
ATOM     63  C   UNL A   1      48.528  28.303  29.993  1.00  0.00     0.002 A 
ATOM     64  C   UNL A   1      48.375  28.603  27.589  1.00  0.00     0.091 A 
ATOM     65  F   UNL A   1      46.431  29.634  26.665  1.00  0.00    -0.205 F 
ATOM     66  C   UNL A   1      49.086  28.174  28.723  1.00  0.00     0.022 A 
BRANCH  64  67
ATOM     67  S   UNL A   1      49.149  28.315  25.994  1.00  0.00     0.127 S 
ATOM     68  O   UNL A   1      50.075  29.443  25.907  1.00  0.00    -0.237 OA
ATOM     69  O   UNL A   1      49.789  27.015  26.193  1.00  0.00    -0.237 OA
ATOM     70  O   UNL A   1      48.070  28.318  25.016  1.00  0.00    -0.744 OA
ENDBRANCH  64  67
ENDBRANCH  46  60
BRANCH  47  71
ATOM     71  C   UNL A   1      37.103  32.232  30.480  1.00  0.00     0.023 A 
ATOM     72  C   UNL A   1      36.566  32.033  31.767  1.00  0.00     0.012 A 
ATOM     73  C   UNL A   1      36.308  32.847  29.493  1.00  0.00     0.148 A 
ATOM     74  C   UNL A   1      35.252  32.402  32.055  1.00  0.00     0.002 A 
ATOM     75  C   UNL A   1      35.020  33.265  29.804  1.00  0.00     0.091 A 
ATOM     76  F   UNL A   1      36.832  33.018  28.271  1.00  0.00    -0.205 F 
ATOM     77  C   UNL A   1      34.482  33.027  31.077  1.00  0.00     0.022 A 
BRANCH  75  78
ATOM     78  S   UNL A   1      34.012  34.199  28.646  1.00  0.00     0.127 S 
ATOM     79  O   UNL A   1      34.913  35.283  28.270  1.00  0.00    -0.237 OA
ATOM     80  O   UNL A   1      33.759  33.212  27.595  1.00  0.00    -0.237 OA
ATOM     81  O   UNL A   1      32.822  34.587  29.395  1.00  0.00    -0.744 OA
ENDBRANCH  75  78
ENDBRANCH  47  71
BRANCH  59  82
ATOM     82  C   UNL A   1      43.301  35.396  31.055  1.00  0.00     0.023 A 
ATOM     83  C   UNL A   1      43.623  35.656  32.402  1.00  0.00     0.012 A 
ATOM     84  C   UNL A   1      43.435  36.424  30.101  1.00  0.00     0.148 A 
ATOM     85  C   UNL A   1      44.038  36.927  32.798  1.00  0.00     0.002 A 
ATOM     86  C   UNL A   1      43.897  37.674  30.494  1.00  0.00     0.091 A 
ATOM     87  F   UNL A   1      43.104  36.164  28.827  1.00  0.00    -0.205 F 
ATOM     88  C   UNL A   1      44.187  37.931  31.845  1.00  0.00     0.022 A 
BRANCH  86  89
ATOM     89  S   UNL A   1      44.210  38.995  29.318  1.00  0.00     0.127 S 
ATOM     90  O   UNL A   1      42.865  39.269  28.813  1.00  0.00    -0.237 OA
ATOM     91  O   UNL A   1      44.768  40.046  30.169  1.00  0.00    -0.237 OA
ATOM     92  O   UNL A   1      45.147  38.448  28.345  1.00  0.00    -0.744 OA
ENDBRANCH  86  89
ENDBRANCH  59  82
ENDBRANCH  33  34
ENDBRANCH  25  28
ENDBRANCH  23  24
ENDBRANCH  22  23
ENDBRANCH   1  22
TORSDOF 17
ENDMDL
MODEL 2
REMARK VINA RESULT:     -11.0      5.276     11.384
REMARK SMILES COc1ccc(CSc2ncccc2C(=O)NCCCNC(=O)c2ccc(-c3c4nc(c(-c5cccc(S(=O)(=O)[O-])c5F)c5ccc([nH]5)c(-c5cccc(S(=O)(=O)[O-])c5F)c5nc(c(-c6cccc(S(=O)(=O)[O-])c6F)c6ccc3[nH]6)C=C5)C=C4)cc2)cc1
REMARK SMILES IDX 18 1 17 2 15 3 16 4 14 6 9 7 10 8 11 9 13 10 12 11 8 12 7 13
REMARK SMILES IDX 6 14 3 15 4 16 88 17 5 18 87 19 2 20 1 21 19 22 20 23 21 24
REMARK SMILES IDX 22 25 23 27 24 28 25 29 86 30 26 31 85 32 27 33 28 34 29 35
REMARK SMILES IDX 79 36 30 37 84 38 78 39 80 40 31 41 83 42 77 43 76 44 32 46
REMARK SMILES IDX 64 47 44 48 63 49 45 50 48 51 62 52 81 53 46 54 47 55 61 57
REMARK SMILES IDX 82 58 49 59 33 60 34 61 42 62 35 63 37 64 43 65 36 66 38 67
REMARK SMILES IDX 39 68 40 69 41 70 65 71 66 72 74 73 67 74 69 75 75 76 68 77
REMARK SMILES IDX 70 78 71 79 72 80 73 81 50 82 51 83 59 84 52 85 54 86 60 87
REMARK SMILES IDX 53 88 55 89 56 90 57 91 58 92
REMARK H PARENT 17 5 21 26 80 45 48 56
REMARK Flexibility Score: inf
ROOT
ATOM      1  C   UNL A   1      34.136  34.772  30.018  1.00  0.00     0.118 C 
ENDROOT
BRANCH   1   2
ATOM      2  N   UNL A   1      34.401  33.621  30.865  1.00  0.00    -0.352 N 
ATOM      3  C   UNL A   1      35.523  32.892  31.183  1.00  0.00     0.254 C 
ATOM      4  O   UNL A   1      35.308  31.847  31.793  1.00  0.00    -0.269 OA
ATOM      5  H   UNL A   1      33.592  33.285  31.313  1.00  0.00     0.163 HD
BRANCH   3   6
ATOM      6  C   UNL A   1      36.914  33.336  30.862  1.00  0.00     0.072 A 
ATOM      7  C   UNL A   1      37.686  34.095  31.764  1.00  0.00     0.109 A 
ATOM      8  N   UNL A   1      38.884  34.635  31.409  1.00  0.00    -0.249 NA
ATOM      9  C   UNL A   1      39.404  34.321  30.207  1.00  0.00     0.112 A 
ATOM     10  C   UNL A   1      37.518  32.996  29.644  1.00  0.00     0.018 A 
ATOM     11  C   UNL A   1      38.773  33.495  29.306  1.00  0.00     0.021 A 
BRANCH   7  12
ATOM     12  S   UNL A   1      37.215  34.403  33.468  1.00  0.00    -0.101 SA
BRANCH  12  13
ATOM     13  C   UNL A   1      38.604  33.736  34.426  1.00  0.00     0.112 C 
BRANCH  13  14
ATOM     14  C   UNL A   1      38.293  32.955  35.683  1.00  0.00    -0.037 A 
ATOM     15  C   UNL A   1      37.583  31.613  38.059  1.00  0.00     0.118 A 
ATOM     16  C   UNL A   1      37.779  30.899  36.876  1.00  0.00     0.047 A 
ATOM     17  C   UNL A   1      37.774  32.991  38.070  1.00  0.00     0.047 A 
ATOM     18  C   UNL A   1      38.117  31.565  35.690  1.00  0.00     0.008 A 
ATOM     19  C   UNL A   1      38.117  33.655  36.889  1.00  0.00     0.008 A 
BRANCH  15  20
ATOM     20  O   UNL A   1      37.254  30.875  39.164  1.00  0.00    -0.497 OA
ATOM     21  C   UNL A   1      36.260  31.472  39.993  1.00  0.00     0.278 C 
ENDBRANCH  15  20
ENDBRANCH  13  14
ENDBRANCH  12  13
ENDBRANCH   7  12
ENDBRANCH   3   6
ENDBRANCH   1   2
BRANCH   1  22
ATOM     22  C   UNL A   1      33.814  34.322  28.590  1.00  0.00     0.042 C 
BRANCH  22  23
ATOM     23  C   UNL A   1      34.683  33.159  28.104  1.00  0.00     0.118 C 
BRANCH  23  24
ATOM     24  N   UNL A   1      33.879  32.032  27.652  1.00  0.00    -0.352 N 
ATOM     25  C   UNL A   1      34.223  30.713  27.488  1.00  0.00     0.251 C 
ATOM     26  H   UNL A   1      32.945  32.249  27.429  1.00  0.00     0.163 HD
ATOM     27  O   UNL A   1      33.469  29.971  26.865  1.00  0.00    -0.269 OA
BRANCH  25  28
ATOM     28  C   UNL A   1      35.485  30.183  28.051  1.00  0.00     0.039 A 
ATOM     29  C   UNL A   1      36.633  30.187  27.253  1.00  0.00     0.014 A 
ATOM     30  C   UNL A   1      35.529  29.624  29.332  1.00  0.00     0.014 A 
ATOM     31  C   UNL A   1      37.831  29.669  27.752  1.00  0.00     0.010 A 
ATOM     32  C   UNL A   1      36.739  29.168  29.852  1.00  0.00     0.010 A 
ATOM     33  C   UNL A   1      37.900  29.171  29.063  1.00  0.00    -0.014 A 
BRANCH  33  34
ATOM     34  C   UNL A   1      39.173  28.650  29.624  1.00  0.00     0.031 A 
ATOM     35  C   UNL A   1      39.806  29.316  30.818  1.00  0.00     0.074 A 
ATOM     36  C   UNL A   1      39.803  27.631  29.007  1.00  0.00     0.049 A 
ATOM     37  N   UNL A   1      40.940  29.041  31.410  1.00  0.00    -0.248 NA
ATOM     38  C   UNL A   1      39.085  30.455  31.411  1.00  0.00     0.031 C 
ATOM     39  C   UNL A   1      39.334  26.958  27.794  1.00  0.00     0.029 A 
ATOM     40  N   UNL A   1      40.990  27.003  29.296  1.00  0.00    -0.354 N 
ATOM     41  C   UNL A   1      41.090  29.995  32.410  1.00  0.00     0.074 A 
ATOM     42  C   UNL A   1      39.943  30.871  32.333  1.00  0.00     0.031 C 
ATOM     43  C   UNL A   1      40.224  26.015  27.441  1.00  0.00     0.029 A 
ATOM     44  C   UNL A   1      41.337  26.032  28.384  1.00  0.00     0.049 A 
ATOM     45  H   UNL A   1      41.540  27.227  30.081  1.00  0.00     0.167 HD
ATOM     46  C   UNL A   1      42.079  30.114  33.328  1.00  0.00     0.034 A 
ATOM     47  C   UNL A   1      42.432  25.251  28.311  1.00  0.00     0.034 A 
ATOM     48  C   UNL A   1      43.189  29.206  33.438  1.00  0.00     0.049 A 
ATOM     49  C   UNL A   1      43.479  25.360  29.387  1.00  0.00     0.074 A 
ATOM     50  C   UNL A   1      44.189  29.183  34.395  1.00  0.00     0.029 A 
ATOM     51  N   UNL A   1      43.446  28.162  32.565  1.00  0.00    -0.354 N 
ATOM     52  N   UNL A   1      43.515  26.161  30.425  1.00  0.00    -0.248 NA
ATOM     53  C   UNL A   1      44.615  24.430  29.308  1.00  0.00     0.031 C 
ATOM     54  C   UNL A   1      45.062  28.133  34.089  1.00  0.00     0.029 A 
ATOM     55  C   UNL A   1      44.591  27.489  32.956  1.00  0.00     0.049 A 
ATOM     56  H   UNL A   1      42.897  27.933  31.782  1.00  0.00     0.167 HD
ATOM     57  C   UNL A   1      44.653  25.804  31.141  1.00  0.00     0.074 A 
ATOM     58  C   UNL A   1      45.265  24.702  30.431  1.00  0.00     0.031 C 
ATOM     59  C   UNL A   1      45.153  26.352  32.276  1.00  0.00     0.034 A 
BRANCH  46  60
ATOM     60  C   UNL A   1      41.982  31.235  34.332  1.00  0.00     0.023 A 
ATOM     61  C   UNL A   1      41.604  30.947  35.658  1.00  0.00     0.012 A 
ATOM     62  C   UNL A   1      42.343  32.552  33.986  1.00  0.00     0.148 A 
ATOM     63  C   UNL A   1      41.558  31.956  36.620  1.00  0.00     0.002 A 
ATOM     64  C   UNL A   1      42.339  33.545  34.960  1.00  0.00     0.091 A 
ATOM     65  F   UNL A   1      42.685  32.809  32.715  1.00  0.00    -0.205 F 
ATOM     66  C   UNL A   1      41.937  33.251  36.273  1.00  0.00     0.022 A 
BRANCH  64  67
ATOM     67  S   UNL A   1      42.886  35.225  34.639  1.00  0.00     0.127 S 
ATOM     68  O   UNL A   1      41.851  35.704  33.725  1.00  0.00    -0.237 OA
ATOM     69  O   UNL A   1      42.844  35.822  35.974  1.00  0.00    -0.237 OA
ATOM     70  O   UNL A   1      44.220  35.112  34.065  1.00  0.00    -0.744 OA
ENDBRANCH  64  67
ENDBRANCH  46  60
BRANCH  47  71
ATOM     71  C   UNL A   1      42.561  24.244  27.219  1.00  0.00     0.023 A 
ATOM     72  C   UNL A   1      43.281  24.575  26.055  1.00  0.00     0.012 A 
ATOM     73  C   UNL A   1      41.993  22.960  27.332  1.00  0.00     0.148 A 
ATOM     74  C   UNL A   1      43.400  23.662  25.007  1.00  0.00     0.002 A 
ATOM     75  C   UNL A   1      42.165  22.035  26.309  1.00  0.00     0.091 A 
ATOM     76  F   UNL A   1      41.300  22.667  28.442  1.00  0.00    -0.205 F 
ATOM     77  C   UNL A   1      42.851  22.389  25.138  1.00  0.00     0.022 A 
BRANCH  75  78
ATOM     78  S   UNL A   1      41.609  20.333  26.456  1.00  0.00     0.127 S 
ATOM     79  O   UNL A   1      42.129  19.740  25.229  1.00  0.00    -0.237 OA
ATOM     80  O   UNL A   1      42.277  19.898  27.683  1.00  0.00    -0.237 OA
ATOM     81  O   UNL A   1      40.157  20.408  26.565  1.00  0.00    -0.744 OA
ENDBRANCH  75  78
ENDBRANCH  47  71
BRANCH  59  82
ATOM     82  C   UNL A   1      46.402  25.741  32.855  1.00  0.00     0.023 A 
ATOM     83  C   UNL A   1      47.663  26.281  32.530  1.00  0.00     0.012 A 
ATOM     84  C   UNL A   1      46.319  24.681  33.779  1.00  0.00     0.148 A 
ATOM     85  C   UNL A   1      48.824  25.751  33.091  1.00  0.00     0.002 A 
ATOM     86  C   UNL A   1      47.477  24.191  34.371  1.00  0.00     0.091 A 
ATOM     87  F   UNL A   1      45.113  24.168  34.060  1.00  0.00    -0.205 F 
ATOM     88  C   UNL A   1      48.731  24.716  34.018  1.00  0.00     0.022 A 
BRANCH  86  89
ATOM     89  S   UNL A   1      47.440  22.927  35.647  1.00  0.00     0.127 S 
ATOM     90  O   UNL A   1      48.848  22.539  35.723  1.00  0.00    -0.237 OA
ATOM     91  O   UNL A   1      46.950  23.671  36.808  1.00  0.00    -0.237 OA
ATOM     92  O   UNL A   1      46.529  21.898  35.163  1.00  0.00    -0.744 OA
ENDBRANCH  86  89
ENDBRANCH  59  82
ENDBRANCH  33  34
ENDBRANCH  25  28
ENDBRANCH  23  24
ENDBRANCH  22  23
ENDBRANCH   1  22
TORSDOF 17
ENDMDL
MODEL 3
REMARK VINA RESULT:     -10.5      4.805     10.277
REMARK SMILES COc1ccc(CSc2ncccc2C(=O)NCCCNC(=O)c2ccc(-c3c4nc(c(-c5cccc(S(=O)(=O)[O-])c5F)c5ccc([nH]5)c(-c5cccc(S(=O)(=O)[O-])c5F)c5nc(c(-c6cccc(S(=O)(=O)[O-])c6F)c6ccc3[nH]6)C=C5)C=C4)cc2)cc1
REMARK SMILES IDX 18 1 17 2 15 3 16 4 14 6 9 7 10 8 11 9 13 10 12 11 8 12 7 13
REMARK SMILES IDX 6 14 3 15 4 16 88 17 5 18 87 19 2 20 1 21 19 22 20 23 21 24
REMARK SMILES IDX 22 25 23 27 24 28 25 29 86 30 26 31 85 32 27 33 28 34 29 35
REMARK SMILES IDX 79 36 30 37 84 38 78 39 80 40 31 41 83 42 77 43 76 44 32 46
REMARK SMILES IDX 64 47 44 48 63 49 45 50 48 51 62 52 81 53 46 54 47 55 61 57
REMARK SMILES IDX 82 58 49 59 33 60 34 61 42 62 35 63 37 64 43 65 36 66 38 67
REMARK SMILES IDX 39 68 40 69 41 70 65 71 66 72 74 73 67 74 69 75 75 76 68 77
REMARK SMILES IDX 70 78 71 79 72 80 73 81 50 82 51 83 59 84 52 85 54 86 60 87
REMARK SMILES IDX 53 88 55 89 56 90 57 91 58 92
REMARK H PARENT 17 5 21 26 80 45 48 56
REMARK Flexibility Score: inf
ROOT
ATOM      1  C   UNL A   1      34.028  34.633  29.731  1.00  0.00     0.118 C 
ENDROOT
BRANCH   1   2
ATOM      2  N   UNL A   1      34.266  33.515  30.630  1.00  0.00    -0.352 N 
ATOM      3  C   UNL A   1      35.386  32.859  31.081  1.00  0.00     0.254 C 
ATOM      4  O   UNL A   1      35.166  31.815  31.693  1.00  0.00    -0.269 OA
ATOM      5  H   UNL A   1      33.434  33.143  31.000  1.00  0.00     0.163 HD
BRANCH   3   6
ATOM      6  C   UNL A   1      36.777  33.374  30.894  1.00  0.00     0.072 A 
ATOM      7  C   UNL A   1      37.432  34.139  31.880  1.00  0.00     0.109 A 
ATOM      8  N   UNL A   1      38.630  34.743  31.645  1.00  0.00    -0.249 NA
ATOM      9  C   UNL A   1      39.264  34.489  30.484  1.00  0.00     0.112 A 
ATOM     10  C   UNL A   1      37.499  33.098  29.725  1.00  0.00     0.018 A 
ATOM     11  C   UNL A   1      38.753  33.663  29.510  1.00  0.00     0.021 A 
BRANCH   7  12
ATOM     12  S   UNL A   1      36.802  34.374  33.543  1.00  0.00    -0.101 SA
BRANCH  12  13
ATOM     13  C   UNL A   1      37.934  33.398  34.573  1.00  0.00     0.112 C 
BRANCH  13  14
ATOM     14  C   UNL A   1      38.493  34.039  35.823  1.00  0.00    -0.037 A 
ATOM     15  C   UNL A   1      39.486  35.392  38.089  1.00  0.00     0.118 A 
ATOM     16  C   UNL A   1      38.676  34.265  38.237  1.00  0.00     0.047 A 
ATOM     17  C   UNL A   1      39.831  35.827  36.813  1.00  0.00     0.047 A 
ATOM     18  C   UNL A   1      38.168  33.600  37.113  1.00  0.00     0.008 A 
ATOM     19  C   UNL A   1      39.330  35.161  35.691  1.00  0.00     0.008 A 
BRANCH  15  20
ATOM     20  O   UNL A   1      39.931  35.974  39.245  1.00  0.00    -0.497 OA
ATOM     21  C   UNL A   1      41.321  36.291  39.244  1.00  0.00     0.278 C 
ENDBRANCH  15  20
ENDBRANCH  13  14
ENDBRANCH  12  13
ENDBRANCH   7  12
ENDBRANCH   3   6
ENDBRANCH   1   2
BRANCH   1  22
ATOM     22  C   UNL A   1      33.770  34.127  28.309  1.00  0.00     0.042 C 
BRANCH  22  23
ATOM     23  C   UNL A   1      34.685  32.973  27.892  1.00  0.00     0.118 C 
BRANCH  23  24
ATOM     24  N   UNL A   1      33.934  31.755  27.619  1.00  0.00    -0.352 N 
ATOM     25  C   UNL A   1      34.362  30.453  27.546  1.00  0.00     0.251 C 
ATOM     26  H   UNL A   1      32.971  31.886  27.462  1.00  0.00     0.163 HD
ATOM     27  O   UNL A   1      33.618  29.604  27.064  1.00  0.00    -0.269 OA
BRANCH  25  28
ATOM     28  C   UNL A   1      35.703  30.067  28.041  1.00  0.00     0.039 A 
ATOM     29  C   UNL A   1      35.824  29.574  29.344  1.00  0.00     0.014 A 
ATOM     30  C   UNL A   1      36.845  30.246  27.255  1.00  0.00     0.014 A 
ATOM     31  C   UNL A   1      37.081  29.226  29.844  1.00  0.00     0.010 A 
ATOM     32  C   UNL A   1      38.089  29.836  27.731  1.00  0.00     0.010 A 
ATOM     33  C   UNL A   1      38.224  29.336  29.036  1.00  0.00    -0.014 A 
BRANCH  33  34
ATOM     34  C   UNL A   1      39.564  28.936  29.537  1.00  0.00     0.031 A 
ATOM     35  C   UNL A   1      40.307  27.794  28.892  1.00  0.00     0.074 A 
ATOM     36  C   UNL A   1      40.076  29.544  30.625  1.00  0.00     0.049 A 
ATOM     37  N   UNL A   1      41.455  27.265  29.227  1.00  0.00    -0.248 NA
ATOM     38  C   UNL A   1      39.664  27.143  27.738  1.00  0.00     0.031 C 
ATOM     39  C   UNL A   1      39.417  30.607  31.387  1.00  0.00     0.029 A 
ATOM     40  N   UNL A   1      41.255  29.337  31.298  1.00  0.00    -0.354 N 
ATOM     41  C   UNL A   1      41.652  26.197  28.358  1.00  0.00     0.074 A 
ATOM     42  C   UNL A   1      40.493  26.137  27.495  1.00  0.00     0.031 C 
ATOM     43  C   UNL A   1      40.197  30.954  32.424  1.00  0.00     0.029 A 
ATOM     44  C   UNL A   1      41.398  30.125  32.417  1.00  0.00     0.049 A 
ATOM     45  H   UNL A   1      41.933  28.685  31.008  1.00  0.00     0.167 HD
ATOM     46  C   UNL A   1      42.712  25.359  28.268  1.00  0.00     0.034 A 
ATOM     47  C   UNL A   1      42.381  30.170  33.337  1.00  0.00     0.034 A 
ATOM     48  C   UNL A   1      43.888  25.458  29.090  1.00  0.00     0.049 A 
ATOM     49  C   UNL A   1      43.579  29.274  33.169  1.00  0.00     0.074 A 
ATOM     50  C   UNL A   1      45.057  24.721  29.012  1.00  0.00     0.029 A 
ATOM     51  N   UNL A   1      44.045  26.348  30.141  1.00  0.00    -0.354 N 
ATOM     52  N   UNL A   1      43.819  28.385  32.236  1.00  0.00    -0.248 NA
ATOM     53  C   UNL A   1      44.661  29.417  34.154  1.00  0.00     0.031 C 
ATOM     54  C   UNL A   1      45.916  25.155  30.028  1.00  0.00     0.029 A 
ATOM     55  C   UNL A   1      45.290  26.177  30.723  1.00  0.00     0.049 A 
ATOM     56  H   UNL A   1      43.372  27.003  30.432  1.00  0.00     0.167 HD
ATOM     57  C   UNL A   1      45.093  27.893  32.498  1.00  0.00     0.074 A 
ATOM     58  C   UNL A   1      45.582  28.599  33.664  1.00  0.00     0.031 C 
ATOM     59  C   UNL A   1      45.788  26.932  31.842  1.00  0.00     0.034 A 
BRANCH  46  60
ATOM     60  C   UNL A   1      42.684  24.293  27.203  1.00  0.00     0.023 A 
ATOM     61  C   UNL A   1      43.349  24.514  25.981  1.00  0.00     0.012 A 
ATOM     62  C   UNL A   1      42.074  23.046  27.442  1.00  0.00     0.148 A 
ATOM     63  C   UNL A   1      43.384  23.524  25.000  1.00  0.00     0.002 A 
ATOM     64  C   UNL A   1      42.151  22.046  26.479  1.00  0.00     0.091 A 
ATOM     65  F   UNL A   1      41.432  22.859  28.605  1.00  0.00    -0.205 F 
ATOM     66  C   UNL A   1      42.795  22.287  25.254  1.00  0.00     0.022 A 
BRANCH  64  67
ATOM     67  S   UNL A   1      41.499  20.392  26.737  1.00  0.00     0.127 S 
ATOM     68  O   UNL A   1      40.091  20.669  27.012  1.00  0.00    -0.237 OA
ATOM     69  O   UNL A   1      41.754  19.756  25.444  1.00  0.00    -0.237 OA
ATOM     70  O   UNL A   1      42.252  19.831  27.849  1.00  0.00    -0.744 OA
ENDBRANCH  64  67
ENDBRANCH  46  60
BRANCH  47  71
ATOM     71  C   UNL A   1      42.309  31.147  34.462  1.00  0.00     0.023 A 
ATOM     72  C   UNL A   1      41.671  30.775  35.661  1.00  0.00     0.012 A 
ATOM     73  C   UNL A   1      42.881  32.429  34.358  1.00  0.00     0.148 A 
ATOM     74  C   UNL A   1      41.569  31.674  36.722  1.00  0.00     0.002 A 
ATOM     75  C   UNL A   1      42.827  33.300  35.440  1.00  0.00     0.091 A 
ATOM     76  F   UNL A   1      43.473  32.771  33.205  1.00  0.00    -0.205 F 
ATOM     77  C   UNL A   1      42.155  32.933  36.616  1.00  0.00     0.022 A 
BRANCH  75  78
ATOM     78  S   UNL A   1      43.673  34.885  35.436  1.00  0.00     0.127 S 
ATOM     79  O   UNL A   1      43.355  35.398  36.764  1.00  0.00    -0.237 OA
ATOM     80  O   UNL A   1      45.069  34.485  35.246  1.00  0.00    -0.237 OA
ATOM     81  O   UNL A   1      43.108  35.622  34.312  1.00  0.00    -0.744 OA
ENDBRANCH  75  78
ENDBRANCH  47  71
BRANCH  59  82
ATOM     82  C   UNL A   1      47.175  26.614  32.335  1.00  0.00     0.023 A 
ATOM     83  C   UNL A   1      47.362  25.612  33.309  1.00  0.00     0.012 A 
ATOM     84  C   UNL A   1      48.299  27.255  31.777  1.00  0.00     0.148 A 
ATOM     85  C   UNL A   1      48.644  25.279  33.745  1.00  0.00     0.002 A 
ATOM     86  C   UNL A   1      49.576  26.883  32.180  1.00  0.00     0.091 A 
ATOM     87  F   UNL A   1      48.101  28.219  30.866  1.00  0.00    -0.205 F 
ATOM     88  C   UNL A   1      49.750  25.905  33.173  1.00  0.00     0.022 A 
BRANCH  86  89
ATOM     89  S   UNL A   1      51.056  27.567  31.427  1.00  0.00     0.127 S 
ATOM     90  O   UNL A   1      50.805  27.330  30.006  1.00  0.00    -0.237 OA
ATOM     91  O   UNL A   1      50.992  28.972  31.832  1.00  0.00    -0.237 OA
ATOM     92  O   UNL A   1      52.173  26.827  31.999  1.00  0.00    -0.744 OA
ENDBRANCH  86  89
ENDBRANCH  59  82
ENDBRANCH  33  34
ENDBRANCH  25  28
ENDBRANCH  23  24
ENDBRANCH  22  23
ENDBRANCH   1  22
TORSDOF 17
ENDMDL
