MODEL 1
REMARK VINA RESULT:     -11.8      0.000      0.000
REMARK SMILES CC(=O)O[C@@H](C)c1nc2ccc(C(=O)NCCCNC(=O)c3ccc(-c4c5nc(c(-c6cccc(S(=O)(=O)[O-])c6F)c6ccc([nH]6)c(-c6cccc(S(=O)(=O)[O-])c6F)c6nc(c(-c7cccc(S(=O)(=O)[O-])c7F)c7ccc4[nH]7)C=C6)C=C5)cc3)cc2[nH]1
REMARK SMILES IDX 17 1 16 2 15 3 13 4 14 5 12 7 7 8 8 9 87 10 9 11 86 12 10 14
REMARK SMILES IDX 85 15 11 16 5 17 6 18 4 19 2 20 1 21 3 22 18 23 19 24 20 25
REMARK SMILES IDX 21 27 22 28 23 29 84 30 24 31 83 32 25 33 26 34 27 35 77 36
REMARK SMILES IDX 28 37 82 38 76 39 78 40 29 41 81 42 75 43 74 44 30 46 62 47
REMARK SMILES IDX 42 48 61 49 43 50 46 51 60 52 79 53 44 54 45 55 59 57 80 58
REMARK SMILES IDX 47 59 31 60 32 61 40 62 33 63 35 64 41 65 34 66 36 67 37 68
REMARK SMILES IDX 38 69 39 70 63 71 64 72 72 73 65 74 67 75 73 76 66 77 68 78
REMARK SMILES IDX 69 79 70 80 71 81 48 82 49 83 57 84 50 85 52 86 58 87 51 88
REMARK SMILES IDX 53 89 54 90 55 91 56 92
REMARK H PARENT 15 6 87 13 19 26 78 45 46 56
REMARK Flexibility Score: inf
ROOT
ATOM      1  C   UNL A   1      33.994  27.873  25.824  1.00  0.00     0.042 C 
ENDROOT
BRANCH   1   2
ATOM      2  C   UNL A   1      33.827  26.359  25.686  1.00  0.00     0.118 C 
BRANCH   2   3
ATOM      3  N   UNL A   1      33.997  25.927  24.312  1.00  0.00    -0.352 N 
ATOM      4  C   UNL A   1      33.196  26.034  23.204  1.00  0.00     0.251 C 
ATOM      5  O   UNL A   1      33.667  25.651  22.131  1.00  0.00    -0.269 OA
ATOM      6  H   UNL A   1      34.849  25.466  24.142  1.00  0.00     0.163 HD
BRANCH   4   7
ATOM      7  C   UNL A   1      31.823  26.622  23.218  1.00  0.00     0.042 A 
ATOM      8  C   UNL A   1      28.579  29.693  22.312  1.00  0.00     0.148 A 
ATOM      9  N   UNL A   1      28.187  28.633  22.994  1.00  0.00    -0.229 NA
ATOM     10  N   UNL A   1      29.912  29.592  21.990  1.00  0.00    -0.339 N 
ATOM     11  C   UNL A   1      29.299  27.853  23.148  1.00  0.00     0.089 A 
ATOM     12  C   UNL A   1      30.401  28.437  22.541  1.00  0.00     0.066 A 
ATOM     13  H   UNL A   1      30.427  30.239  21.455  1.00  0.00     0.168 HD
ATOM     14  C   UNL A   1      29.440  26.619  23.784  1.00  0.00     0.031 A 
ATOM     15  C   UNL A   1      31.673  27.859  22.556  1.00  0.00     0.042 A 
ATOM     16  C   UNL A   1      30.702  26.005  23.788  1.00  0.00     0.016 A 
BRANCH   8  17
ATOM     17  C   UNL A   1      27.725  30.850  21.882  1.00  0.00     0.239 C 
ATOM     18  C   UNL A   1      28.201  31.535  20.607  1.00  0.00     0.062 C 
BRANCH  17  19
ATOM     19  O   UNL A   1      27.556  31.742  23.005  1.00  0.00    -0.455 OA
BRANCH  19  20
ATOM     20  C   UNL A   1      28.509  32.683  23.246  1.00  0.00     0.303 C 
ATOM     21  C   UNL A   1      29.524  32.135  24.204  1.00  0.00     0.139 C 
ATOM     22  O   UNL A   1      28.536  33.821  22.801  1.00  0.00    -0.253 OA
ENDBRANCH  19  20
ENDBRANCH  17  19
ENDBRANCH   8  17
ENDBRANCH   4   7
ENDBRANCH   2   3
ENDBRANCH   1   2
BRANCH   1  23
ATOM     23  C   UNL A   1      33.467  28.428  27.144  1.00  0.00     0.118 C 
BRANCH  23  24
ATOM     24  N   UNL A   1      33.539  29.882  27.185  1.00  0.00    -0.352 N 
ATOM     25  C   UNL A   1      34.479  30.706  27.747  1.00  0.00     0.251 C 
ATOM     26  H   UNL A   1      32.795  30.346  26.738  1.00  0.00     0.163 HD
ATOM     27  O   UNL A   1      34.218  31.900  27.879  1.00  0.00    -0.269 OA
BRANCH  25  28
ATOM     28  C   UNL A   1      35.792  30.186  28.187  1.00  0.00     0.039 A 
ATOM     29  C   UNL A   1      35.903  29.649  29.474  1.00  0.00     0.014 A 
ATOM     30  C   UNL A   1      36.927  30.288  27.378  1.00  0.00     0.014 A 
ATOM     31  C   UNL A   1      37.141  29.193  29.937  1.00  0.00     0.010 A 
ATOM     32  C   UNL A   1      38.144  29.765  27.811  1.00  0.00     0.010 A 
ATOM     33  C   UNL A   1      38.269  29.234  29.103  1.00  0.00    -0.014 A 
BRANCH  33  34
ATOM     34  C   UNL A   1      39.589  28.741  29.573  1.00  0.00     0.031 A 
ATOM     35  C   UNL A   1      40.319  29.459  30.679  1.00  0.00     0.074 A 
ATOM     36  C   UNL A   1      40.164  27.691  28.956  1.00  0.00     0.049 A 
ATOM     37  N   UNL A   1      41.492  29.202  31.195  1.00  0.00    -0.248 NA
ATOM     38  C   UNL A   1      39.655  30.637  31.262  1.00  0.00     0.031 C 
ATOM     39  C   UNL A   1      39.594  26.963  27.819  1.00  0.00     0.029 A 
ATOM     40  N   UNL A   1      41.365  27.067  29.180  1.00  0.00    -0.354 N 
ATOM     41  C   UNL A   1      41.726  30.204  32.131  1.00  0.00     0.074 A 
ATOM     42  C   UNL A   1      40.585  31.092  32.089  1.00  0.00     0.031 C 
ATOM     43  C   UNL A   1      40.442  25.991  27.450  1.00  0.00     0.029 A 
ATOM     44  C   UNL A   1      41.625  26.039  28.303  1.00  0.00     0.049 A 
ATOM     45  H   UNL A   1      41.983  27.330  29.900  1.00  0.00     0.167 HD
ATOM     46  C   UNL A   1      42.776  30.354  32.971  1.00  0.00     0.034 A 
ATOM     47  C   UNL A   1      42.696  25.228  28.199  1.00  0.00     0.034 A 
ATOM     48  C   UNL A   1      43.883  29.438  33.045  1.00  0.00     0.049 A 
ATOM     49  C   UNL A   1      43.820  25.376  29.187  1.00  0.00     0.074 A 
ATOM     50  C   UNL A   1      44.954  29.448  33.921  1.00  0.00     0.029 A 
ATOM     51  N   UNL A   1      44.062  28.347  32.208  1.00  0.00    -0.354 N 
ATOM     52  N   UNL A   1      43.946  26.234  30.171  1.00  0.00    -0.248 NA
ATOM     53  C   UNL A   1      44.930  24.418  29.080  1.00  0.00     0.031 C 
ATOM     54  C   UNL A   1      45.790  28.371  33.602  1.00  0.00     0.029 A 
ATOM     55  C   UNL A   1      45.226  27.677  32.544  1.00  0.00     0.049 A 
ATOM     56  H   UNL A   1      43.450  28.086  31.482  1.00  0.00     0.167 HD
ATOM     57  C   UNL A   1      45.128  25.896  30.823  1.00  0.00     0.074 A 
ATOM     58  C   UNL A   1      45.666  24.741  30.135  1.00  0.00     0.031 C 
ATOM     59  C   UNL A   1      45.720  26.496  31.885  1.00  0.00     0.034 A 
BRANCH  46  60
ATOM     60  C   UNL A   1      42.753  31.523  33.923  1.00  0.00     0.023 A 
ATOM     61  C   UNL A   1      43.265  32.769  33.506  1.00  0.00     0.012 A 
ATOM     62  C   UNL A   1      42.177  31.410  35.204  1.00  0.00     0.148 A 
ATOM     63  C   UNL A   1      43.242  33.871  34.359  1.00  0.00     0.002 A 
ATOM     64  C   UNL A   1      42.115  32.525  36.032  1.00  0.00     0.091 A 
ATOM     65  F   UNL A   1      41.712  30.214  35.594  1.00  0.00    -0.205 F 
ATOM     66  C   UNL A   1      42.659  33.752  35.617  1.00  0.00     0.022 A 
BRANCH  64  67
ATOM     67  S   UNL A   1      41.312  32.497  37.640  1.00  0.00     0.127 S 
ATOM     68  O   UNL A   1      41.353  33.910  38.015  1.00  0.00    -0.237 OA
ATOM     69  O   UNL A   1      39.980  31.992  37.310  1.00  0.00    -0.237 OA
ATOM     70  O   UNL A   1      42.109  31.606  38.471  1.00  0.00    -0.744 OA
ENDBRANCH  64  67
ENDBRANCH  46  60
BRANCH  47  71
ATOM     71  C   UNL A   1      42.714  24.152  27.168  1.00  0.00     0.023 A 
ATOM     72  C   UNL A   1      43.399  24.369  25.956  1.00  0.00     0.012 A 
ATOM     73  C   UNL A   1      42.091  22.910  27.392  1.00  0.00     0.148 A 
ATOM     74  C   UNL A   1      43.436  23.381  24.972  1.00  0.00     0.002 A 
ATOM     75  C   UNL A   1      42.178  21.909  26.431  1.00  0.00     0.091 A 
ATOM     76  F   UNL A   1      41.436  22.726  28.546  1.00  0.00    -0.205 F 
ATOM     77  C   UNL A   1      42.835  22.148  25.213  1.00  0.00     0.022 A 
BRANCH  75  78
ATOM     78  S   UNL A   1      41.551  20.250  26.710  1.00  0.00     0.127 S 
ATOM     79  O   UNL A   1      42.389  19.795  27.816  1.00  0.00    -0.237 OA
ATOM     80  O   UNL A   1      40.153  20.509  27.062  1.00  0.00    -0.237 OA
ATOM     81  O   UNL A   1      41.727  19.546  25.447  1.00  0.00    -0.744 OA
ENDBRANCH  75  78
ENDBRANCH  47  71
BRANCH  59  82
ATOM     82  C   UNL A   1      47.001  25.894  32.399  1.00  0.00     0.023 A 
ATOM     83  C   UNL A   1      46.975  25.041  33.521  1.00  0.00     0.012 A 
ATOM     84  C   UNL A   1      48.220  26.120  31.731  1.00  0.00     0.148 A 
ATOM     85  C   UNL A   1      48.149  24.453  33.991  1.00  0.00     0.002 A 
ATOM     86  C   UNL A   1      49.377  25.491  32.174  1.00  0.00     0.091 A 
ATOM     87  F   UNL A   1      48.229  26.950  30.677  1.00  0.00    -0.205 F 
ATOM     88  C   UNL A   1      49.346  24.668  33.311  1.00  0.00     0.022 A 
BRANCH  86  89
ATOM     89  S   UNL A   1      50.940  25.634  31.301  1.00  0.00     0.127 S 
ATOM     90  O   UNL A   1      51.338  27.004  31.625  1.00  0.00    -0.237 OA
ATOM     91  O   UNL A   1      51.751  24.597  31.939  1.00  0.00    -0.237 OA
ATOM     92  O   UNL A   1      50.637  25.384  29.899  1.00  0.00    -0.744 OA
ENDBRANCH  86  89
ENDBRANCH  59  82
ENDBRANCH  33  34
ENDBRANCH  25  28
ENDBRANCH  23  24
ENDBRANCH   1  23
TORSDOF 16
ENDMDL
MODEL 2
REMARK VINA RESULT:     -11.6      3.985      9.557
REMARK SMILES CC(=O)O[C@@H](C)c1nc2ccc(C(=O)NCCCNC(=O)c3ccc(-c4c5nc(c(-c6cccc(S(=O)(=O)[O-])c6F)c6ccc([nH]6)c(-c6cccc(S(=O)(=O)[O-])c6F)c6nc(c(-c7cccc(S(=O)(=O)[O-])c7F)c7ccc4[nH]7)C=C6)C=C5)cc3)cc2[nH]1
REMARK SMILES IDX 17 1 16 2 15 3 13 4 14 5 12 7 7 8 8 9 87 10 9 11 86 12 10 14
REMARK SMILES IDX 85 15 11 16 5 17 6 18 4 19 2 20 1 21 3 22 18 23 19 24 20 25
REMARK SMILES IDX 21 27 22 28 23 29 84 30 24 31 83 32 25 33 26 34 27 35 77 36
REMARK SMILES IDX 28 37 82 38 76 39 78 40 29 41 81 42 75 43 74 44 30 46 62 47
REMARK SMILES IDX 42 48 61 49 43 50 46 51 60 52 79 53 44 54 45 55 59 57 80 58
REMARK SMILES IDX 47 59 31 60 32 61 40 62 33 63 35 64 41 65 34 66 36 67 37 68
REMARK SMILES IDX 38 69 39 70 63 71 64 72 72 73 65 74 67 75 73 76 66 77 68 78
REMARK SMILES IDX 69 79 70 80 71 81 48 82 49 83 57 84 50 85 52 86 58 87 51 88
REMARK SMILES IDX 53 89 54 90 55 91 56 92
REMARK H PARENT 15 6 87 13 19 26 78 45 46 56
REMARK Flexibility Score: inf
ROOT
ATOM      1  C   UNL A   1      31.389  32.322  26.529  1.00  0.00     0.042 C 
ENDROOT
BRANCH   1   2
ATOM      2  C   UNL A   1      31.500  30.901  25.978  1.00  0.00     0.118 C 
BRANCH   2   3
ATOM      3  N   UNL A   1      30.657  30.711  24.813  1.00  0.00    -0.352 N 
ATOM      4  C   UNL A   1      30.615  29.735  23.851  1.00  0.00     0.251 C 
ATOM      5  O   UNL A   1      29.700  29.796  23.027  1.00  0.00    -0.269 OA
ATOM      6  H   UNL A   1      29.986  31.420  24.688  1.00  0.00     0.163 HD
BRANCH   4   7
ATOM      7  C   UNL A   1      31.576  28.593  23.775  1.00  0.00     0.042 A 
ATOM      8  C   UNL A   1      33.182  24.414  24.631  1.00  0.00     0.148 A 
ATOM      9  N   UNL A   1      33.936  25.167  23.851  1.00  0.00    -0.229 NA
ATOM     10  N   UNL A   1      32.030  25.082  24.976  1.00  0.00    -0.339 N 
ATOM     11  C   UNL A   1      33.274  26.356  23.724  1.00  0.00     0.089 A 
ATOM     12  C   UNL A   1      32.081  26.338  24.431  1.00  0.00     0.066 A 
ATOM     13  H   UNL A   1      31.293  24.719  25.521  1.00  0.00     0.168 HD
ATOM     14  C   UNL A   1      33.627  27.499  23.003  1.00  0.00     0.031 A 
ATOM     15  C   UNL A   1      31.211  27.430  24.485  1.00  0.00     0.042 A 
ATOM     16  C   UNL A   1      32.755  28.598  23.018  1.00  0.00     0.016 A 
BRANCH   8  17
ATOM     17  C   UNL A   1      33.469  23.009  25.072  1.00  0.00     0.239 C 
ATOM     18  C   UNL A   1      33.987  22.102  23.961  1.00  0.00     0.062 C 
BRANCH  17  19
ATOM     19  O   UNL A   1      32.310  22.495  25.762  1.00  0.00    -0.455 OA
BRANCH  19  20
ATOM     20  C   UNL A   1      32.093  22.871  27.052  1.00  0.00     0.303 C 
ATOM     21  C   UNL A   1      33.283  22.507  27.888  1.00  0.00     0.139 C 
ATOM     22  O   UNL A   1      31.078  23.387  27.497  1.00  0.00    -0.253 OA
ENDBRANCH  19  20
ENDBRANCH  17  19
ENDBRANCH   8  17
ENDBRANCH   4   7
ENDBRANCH   2   3
ENDBRANCH   1   2
BRANCH   1  23
ATOM     23  C   UNL A   1      32.666  32.822  27.196  1.00  0.00     0.118 C 
BRANCH  23  24
ATOM     24  N   UNL A   1      32.538  34.202  27.644  1.00  0.00    -0.352 N 
ATOM     25  C   UNL A   1      33.113  34.843  28.710  1.00  0.00     0.251 C 
ATOM     26  H   UNL A   1      31.945  34.762  27.093  1.00  0.00     0.163 HD
ATOM     27  O   UNL A   1      32.676  35.942  29.047  1.00  0.00    -0.269 OA
BRANCH  25  28
ATOM     28  C   UNL A   1      34.244  34.241  29.450  1.00  0.00     0.039 A 
ATOM     29  C   UNL A   1      35.545  34.482  28.996  1.00  0.00     0.014 A 
ATOM     30  C   UNL A   1      34.035  33.384  30.534  1.00  0.00     0.014 A 
ATOM     31  C   UNL A   1      36.632  33.888  29.643  1.00  0.00     0.010 A 
ATOM     32  C   UNL A   1      35.123  32.853  31.225  1.00  0.00     0.010 A 
ATOM     33  C   UNL A   1      36.431  33.080  30.773  1.00  0.00    -0.014 A 
BRANCH  33  34
ATOM     34  C   UNL A   1      37.575  32.452  31.481  1.00  0.00     0.031 A 
ATOM     35  C   UNL A   1      38.331  31.314  30.846  1.00  0.00     0.074 A 
ATOM     36  C   UNL A   1      37.889  32.858  32.727  1.00  0.00     0.049 A 
ATOM     37  N   UNL A   1      39.328  30.617  31.325  1.00  0.00    -0.248 NA
ATOM     38  C   UNL A   1      37.890  30.883  29.508  1.00  0.00     0.031 C 
ATOM     39  C   UNL A   1      37.179  33.895  33.481  1.00  0.00     0.029 A 
ATOM     40  N   UNL A   1      38.868  32.433  33.589  1.00  0.00    -0.354 N 
ATOM     41  C   UNL A   1      39.608  29.644  30.371  1.00  0.00     0.074 A 
ATOM     42  C   UNL A   1      38.653  29.820  29.299  1.00  0.00     0.031 C 
ATOM     43  C   UNL A   1      37.749  34.027  34.689  1.00  0.00     0.029 A 
ATOM     44  C   UNL A   1      38.846  33.072  34.807  1.00  0.00     0.049 A 
ATOM     45  H   UNL A   1      39.523  31.736  33.358  1.00  0.00     0.167 HD
ATOM     46  C   UNL A   1      40.588  28.711  30.371  1.00  0.00     0.034 A 
ATOM     47  C   UNL A   1      39.622  32.906  35.896  1.00  0.00     0.034 A 
ATOM     48  C   UNL A   1      41.567  28.574  31.416  1.00  0.00     0.049 A 
ATOM     49  C   UNL A   1      40.745  31.906  35.844  1.00  0.00     0.074 A 
ATOM     50  C   UNL A   1      42.655  27.721  31.471  1.00  0.00     0.029 A 
ATOM     51  N   UNL A   1      41.576  29.310  32.591  1.00  0.00    -0.354 N 
ATOM     52  N   UNL A   1      41.092  31.105  34.865  1.00  0.00    -0.248 NA
ATOM     53  C   UNL A   1      41.611  31.817  37.028  1.00  0.00     0.031 C 
ATOM     54  C   UNL A   1      43.313  27.931  32.690  1.00  0.00     0.029 A 
ATOM     55  C   UNL A   1      42.648  28.931  33.380  1.00  0.00     0.049 A 
ATOM     56  H   UNL A   1      40.917  30.002  32.829  1.00  0.00     0.167 HD
ATOM     57  C   UNL A   1      42.236  30.445  35.300  1.00  0.00     0.074 A 
ATOM     58  C   UNL A   1      42.536  30.958  36.620  1.00  0.00     0.031 C 
ATOM     59  C   UNL A   1      42.965  29.491  34.669  1.00  0.00     0.034 A 
BRANCH  46  60
ATOM     60  C   UNL A   1      40.689  27.798  29.175  1.00  0.00     0.023 A 
ATOM     61  C   UNL A   1      39.871  26.651  29.106  1.00  0.00     0.012 A 
ATOM     62  C   UNL A   1      41.545  28.099  28.097  1.00  0.00     0.148 A 
ATOM     63  C   UNL A   1      39.931  25.798  28.004  1.00  0.00     0.002 A 
ATOM     64  C   UNL A   1      41.566  27.269  26.982  1.00  0.00     0.091 A 
ATOM     65  F   UNL A   1      42.330  29.182  28.186  1.00  0.00    -0.205 F 
ATOM     66  C   UNL A   1      40.770  26.112  26.940  1.00  0.00     0.022 A 
BRANCH  64  67
ATOM     67  S   UNL A   1      42.552  27.628  25.523  1.00  0.00     0.127 S 
ATOM     68  O   UNL A   1      41.971  28.895  25.078  1.00  0.00    -0.237 OA
ATOM     69  O   UNL A   1      43.899  27.740  26.082  1.00  0.00    -0.237 OA
ATOM     70  O   UNL A   1      42.360  26.502  24.622  1.00  0.00    -0.744 OA
ENDBRANCH  64  67
ENDBRANCH  46  60
BRANCH  47  71
ATOM     71  C   UNL A   1      39.412  33.765  37.095  1.00  0.00     0.023 A 
ATOM     72  C   UNL A   1      39.851  35.104  37.070  1.00  0.00     0.012 A 
ATOM     73  C   UNL A   1      38.755  33.280  38.241  1.00  0.00     0.148 A 
ATOM     74  C   UNL A   1      39.668  35.934  38.175  1.00  0.00     0.002 A 
ATOM     75  C   UNL A   1      38.526  34.127  39.319  1.00  0.00     0.091 A 
ATOM     76  F   UNL A   1      38.354  32.001  38.249  1.00  0.00    -0.205 F 
ATOM     77  C   UNL A   1      38.996  35.450  39.295  1.00  0.00     0.022 A 
BRANCH  75  78
ATOM     78  S   UNL A   1      37.554  33.629  40.745  1.00  0.00     0.127 S 
ATOM     79  O   UNL A   1      36.355  33.084  40.115  1.00  0.00    -0.237 OA
ATOM     80  O   UNL A   1      38.426  32.635  41.374  1.00  0.00    -0.237 OA
ATOM     81  O   UNL A   1      37.365  34.839  41.532  1.00  0.00    -0.744 OA
ENDBRANCH  75  78
ENDBRANCH  47  71
BRANCH  59  82
ATOM     82  C   UNL A   1      44.183  28.963  35.379  1.00  0.00     0.023 A 
ATOM     83  C   UNL A   1      45.440  29.559  35.154  1.00  0.00     0.012 A 
ATOM     84  C   UNL A   1      44.071  27.919  36.318  1.00  0.00     0.148 A 
ATOM     85  C   UNL A   1      46.573  29.100  35.826  1.00  0.00     0.002 A 
ATOM     86  C   UNL A   1      45.194  27.500  37.021  1.00  0.00     0.091 A 
ATOM     87  F   UNL A   1      42.871  27.350  36.504  1.00  0.00    -0.205 F 
ATOM     88  C   UNL A   1      46.448  28.080  36.767  1.00  0.00     0.022 A 
BRANCH  86  89
ATOM     89  S   UNL A   1      45.106  26.262  38.319  1.00  0.00     0.127 S 
ATOM     90  O   UNL A   1      44.663  25.083  37.577  1.00  0.00    -0.237 OA
ATOM     91  O   UNL A   1      46.489  26.202  38.790  1.00  0.00    -0.237 OA
ATOM     92  O   UNL A   1      44.159  26.779  39.298  1.00  0.00    -0.744 OA
ENDBRANCH  86  89
ENDBRANCH  59  82
ENDBRANCH  33  34
ENDBRANCH  25  28
ENDBRANCH  23  24
ENDBRANCH   1  23
TORSDOF 16
ENDMDL
MODEL 3
REMARK VINA RESULT:     -11.5      3.048      5.181
REMARK SMILES CC(=O)O[C@@H](C)c1nc2ccc(C(=O)NCCCNC(=O)c3ccc(-c4c5nc(c(-c6cccc(S(=O)(=O)[O-])c6F)c6ccc([nH]6)c(-c6cccc(S(=O)(=O)[O-])c6F)c6nc(c(-c7cccc(S(=O)(=O)[O-])c7F)c7ccc4[nH]7)C=C6)C=C5)cc3)cc2[nH]1
REMARK SMILES IDX 17 1 16 2 15 3 13 4 14 5 12 7 7 8 8 9 87 10 9 11 86 12 10 14
REMARK SMILES IDX 85 15 11 16 5 17 6 18 4 19 2 20 1 21 3 22 18 23 19 24 20 25
REMARK SMILES IDX 21 27 22 28 23 29 84 30 24 31 83 32 25 33 26 34 27 35 77 36
REMARK SMILES IDX 28 37 82 38 76 39 78 40 29 41 81 42 75 43 74 44 30 46 62 47
REMARK SMILES IDX 42 48 61 49 43 50 46 51 60 52 79 53 44 54 45 55 59 57 80 58
REMARK SMILES IDX 47 59 31 60 32 61 40 62 33 63 35 64 41 65 34 66 36 67 37 68
REMARK SMILES IDX 38 69 39 70 63 71 64 72 72 73 65 74 67 75 73 76 66 77 68 78
REMARK SMILES IDX 69 79 70 80 71 81 48 82 49 83 57 84 50 85 52 86 58 87 51 88
REMARK SMILES IDX 53 89 54 90 55 91 56 92
REMARK H PARENT 15 6 87 13 19 26 78 45 46 56
REMARK Flexibility Score: inf
ROOT
ATOM      1  C   UNL A   1      33.009  28.617  25.079  1.00  0.00     0.042 C 
ENDROOT
BRANCH   1   2
ATOM      2  C   UNL A   1      32.739  27.141  24.787  1.00  0.00     0.118 C 
BRANCH   2   3
ATOM      3  N   UNL A   1      31.478  26.705  25.357  1.00  0.00    -0.352 N 
ATOM      4  C   UNL A   1      31.061  25.504  25.871  1.00  0.00     0.251 C 
ATOM      5  O   UNL A   1      29.941  25.471  26.385  1.00  0.00    -0.269 OA
ATOM      6  H   UNL A   1      30.788  27.406  25.378  1.00  0.00     0.163 HD
BRANCH   4   7
ATOM      7  C   UNL A   1      31.896  24.265  25.884  1.00  0.00     0.042 A 
ATOM      8  C   UNL A   1      33.221  20.101  24.588  1.00  0.00     0.148 A 
ATOM      9  N   UNL A   1      33.934  20.653  25.553  1.00  0.00    -0.229 NA
ATOM     10  N   UNL A   1      32.239  20.965  24.161  1.00  0.00    -0.339 N 
ATOM     11  C   UNL A   1      33.376  21.880  25.777  1.00  0.00     0.089 A 
ATOM     12  C   UNL A   1      32.300  22.098  24.929  1.00  0.00     0.066 A 
ATOM     13  H   UNL A   1      31.602  20.798  23.429  1.00  0.00     0.168 HD
ATOM     14  C   UNL A   1      33.746  22.874  26.685  1.00  0.00     0.031 A 
ATOM     15  C   UNL A   1      31.538  23.268  24.952  1.00  0.00     0.042 A 
ATOM     16  C   UNL A   1      33.012  24.070  26.707  1.00  0.00     0.016 A 
BRANCH   8  17
ATOM     17  C   UNL A   1      33.435  18.748  23.975  1.00  0.00     0.239 C 
ATOM     18  C   UNL A   1      32.332  18.318  23.015  1.00  0.00     0.062 C 
BRANCH  17  19
ATOM     19  O   UNL A   1      33.703  17.799  25.031  1.00  0.00    -0.455 OA
BRANCH  19  20
ATOM     20  C   UNL A   1      33.632  16.469  24.753  1.00  0.00     0.303 C 
ATOM     21  C   UNL A   1      32.514  15.851  25.536  1.00  0.00     0.139 C 
ATOM     22  O   UNL A   1      34.380  15.840  24.018  1.00  0.00    -0.253 OA
ENDBRANCH  19  20
ENDBRANCH  17  19
ENDBRANCH   8  17
ENDBRANCH   4   7
ENDBRANCH   2   3
ENDBRANCH   1   2
BRANCH   1  23
ATOM     23  C   UNL A   1      33.928  28.846  26.274  1.00  0.00     0.118 C 
BRANCH  23  24
ATOM     24  N   UNL A   1      33.827  30.208  26.781  1.00  0.00    -0.352 N 
ATOM     25  C   UNL A   1      34.591  30.866  27.709  1.00  0.00     0.251 C 
ATOM     26  H   UNL A   1      33.094  30.739  26.395  1.00  0.00     0.163 HD
ATOM     27  O   UNL A   1      34.181  31.929  28.168  1.00  0.00    -0.269 OA
BRANCH  25  28
ATOM     28  C   UNL A   1      35.893  30.322  28.157  1.00  0.00     0.039 A 
ATOM     29  C   UNL A   1      35.941  29.600  29.354  1.00  0.00     0.014 A 
ATOM     30  C   UNL A   1      37.073  30.578  27.453  1.00  0.00     0.014 A 
ATOM     31  C   UNL A   1      37.163  29.116  29.829  1.00  0.00     0.010 A 
ATOM     32  C   UNL A   1      38.278  30.030  27.887  1.00  0.00     0.010 A 
ATOM     33  C   UNL A   1      38.341  29.314  29.091  1.00  0.00    -0.014 A 
BRANCH  33  34
ATOM     34  C   UNL A   1      39.645  28.794  29.573  1.00  0.00     0.031 A 
ATOM     35  C   UNL A   1      40.377  29.493  30.689  1.00  0.00     0.074 A 
ATOM     36  C   UNL A   1      40.206  27.735  28.958  1.00  0.00     0.049 A 
ATOM     37  N   UNL A   1      41.540  29.212  31.216  1.00  0.00    -0.248 NA
ATOM     38  C   UNL A   1      39.731  30.683  31.270  1.00  0.00     0.031 C 
ATOM     39  C   UNL A   1      39.634  27.022  27.812  1.00  0.00     0.029 A 
ATOM     40  N   UNL A   1      41.393  27.087  29.192  1.00  0.00    -0.354 N 
ATOM     41  C   UNL A   1      41.783  30.206  32.158  1.00  0.00     0.074 A 
ATOM     42  C   UNL A   1      40.661  31.116  32.108  1.00  0.00     0.031 C 
ATOM     43  C   UNL A   1      40.467  26.035  27.448  1.00  0.00     0.029 A 
ATOM     44  C   UNL A   1      41.642  26.057  28.314  1.00  0.00     0.049 A 
ATOM     45  H   UNL A   1      42.008  27.336  29.919  1.00  0.00     0.167 HD
ATOM     46  C   UNL A   1      42.828  30.332  33.010  1.00  0.00     0.034 A 
ATOM     47  C   UNL A   1      42.697  25.226  28.218  1.00  0.00     0.034 A 
ATOM     48  C   UNL A   1      43.915  29.394  33.092  1.00  0.00     0.049 A 
ATOM     49  C   UNL A   1      43.814  25.348  29.219  1.00  0.00     0.074 A 
ATOM     50  C   UNL A   1      44.977  29.381  33.979  1.00  0.00     0.029 A 
ATOM     51  N   UNL A   1      44.082  28.303  32.253  1.00  0.00    -0.354 N 
ATOM     52  N   UNL A   1      43.946  26.200  30.207  1.00  0.00    -0.248 NA
ATOM     53  C   UNL A   1      44.905  24.369  29.120  1.00  0.00     0.031 C 
ATOM     54  C   UNL A   1      45.795  28.289  33.665  1.00  0.00     0.029 A 
ATOM     55  C   UNL A   1      45.229  27.610  32.599  1.00  0.00     0.049 A 
ATOM     56  H   UNL A   1      43.473  28.056  31.519  1.00  0.00     0.167 HD
ATOM     57  C   UNL A   1      45.114  25.837  30.870  1.00  0.00     0.074 A 
ATOM     58  C   UNL A   1      45.637  24.674  30.183  1.00  0.00     0.031 C 
ATOM     59  C   UNL A   1      45.707  26.421  31.940  1.00  0.00     0.034 A 
BRANCH  46  60
ATOM     60  C   UNL A   1      42.817  31.498  33.966  1.00  0.00     0.023 A 
ATOM     61  C   UNL A   1      43.363  32.734  33.560  1.00  0.00     0.012 A 
ATOM     62  C   UNL A   1      42.221  31.393  35.239  1.00  0.00     0.148 A 
ATOM     63  C   UNL A   1      43.352  33.833  34.418  1.00  0.00     0.002 A 
ATOM     64  C   UNL A   1      42.173  32.506  36.070  1.00  0.00     0.091 A 
ATOM     65  F   UNL A   1      41.724  30.206  35.617  1.00  0.00    -0.205 F 
ATOM     66  C   UNL A   1      42.749  33.722  35.667  1.00  0.00     0.022 A 
BRANCH  64  67
ATOM     67  S   UNL A   1      41.347  32.490  37.666  1.00  0.00     0.127 S 
ATOM     68  O   UNL A   1      41.430  33.898  38.056  1.00  0.00    -0.237 OA
ATOM     69  O   UNL A   1      40.003  32.034  37.314  1.00  0.00    -0.237 OA
ATOM     70  O   UNL A   1      42.103  31.566  38.499  1.00  0.00    -0.744 OA
ENDBRANCH  64  67
ENDBRANCH  46  60
BRANCH  47  71
ATOM     71  C   UNL A   1      42.706  24.153  27.184  1.00  0.00     0.023 A 
ATOM     72  C   UNL A   1      43.399  24.365  25.976  1.00  0.00     0.012 A 
ATOM     73  C   UNL A   1      42.064  22.919  27.399  1.00  0.00     0.148 A 
ATOM     74  C   UNL A   1      43.427  23.380  24.989  1.00  0.00     0.002 A 
ATOM     75  C   UNL A   1      42.141  21.921  26.435  1.00  0.00     0.091 A 
ATOM     76  F   UNL A   1      41.400  22.741  28.550  1.00  0.00    -0.205 F 
ATOM     77  C   UNL A   1      42.808  22.155  25.222  1.00  0.00     0.022 A 
BRANCH  75  78
ATOM     78  S   UNL A   1      41.489  20.270  26.706  1.00  0.00     0.127 S 
ATOM     79  O   UNL A   1      40.061  20.533  26.859  1.00  0.00    -0.237 OA
ATOM     80  O   UNL A   1      41.860  19.589  25.464  1.00  0.00    -0.237 OA
ATOM     81  O   UNL A   1      42.173  19.767  27.889  1.00  0.00    -0.744 OA
ENDBRANCH  75  78
ENDBRANCH  47  71
BRANCH  59  82
ATOM     82  C   UNL A   1      46.970  25.792  32.465  1.00  0.00     0.023 A 
ATOM     83  C   UNL A   1      48.219  26.181  31.940  1.00  0.00     0.012 A 
ATOM     84  C   UNL A   1      46.925  24.864  33.523  1.00  0.00     0.148 A 
ATOM     85  C   UNL A   1      49.399  25.629  32.436  1.00  0.00     0.002 A 
ATOM     86  C   UNL A   1      48.107  24.355  34.046  1.00  0.00     0.091 A 
ATOM     87  F   UNL A   1      45.727  24.490  33.996  1.00  0.00    -0.205 F 
ATOM     88  C   UNL A   1      49.344  24.726  33.496  1.00  0.00     0.022 A 
BRANCH  86  89
ATOM     89  S   UNL A   1      48.133  23.264  35.473  1.00  0.00     0.127 S 
ATOM     90  O   UNL A   1      49.564  23.005  35.624  1.00  0.00    -0.237 OA
ATOM     91  O   UNL A   1      47.552  24.104  36.520  1.00  0.00    -0.237 OA
ATOM     92  O   UNL A   1      47.321  22.111  35.108  1.00  0.00    -0.744 OA
ENDBRANCH  86  89
ENDBRANCH  59  82
ENDBRANCH  33  34
ENDBRANCH  25  28
ENDBRANCH  23  24
ENDBRANCH   1  23
TORSDOF 16
ENDMDL
