MODEL 1
REMARK VINA RESULT:     -11.9      0.000      0.000
REMARK SMILES [NH3+]C1(C(=O)N2[C@@H](C(=O)NCCCNC(=O)c3ccc(-c4c5nc(c(-c6cccc(S(=O)(=O)[O-])c6F)c6ccc([nH]6)c(-c6cccc(S(=O)(=O)[O-])c6F)c6nc(c(-c7cccc(S(=O)(=O)[O-])c7F)c7ccc4[nH]7)C=C6)C=C5)cc3)CC[C@@H]3CCCC[C@@H]32)CC1
REMARK SMILES IDX 11 1 10 2 9 3 7 4 8 5 6 7 5 8 86 9 79 10 81 11 85 12 80 13
REMARK SMILES IDX 82 14 84 15 83 16 3 17 4 18 2 19 87 20 88 21 1 22 12 26
REMARK SMILES IDX 13 27 14 28 15 30 16 31 17 32 78 33 18 34 77 35 19 36 20 37
REMARK SMILES IDX 21 38 71 39 22 40 76 41 70 42 72 43 23 44 75 45 69 46 68 47
REMARK SMILES IDX 24 49 56 50 36 51 55 52 37 53 40 54 54 55 73 56 38 57 39 58
REMARK SMILES IDX 53 60 74 61 41 62 25 63 26 64 34 65 27 66 29 67 35 68 28 69
REMARK SMILES IDX 30 70 31 71 32 72 33 73 57 74 58 75 66 76 59 77 61 78 67 79
REMARK SMILES IDX 60 80 62 81 63 82 64 83 65 84 42 85 43 86 51 87 44 88 46 89
REMARK SMILES IDX 52 90 45 91 47 92 48 93 49 94 50 95
REMARK H PARENT 9 6 1 23 1 24 1 25 13 29 72 48 40 59
REMARK Flexibility Score: inf
ROOT
ATOM      1  C   UNL A   1      31.776  28.905  26.583  1.00  0.00     0.042 C 
ENDROOT
BRANCH   1   2
ATOM      2  C   UNL A   1      32.344  27.519  26.844  1.00  0.00     0.117 C 
BRANCH   2   3
ATOM      3  N   UNL A   1      31.284  26.530  26.825  1.00  0.00    -0.354 N 
ATOM      4  C   UNL A   1      31.343  25.216  26.499  1.00  0.00     0.242 C 
ATOM      5  O   UNL A   1      30.274  24.633  26.289  1.00  0.00    -0.273 OA
ATOM      6  H   UNL A   1      30.396  26.859  27.089  1.00  0.00     0.163 HD
BRANCH   4   7
ATOM      7  C   UNL A   1      32.682  24.497  26.259  1.00  0.00     0.175 C 
ATOM      8  N   UNL A   1      33.221  24.401  24.873  1.00  0.00    -0.322 N 
ATOM      9  C   UNL A   1      34.363  23.480  24.691  1.00  0.00     0.089 C 
ATOM     10  C   UNL A   1      32.499  23.094  26.901  1.00  0.00     0.036 C 
ATOM     11  C   UNL A   1      34.057  22.085  25.221  1.00  0.00     0.012 C 
ATOM     12  C   UNL A   1      35.651  24.091  25.287  1.00  0.00     0.025 C 
ATOM     13  C   UNL A   1      33.671  22.146  26.699  1.00  0.00     0.008 C 
ATOM     14  C   UNL A   1      35.265  21.189  24.946  1.00  0.00     0.006 C 
ATOM     15  C   UNL A   1      36.800  23.133  25.623  1.00  0.00     0.002 C 
ATOM     16  C   UNL A   1      36.501  21.638  25.707  1.00  0.00     0.000 C 
BRANCH   8  17
ATOM     17  C   UNL A   1      33.080  25.337  23.831  1.00  0.00     0.284 C 
ATOM     18  O   UNL A   1      33.703  26.401  23.848  1.00  0.00    -0.268 OA
BRANCH  17  19
ATOM     19  C   UNL A   1      32.136  25.144  22.657  1.00  0.00     0.174 C 
ATOM     20  C   UNL A   1      32.903  24.731  21.395  1.00  0.00     0.086 C 
ATOM     21  C   UNL A   1      32.061  25.953  21.385  1.00  0.00     0.086 C 
BRANCH  19  22
ATOM     22  N   UNL A   1      30.954  24.312  23.009  1.00  0.00    -0.345 N 
ATOM     23  H   UNL A   1      30.174  24.918  23.264  1.00  0.00     0.345 HD
ATOM     24  H   UNL A   1      31.187  23.707  23.796  1.00  0.00     0.345 HD
ATOM     25  H   UNL A   1      30.690  23.739  22.207  1.00  0.00     0.345 HD
ENDBRANCH  19  22
ENDBRANCH  17  19
ENDBRANCH   8  17
ENDBRANCH   4   7
ENDBRANCH   2   3
ENDBRANCH   1   2
BRANCH   1  26
ATOM     26  C   UNL A   1      32.777  29.849  25.935  1.00  0.00     0.118 C 
BRANCH  26  27
ATOM     27  N   UNL A   1      32.565  31.236  26.329  1.00  0.00    -0.352 N 
ATOM     28  C   UNL A   1      33.227  31.975  27.275  1.00  0.00     0.251 C 
ATOM     29  H   UNL A   1      31.845  31.708  25.850  1.00  0.00     0.163 HD
ATOM     30  O   UNL A   1      32.783  33.067  27.626  1.00  0.00    -0.269 OA
BRANCH  28  31
ATOM     31  C   UNL A   1      34.463  31.442  27.876  1.00  0.00     0.039 A 
ATOM     32  C   UNL A   1      35.587  32.265  27.962  1.00  0.00     0.014 A 
ATOM     33  C   UNL A   1      34.501  30.137  28.373  1.00  0.00     0.014 A 
ATOM     34  C   UNL A   1      36.735  31.794  28.597  1.00  0.00     0.010 A 
ATOM     35  C   UNL A   1      35.608  29.707  29.093  1.00  0.00     0.010 A 
ATOM     36  C   UNL A   1      36.742  30.523  29.197  1.00  0.00    -0.014 A 
BRANCH  36  37
ATOM     37  C   UNL A   1      37.930  30.025  29.934  1.00  0.00     0.031 A 
ATOM     38  C   UNL A   1      38.191  30.486  31.341  1.00  0.00     0.074 A 
ATOM     39  C   UNL A   1      38.815  29.227  29.306  1.00  0.00     0.049 A 
ATOM     40  N   UNL A   1      39.188  30.191  32.133  1.00  0.00    -0.248 NA
ATOM     41  C   UNL A   1      37.223  31.429  31.925  1.00  0.00     0.031 C 
ATOM     42  C   UNL A   1      38.709  28.772  27.918  1.00  0.00     0.029 A 
ATOM     43  N   UNL A   1      39.989  28.672  29.748  1.00  0.00    -0.354 N 
ATOM     44  C   UNL A   1      38.992  30.942  33.286  1.00  0.00     0.074 A 
ATOM     45  C   UNL A   1      37.802  31.737  33.075  1.00  0.00     0.031 C 
ATOM     46  C   UNL A   1      39.758  27.987  27.632  1.00  0.00     0.029 A 
ATOM     47  C   UNL A   1      40.631  27.914  28.799  1.00  0.00     0.049 A 
ATOM     48  H   UNL A   1      40.337  28.804  30.659  1.00  0.00     0.167 HD
ATOM     49  C   UNL A   1      39.719  30.951  34.428  1.00  0.00     0.034 A 
ATOM     50  C   UNL A   1      41.793  27.236  28.862  1.00  0.00     0.034 A 
ATOM     51  C   UNL A   1      40.881  30.132  34.642  1.00  0.00     0.049 A 
ATOM     52  C   UNL A   1      42.572  27.242  30.149  1.00  0.00     0.074 A 
ATOM     53  C   UNL A   1      41.630  29.986  35.796  1.00  0.00     0.029 A 
ATOM     54  N   UNL A   1      41.474  29.333  33.676  1.00  0.00    -0.354 N 
ATOM     55  N   UNL A   1      42.283  27.827  31.286  1.00  0.00    -0.248 NA
ATOM     56  C   UNL A   1      43.821  26.468  30.171  1.00  0.00     0.031 C 
ATOM     57  C   UNL A   1      42.703  29.134  35.513  1.00  0.00     0.029 A 
ATOM     58  C   UNL A   1      42.596  28.712  34.197  1.00  0.00     0.049 A 
ATOM     59  H   UNL A   1      41.145  29.224  32.754  1.00  0.00     0.167 HD
ATOM     60  C   UNL A   1      43.291  27.461  32.171  1.00  0.00     0.074 A 
ATOM     61  C   UNL A   1      44.189  26.590  31.439  1.00  0.00     0.031 C 
ATOM     62  C   UNL A   1      43.460  27.817  33.469  1.00  0.00     0.034 A 
BRANCH  49  63
ATOM     63  C   UNL A   1      39.260  31.864  35.538  1.00  0.00     0.023 A 
ATOM     64  C   UNL A   1      38.325  31.403  36.488  1.00  0.00     0.012 A 
ATOM     65  C   UNL A   1      39.770  33.171  35.652  1.00  0.00     0.148 A 
ATOM     66  C   UNL A   1      37.863  32.246  37.499  1.00  0.00     0.002 A 
ATOM     67  C   UNL A   1      39.344  33.988  36.693  1.00  0.00     0.091 A 
ATOM     68  F   UNL A   1      40.640  33.603  34.729  1.00  0.00    -0.205 F 
ATOM     69  C   UNL A   1      38.380  33.534  37.606  1.00  0.00     0.022 A 
BRANCH  67  70
ATOM     70  S   UNL A   1      40.015  35.631  36.966  1.00  0.00     0.127 S 
ATOM     71  O   UNL A   1      39.352  36.019  38.209  1.00  0.00    -0.237 OA
ATOM     72  O   UNL A   1      41.448  35.361  37.098  1.00  0.00    -0.237 OA
ATOM     73  O   UNL A   1      39.653  36.411  35.791  1.00  0.00    -0.744 OA
ENDBRANCH  67  70
ENDBRANCH  49  63
BRANCH  50  74
ATOM     74  C   UNL A   1      42.243  26.425  27.696  1.00  0.00     0.023 A 
ATOM     75  C   UNL A   1      43.124  27.001  26.760  1.00  0.00     0.012 A 
ATOM     76  C   UNL A   1      41.842  25.085  27.530  1.00  0.00     0.148 A 
ATOM     77  C   UNL A   1      43.579  26.265  25.665  1.00  0.00     0.002 A 
ATOM     78  C   UNL A   1      42.340  24.342  26.467  1.00  0.00     0.091 A 
ATOM     79  F   UNL A   1      41.001  24.559  28.432  1.00  0.00    -0.205 F 
ATOM     80  C   UNL A   1      43.195  24.935  25.524  1.00  0.00     0.022 A 
BRANCH  78  81
ATOM     81  S   UNL A   1      42.003  22.589  26.268  1.00  0.00     0.127 S 
ATOM     82  O   UNL A   1      42.673  22.297  25.002  1.00  0.00    -0.237 OA
ATOM     83  O   UNL A   1      42.650  22.024  27.453  1.00  0.00    -0.237 OA
ATOM     84  O   UNL A   1      40.553  22.463  26.253  1.00  0.00    -0.744 OA
ENDBRANCH  78  81
ENDBRANCH  50  74
BRANCH  62  85
ATOM     85  C   UNL A   1      44.641  27.237  34.203  1.00  0.00     0.023 A 
ATOM     86  C   UNL A   1      45.871  27.924  34.220  1.00  0.00     0.012 A 
ATOM     87  C   UNL A   1      44.507  26.042  34.940  1.00  0.00     0.148 A 
ATOM     88  C   UNL A   1      46.959  27.413  34.928  1.00  0.00     0.002 A 
ATOM     89  C   UNL A   1      45.578  25.568  35.687  1.00  0.00     0.091 A 
ATOM     90  F   UNL A   1      43.334  25.394  34.897  1.00  0.00    -0.205 F 
ATOM     91  C   UNL A   1      46.809  26.244  35.671  1.00  0.00     0.022 A 
BRANCH  89  92
ATOM     92  S   UNL A   1      45.447  24.130  36.755  1.00  0.00     0.127 S 
ATOM     93  O   UNL A   1      46.807  24.025  37.280  1.00  0.00    -0.237 OA
ATOM     94  O   UNL A   1      44.447  24.560  37.731  1.00  0.00    -0.237 OA
ATOM     95  O   UNL A   1      45.023  23.030  35.898  1.00  0.00    -0.744 OA
ENDBRANCH  89  92
ENDBRANCH  62  85
ENDBRANCH  36  37
ENDBRANCH  28  31
ENDBRANCH  26  27
ENDBRANCH   1  26
TORSDOF 16
ENDMDL
MODEL 2
REMARK VINA RESULT:     -11.8      1.951      2.584
REMARK SMILES [NH3+]C1(C(=O)N2[C@@H](C(=O)NCCCNC(=O)c3ccc(-c4c5nc(c(-c6cccc(S(=O)(=O)[O-])c6F)c6ccc([nH]6)c(-c6cccc(S(=O)(=O)[O-])c6F)c6nc(c(-c7cccc(S(=O)(=O)[O-])c7F)c7ccc4[nH]7)C=C6)C=C5)cc3)CC[C@@H]3CCCC[C@@H]32)CC1
REMARK SMILES IDX 11 1 10 2 9 3 7 4 8 5 6 7 5 8 86 9 79 10 81 11 85 12 80 13
REMARK SMILES IDX 82 14 84 15 83 16 3 17 4 18 2 19 87 20 88 21 1 22 12 26
REMARK SMILES IDX 13 27 14 28 15 30 16 31 17 32 78 33 18 34 77 35 19 36 20 37
REMARK SMILES IDX 21 38 71 39 22 40 76 41 70 42 72 43 23 44 75 45 69 46 68 47
REMARK SMILES IDX 24 49 56 50 36 51 55 52 37 53 40 54 54 55 73 56 38 57 39 58
REMARK SMILES IDX 53 60 74 61 41 62 25 63 26 64 34 65 27 66 29 67 35 68 28 69
REMARK SMILES IDX 30 70 31 71 32 72 33 73 57 74 58 75 66 76 59 77 61 78 67 79
REMARK SMILES IDX 60 80 62 81 63 82 64 83 65 84 42 85 43 86 51 87 44 88 46 89
REMARK SMILES IDX 52 90 45 91 47 92 48 93 49 94 50 95
REMARK H PARENT 9 6 1 23 1 24 1 25 13 29 72 48 40 59
REMARK Flexibility Score: inf
ROOT
ATOM      1  C   UNL A   1      33.233  27.776  26.919  1.00  0.00     0.042 C 
ENDROOT
BRANCH   1   2
ATOM      2  C   UNL A   1      32.457  26.902  25.946  1.00  0.00     0.117 C 
BRANCH   2   3
ATOM      3  N   UNL A   1      31.728  25.876  26.664  1.00  0.00    -0.354 N 
ATOM      4  C   UNL A   1      31.934  24.537  26.691  1.00  0.00     0.242 C 
ATOM      5  O   UNL A   1      31.029  23.830  27.147  1.00  0.00    -0.273 OA
ATOM      6  H   UNL A   1      30.977  26.198  27.212  1.00  0.00     0.163 HD
BRANCH   4   7
ATOM      7  C   UNL A   1      33.179  23.893  26.056  1.00  0.00     0.175 C 
ATOM      8  N   UNL A   1      33.050  23.188  24.749  1.00  0.00    -0.322 N 
ATOM      9  C   UNL A   1      34.218  22.380  24.338  1.00  0.00     0.089 C 
ATOM     10  C   UNL A   1      33.747  22.957  27.158  1.00  0.00     0.036 C 
ATOM     11  C   UNL A   1      34.631  21.389  25.419  1.00  0.00     0.012 C 
ATOM     12  C   UNL A   1      35.374  23.297  23.876  1.00  0.00     0.025 C 
ATOM     13  C   UNL A   1      34.940  22.119  26.726  1.00  0.00     0.008 C 
ATOM     14  C   UNL A   1      35.806  20.564  24.892  1.00  0.00     0.006 C 
ATOM     15  C   UNL A   1      36.787  22.705  23.868  1.00  0.00     0.002 C 
ATOM     16  C   UNL A   1      37.041  21.413  24.643  1.00  0.00     0.000 C 
BRANCH   8  17
ATOM     17  C   UNL A   1      32.179  23.500  23.688  1.00  0.00     0.284 C 
ATOM     18  O   UNL A   1      31.429  22.643  23.213  1.00  0.00    -0.268 OA
BRANCH  17  19
ATOM     19  C   UNL A   1      32.127  24.863  23.022  1.00  0.00     0.174 C 
ATOM     20  C   UNL A   1      32.785  24.826  21.638  1.00  0.00     0.086 C 
ATOM     21  C   UNL A   1      33.281  25.769  22.671  1.00  0.00     0.086 C 
BRANCH  19  22
ATOM     22  N   UNL A   1      30.771  25.475  23.088  1.00  0.00    -0.345 N 
ATOM     23  H   UNL A   1      30.447  25.687  22.145  1.00  0.00     0.345 HD
ATOM     24  H   UNL A   1      30.813  26.334  23.635  1.00  0.00     0.345 HD
ATOM     25  H   UNL A   1      30.124  24.821  23.530  1.00  0.00     0.345 HD
ENDBRANCH  19  22
ENDBRANCH  17  19
ENDBRANCH   8  17
ENDBRANCH   4   7
ENDBRANCH   2   3
ENDBRANCH   1   2
BRANCH   1  26
ATOM     26  C   UNL A   1      34.194  28.733  26.229  1.00  0.00     0.118 C 
BRANCH  26  27
ATOM     27  N   UNL A   1      33.934  30.124  26.577  1.00  0.00    -0.352 N 
ATOM     28  C   UNL A   1      34.565  30.912  27.503  1.00  0.00     0.251 C 
ATOM     29  H   UNL A   1      33.205  30.557  26.077  1.00  0.00     0.163 HD
ATOM     30  O   UNL A   1      34.084  32.001  27.817  1.00  0.00    -0.269 OA
BRANCH  28  31
ATOM     31  C   UNL A   1      35.812  30.438  28.131  1.00  0.00     0.039 A 
ATOM     32  C   UNL A   1      35.743  29.723  29.327  1.00  0.00     0.014 A 
ATOM     33  C   UNL A   1      37.046  30.683  27.522  1.00  0.00     0.014 A 
ATOM     34  C   UNL A   1      36.911  29.206  29.886  1.00  0.00     0.010 A 
ATOM     35  C   UNL A   1      38.192  30.082  28.025  1.00  0.00     0.010 A 
ATOM     36  C   UNL A   1      38.140  29.354  29.221  1.00  0.00    -0.014 A 
BRANCH  36  37
ATOM     37  C   UNL A   1      39.386  28.758  29.763  1.00  0.00     0.031 A 
ATOM     38  C   UNL A   1      40.017  29.329  31.002  1.00  0.00     0.074 A 
ATOM     39  C   UNL A   1      39.992  27.761  29.090  1.00  0.00     0.049 A 
ATOM     40  N   UNL A   1      41.118  28.969  31.608  1.00  0.00    -0.248 NA
ATOM     41  C   UNL A   1      39.339  30.476  31.629  1.00  0.00     0.031 C 
ATOM     42  C   UNL A   1      39.517  27.173  27.836  1.00  0.00     0.029 A 
ATOM     43  N   UNL A   1      41.152  27.078  29.358  1.00  0.00    -0.354 N 
ATOM     44  C   UNL A   1      41.289  29.868  32.653  1.00  0.00     0.074 A 
ATOM     45  C   UNL A   1      40.199  30.816  32.577  1.00  0.00     0.031 C 
ATOM     46  C   UNL A   1      40.360  26.201  27.458  1.00  0.00     0.029 A 
ATOM     47  C   UNL A   1      41.456  26.122  28.418  1.00  0.00     0.049 A 
ATOM     48  H   UNL A   1      41.711  27.255  30.148  1.00  0.00     0.167 HD
ATOM     49  C   UNL A   1      42.249  29.890  33.607  1.00  0.00     0.034 A 
ATOM     50  C   UNL A   1      42.503  25.277  28.340  1.00  0.00     0.034 A 
ATOM     51  C   UNL A   1      43.311  28.924  33.695  1.00  0.00     0.049 A 
ATOM     52  C   UNL A   1      43.545  25.304  29.424  1.00  0.00     0.074 A 
ATOM     53  C   UNL A   1      44.274  28.792  34.678  1.00  0.00     0.029 A 
ATOM     54  N   UNL A   1      43.559  27.935  32.755  1.00  0.00    -0.354 N 
ATOM     55  N   UNL A   1      43.601  26.055  30.497  1.00  0.00    -0.248 NA
ATOM     56  C   UNL A   1      44.653  24.347  29.301  1.00  0.00     0.031 C 
ATOM     57  C   UNL A   1      45.133  27.751  34.308  1.00  0.00     0.029 A 
ATOM     58  C   UNL A   1      44.677  27.204  33.119  1.00  0.00     0.049 A 
ATOM     59  H   UNL A   1      43.019  27.776  31.947  1.00  0.00     0.167 HD
ATOM     60  C   UNL A   1      44.725  25.634  31.200  1.00  0.00     0.074 A 
ATOM     61  C   UNL A   1      45.311  24.552  30.434  1.00  0.00     0.031 C 
ATOM     62  C   UNL A   1      45.228  26.104  32.368  1.00  0.00     0.034 A 
BRANCH  49  63
ATOM     63  C   UNL A   1      42.178  30.986  34.641  1.00  0.00     0.023 A 
ATOM     64  C   UNL A   1      41.471  30.775  35.844  1.00  0.00     0.012 A 
ATOM     65  C   UNL A   1      42.828  32.217  34.431  1.00  0.00     0.148 A 
ATOM     66  C   UNL A   1      41.365  31.790  36.794  1.00  0.00     0.002 A 
ATOM     67  C   UNL A   1      42.762  33.205  35.407  1.00  0.00     0.091 A 
ATOM     68  F   UNL A   1      43.477  32.412  33.275  1.00  0.00    -0.205 F 
ATOM     69  C   UNL A   1      42.018  33.001  36.580  1.00  0.00     0.022 A 
BRANCH  67  70
ATOM     70  S   UNL A   1      43.641  34.765  35.261  1.00  0.00     0.127 S 
ATOM     71  O   UNL A   1      43.311  35.410  36.530  1.00  0.00    -0.237 OA
ATOM     72  O   UNL A   1      45.032  34.325  35.145  1.00  0.00    -0.237 OA
ATOM     73  O   UNL A   1      43.111  35.412  34.069  1.00  0.00    -0.744 OA
ENDBRANCH  67  70
ENDBRANCH  49  63
BRANCH  50  74
ATOM     74  C   UNL A   1      42.565  24.276  27.238  1.00  0.00     0.023 A 
ATOM     75  C   UNL A   1      43.273  24.595  26.063  1.00  0.00     0.012 A 
ATOM     76  C   UNL A   1      41.972  23.005  27.360  1.00  0.00     0.148 A 
ATOM     77  C   UNL A   1      43.368  23.675  25.018  1.00  0.00     0.002 A 
ATOM     78  C   UNL A   1      42.114  22.076  26.338  1.00  0.00     0.091 A 
ATOM     79  F   UNL A   1      41.301  22.725  28.487  1.00  0.00    -0.205 F 
ATOM     80  C   UNL A   1      42.797  22.414  25.159  1.00  0.00     0.022 A 
BRANCH  78  81
ATOM     81  S   UNL A   1      41.522  20.385  26.475  1.00  0.00     0.127 S 
ATOM     82  O   UNL A   1      40.079  20.560  26.323  1.00  0.00    -0.237 OA
ATOM     83  O   UNL A   1      42.189  19.742  25.343  1.00  0.00    -0.237 OA
ATOM     84  O   UNL A   1      41.962  19.916  27.782  1.00  0.00    -0.744 OA
ENDBRANCH  78  81
ENDBRANCH  50  74
BRANCH  62  85
ATOM     85  C   UNL A   1      46.456  25.428  32.921  1.00  0.00     0.023 A 
ATOM     86  C   UNL A   1      47.738  25.925  32.609  1.00  0.00     0.012 A 
ATOM     87  C   UNL A   1      46.334  24.342  33.811  1.00  0.00     0.148 A 
ATOM     88  C   UNL A   1      48.878  25.329  33.146  1.00  0.00     0.002 A 
ATOM     89  C   UNL A   1      47.471  23.789  34.384  1.00  0.00     0.091 A 
ATOM     90  F   UNL A   1      45.108  23.872  34.081  1.00  0.00    -0.205 F 
ATOM     91  C   UNL A   1      48.745  24.271  34.042  1.00  0.00     0.022 A 
BRANCH  89  92
ATOM     92  S   UNL A   1      47.393  22.493  35.626  1.00  0.00     0.127 S 
ATOM     93  O   UNL A   1      46.379  23.017  36.540  1.00  0.00    -0.237 OA
ATOM     94  O   UNL A   1      46.966  21.336  34.839  1.00  0.00    -0.237 OA
ATOM     95  O   UNL A   1      48.736  22.384  36.181  1.00  0.00    -0.744 OA
ENDBRANCH  89  92
ENDBRANCH  62  85
ENDBRANCH  36  37
ENDBRANCH  28  31
ENDBRANCH  26  27
ENDBRANCH   1  26
TORSDOF 16
ENDMDL
MODEL 3
REMARK VINA RESULT:     -11.8      1.281      1.543
REMARK SMILES [NH3+]C1(C(=O)N2[C@@H](C(=O)NCCCNC(=O)c3ccc(-c4c5nc(c(-c6cccc(S(=O)(=O)[O-])c6F)c6ccc([nH]6)c(-c6cccc(S(=O)(=O)[O-])c6F)c6nc(c(-c7cccc(S(=O)(=O)[O-])c7F)c7ccc4[nH]7)C=C6)C=C5)cc3)CC[C@@H]3CCCC[C@@H]32)CC1
REMARK SMILES IDX 11 1 10 2 9 3 7 4 8 5 6 7 5 8 86 9 79 10 81 11 85 12 80 13
REMARK SMILES IDX 82 14 84 15 83 16 3 17 4 18 2 19 87 20 88 21 1 22 12 26
REMARK SMILES IDX 13 27 14 28 15 30 16 31 17 32 78 33 18 34 77 35 19 36 20 37
REMARK SMILES IDX 21 38 71 39 22 40 76 41 70 42 72 43 23 44 75 45 69 46 68 47
REMARK SMILES IDX 24 49 56 50 36 51 55 52 37 53 40 54 54 55 73 56 38 57 39 58
REMARK SMILES IDX 53 60 74 61 41 62 25 63 26 64 34 65 27 66 29 67 35 68 28 69
REMARK SMILES IDX 30 70 31 71 32 72 33 73 57 74 58 75 66 76 59 77 61 78 67 79
REMARK SMILES IDX 60 80 62 81 63 82 64 83 65 84 42 85 43 86 51 87 44 88 46 89
REMARK SMILES IDX 52 90 45 91 47 92 48 93 49 94 50 95
REMARK H PARENT 9 6 1 23 1 24 1 25 13 29 72 48 40 59
REMARK Flexibility Score: inf
ROOT
ATOM      1  C   UNL A   1      31.772  29.001  26.646  1.00  0.00     0.042 C 
ENDROOT
BRANCH   1   2
ATOM      2  C   UNL A   1      32.321  27.603  26.885  1.00  0.00     0.117 C 
BRANCH   2   3
ATOM      3  N   UNL A   1      31.249  26.629  26.841  1.00  0.00    -0.354 N 
ATOM      4  C   UNL A   1      31.294  25.319  26.499  1.00  0.00     0.242 C 
ATOM      5  O   UNL A   1      30.220  24.752  26.269  1.00  0.00    -0.273 OA
ATOM      6  H   UNL A   1      30.362  26.967  27.098  1.00  0.00     0.163 HD
BRANCH   4   7
ATOM      7  C   UNL A   1      32.626  24.584  26.267  1.00  0.00     0.175 C 
ATOM      8  N   UNL A   1      33.165  24.470  24.882  1.00  0.00    -0.322 N 
ATOM      9  C   UNL A   1      34.298  23.536  24.710  1.00  0.00     0.089 C 
ATOM     10  C   UNL A   1      32.431  23.190  26.923  1.00  0.00     0.036 C 
ATOM     11  C   UNL A   1      33.979  22.150  25.254  1.00  0.00     0.012 C 
ATOM     12  C   UNL A   1      35.592  24.142  25.300  1.00  0.00     0.025 C 
ATOM     13  C   UNL A   1      33.594  22.229  26.732  1.00  0.00     0.008 C 
ATOM     14  C   UNL A   1      35.179  21.239  24.988  1.00  0.00     0.006 C 
ATOM     15  C   UNL A   1      36.732  23.177  25.645  1.00  0.00     0.002 C 
ATOM     16  C   UNL A   1      36.419  21.685  25.745  1.00  0.00     0.000 C 
BRANCH   8  17
ATOM     17  C   UNL A   1      33.033  25.396  23.830  1.00  0.00     0.284 C 
ATOM     18  O   UNL A   1      33.644  26.467  23.850  1.00  0.00    -0.268 OA
BRANCH  17  19
ATOM     19  C   UNL A   1      32.112  25.184  22.641  1.00  0.00     0.174 C 
ATOM     20  C   UNL A   1      32.898  24.709  21.413  1.00  0.00     0.086 C 
ATOM     21  C   UNL A   1      32.086  25.950  21.341  1.00  0.00     0.086 C 
BRANCH  19  22
ATOM     22  N   UNL A   1      30.903  24.392  22.994  1.00  0.00    -0.345 N 
ATOM     23  H   UNL A   1      30.254  24.392  22.206  1.00  0.00     0.345 HD
ATOM     24  H   UNL A   1      30.450  24.806  23.808  1.00  0.00     0.345 HD
ATOM     25  H   UNL A   1      31.176  23.432  23.208  1.00  0.00     0.345 HD
ENDBRANCH  19  22
ENDBRANCH  17  19
ENDBRANCH   8  17
ENDBRANCH   4   7
ENDBRANCH   2   3
ENDBRANCH   1   2
BRANCH   1  26
ATOM     26  C   UNL A   1      32.773  29.929  25.973  1.00  0.00     0.118 C 
BRANCH  26  27
ATOM     27  N   UNL A   1      32.578  31.322  26.353  1.00  0.00    -0.352 N 
ATOM     28  C   UNL A   1      33.257  32.064  27.284  1.00  0.00     0.251 C 
ATOM     29  H   UNL A   1      31.858  31.796  25.876  1.00  0.00     0.163 HD
ATOM     30  O   UNL A   1      32.828  33.165  27.628  1.00  0.00    -0.269 OA
BRANCH  28  31
ATOM     31  C   UNL A   1      34.495  31.526  27.878  1.00  0.00     0.039 A 
ATOM     32  C   UNL A   1      35.597  32.367  28.033  1.00  0.00     0.014 A 
ATOM     33  C   UNL A   1      34.554  30.196  28.302  1.00  0.00     0.014 A 
ATOM     34  C   UNL A   1      36.744  31.887  28.664  1.00  0.00     0.010 A 
ATOM     35  C   UNL A   1      35.656  29.751  29.018  1.00  0.00     0.010 A 
ATOM     36  C   UNL A   1      36.770  30.584  29.190  1.00  0.00    -0.014 A 
BRANCH  36  37
ATOM     37  C   UNL A   1      37.954  30.071  29.921  1.00  0.00     0.031 A 
ATOM     38  C   UNL A   1      38.224  30.524  31.329  1.00  0.00     0.074 A 
ATOM     39  C   UNL A   1      38.829  29.267  29.287  1.00  0.00     0.049 A 
ATOM     40  N   UNL A   1      39.220  30.215  32.118  1.00  0.00    -0.248 NA
ATOM     41  C   UNL A   1      37.267  31.473  31.921  1.00  0.00     0.031 C 
ATOM     42  C   UNL A   1      38.715  28.819  27.898  1.00  0.00     0.029 A 
ATOM     43  N   UNL A   1      39.999  28.699  29.723  1.00  0.00    -0.354 N 
ATOM     44  C   UNL A   1      39.036  30.963  33.274  1.00  0.00     0.074 A 
ATOM     45  C   UNL A   1      37.853  31.771  33.070  1.00  0.00     0.031 C 
ATOM     46  C   UNL A   1      39.756  28.025  27.605  1.00  0.00     0.029 A 
ATOM     47  C   UNL A   1      40.631  27.939  28.769  1.00  0.00     0.049 A 
ATOM     48  H   UNL A   1      40.351  28.824  30.634  1.00  0.00     0.167 HD
ATOM     49  C   UNL A   1      39.766  30.960  34.414  1.00  0.00     0.034 A 
ATOM     50  C   UNL A   1      41.787  27.250  28.826  1.00  0.00     0.034 A 
ATOM     51  C   UNL A   1      40.921  30.129  34.621  1.00  0.00     0.049 A 
ATOM     52  C   UNL A   1      42.570  27.242  30.110  1.00  0.00     0.074 A 
ATOM     53  C   UNL A   1      41.672  29.971  35.772  1.00  0.00     0.029 A 
ATOM     54  N   UNL A   1      41.503  29.329  33.650  1.00  0.00    -0.354 N 
ATOM     55  N   UNL A   1      42.290  27.825  31.250  1.00  0.00    -0.248 NA
ATOM     56  C   UNL A   1      43.811  26.456  30.125  1.00  0.00     0.031 C 
ATOM     57  C   UNL A   1      42.736  29.110  35.481  1.00  0.00     0.029 A 
ATOM     58  C   UNL A   1      42.620  28.695  34.165  1.00  0.00     0.049 A 
ATOM     59  H   UNL A   1      41.170  29.227  32.729  1.00  0.00     0.167 HD
ATOM     60  C   UNL A   1      43.297  27.445  32.131  1.00  0.00     0.074 A 
ATOM     61  C   UNL A   1      44.185  26.569  31.392  1.00  0.00     0.031 C 
ATOM     62  C   UNL A   1      43.474  27.794  33.429  1.00  0.00     0.034 A 
BRANCH  49  63
ATOM     63  C   UNL A   1      39.320  31.872  35.529  1.00  0.00     0.023 A 
ATOM     64  C   UNL A   1      39.679  33.237  35.511  1.00  0.00     0.012 A 
ATOM     65  C   UNL A   1      38.527  31.384  36.586  1.00  0.00     0.148 A 
ATOM     66  C   UNL A   1      39.305  34.085  36.553  1.00  0.00     0.002 A 
ATOM     67  C   UNL A   1      38.114  32.248  37.593  1.00  0.00     0.091 A 
ATOM     68  F   UNL A   1      38.212  30.081  36.602  1.00  0.00    -0.205 F 
ATOM     69  C   UNL A   1      38.515  33.593  37.588  1.00  0.00     0.022 A 
BRANCH  67  70
ATOM     70  S   UNL A   1      37.024  31.727  38.923  1.00  0.00     0.127 S 
ATOM     71  O   UNL A   1      37.883  31.900  40.093  1.00  0.00    -0.237 OA
ATOM     72  O   UNL A   1      35.931  32.695  38.822  1.00  0.00    -0.237 OA
ATOM     73  O   UNL A   1      36.647  30.355  38.616  1.00  0.00    -0.744 OA
ENDBRANCH  67  70
ENDBRANCH  49  63
BRANCH  50  74
ATOM     74  C   UNL A   1      42.225  26.439  27.654  1.00  0.00     0.023 A 
ATOM     75  C   UNL A   1      43.073  27.025  26.695  1.00  0.00     0.012 A 
ATOM     76  C   UNL A   1      41.847  25.091  27.507  1.00  0.00     0.148 A 
ATOM     77  C   UNL A   1      43.517  26.291  25.594  1.00  0.00     0.002 A 
ATOM     78  C   UNL A   1      42.335  24.350  26.437  1.00  0.00     0.091 A 
ATOM     79  F   UNL A   1      41.038  24.555  28.432  1.00  0.00    -0.205 F 
ATOM     80  C   UNL A   1      43.156  24.953  25.471  1.00  0.00     0.022 A 
BRANCH  78  81
ATOM     81  S   UNL A   1      42.028  22.589  26.258  1.00  0.00     0.127 S 
ATOM     82  O   UNL A   1      42.654  22.052  27.463  1.00  0.00    -0.237 OA
ATOM     83  O   UNL A   1      40.566  22.541  26.247  1.00  0.00    -0.237 OA
ATOM     84  O   UNL A   1      42.655  22.204  25.001  1.00  0.00    -0.744 OA
ENDBRANCH  78  81
ENDBRANCH  50  74
BRANCH  62  85
ATOM     85  C   UNL A   1      44.651  27.199  34.158  1.00  0.00     0.023 A 
ATOM     86  C   UNL A   1      45.877  27.892  34.206  1.00  0.00     0.012 A 
ATOM     87  C   UNL A   1      44.517  25.983  34.858  1.00  0.00     0.148 A 
ATOM     88  C   UNL A   1      46.961  27.367  34.909  1.00  0.00     0.002 A 
ATOM     89  C   UNL A   1      45.584  25.494  35.601  1.00  0.00     0.091 A 
ATOM     90  F   UNL A   1      43.349  25.330  34.786  1.00  0.00    -0.205 F 
ATOM     91  C   UNL A   1      46.811  26.177  35.616  1.00  0.00     0.022 A 
BRANCH  89  92
ATOM     92  S   UNL A   1      45.452  24.024  36.625  1.00  0.00     0.127 S 
ATOM     93  O   UNL A   1      46.856  23.655  36.799  1.00  0.00    -0.237 OA
ATOM     94  O   UNL A   1      44.803  24.543  37.829  1.00  0.00    -0.237 OA
ATOM     95  O   UNL A   1      44.648  23.075  35.866  1.00  0.00    -0.744 OA
ENDBRANCH  89  92
ENDBRANCH  62  85
ENDBRANCH  36  37
ENDBRANCH  28  31
ENDBRANCH  26  27
ENDBRANCH   1  26
TORSDOF 16
ENDMDL
