MODEL 1
REMARK VINA RESULT:     -12.0      0.000      0.000
REMARK SMILES Cc1ccc(OCC(=O)Oc2ccc(C(=O)NCCCNC(=O)c3ccc(-c4c5nc(c(-c6cccc(S(=O)(=O)[O-])c6F)c6ccc([nH]6)c(-c6cccc(S(=O)(=O)[O-])c6F)c6nc(c(-c7cccc(S(=O)(=O)[O-])c7F)c7ccc4[nH]7)C=C6)C=C5)cc3)cc2)cc1C
REMARK SMILES IDX 18 1 17 2 15 3 16 4 14 6 11 7 12 8 88 9 13 10 87 11 10 12
REMARK SMILES IDX 8 13 9 14 7 15 6 16 5 17 1 18 2 19 3 20 90 21 4 22 89 23
REMARK SMILES IDX 91 24 19 25 20 26 21 27 22 28 23 30 24 31 25 32 86 33 26 34
REMARK SMILES IDX 85 35 27 36 28 37 29 38 79 39 30 40 84 41 78 42 80 43 31 44
REMARK SMILES IDX 83 45 77 46 76 47 32 49 64 50 44 51 63 52 45 53 48 54 62 55
REMARK SMILES IDX 81 56 46 57 47 58 61 60 82 61 49 62 33 63 34 64 42 65 35 66
REMARK SMILES IDX 37 67 43 68 36 69 38 70 39 71 40 72 41 73 65 74 66 75 74 76
REMARK SMILES IDX 67 77 69 78 75 79 68 80 70 81 71 82 72 83 73 84 50 85 51 86
REMARK SMILES IDX 59 87 52 88 54 89 60 90 53 91 55 92 56 93 57 94 58 95
REMARK H PARENT 17 5 21 29 80 48 48 59
REMARK Flexibility Score: inf
ROOT
ATOM      1  C   UNL A   1      31.281  30.476  25.349  1.00  0.00     0.118 C 
ENDROOT
BRANCH   1   2
ATOM      2  N   UNL A   1      30.301  30.482  24.275  1.00  0.00    -0.352 N 
ATOM      3  C   UNL A   1      30.124  29.638  23.206  1.00  0.00     0.251 C 
ATOM      4  O   UNL A   1      29.118  29.778  22.510  1.00  0.00    -0.269 OA
ATOM      5  H   UNL A   1      29.650  31.220  24.322  1.00  0.00     0.163 HD
BRANCH   3   6
ATOM      6  C   UNL A   1      31.067  28.531  22.900  1.00  0.00     0.040 A 
ATOM      7  C   UNL A   1      32.930  26.560  22.236  1.00  0.00     0.131 A 
ATOM      8  C   UNL A   1      33.360  27.872  22.419  1.00  0.00     0.048 A 
ATOM      9  C   UNL A   1      31.604  26.205  22.468  1.00  0.00     0.048 A 
ATOM     10  C   UNL A   1      32.425  28.857  22.747  1.00  0.00     0.017 A 
ATOM     11  C   UNL A   1      30.677  27.192  22.809  1.00  0.00     0.017 A 
BRANCH   7  12
ATOM     12  O   UNL A   1      33.892  25.605  21.885  1.00  0.00    -0.424 OA
BRANCH  12  13
ATOM     13  C   UNL A   1      33.716  24.348  22.459  1.00  0.00     0.349 C 
ATOM     14  O   UNL A   1      32.910  23.489  22.118  1.00  0.00    -0.248 OA
BRANCH  13  15
ATOM     15  C   UNL A   1      34.685  24.170  23.619  1.00  0.00     0.352 C 
BRANCH  15  16
ATOM     16  O   UNL A   1      34.111  23.893  24.886  1.00  0.00    -0.482 OA
BRANCH  16  17
ATOM     17  C   UNL A   1      33.357  24.868  25.476  1.00  0.00     0.120 A 
ATOM     18  C   UNL A   1      31.367  28.152  27.470  1.00  0.00     0.044 C 
ATOM     19  C   UNL A   1      32.083  27.042  26.754  1.00  0.00    -0.048 A 
ATOM     20  C   UNL A   1      31.414  25.826  26.548  1.00  0.00     0.007 A 
ATOM     21  C   UNL A   1      33.400  27.181  26.281  1.00  0.00    -0.045 A 
ATOM     22  C   UNL A   1      32.039  24.753  25.906  1.00  0.00     0.047 A 
ATOM     23  C   UNL A   1      34.020  26.085  25.654  1.00  0.00     0.050 A 
ATOM     24  C   UNL A   1      34.193  28.453  26.408  1.00  0.00     0.045 C 
ENDBRANCH  16  17
ENDBRANCH  15  16
ENDBRANCH  13  15
ENDBRANCH  12  13
ENDBRANCH   7  12
ENDBRANCH   3   6
ENDBRANCH   1   2
BRANCH   1  25
ATOM     25  C   UNL A   1      31.209  31.749  26.188  1.00  0.00     0.042 C 
BRANCH  25  26
ATOM     26  C   UNL A   1      32.472  32.026  26.998  1.00  0.00     0.118 C 
BRANCH  26  27
ATOM     27  N   UNL A   1      32.615  33.437  27.325  1.00  0.00    -0.352 N 
ATOM     28  C   UNL A   1      33.480  34.057  28.194  1.00  0.00     0.251 C 
ATOM     29  H   UNL A   1      31.999  34.041  26.850  1.00  0.00     0.163 HD
ATOM     30  O   UNL A   1      33.298  35.238  28.480  1.00  0.00    -0.269 OA
BRANCH  28  31
ATOM     31  C   UNL A   1      34.616  33.319  28.792  1.00  0.00     0.039 A 
ATOM     32  C   UNL A   1      35.918  33.712  28.469  1.00  0.00     0.014 A 
ATOM     33  C   UNL A   1      34.409  32.217  29.627  1.00  0.00     0.014 A 
ATOM     34  C   UNL A   1      37.009  33.032  29.018  1.00  0.00     0.010 A 
ATOM     35  C   UNL A   1      35.496  31.586  30.230  1.00  0.00     0.010 A 
ATOM     36  C   UNL A   1      36.807  31.977  29.922  1.00  0.00    -0.014 A 
BRANCH  36  37
ATOM     37  C   UNL A   1      37.951  31.274  30.558  1.00  0.00     0.031 A 
ATOM     38  C   UNL A   1      38.368  31.615  31.964  1.00  0.00     0.074 A 
ATOM     39  C   UNL A   1      38.670  30.390  29.839  1.00  0.00     0.049 A 
ATOM     40  N   UNL A   1      39.376  31.157  32.659  1.00  0.00    -0.248 NA
ATOM     41  C   UNL A   1      37.562  32.624  32.670  1.00  0.00     0.031 C 
ATOM     42  C   UNL A   1      38.417  30.037  28.440  1.00  0.00     0.029 A 
ATOM     43  N   UNL A   1      39.780  29.655  30.172  1.00  0.00    -0.354 N 
ATOM     44  C   UNL A   1      39.349  31.843  33.867  1.00  0.00     0.074 A 
ATOM     45  C   UNL A   1      38.245  32.776  33.797  1.00  0.00     0.031 C 
ATOM     46  C   UNL A   1      39.348  29.159  28.034  1.00  0.00     0.029 A 
ATOM     47  C   UNL A   1      40.276  28.907  29.131  1.00  0.00     0.049 A 
ATOM     48  H   UNL A   1      40.182  29.664  31.070  1.00  0.00     0.167 HD
ATOM     49  C   UNL A   1      40.148  31.691  34.951  1.00  0.00     0.034 A 
ATOM     50  C   UNL A   1      41.364  28.112  29.063  1.00  0.00     0.034 A 
ATOM     51  C   UNL A   1      41.220  30.735  35.032  1.00  0.00     0.049 A 
ATOM     52  C   UNL A   1      42.206  27.920  30.294  1.00  0.00     0.074 A 
ATOM     53  C   UNL A   1      42.035  30.444  36.111  1.00  0.00     0.029 A 
ATOM     54  N   UNL A   1      41.630  29.917  33.990  1.00  0.00    -0.354 N 
ATOM     55  N   UNL A   1      42.068  28.460  31.480  1.00  0.00    -0.248 NA
ATOM     56  C   UNL A   1      43.330  26.977  30.191  1.00  0.00     0.031 C 
ATOM     57  C   UNL A   1      42.948  29.460  35.717  1.00  0.00     0.029 A 
ATOM     58  C   UNL A   1      42.689  29.123  34.399  1.00  0.00     0.049 A 
ATOM     59  H   UNL A   1      41.227  29.902  33.092  1.00  0.00     0.167 HD
ATOM     60  C   UNL A   1      43.065  27.903  32.273  1.00  0.00     0.074 A 
ATOM     61  C   UNL A   1      43.785  26.964  31.437  1.00  0.00     0.031 C 
ATOM     62  C   UNL A   1      43.365  28.157  33.571  1.00  0.00     0.034 A 
BRANCH  49  63
ATOM     63  C   UNL A   1      39.851  32.542  36.159  1.00  0.00     0.023 A 
ATOM     64  C   UNL A   1      40.520  33.773  36.320  1.00  0.00     0.012 A 
ATOM     65  C   UNL A   1      38.888  32.151  37.111  1.00  0.00     0.148 A 
ATOM     66  C   UNL A   1      40.268  34.582  37.428  1.00  0.00     0.002 A 
ATOM     67  C   UNL A   1      38.610  32.984  38.190  1.00  0.00     0.091 A 
ATOM     68  F   UNL A   1      38.276  30.969  36.955  1.00  0.00    -0.205 F 
ATOM     69  C   UNL A   1      39.308  34.192  38.357  1.00  0.00     0.022 A 
BRANCH  67  70
ATOM     70  S   UNL A   1      37.334  32.610  39.397  1.00  0.00     0.127 S 
ATOM     71  O   UNL A   1      37.495  33.709  40.347  1.00  0.00    -0.237 OA
ATOM     72  O   UNL A   1      36.114  32.676  38.591  1.00  0.00    -0.237 OA
ATOM     73  O   UNL A   1      37.648  31.283  39.910  1.00  0.00    -0.744 OA
ENDBRANCH  67  70
ENDBRANCH  49  63
BRANCH  50  74
ATOM     74  C   UNL A   1      41.667  27.388  27.797  1.00  0.00     0.023 A 
ATOM     75  C   UNL A   1      42.151  28.108  26.688  1.00  0.00     0.012 A 
ATOM     76  C   UNL A   1      41.532  25.989  27.703  1.00  0.00     0.148 A 
ATOM     77  C   UNL A   1      42.474  27.451  25.499  1.00  0.00     0.002 A 
ATOM     78  C   UNL A   1      41.908  25.335  26.535  1.00  0.00     0.091 A 
ATOM     79  F   UNL A   1      41.060  25.325  28.767  1.00  0.00    -0.205 F 
ATOM     80  C   UNL A   1      42.363  26.065  25.426  1.00  0.00     0.022 A 
BRANCH  78  81
ATOM     81  S   UNL A   1      41.932  23.544  26.399  1.00  0.00     0.127 S 
ATOM     82  O   UNL A   1      42.707  23.164  27.576  1.00  0.00    -0.237 OA
ATOM     83  O   UNL A   1      40.507  23.216  26.466  1.00  0.00    -0.237 OA
ATOM     84  O   UNL A   1      42.552  23.256  25.110  1.00  0.00    -0.744 OA
ENDBRANCH  78  81
ENDBRANCH  50  74
BRANCH  62  85
ATOM     85  C   UNL A   1      44.508  27.391  34.185  1.00  0.00     0.023 A 
ATOM     86  C   UNL A   1      45.817  27.904  34.101  1.00  0.00     0.012 A 
ATOM     87  C   UNL A   1      44.273  26.206  34.909  1.00  0.00     0.148 A 
ATOM     88  C   UNL A   1      46.881  27.233  34.705  1.00  0.00     0.002 A 
ATOM     89  C   UNL A   1      45.330  25.567  35.547  1.00  0.00     0.091 A 
ATOM     90  F   UNL A   1      43.023  25.724  34.959  1.00  0.00    -0.205 F 
ATOM     91  C   UNL A   1      46.636  26.073  35.436  1.00  0.00     0.022 A 
BRANCH  89  92
ATOM     92  S   UNL A   1      45.094  24.122  36.587  1.00  0.00     0.127 S 
ATOM     93  O   UNL A   1      46.471  23.776  36.934  1.00  0.00    -0.237 OA
ATOM     94  O   UNL A   1      44.303  24.661  37.694  1.00  0.00    -0.237 OA
ATOM     95  O   UNL A   1      44.392  23.147  35.764  1.00  0.00    -0.744 OA
ENDBRANCH  89  92
ENDBRANCH  62  85
ENDBRANCH  36  37
ENDBRANCH  28  31
ENDBRANCH  26  27
ENDBRANCH  25  26
ENDBRANCH   1  25
TORSDOF 18
ENDMDL
MODEL 2
REMARK VINA RESULT:     -11.8      1.806      7.945
REMARK SMILES Cc1ccc(OCC(=O)Oc2ccc(C(=O)NCCCNC(=O)c3ccc(-c4c5nc(c(-c6cccc(S(=O)(=O)[O-])c6F)c6ccc([nH]6)c(-c6cccc(S(=O)(=O)[O-])c6F)c6nc(c(-c7cccc(S(=O)(=O)[O-])c7F)c7ccc4[nH]7)C=C6)C=C5)cc3)cc2)cc1C
REMARK SMILES IDX 18 1 17 2 15 3 16 4 14 6 11 7 12 8 88 9 13 10 87 11 10 12
REMARK SMILES IDX 8 13 9 14 7 15 6 16 5 17 1 18 2 19 3 20 90 21 4 22 89 23
REMARK SMILES IDX 91 24 19 25 20 26 21 27 22 28 23 30 24 31 25 32 86 33 26 34
REMARK SMILES IDX 85 35 27 36 28 37 29 38 79 39 30 40 84 41 78 42 80 43 31 44
REMARK SMILES IDX 83 45 77 46 76 47 32 49 64 50 44 51 63 52 45 53 48 54 62 55
REMARK SMILES IDX 81 56 46 57 47 58 61 60 82 61 49 62 33 63 34 64 42 65 35 66
REMARK SMILES IDX 37 67 43 68 36 69 38 70 39 71 40 72 41 73 65 74 66 75 74 76
REMARK SMILES IDX 67 77 69 78 75 79 68 80 70 81 71 82 72 83 73 84 50 85 51 86
REMARK SMILES IDX 59 87 52 88 54 89 60 90 53 91 55 92 56 93 57 94 58 95
REMARK H PARENT 17 5 21 29 80 48 48 59
REMARK Flexibility Score: inf
ROOT
ATOM      1  C   UNL A   1      31.416  30.622  26.296  1.00  0.00     0.118 C 
ENDROOT
BRANCH   1   2
ATOM      2  N   UNL A   1      31.272  30.279  24.890  1.00  0.00    -0.352 N 
ATOM      3  C   UNL A   1      31.032  29.077  24.272  1.00  0.00     0.251 C 
ATOM      4  O   UNL A   1      30.808  29.076  23.061  1.00  0.00    -0.269 OA
ATOM      5  H   UNL A   1      31.363  31.042  24.274  1.00  0.00     0.163 HD
BRANCH   3   6
ATOM      6  C   UNL A   1      30.972  27.794  25.020  1.00  0.00     0.040 A 
ATOM      7  C   UNL A   1      31.026  25.396  26.449  1.00  0.00     0.131 A 
ATOM      8  C   UNL A   1      31.897  26.422  26.804  1.00  0.00     0.048 A 
ATOM      9  C   UNL A   1      30.071  25.583  25.453  1.00  0.00     0.048 A 
ATOM     10  C   UNL A   1      31.871  27.620  26.084  1.00  0.00     0.017 A 
ATOM     11  C   UNL A   1      30.041  26.787  24.747  1.00  0.00     0.017 A 
BRANCH   7  12
ATOM     12  O   UNL A   1      31.097  24.202  27.178  1.00  0.00    -0.424 OA
BRANCH  12  13
ATOM     13  C   UNL A   1      31.174  23.043  26.411  1.00  0.00     0.349 C 
ATOM     14  O   UNL A   1      30.244  22.315  26.080  1.00  0.00    -0.248 OA
BRANCH  13  15
ATOM     15  C   UNL A   1      32.622  22.774  26.025  1.00  0.00     0.352 C 
BRANCH  15  16
ATOM     16  O   UNL A   1      32.938  22.870  24.646  1.00  0.00    -0.482 OA
BRANCH  16  17
ATOM     17  C   UNL A   1      33.197  24.109  24.131  1.00  0.00     0.120 A 
ATOM     18  C   UNL A   1      33.837  27.879  22.107  1.00  0.00     0.044 C 
ATOM     19  C   UNL A   1      33.571  26.571  22.798  1.00  0.00    -0.048 A 
ATOM     20  C   UNL A   1      34.340  26.228  23.919  1.00  0.00     0.007 A 
ATOM     21  C   UNL A   1      32.575  25.680  22.358  1.00  0.00    -0.045 A 
ATOM     22  C   UNL A   1      34.150  25.014  24.587  1.00  0.00     0.047 A 
ATOM     23  C   UNL A   1      32.409  24.456  23.031  1.00  0.00     0.050 A 
ATOM     24  C   UNL A   1      31.664  25.967  21.197  1.00  0.00     0.045 C 
ENDBRANCH  16  17
ENDBRANCH  15  16
ENDBRANCH  13  15
ENDBRANCH  12  13
ENDBRANCH   7  12
ENDBRANCH   3   6
ENDBRANCH   1   2
BRANCH   1  25
ATOM     25  C   UNL A   1      31.414  32.133  26.513  1.00  0.00     0.042 C 
BRANCH  25  26
ATOM     26  C   UNL A   1      32.654  32.654  27.234  1.00  0.00     0.118 C 
BRANCH  26  27
ATOM     27  N   UNL A   1      32.510  34.046  27.637  1.00  0.00    -0.352 N 
ATOM     28  C   UNL A   1      33.139  34.742  28.639  1.00  0.00     0.251 C 
ATOM     29  H   UNL A   1      31.863  34.568  27.109  1.00  0.00     0.163 HD
ATOM     30  O   UNL A   1      32.722  35.857  28.947  1.00  0.00    -0.269 OA
BRANCH  28  31
ATOM     31  C   UNL A   1      34.301  34.166  29.353  1.00  0.00     0.039 A 
ATOM     32  C   UNL A   1      34.069  33.345  30.461  1.00  0.00     0.014 A 
ATOM     33  C   UNL A   1      35.611  34.466  28.972  1.00  0.00     0.014 A 
ATOM     34  C   UNL A   1      35.148  32.789  31.155  1.00  0.00     0.010 A 
ATOM     35  C   UNL A   1      36.683  33.854  29.619  1.00  0.00     0.010 A 
ATOM     36  C   UNL A   1      36.464  33.020  30.725  1.00  0.00    -0.014 A 
BRANCH  36  37
ATOM     37  C   UNL A   1      37.623  32.397  31.416  1.00  0.00     0.031 A 
ATOM     38  C   UNL A   1      38.365  31.253  30.778  1.00  0.00     0.074 A 
ATOM     39  C   UNL A   1      37.954  32.804  32.657  1.00  0.00     0.049 A 
ATOM     40  N   UNL A   1      39.354  30.543  31.254  1.00  0.00    -0.248 NA
ATOM     41  C   UNL A   1      37.916  30.833  29.440  1.00  0.00     0.031 C 
ATOM     42  C   UNL A   1      37.259  33.846  33.415  1.00  0.00     0.029 A 
ATOM     43  N   UNL A   1      38.934  32.367  33.513  1.00  0.00    -0.354 N 
ATOM     44  C   UNL A   1      39.624  29.574  30.295  1.00  0.00     0.074 A 
ATOM     45  C   UNL A   1      38.670  29.764  29.224  1.00  0.00     0.031 C 
ATOM     46  C   UNL A   1      37.831  33.964  34.624  1.00  0.00     0.029 A 
ATOM     47  C   UNL A   1      38.912  32.991  34.737  1.00  0.00     0.049 A 
ATOM     48  H   UNL A   1      39.589  31.673  33.272  1.00  0.00     0.167 HD
ATOM     49  C   UNL A   1      40.597  28.631  30.288  1.00  0.00     0.034 A 
ATOM     50  C   UNL A   1      39.672  32.796  35.834  1.00  0.00     0.034 A 
ATOM     51  C   UNL A   1      41.570  28.471  31.337  1.00  0.00     0.049 A 
ATOM     52  C   UNL A   1      40.780  31.779  35.784  1.00  0.00     0.074 A 
ATOM     53  C   UNL A   1      42.646  27.604  31.388  1.00  0.00     0.029 A 
ATOM     54  N   UNL A   1      41.581  29.192  32.521  1.00  0.00    -0.354 N 
ATOM     55  N   UNL A   1      41.120  30.979  34.804  1.00  0.00    -0.248 NA
ATOM     56  C   UNL A   1      41.633  31.666  36.976  1.00  0.00     0.031 C 
ATOM     57  C   UNL A   1      43.299  27.789  32.611  1.00  0.00     0.029 A 
ATOM     58  C   UNL A   1      42.643  28.788  33.313  1.00  0.00     0.049 A 
ATOM     59  H   UNL A   1      40.931  29.891  32.763  1.00  0.00     0.167 HD
ATOM     60  C   UNL A   1      42.243  30.289  35.246  1.00  0.00     0.074 A 
ATOM     61  C   UNL A   1      42.539  30.784  36.575  1.00  0.00     0.031 C 
ATOM     62  C   UNL A   1      42.956  29.324  34.613  1.00  0.00     0.034 A 
BRANCH  49  63
ATOM     63  C   UNL A   1      40.692  27.738  29.078  1.00  0.00     0.023 A 
ATOM     64  C   UNL A   1      39.850  26.610  28.983  1.00  0.00     0.012 A 
ATOM     65  C   UNL A   1      41.576  28.030  28.020  1.00  0.00     0.148 A 
ATOM     66  C   UNL A   1      39.915  25.764  27.877  1.00  0.00     0.002 A 
ATOM     67  C   UNL A   1      41.603  27.205  26.900  1.00  0.00     0.091 A 
ATOM     68  F   UNL A   1      42.384  29.093  28.134  1.00  0.00    -0.205 F 
ATOM     69  C   UNL A   1      40.784  26.066  26.832  1.00  0.00     0.022 A 
BRANCH  67  70
ATOM     70  S   UNL A   1      42.630  27.554  25.467  1.00  0.00     0.127 S 
ATOM     71  O   UNL A   1      42.040  28.798  24.977  1.00  0.00    -0.237 OA
ATOM     72  O   UNL A   1      43.957  27.703  26.066  1.00  0.00    -0.237 OA
ATOM     73  O   UNL A   1      42.490  26.402  24.587  1.00  0.00    -0.744 OA
ENDBRANCH  67  70
ENDBRANCH  49  63
BRANCH  50  74
ATOM     74  C   UNL A   1      39.448  33.638  37.042  1.00  0.00     0.023 A 
ATOM     75  C   UNL A   1      39.866  34.982  37.036  1.00  0.00     0.012 A 
ATOM     76  C   UNL A   1      38.776  33.132  38.172  1.00  0.00     0.148 A 
ATOM     77  C   UNL A   1      39.640  35.802  38.143  1.00  0.00     0.002 A 
ATOM     78  C   UNL A   1      38.506  33.969  39.249  1.00  0.00     0.091 A 
ATOM     79  F   UNL A   1      38.396  31.847  38.162  1.00  0.00    -0.205 F 
ATOM     80  C   UNL A   1      38.951  35.300  39.243  1.00  0.00     0.022 A 
BRANCH  78  81
ATOM     81  S   UNL A   1      37.504  33.450  40.646  1.00  0.00     0.127 S 
ATOM     82  O   UNL A   1      36.242  33.103  39.999  1.00  0.00    -0.237 OA
ATOM     83  O   UNL A   1      38.267  32.311  41.159  1.00  0.00    -0.237 OA
ATOM     84  O   UNL A   1      37.460  34.596  41.547  1.00  0.00    -0.744 OA
ENDBRANCH  78  81
ENDBRANCH  50  74
BRANCH  62  85
ATOM     85  C   UNL A   1      44.147  28.749  35.335  1.00  0.00     0.023 A 
ATOM     86  C   UNL A   1      45.423  29.309  35.133  1.00  0.00     0.012 A 
ATOM     87  C   UNL A   1      43.988  27.706  36.269  1.00  0.00     0.148 A 
ATOM     88  C   UNL A   1      46.530  28.821  35.828  1.00  0.00     0.002 A 
ATOM     89  C   UNL A   1      45.086  27.256  36.992  1.00  0.00     0.091 A 
ATOM     90  F   UNL A   1      42.769  27.173  36.431  1.00  0.00    -0.205 F 
ATOM     91  C   UNL A   1      46.360  27.804  36.764  1.00  0.00     0.022 A 
BRANCH  89  92
ATOM     92  S   UNL A   1      44.944  26.016  38.285  1.00  0.00     0.127 S 
ATOM     93  O   UNL A   1      46.345  25.786  38.633  1.00  0.00    -0.237 OA
ATOM     94  O   UNL A   1      44.169  26.721  39.307  1.00  0.00    -0.237 OA
ATOM     95  O   UNL A   1      44.255  24.885  37.679  1.00  0.00    -0.744 OA
ENDBRANCH  89  92
ENDBRANCH  62  85
ENDBRANCH  36  37
ENDBRANCH  28  31
ENDBRANCH  26  27
ENDBRANCH  25  26
ENDBRANCH   1  25
TORSDOF 18
ENDMDL
MODEL 3
REMARK VINA RESULT:     -11.7      2.215      8.168
REMARK SMILES Cc1ccc(OCC(=O)Oc2ccc(C(=O)NCCCNC(=O)c3ccc(-c4c5nc(c(-c6cccc(S(=O)(=O)[O-])c6F)c6ccc([nH]6)c(-c6cccc(S(=O)(=O)[O-])c6F)c6nc(c(-c7cccc(S(=O)(=O)[O-])c7F)c7ccc4[nH]7)C=C6)C=C5)cc3)cc2)cc1C
REMARK SMILES IDX 18 1 17 2 15 3 16 4 14 6 11 7 12 8 88 9 13 10 87 11 10 12
REMARK SMILES IDX 8 13 9 14 7 15 6 16 5 17 1 18 2 19 3 20 90 21 4 22 89 23
REMARK SMILES IDX 91 24 19 25 20 26 21 27 22 28 23 30 24 31 25 32 86 33 26 34
REMARK SMILES IDX 85 35 27 36 28 37 29 38 79 39 30 40 84 41 78 42 80 43 31 44
REMARK SMILES IDX 83 45 77 46 76 47 32 49 64 50 44 51 63 52 45 53 48 54 62 55
REMARK SMILES IDX 81 56 46 57 47 58 61 60 82 61 49 62 33 63 34 64 42 65 35 66
REMARK SMILES IDX 37 67 43 68 36 69 38 70 39 71 40 72 41 73 65 74 66 75 74 76
REMARK SMILES IDX 67 77 69 78 75 79 68 80 70 81 71 82 72 83 73 84 50 85 51 86
REMARK SMILES IDX 59 87 52 88 54 89 60 90 53 91 55 92 56 93 57 94 58 95
REMARK H PARENT 17 5 21 29 80 48 48 59
REMARK Flexibility Score: inf
ROOT
ATOM      1  C   UNL A   1      31.843  30.846  26.510  1.00  0.00     0.118 C 
ENDROOT
BRANCH   1   2
ATOM      2  N   UNL A   1      33.148  30.396  26.966  1.00  0.00    -0.352 N 
ATOM      3  C   UNL A   1      33.732  29.154  26.953  1.00  0.00     0.251 C 
ATOM      4  O   UNL A   1      34.918  29.061  27.270  1.00  0.00    -0.269 OA
ATOM      5  H   UNL A   1      33.712  31.106  27.351  1.00  0.00     0.163 HD
BRANCH   3   6
ATOM      6  C   UNL A   1      33.004  27.935  26.514  1.00  0.00     0.040 A 
ATOM      7  C   UNL A   1      31.561  25.642  25.838  1.00  0.00     0.131 A 
ATOM      8  C   UNL A   1      30.982  26.591  26.675  1.00  0.00     0.048 A 
ATOM      9  C   UNL A   1      32.811  25.864  25.264  1.00  0.00     0.048 A 
ATOM     10  C   UNL A   1      31.708  27.736  27.015  1.00  0.00     0.017 A 
ATOM     11  C   UNL A   1      33.525  27.017  25.597  1.00  0.00     0.017 A 
BRANCH   7  12
ATOM     12  O   UNL A   1      30.813  24.497  25.538  1.00  0.00    -0.424 OA
BRANCH  12  13
ATOM     13  C   UNL A   1      30.621  23.619  26.602  1.00  0.00     0.349 C 
ATOM     14  O   UNL A   1      29.637  23.551  27.332  1.00  0.00    -0.248 OA
BRANCH  13  15
ATOM     15  C   UNL A   1      31.840  22.722  26.760  1.00  0.00     0.352 C 
BRANCH  15  16
ATOM     16  O   UNL A   1      32.245  21.996  25.610  1.00  0.00    -0.482 OA
BRANCH  16  17
ATOM     17  C   UNL A   1      33.569  21.687  25.479  1.00  0.00     0.120 A 
ATOM     18  C   UNL A   1      37.835  21.156  24.989  1.00  0.00     0.044 C 
ATOM     19  C   UNL A   1      36.362  21.373  25.190  1.00  0.00    -0.048 A 
ATOM     20  C   UNL A   1      35.485  20.298  24.987  1.00  0.00     0.007 A 
ATOM     21  C   UNL A   1      35.833  22.618  25.578  1.00  0.00    -0.045 A 
ATOM     22  C   UNL A   1      34.103  20.448  25.140  1.00  0.00     0.047 A 
ATOM     23  C   UNL A   1      34.439  22.756  25.709  1.00  0.00     0.050 A 
ATOM     24  C   UNL A   1      36.684  23.823  25.866  1.00  0.00     0.045 C 
ENDBRANCH  16  17
ENDBRANCH  15  16
ENDBRANCH  13  15
ENDBRANCH  12  13
ENDBRANCH   7  12
ENDBRANCH   3   6
ENDBRANCH   1   2
BRANCH   1  25
ATOM     25  C   UNL A   1      31.598  32.313  26.855  1.00  0.00     0.042 C 
BRANCH  25  26
ATOM     26  C   UNL A   1      32.871  33.096  27.159  1.00  0.00     0.118 C 
BRANCH  26  27
ATOM     27  N   UNL A   1      32.587  34.397  27.749  1.00  0.00    -0.352 N 
ATOM     28  C   UNL A   1      33.104  34.983  28.879  1.00  0.00     0.251 C 
ATOM     29  H   UNL A   1      31.925  34.940  27.263  1.00  0.00     0.163 HD
ATOM     30  O   UNL A   1      32.577  36.003  29.318  1.00  0.00    -0.269 OA
BRANCH  28  31
ATOM     31  C   UNL A   1      34.274  34.399  29.572  1.00  0.00     0.039 A 
ATOM     32  C   UNL A   1      34.068  33.694  30.762  1.00  0.00     0.014 A 
ATOM     33  C   UNL A   1      35.572  34.580  29.087  1.00  0.00     0.014 A 
ATOM     34  C   UNL A   1      35.155  33.134  31.439  1.00  0.00     0.010 A 
ATOM     35  C   UNL A   1      36.646  33.961  29.724  1.00  0.00     0.010 A 
ATOM     36  C   UNL A   1      36.452  33.242  30.912  1.00  0.00    -0.014 A 
BRANCH  36  37
ATOM     37  C   UNL A   1      37.615  32.610  31.587  1.00  0.00     0.031 A 
ATOM     38  C   UNL A   1      38.332  31.454  30.944  1.00  0.00     0.074 A 
ATOM     39  C   UNL A   1      37.972  33.022  32.819  1.00  0.00     0.049 A 
ATOM     40  N   UNL A   1      39.321  30.735  31.408  1.00  0.00    -0.248 NA
ATOM     41  C   UNL A   1      37.854  31.030  29.617  1.00  0.00     0.031 C 
ATOM     42  C   UNL A   1      37.304  34.077  33.582  1.00  0.00     0.029 A 
ATOM     43  N   UNL A   1      38.962  32.579  33.661  1.00  0.00    -0.354 N 
ATOM     44  C   UNL A   1      39.563  29.756  30.451  1.00  0.00     0.074 A 
ATOM     45  C   UNL A   1      38.592  29.951  29.396  1.00  0.00     0.031 C 
ATOM     46  C   UNL A   1      37.898  34.196  34.780  1.00  0.00     0.029 A 
ATOM     47  C   UNL A   1      38.969  33.211  34.881  1.00  0.00     0.049 A 
ATOM     48  H   UNL A   1      39.605  31.876  33.413  1.00  0.00     0.167 HD
ATOM     49  C   UNL A   1      40.524  28.802  30.434  1.00  0.00     0.034 A 
ATOM     50  C   UNL A   1      39.746  33.014  35.966  1.00  0.00     0.034 A 
ATOM     51  C   UNL A   1      41.513  28.637  31.467  1.00  0.00     0.049 A 
ATOM     52  C   UNL A   1      40.840  31.984  35.904  1.00  0.00     0.074 A 
ATOM     53  C   UNL A   1      42.579  27.757  31.505  1.00  0.00     0.029 A 
ATOM     54  N   UNL A   1      41.553  29.366  32.645  1.00  0.00    -0.354 N 
ATOM     55  N   UNL A   1      41.153  31.173  34.923  1.00  0.00    -0.248 NA
ATOM     56  C   UNL A   1      41.712  31.868  37.082  1.00  0.00     0.031 C 
ATOM     57  C   UNL A   1      43.256  27.943  32.715  1.00  0.00     0.029 A 
ATOM     58  C   UNL A   1      42.624  28.954  33.421  1.00  0.00     0.049 A 
ATOM     59  H   UNL A   1      40.916  30.074  32.894  1.00  0.00     0.167 HD
ATOM     60  C   UNL A   1      42.276  30.473  35.350  1.00  0.00     0.074 A 
ATOM     61  C   UNL A   1      42.601  30.973  36.671  1.00  0.00     0.031 C 
ATOM     62  C   UNL A   1      42.966  29.495  34.712  1.00  0.00     0.034 A 
BRANCH  49  63
ATOM     63  C   UNL A   1      40.587  27.899  29.228  1.00  0.00     0.023 A 
ATOM     64  C   UNL A   1      39.716  26.794  29.145  1.00  0.00     0.012 A 
ATOM     65  C   UNL A   1      41.471  28.162  28.163  1.00  0.00     0.148 A 
ATOM     66  C   UNL A   1      39.750  25.939  28.044  1.00  0.00     0.002 A 
ATOM     67  C   UNL A   1      41.469  27.331  27.047  1.00  0.00     0.091 A 
ATOM     68  F   UNL A   1      42.308  29.204  28.265  1.00  0.00    -0.205 F 
ATOM     69  C   UNL A   1      40.620  26.213  26.992  1.00  0.00     0.022 A 
BRANCH  67  70
ATOM     70  S   UNL A   1      42.494  27.644  25.606  1.00  0.00     0.127 S 
ATOM     71  O   UNL A   1      43.829  27.700  26.199  1.00  0.00    -0.237 OA
ATOM     72  O   UNL A   1      42.243  26.460  24.782  1.00  0.00    -0.237 OA
ATOM     73  O   UNL A   1      42.007  28.892  25.034  1.00  0.00    -0.744 OA
ENDBRANCH  67  70
ENDBRANCH  49  63
BRANCH  50  74
ATOM     74  C   UNL A   1      39.553  33.867  37.172  1.00  0.00     0.023 A 
ATOM     75  C   UNL A   1      39.978  35.208  37.147  1.00  0.00     0.012 A 
ATOM     76  C   UNL A   1      38.902  33.373  38.321  1.00  0.00     0.148 A 
ATOM     77  C   UNL A   1      39.781  36.038  38.252  1.00  0.00     0.002 A 
ATOM     78  C   UNL A   1      38.660  34.221  39.396  1.00  0.00     0.091 A 
ATOM     79  F   UNL A   1      38.514  32.091  38.328  1.00  0.00    -0.205 F 
ATOM     80  C   UNL A   1      39.113  35.549  39.370  1.00  0.00     0.022 A 
BRANCH  78  81
ATOM     81  S   UNL A   1      37.685  33.718  40.819  1.00  0.00     0.127 S 
ATOM     82  O   UNL A   1      38.607  32.825  41.513  1.00  0.00    -0.237 OA
ATOM     83  O   UNL A   1      37.445  34.998  41.488  1.00  0.00    -0.237 OA
ATOM     84  O   UNL A   1      36.485  33.094  40.273  1.00  0.00    -0.744 OA
ENDBRANCH  78  81
ENDBRANCH  50  74
BRANCH  62  85
ATOM     85  C   UNL A   1      44.162  28.911  35.417  1.00  0.00     0.023 A 
ATOM     86  C   UNL A   1      45.437  29.476  35.216  1.00  0.00     0.012 A 
ATOM     87  C   UNL A   1      44.012  27.852  36.335  1.00  0.00     0.148 A 
ATOM     88  C   UNL A   1      46.549  28.979  35.896  1.00  0.00     0.002 A 
ATOM     89  C   UNL A   1      45.115  27.393  37.044  1.00  0.00     0.091 A 
ATOM     90  F   UNL A   1      42.794  27.315  36.496  1.00  0.00    -0.205 F 
ATOM     91  C   UNL A   1      46.386  27.947  36.817  1.00  0.00     0.022 A 
BRANCH  89  92
ATOM     92  S   UNL A   1      44.983  26.132  38.317  1.00  0.00     0.127 S 
ATOM     93  O   UNL A   1      46.358  26.057  38.807  1.00  0.00    -0.237 OA
ATOM     94  O   UNL A   1      44.034  26.734  39.254  1.00  0.00    -0.237 OA
ATOM     95  O   UNL A   1      44.491  24.936  37.646  1.00  0.00    -0.744 OA
ENDBRANCH  89  92
ENDBRANCH  62  85
ENDBRANCH  36  37
ENDBRANCH  28  31
ENDBRANCH  26  27
ENDBRANCH  25  26
ENDBRANCH   1  25
TORSDOF 18
ENDMDL
