MODEL 1
REMARK VINA RESULT:     -13.2      0.000      0.000
REMARK SMILES Cc1ccc(-c2cc([C@@H](C)C(=O)NCCCNC(=O)c3ccc(-c4c5nc(c(-c6cccc(S(=O)(=O)[O-])c6F)c6ccc([nH]6)c(-c6cccc(S(=O)(=O)[O-])c6F)c6nc(c(-c7cccc(S(=O)(=O)[O-])c7F)c7ccc4[nH]7)C=C6)C=C5)cc3)ccc2C[C@H]2CCCC2=O)cc1
REMARK SMILES IDX 15 1 14 2 13 3 11 4 12 5 9 7 10 8 8 9 6 10 7 11 85 12 84 13
REMARK SMILES IDX 83 14 5 15 1 16 2 17 3 18 94 19 4 20 93 21 86 22 87 23 88 24
REMARK SMILES IDX 91 25 89 26 90 27 92 28 16 29 17 30 18 31 19 33 20 34 21 35
REMARK SMILES IDX 82 36 22 37 81 38 23 39 24 40 25 41 75 42 26 43 80 44 74 45
REMARK SMILES IDX 76 46 27 47 79 48 73 49 72 50 28 52 60 53 40 54 59 55 41 56
REMARK SMILES IDX 44 57 58 58 77 59 42 60 43 61 57 63 78 64 45 65 29 66 30 67
REMARK SMILES IDX 38 68 31 69 33 70 39 71 32 72 34 73 35 74 36 75 37 76 61 77
REMARK SMILES IDX 62 78 70 79 63 80 65 81 71 82 64 83 66 84 67 85 68 86 69 87
REMARK SMILES IDX 46 88 47 89 55 90 48 91 50 92 56 93 49 94 51 95 52 96 53 97
REMARK SMILES IDX 54 98
REMARK H PARENT 13 6 17 32 76 51 44 62
REMARK Flexibility Score: inf
ROOT
ATOM      1  C   UNL A   1      33.090  30.966  27.300  1.00  0.00     0.042 C 
ENDROOT
BRANCH   1   2
ATOM      2  C   UNL A   1      32.276  29.688  27.153  1.00  0.00     0.117 C 
BRANCH   2   3
ATOM      3  N   UNL A   1      31.527  29.657  25.907  1.00  0.00    -0.356 N 
ATOM      4  C   UNL A   1      31.829  29.192  24.662  1.00  0.00     0.227 C 
ATOM      5  O   UNL A   1      30.985  29.400  23.781  1.00  0.00    -0.274 OA
ATOM      6  H   UNL A   1      30.626  30.049  25.976  1.00  0.00     0.163 HD
BRANCH   4   7
ATOM      7  C   UNL A   1      33.122  28.435  24.300  1.00  0.00     0.105 C 
ATOM      8  C   UNL A   1      33.883  29.001  23.104  1.00  0.00     0.023 C 
BRANCH   7   9
ATOM      9  C   UNL A   1      32.976  26.919  24.330  1.00  0.00    -0.035 A 
ATOM     10  C   UNL A   1      33.925  24.706  24.861  1.00  0.00    -0.015 A 
ATOM     11  C   UNL A   1      34.045  26.110  24.752  1.00  0.00     0.013 A 
ATOM     12  C   UNL A   1      32.647  24.123  24.716  1.00  0.00    -0.039 A 
ATOM     13  C   UNL A   1      31.610  24.915  24.205  1.00  0.00     0.004 A 
ATOM     14  C   UNL A   1      31.801  26.274  23.950  1.00  0.00     0.005 A 
BRANCH  10  15
ATOM     15  C   UNL A   1      35.148  23.887  24.949  1.00  0.00    -0.018 A 
ATOM     16  C   UNL A   1      38.689  21.448  25.437  1.00  0.00     0.044 C 
ATOM     17  C   UNL A   1      37.455  22.278  25.253  1.00  0.00    -0.051 A 
ATOM     18  C   UNL A   1      36.774  22.748  26.377  1.00  0.00     0.004 A 
ATOM     19  C   UNL A   1      36.973  22.606  23.979  1.00  0.00     0.004 A 
ATOM     20  C   UNL A   1      35.630  23.528  26.223  1.00  0.00     0.009 A 
ATOM     21  C   UNL A   1      35.828  23.401  23.828  1.00  0.00     0.009 A 
ENDBRANCH  10  15
BRANCH  12  22
ATOM     22  C   UNL A   1      32.344  22.679  25.072  1.00  0.00     0.047 C 
BRANCH  22  23
ATOM     23  C   UNL A   1      33.145  21.595  24.334  1.00  0.00     0.060 C 
ATOM     24  C   UNL A   1      33.656  20.410  25.161  1.00  0.00     0.012 C 
ATOM     25  C   UNL A   1      32.352  20.912  23.244  1.00  0.00     0.136 C 
ATOM     26  C   UNL A   1      32.720  19.245  24.860  1.00  0.00     0.009 C 
ATOM     27  C   UNL A   1      32.337  19.416  23.398  1.00  0.00     0.076 C 
ATOM     28  O   UNL A   1      31.819  21.508  22.316  1.00  0.00    -0.299 OA
ENDBRANCH  22  23
ENDBRANCH  12  22
ENDBRANCH   7   9
ENDBRANCH   4   7
ENDBRANCH   2   3
ENDBRANCH   1   2
BRANCH   1  29
ATOM     29  C   UNL A   1      34.559  30.839  26.935  1.00  0.00     0.118 C 
BRANCH  29  30
ATOM     30  N   UNL A   1      35.405  31.664  27.797  1.00  0.00    -0.352 N 
ATOM     31  C   UNL A   1      36.536  31.320  28.515  1.00  0.00     0.251 C 
ATOM     32  H   UNL A   1      35.127  32.605  27.880  1.00  0.00     0.163 HD
ATOM     33  O   UNL A   1      37.100  32.165  29.203  1.00  0.00    -0.269 OA
BRANCH  31  34
ATOM     34  C   UNL A   1      37.102  29.968  28.334  1.00  0.00     0.039 A 
ATOM     35  C   UNL A   1      37.161  29.129  29.450  1.00  0.00     0.014 A 
ATOM     36  C   UNL A   1      37.820  29.668  27.180  1.00  0.00     0.014 A 
ATOM     37  C   UNL A   1      38.149  28.151  29.510  1.00  0.00     0.010 A 
ATOM     38  C   UNL A   1      38.866  28.774  27.276  1.00  0.00     0.010 A 
ATOM     39  C   UNL A   1      39.073  28.072  28.470  1.00  0.00    -0.014 A 
BRANCH  39  40
ATOM     40  C   UNL A   1      40.363  27.407  28.587  1.00  0.00     0.031 A 
ATOM     41  C   UNL A   1      40.492  25.952  28.393  1.00  0.00     0.074 A 
ATOM     42  C   UNL A   1      41.477  28.160  28.731  1.00  0.00     0.049 A 
ATOM     43  N   UNL A   1      41.475  25.252  28.851  1.00  0.00    -0.248 NA
ATOM     44  C   UNL A   1      39.497  25.168  27.674  1.00  0.00     0.031 C 
ATOM     45  C   UNL A   1      42.853  27.749  28.474  1.00  0.00     0.029 A 
ATOM     46  N   UNL A   1      41.601  29.409  29.350  1.00  0.00    -0.354 N 
ATOM     47  C   UNL A   1      41.390  24.003  28.277  1.00  0.00     0.074 A 
ATOM     48  C   UNL A   1      40.109  23.981  27.605  1.00  0.00     0.031 C 
ATOM     49  C   UNL A   1      43.677  28.557  29.157  1.00  0.00     0.029 A 
ATOM     50  C   UNL A   1      42.850  29.404  29.998  1.00  0.00     0.049 A 
ATOM     51  H   UNL A   1      40.946  30.143  29.336  1.00  0.00     0.167 HD
ATOM     52  C   UNL A   1      42.474  23.178  28.289  1.00  0.00     0.034 A 
ATOM     53  C   UNL A   1      43.030  29.621  31.332  1.00  0.00     0.034 A 
ATOM     54  C   UNL A   1      43.615  23.792  28.974  1.00  0.00     0.049 A 
ATOM     55  C   UNL A   1      43.793  28.512  32.033  1.00  0.00     0.074 A 
ATOM     56  C   UNL A   1      44.715  24.499  28.514  1.00  0.00     0.029 A 
ATOM     57  N   UNL A   1      43.590  23.957  30.351  1.00  0.00    -0.354 N 
ATOM     58  N   UNL A   1      44.138  27.389  31.469  1.00  0.00    -0.248 NA
ATOM     59  C   UNL A   1      44.174  28.558  33.443  1.00  0.00     0.031 C 
ATOM     60  C   UNL A   1      45.326  25.137  29.622  1.00  0.00     0.029 A 
ATOM     61  C   UNL A   1      44.604  24.811  30.757  1.00  0.00     0.049 A 
ATOM     62  H   UNL A   1      42.942  23.529  30.957  1.00  0.00     0.167 HD
ATOM     63  C   UNL A   1      44.586  26.513  32.426  1.00  0.00     0.074 A 
ATOM     64  C   UNL A   1      44.690  27.329  33.622  1.00  0.00     0.031 C 
ATOM     65  C   UNL A   1      44.742  25.178  32.162  1.00  0.00     0.034 A 
BRANCH  52  66
ATOM     66  C   UNL A   1      42.610  21.980  27.371  1.00  0.00     0.023 A 
ATOM     67  C   UNL A   1      41.857  20.826  27.683  1.00  0.00     0.012 A 
ATOM     68  C   UNL A   1      43.480  21.878  26.265  1.00  0.00     0.148 A 
ATOM     69  C   UNL A   1      42.046  19.607  27.026  1.00  0.00     0.002 A 
ATOM     70  C   UNL A   1      43.732  20.642  25.662  1.00  0.00     0.091 A 
ATOM     71  F   UNL A   1      44.017  22.989  25.743  1.00  0.00    -0.205 F 
ATOM     72  C   UNL A   1      43.018  19.502  26.045  1.00  0.00     0.022 A 
BRANCH  70  73
ATOM     73  S   UNL A   1      45.071  20.410  24.482  1.00  0.00     0.127 S 
ATOM     74  O   UNL A   1      44.618  21.203  23.336  1.00  0.00    -0.237 OA
ATOM     75  O   UNL A   1      46.220  20.968  25.190  1.00  0.00    -0.237 OA
ATOM     76  O   UNL A   1      45.118  18.976  24.218  1.00  0.00    -0.744 OA
ENDBRANCH  70  73
ENDBRANCH  52  66
BRANCH  53  77
ATOM     77  C   UNL A   1      41.963  30.448  31.961  1.00  0.00     0.023 A 
ATOM     78  C   UNL A   1      41.876  31.803  31.566  1.00  0.00     0.012 A 
ATOM     79  C   UNL A   1      40.861  29.855  32.602  1.00  0.00     0.148 A 
ATOM     80  C   UNL A   1      40.680  32.512  31.694  1.00  0.00     0.002 A 
ATOM     81  C   UNL A   1      39.670  30.568  32.722  1.00  0.00     0.091 A 
ATOM     82  F   UNL A   1      40.964  28.583  33.009  1.00  0.00    -0.205 F 
ATOM     83  C   UNL A   1      39.568  31.882  32.240  1.00  0.00     0.022 A 
BRANCH  81  84
ATOM     84  S   UNL A   1      38.181  29.789  33.361  1.00  0.00     0.127 S 
ATOM     85  O   UNL A   1      38.382  28.401  32.960  1.00  0.00    -0.237 OA
ATOM     86  O   UNL A   1      38.289  30.038  34.798  1.00  0.00    -0.237 OA
ATOM     87  O   UNL A   1      37.090  30.504  32.716  1.00  0.00    -0.744 OA
ENDBRANCH  81  84
ENDBRANCH  53  77
BRANCH  65  88
ATOM     88  C   UNL A   1      44.995  24.085  33.188  1.00  0.00     0.023 A 
ATOM     89  C   UNL A   1      44.073  23.051  33.439  1.00  0.00     0.012 A 
ATOM     90  C   UNL A   1      46.256  23.975  33.833  1.00  0.00     0.148 A 
ATOM     91  C   UNL A   1      44.360  21.995  34.313  1.00  0.00     0.002 A 
ATOM     92  C   UNL A   1      46.576  22.866  34.615  1.00  0.00     0.091 A 
ATOM     93  F   UNL A   1      47.160  24.959  33.708  1.00  0.00    -0.205 F 
ATOM     94  C   UNL A   1      45.620  21.886  34.882  1.00  0.00     0.022 A 
BRANCH  92  95
ATOM     95  S   UNL A   1      48.269  22.595  35.162  1.00  0.00     0.127 S 
ATOM     96  O   UNL A   1      49.035  22.884  33.953  1.00  0.00    -0.237 OA
ATOM     97  O   UNL A   1      48.425  23.585  36.230  1.00  0.00    -0.237 OA
ATOM     98  O   UNL A   1      48.283  21.215  35.626  1.00  0.00    -0.744 OA
ENDBRANCH  92  95
ENDBRANCH  65  88
ENDBRANCH  39  40
ENDBRANCH  31  34
ENDBRANCH  29  30
ENDBRANCH   1  29
TORSDOF 17
ENDMDL
MODEL 2
REMARK VINA RESULT:     -13.2      4.036     10.219
REMARK SMILES Cc1ccc(-c2cc([C@@H](C)C(=O)NCCCNC(=O)c3ccc(-c4c5nc(c(-c6cccc(S(=O)(=O)[O-])c6F)c6ccc([nH]6)c(-c6cccc(S(=O)(=O)[O-])c6F)c6nc(c(-c7cccc(S(=O)(=O)[O-])c7F)c7ccc4[nH]7)C=C6)C=C5)cc3)ccc2C[C@H]2CCCC2=O)cc1
REMARK SMILES IDX 15 1 14 2 13 3 11 4 12 5 9 7 10 8 8 9 6 10 7 11 85 12 84 13
REMARK SMILES IDX 83 14 5 15 1 16 2 17 3 18 94 19 4 20 93 21 86 22 87 23 88 24
REMARK SMILES IDX 91 25 89 26 90 27 92 28 16 29 17 30 18 31 19 33 20 34 21 35
REMARK SMILES IDX 82 36 22 37 81 38 23 39 24 40 25 41 75 42 26 43 80 44 74 45
REMARK SMILES IDX 76 46 27 47 79 48 73 49 72 50 28 52 60 53 40 54 59 55 41 56
REMARK SMILES IDX 44 57 58 58 77 59 42 60 43 61 57 63 78 64 45 65 29 66 30 67
REMARK SMILES IDX 38 68 31 69 33 70 39 71 32 72 34 73 35 74 36 75 37 76 61 77
REMARK SMILES IDX 62 78 70 79 63 80 65 81 71 82 64 83 66 84 67 85 68 86 69 87
REMARK SMILES IDX 46 88 47 89 55 90 48 91 50 92 56 93 49 94 51 95 52 96 53 97
REMARK SMILES IDX 54 98
REMARK H PARENT 13 6 17 32 76 51 44 62
REMARK Flexibility Score: inf
ROOT
ATOM      1  C   UNL A   1      38.887  20.733  25.825  1.00  0.00     0.042 C 
ENDROOT
BRANCH   1   2
ATOM      2  C   UNL A   1      37.785  20.360  24.844  1.00  0.00     0.117 C 
BRANCH   2   3
ATOM      3  N   UNL A   1      36.461  20.523  25.422  1.00  0.00    -0.356 N 
ATOM      4  C   UNL A   1      35.707  21.623  25.702  1.00  0.00     0.227 C 
ATOM      5  O   UNL A   1      34.634  21.419  26.284  1.00  0.00    -0.274 OA
ATOM      6  H   UNL A   1      36.023  19.673  25.658  1.00  0.00     0.163 HD
BRANCH   4   7
ATOM      7  C   UNL A   1      36.099  23.069  25.336  1.00  0.00     0.105 C 
ATOM      8  C   UNL A   1      36.812  23.840  26.444  1.00  0.00     0.023 C 
BRANCH   7   9
ATOM      9  C   UNL A   1      35.007  23.834  24.598  1.00  0.00    -0.035 A 
ATOM     10  C   UNL A   1      33.772  25.935  24.225  1.00  0.00    -0.015 A 
ATOM     11  C   UNL A   1      34.727  25.170  24.932  1.00  0.00     0.013 A 
ATOM     12  C   UNL A   1      33.218  25.399  23.042  1.00  0.00    -0.039 A 
ATOM     13  C   UNL A   1      33.425  24.040  22.768  1.00  0.00     0.004 A 
ATOM     14  C   UNL A   1      34.250  23.260  23.581  1.00  0.00     0.005 A 
BRANCH  10  15
ATOM     15  C   UNL A   1      33.261  27.179  24.829  1.00  0.00    -0.018 A 
ATOM     16  C   UNL A   1      31.731  30.712  26.805  1.00  0.00     0.044 C 
ATOM     17  C   UNL A   1      32.281  29.499  26.117  1.00  0.00    -0.051 A 
ATOM     18  C   UNL A   1      32.123  28.246  26.712  1.00  0.00     0.004 A 
ATOM     19  C   UNL A   1      32.938  29.588  24.884  1.00  0.00     0.004 A 
ATOM     20  C   UNL A   1      32.620  27.108  26.081  1.00  0.00     0.009 A 
ATOM     21  C   UNL A   1      33.427  28.439  24.246  1.00  0.00     0.009 A 
ENDBRANCH  10  15
BRANCH  12  22
ATOM     22  C   UNL A   1      32.398  26.216  22.060  1.00  0.00     0.047 C 
BRANCH  22  23
ATOM     23  C   UNL A   1      30.870  26.147  22.200  1.00  0.00     0.060 C 
ATOM     24  C   UNL A   1      30.300  25.177  23.242  1.00  0.00     0.012 C 
ATOM     25  C   UNL A   1      30.252  27.464  22.611  1.00  0.00     0.136 C 
ATOM     26  C   UNL A   1      29.890  26.029  24.438  1.00  0.00     0.009 C 
ATOM     27  C   UNL A   1      29.392  27.335  23.838  1.00  0.00     0.076 C 
ATOM     28  O   UNL A   1      30.402  28.508  21.988  1.00  0.00    -0.299 OA
ENDBRANCH  22  23
ENDBRANCH  12  22
ENDBRANCH   7   9
ENDBRANCH   4   7
ENDBRANCH   2   3
ENDBRANCH   1   2
BRANCH   1  29
ATOM     29  C   UNL A   1      39.387  22.164  25.718  1.00  0.00     0.118 C 
BRANCH  29  30
ATOM     30  N   UNL A   1      40.708  22.324  26.324  1.00  0.00    -0.352 N 
ATOM     31  C   UNL A   1      41.281  23.436  26.913  1.00  0.00     0.251 C 
ATOM     32  H   UNL A   1      41.275  21.519  26.310  1.00  0.00     0.163 HD
ATOM     33  O   UNL A   1      42.425  23.370  27.354  1.00  0.00    -0.269 OA
BRANCH  31  34
ATOM     34  C   UNL A   1      40.449  24.641  27.105  1.00  0.00     0.039 A 
ATOM     35  C   UNL A   1      40.727  25.760  26.316  1.00  0.00     0.014 A 
ATOM     36  C   UNL A   1      39.636  24.748  28.230  1.00  0.00     0.014 A 
ATOM     37  C   UNL A   1      40.426  27.026  26.807  1.00  0.00     0.010 A 
ATOM     38  C   UNL A   1      39.430  26.000  28.769  1.00  0.00     0.010 A 
ATOM     39  C   UNL A   1      39.895  27.134  28.091  1.00  0.00    -0.014 A 
BRANCH  39  40
ATOM     40  C   UNL A   1      39.919  28.362  28.872  1.00  0.00     0.031 A 
ATOM     41  C   UNL A   1      38.934  29.434  28.642  1.00  0.00     0.074 A 
ATOM     42  C   UNL A   1      40.768  28.454  29.921  1.00  0.00     0.049 A 
ATOM     43  N   UNL A   1      39.118  30.663  28.991  1.00  0.00    -0.248 NA
ATOM     44  C   UNL A   1      37.662  29.197  27.974  1.00  0.00     0.031 C 
ATOM     45  C   UNL A   1      40.685  29.387  31.039  1.00  0.00     0.029 A 
ATOM     46  N   UNL A   1      42.017  27.842  30.077  1.00  0.00    -0.354 N 
ATOM     47  C   UNL A   1      37.913  31.313  28.845  1.00  0.00     0.074 A 
ATOM     48  C   UNL A   1      37.058  30.376  28.149  1.00  0.00     0.031 C 
ATOM     49  C   UNL A   1      41.899  29.502  31.595  1.00  0.00     0.029 A 
ATOM     50  C   UNL A   1      42.829  28.772  30.751  1.00  0.00     0.049 A 
ATOM     51  H   UNL A   1      42.277  26.942  29.775  1.00  0.00     0.167 HD
ATOM     52  C   UNL A   1      37.709  32.509  29.466  1.00  0.00     0.034 A 
ATOM     53  C   UNL A   1      44.017  29.248  30.279  1.00  0.00     0.034 A 
ATOM     54  C   UNL A   1      38.892  32.937  30.219  1.00  0.00     0.049 A 
ATOM     55  C   UNL A   1      44.082  30.762  30.205  1.00  0.00     0.074 A 
ATOM     56  C   UNL A   1      39.251  32.810  31.551  1.00  0.00     0.029 A 
ATOM     57  N   UNL A   1      40.028  33.359  29.543  1.00  0.00    -0.354 N 
ATOM     58  N   UNL A   1      43.072  31.552  30.436  1.00  0.00    -0.248 NA
ATOM     59  C   UNL A   1      45.277  31.503  29.804  1.00  0.00     0.031 C 
ATOM     60  C   UNL A   1      40.631  33.110  31.667  1.00  0.00     0.029 A 
ATOM     61  C   UNL A   1      41.110  33.428  30.408  1.00  0.00     0.049 A 
ATOM     62  H   UNL A   1      40.062  33.578  28.584  1.00  0.00     0.167 HD
ATOM     63  C   UNL A   1      43.389  32.830  30.047  1.00  0.00     0.074 A 
ATOM     64  C   UNL A   1      44.810  32.763  29.762  1.00  0.00     0.031 C 
ATOM     65  C   UNL A   1      42.429  33.798  29.910  1.00  0.00     0.034 A 
BRANCH  52  66
ATOM     66  C   UNL A   1      36.332  33.099  29.688  1.00  0.00     0.023 A 
ATOM     67  C   UNL A   1      35.685  33.691  28.580  1.00  0.00     0.012 A 
ATOM     68  C   UNL A   1      35.654  33.182  30.923  1.00  0.00     0.148 A 
ATOM     69  C   UNL A   1      34.507  34.432  28.706  1.00  0.00     0.002 A 
ATOM     70  C   UNL A   1      34.523  33.991  31.068  1.00  0.00     0.091 A 
ATOM     71  F   UNL A   1      36.060  32.424  31.950  1.00  0.00    -0.205 F 
ATOM     72  C   UNL A   1      33.949  34.622  29.960  1.00  0.00     0.022 A 
BRANCH  70  73
ATOM     73  S   UNL A   1      33.833  34.388  32.683  1.00  0.00     0.127 S 
ATOM     74  O   UNL A   1      34.943  35.091  33.333  1.00  0.00    -0.237 OA
ATOM     75  O   UNL A   1      32.695  35.237  32.343  1.00  0.00    -0.237 OA
ATOM     76  O   UNL A   1      33.512  33.106  33.299  1.00  0.00    -0.744 OA
ENDBRANCH  70  73
ENDBRANCH  52  66
BRANCH  53  77
ATOM     77  C   UNL A   1      44.712  28.320  29.343  1.00  0.00     0.023 A 
ATOM     78  C   UNL A   1      45.231  27.122  29.885  1.00  0.00     0.012 A 
ATOM     79  C   UNL A   1      44.530  28.414  27.952  1.00  0.00     0.148 A 
ATOM     80  C   UNL A   1      45.448  26.004  29.079  1.00  0.00     0.002 A 
ATOM     81  C   UNL A   1      44.746  27.292  27.154  1.00  0.00     0.091 A 
ATOM     82  F   UNL A   1      44.075  29.565  27.441  1.00  0.00    -0.205 F 
ATOM     83  C   UNL A   1      45.172  26.081  27.719  1.00  0.00     0.022 A 
BRANCH  81  84
ATOM     84  S   UNL A   1      44.346  27.309  25.401  1.00  0.00     0.127 S 
ATOM     85  O   UNL A   1      45.577  27.839  24.825  1.00  0.00    -0.237 OA
ATOM     86  O   UNL A   1      44.095  25.894  25.124  1.00  0.00    -0.237 OA
ATOM     87  O   UNL A   1      43.163  28.150  25.304  1.00  0.00    -0.744 OA
ENDBRANCH  81  84
ENDBRANCH  53  77
BRANCH  65  88
ATOM     88  C   UNL A   1      42.618  35.161  29.263  1.00  0.00     0.023 A 
ATOM     89  C   UNL A   1      41.955  35.539  28.081  1.00  0.00     0.012 A 
ATOM     90  C   UNL A   1      43.364  36.177  29.920  1.00  0.00     0.148 A 
ATOM     91  C   UNL A   1      42.059  36.831  27.550  1.00  0.00     0.002 A 
ATOM     92  C   UNL A   1      43.374  37.488  29.446  1.00  0.00     0.091 A 
ATOM     93  F   UNL A   1      44.088  35.878  31.009  1.00  0.00    -0.205 F 
ATOM     94  C   UNL A   1      42.746  37.814  28.245  1.00  0.00     0.022 A 
BRANCH  92  95
ATOM     95  S   UNL A   1      44.058  38.814  30.453  1.00  0.00     0.127 S 
ATOM     96  O   UNL A   1      43.240  39.957  30.057  1.00  0.00    -0.237 OA
ATOM     97  O   UNL A   1      43.819  38.341  31.817  1.00  0.00    -0.237 OA
ATOM     98  O   UNL A   1      45.466  38.863  30.080  1.00  0.00    -0.744 OA
ENDBRANCH  92  95
ENDBRANCH  65  88
ENDBRANCH  39  40
ENDBRANCH  31  34
ENDBRANCH  29  30
ENDBRANCH   1  29
TORSDOF 17
ENDMDL
MODEL 3
REMARK VINA RESULT:     -13.0      1.435      1.808
REMARK SMILES Cc1ccc(-c2cc([C@@H](C)C(=O)NCCCNC(=O)c3ccc(-c4c5nc(c(-c6cccc(S(=O)(=O)[O-])c6F)c6ccc([nH]6)c(-c6cccc(S(=O)(=O)[O-])c6F)c6nc(c(-c7cccc(S(=O)(=O)[O-])c7F)c7ccc4[nH]7)C=C6)C=C5)cc3)ccc2C[C@H]2CCCC2=O)cc1
REMARK SMILES IDX 15 1 14 2 13 3 11 4 12 5 9 7 10 8 8 9 6 10 7 11 85 12 84 13
REMARK SMILES IDX 83 14 5 15 1 16 2 17 3 18 94 19 4 20 93 21 86 22 87 23 88 24
REMARK SMILES IDX 91 25 89 26 90 27 92 28 16 29 17 30 18 31 19 33 20 34 21 35
REMARK SMILES IDX 82 36 22 37 81 38 23 39 24 40 25 41 75 42 26 43 80 44 74 45
REMARK SMILES IDX 76 46 27 47 79 48 73 49 72 50 28 52 60 53 40 54 59 55 41 56
REMARK SMILES IDX 44 57 58 58 77 59 42 60 43 61 57 63 78 64 45 65 29 66 30 67
REMARK SMILES IDX 38 68 31 69 33 70 39 71 32 72 34 73 35 74 36 75 37 76 61 77
REMARK SMILES IDX 62 78 70 79 63 80 65 81 71 82 64 83 66 84 67 85 68 86 69 87
REMARK SMILES IDX 46 88 47 89 55 90 48 91 50 92 56 93 49 94 51 95 52 96 53 97
REMARK SMILES IDX 54 98
REMARK H PARENT 13 6 17 32 76 51 44 62
REMARK Flexibility Score: inf
ROOT
ATOM      1  C   UNL A   1      32.657  31.145  27.191  1.00  0.00     0.042 C 
ENDROOT
BRANCH   1   2
ATOM      2  C   UNL A   1      31.983  29.822  26.856  1.00  0.00     0.117 C 
BRANCH   2   3
ATOM      3  N   UNL A   1      31.337  29.853  25.554  1.00  0.00    -0.356 N 
ATOM      4  C   UNL A   1      31.695  29.358  24.336  1.00  0.00     0.227 C 
ATOM      5  O   UNL A   1      30.946  29.635  23.390  1.00  0.00    -0.274 OA
ATOM      6  H   UNL A   1      30.470  30.322  25.552  1.00  0.00     0.163 HD
BRANCH   4   7
ATOM      7  C   UNL A   1      32.942  28.489  24.076  1.00  0.00     0.105 C 
ATOM      8  C   UNL A   1      33.553  28.644  22.686  1.00  0.00     0.023 C 
BRANCH   7   9
ATOM      9  C   UNL A   1      32.811  27.058  24.582  1.00  0.00    -0.035 A 
ATOM     10  C   UNL A   1      33.879  24.978  25.364  1.00  0.00    -0.015 A 
ATOM     11  C   UNL A   1      33.957  26.284  24.828  1.00  0.00     0.013 A 
ATOM     12  C   UNL A   1      32.630  24.513  25.832  1.00  0.00    -0.039 A 
ATOM     13  C   UNL A   1      31.482  25.244  25.499  1.00  0.00     0.004 A 
ATOM     14  C   UNL A   1      31.575  26.461  24.821  1.00  0.00     0.005 A 
BRANCH  10  15
ATOM     15  C   UNL A   1      35.052  24.090  25.262  1.00  0.00    -0.018 A 
ATOM     16  C   UNL A   1      38.480  21.451  25.195  1.00  0.00     0.044 C 
ATOM     17  C   UNL A   1      37.282  22.350  25.205  1.00  0.00    -0.051 A 
ATOM     18  C   UNL A   1      36.823  22.865  26.419  1.00  0.00     0.004 A 
ATOM     19  C   UNL A   1      36.615  22.700  24.023  1.00  0.00     0.004 A 
ATOM     20  C   UNL A   1      35.716  23.710  26.444  1.00  0.00     0.009 A 
ATOM     21  C   UNL A   1      35.508  23.560  24.051  1.00  0.00     0.009 A 
ENDBRANCH  10  15
BRANCH  12  22
ATOM     22  C   UNL A   1      32.468  23.253  26.663  1.00  0.00     0.047 C 
BRANCH  22  23
ATOM     23  C   UNL A   1      32.052  21.975  25.920  1.00  0.00     0.060 C 
ATOM     24  C   UNL A   1      31.518  22.132  24.491  1.00  0.00     0.012 C 
ATOM     25  C   UNL A   1      33.191  20.999  25.735  1.00  0.00     0.136 C 
ATOM     26  C   UNL A   1      32.658  21.725  23.564  1.00  0.00     0.009 C 
ATOM     27  C   UNL A   1      33.380  20.605  24.296  1.00  0.00     0.076 C 
ATOM     28  O   UNL A   1      33.856  20.548  26.660  1.00  0.00    -0.299 OA
ENDBRANCH  22  23
ENDBRANCH  12  22
ENDBRANCH   7   9
ENDBRANCH   4   7
ENDBRANCH   2   3
ENDBRANCH   1   2
BRANCH   1  29
ATOM     29  C   UNL A   1      34.174  31.094  27.266  1.00  0.00     0.118 C 
BRANCH  29  30
ATOM     30  N   UNL A   1      34.683  31.807  28.437  1.00  0.00    -0.352 N 
ATOM     31  C   UNL A   1      35.611  31.406  29.381  1.00  0.00     0.251 C 
ATOM     32  H   UNL A   1      34.310  32.708  28.574  1.00  0.00     0.163 HD
ATOM     33  O   UNL A   1      35.894  32.155  30.312  1.00  0.00    -0.269 OA
BRANCH  31  34
ATOM     34  C   UNL A   1      36.325  30.130  29.171  1.00  0.00     0.039 A 
ATOM     35  C   UNL A   1      36.756  29.429  30.300  1.00  0.00     0.014 A 
ATOM     36  C   UNL A   1      36.810  29.810  27.906  1.00  0.00     0.014 A 
ATOM     37  C   UNL A   1      37.872  28.604  30.198  1.00  0.00     0.010 A 
ATOM     38  C   UNL A   1      37.975  29.079  27.820  1.00  0.00     0.010 A 
ATOM     39  C   UNL A   1      38.546  28.541  28.980  1.00  0.00    -0.014 A 
BRANCH  39  40
ATOM     40  C   UNL A   1      39.916  28.070  28.842  1.00  0.00     0.031 A 
ATOM     41  C   UNL A   1      40.217  26.640  28.648  1.00  0.00     0.074 A 
ATOM     42  C   UNL A   1      40.914  28.978  28.743  1.00  0.00     0.049 A 
ATOM     43  N   UNL A   1      41.363  26.108  28.907  1.00  0.00    -0.248 NA
ATOM     44  C   UNL A   1      39.225  25.692  28.160  1.00  0.00     0.031 C 
ATOM     45  C   UNL A   1      42.256  28.754  28.217  1.00  0.00     0.029 A 
ATOM     46  N   UNL A   1      40.974  30.258  29.304  1.00  0.00    -0.354 N 
ATOM     47  C   UNL A   1      41.351  24.834  28.381  1.00  0.00     0.074 A 
ATOM     48  C   UNL A   1      39.978  24.602  27.986  1.00  0.00     0.031 C 
ATOM     49  C   UNL A   1      43.072  29.700  28.704  1.00  0.00     0.029 A 
ATOM     50  C   UNL A   1      42.314  30.460  29.682  1.00  0.00     0.049 A 
ATOM     51  H   UNL A   1      40.228  30.892  29.413  1.00  0.00     0.167 HD
ATOM     52  C   UNL A   1      42.525  24.171  28.185  1.00  0.00     0.034 A 
ATOM     53  C   UNL A   1      42.723  30.760  30.948  1.00  0.00     0.034 A 
ATOM     54  C   UNL A   1      43.676  24.971  28.612  1.00  0.00     0.049 A 
ATOM     55  C   UNL A   1      43.765  29.803  31.496  1.00  0.00     0.074 A 
ATOM     56  C   UNL A   1      44.546  25.804  27.926  1.00  0.00     0.029 A 
ATOM     57  N   UNL A   1      43.903  25.193  29.962  1.00  0.00    -0.354 N 
ATOM     58  N   UNL A   1      44.152  28.715  30.891  1.00  0.00    -0.248 NA
ATOM     59  C   UNL A   1      44.410  29.965  32.797  1.00  0.00     0.031 C 
ATOM     60  C   UNL A   1      45.265  26.571  28.875  1.00  0.00     0.029 A 
ATOM     61  C   UNL A   1      44.841  26.199  30.139  1.00  0.00     0.049 A 
ATOM     62  H   UNL A   1      43.460  24.705  30.694  1.00  0.00     0.167 HD
ATOM     63  C   UNL A   1      44.907  27.955  31.750  1.00  0.00     0.074 A 
ATOM     64  C   UNL A   1      45.126  28.831  32.886  1.00  0.00     0.031 C 
ATOM     65  C   UNL A   1      45.202  26.644  31.480  1.00  0.00     0.034 A 
BRANCH  52  66
ATOM     66  C   UNL A   1      42.649  22.965  27.277  1.00  0.00     0.023 A 
ATOM     67  C   UNL A   1      41.975  21.783  27.660  1.00  0.00     0.012 A 
ATOM     68  C   UNL A   1      43.441  22.881  26.112  1.00  0.00     0.148 A 
ATOM     69  C   UNL A   1      42.171  20.562  27.009  1.00  0.00     0.002 A 
ATOM     70  C   UNL A   1      43.705  21.647  25.511  1.00  0.00     0.091 A 
ATOM     71  F   UNL A   1      43.887  24.006  25.536  1.00  0.00    -0.205 F 
ATOM     72  C   UNL A   1      43.074  20.483  25.962  1.00  0.00     0.022 A 
BRANCH  70  73
ATOM     73  S   UNL A   1      44.965  21.454  24.240  1.00  0.00     0.127 S 
ATOM     74  O   UNL A   1      46.188  21.840  24.951  1.00  0.00    -0.237 OA
ATOM     75  O   UNL A   1      44.875  20.033  23.916  1.00  0.00    -0.237 OA
ATOM     76  O   UNL A   1      44.592  22.377  23.174  1.00  0.00    -0.744 OA
ENDBRANCH  70  73
ENDBRANCH  52  66
BRANCH  53  77
ATOM     77  C   UNL A   1      41.693  31.456  31.769  1.00  0.00     0.023 A 
ATOM     78  C   UNL A   1      41.361  32.781  31.405  1.00  0.00     0.012 A 
ATOM     79  C   UNL A   1      40.815  30.739  32.600  1.00  0.00     0.148 A 
ATOM     80  C   UNL A   1      40.129  33.334  31.756  1.00  0.00     0.002 A 
ATOM     81  C   UNL A   1      39.585  31.297  32.943  1.00  0.00     0.091 A 
ATOM     82  F   UNL A   1      41.153  29.498  32.973  1.00  0.00    -0.205 F 
ATOM     83  C   UNL A   1      39.228  32.578  32.496  1.00  0.00     0.022 A 
BRANCH  81  84
ATOM     84  S   UNL A   1      38.352  30.347  33.843  1.00  0.00     0.127 S 
ATOM     85  O   UNL A   1      38.544  29.014  33.282  1.00  0.00    -0.237 OA
ATOM     86  O   UNL A   1      38.788  30.502  35.230  1.00  0.00    -0.237 OA
ATOM     87  O   UNL A   1      37.091  31.007  33.541  1.00  0.00    -0.744 OA
ENDBRANCH  81  84
ENDBRANCH  53  77
BRANCH  65  88
ATOM     88  C   UNL A   1      45.813  25.646  32.450  1.00  0.00     0.023 A 
ATOM     89  C   UNL A   1      47.197  25.578  32.697  1.00  0.00     0.012 A 
ATOM     90  C   UNL A   1      44.985  24.833  33.270  1.00  0.00     0.148 A 
ATOM     91  C   UNL A   1      47.738  24.723  33.666  1.00  0.00     0.002 A 
ATOM     92  C   UNL A   1      45.519  24.067  34.305  1.00  0.00     0.091 A 
ATOM     93  F   UNL A   1      43.663  24.781  33.045  1.00  0.00    -0.205 F 
ATOM     94  C   UNL A   1      46.899  23.986  34.489  1.00  0.00     0.022 A 
BRANCH  92  95
ATOM     95  S   UNL A   1      44.438  23.297  35.520  1.00  0.00     0.127 S 
ATOM     96  O   UNL A   1      43.381  24.294  35.669  1.00  0.00    -0.237 OA
ATOM     97  O   UNL A   1      44.019  22.066  34.847  1.00  0.00    -0.237 OA
ATOM     98  O   UNL A   1      45.292  23.079  36.679  1.00  0.00    -0.744 OA
ENDBRANCH  92  95
ENDBRANCH  65  88
ENDBRANCH  39  40
ENDBRANCH  31  34
ENDBRANCH  29  30
ENDBRANCH   1  29
TORSDOF 17
ENDMDL
