MODEL 1
REMARK VINA RESULT:     -11.4      0.000      0.000
REMARK SMILES C[C@@H](CCO)Sc1cc(C(=O)NCCCNC(=O)c2ccc(-c3c4nc(c(-c5cccc(S(=O)(=O)[O-])c5F)c5ccc([nH]5)c(-c5cccc(S(=O)(=O)[O-])c5F)c5nc(c(-c6cccc(S(=O)(=O)[O-])c6F)c6ccc3[nH]6)C=C5)C=C4)cc2)c2ccccc2n1
REMARK SMILES IDX 13 1 12 2 10 3 11 4 9 6 7 7 8 8 88 9 87 10 82 11 86 12 83 13
REMARK SMILES IDX 85 14 84 15 6 16 2 17 1 18 3 19 4 20 5 21 14 23 15 24 16 25
REMARK SMILES IDX 17 26 18 28 19 29 20 30 81 31 21 32 80 33 22 34 23 35 24 36
REMARK SMILES IDX 74 37 25 38 79 39 73 40 75 41 26 42 78 43 72 44 71 45 27 47
REMARK SMILES IDX 59 48 39 49 58 50 40 51 43 52 57 53 76 54 41 55 42 56 56 58
REMARK SMILES IDX 77 59 44 60 28 61 29 62 37 63 30 64 32 65 38 66 31 67 33 68
REMARK SMILES IDX 34 69 35 70 36 71 60 72 61 73 69 74 62 75 64 76 70 77 63 78
REMARK SMILES IDX 65 79 66 80 67 81 68 82 45 83 46 84 54 85 47 86 49 87 55 88
REMARK SMILES IDX 48 89 50 90 51 91 52 92 53 93
REMARK H PARENT 12 5 5 22 16 27 75 46 43 57
REMARK Flexibility Score: inf
ROOT
ATOM      1  C   UNL A   1      31.505  27.308  26.447  1.00  0.00     0.118 C 
ENDROOT
BRANCH   1   2
ATOM      2  N   UNL A   1      31.278  25.975  26.971  1.00  0.00    -0.352 N 
ATOM      3  C   UNL A   1      31.579  24.712  26.547  1.00  0.00     0.252 C 
ATOM      4  O   UNL A   1      31.087  23.799  27.220  1.00  0.00    -0.269 OA
ATOM      5  H   UNL A   1      30.796  25.982  27.829  1.00  0.00     0.163 HD
BRANCH   3   6
ATOM      6  C   UNL A   1      32.520  24.329  25.448  1.00  0.00     0.051 A 
ATOM      7  C   UNL A   1      33.170  24.975  23.231  1.00  0.00     0.098 A 
ATOM      8  C   UNL A   1      32.298  25.086  24.288  1.00  0.00     0.050 A 
ATOM      9  N   UNL A   1      34.095  24.005  23.165  1.00  0.00    -0.241 NA
ATOM     10  C   UNL A   1      34.283  23.218  24.234  1.00  0.00     0.072 A 
ATOM     11  C   UNL A   1      33.613  23.421  25.459  1.00  0.00     0.013 A 
ATOM     12  C   UNL A   1      35.258  22.234  24.128  1.00  0.00     0.029 A 
ATOM     13  C   UNL A   1      34.159  22.758  26.578  1.00  0.00     0.011 A 
ATOM     14  C   UNL A   1      35.674  21.487  25.226  1.00  0.00     0.002 A 
ATOM     15  C   UNL A   1      35.149  21.781  26.470  1.00  0.00     0.001 A 
BRANCH   7  16
ATOM     16  S   UNL A   1      33.200  26.172  21.927  1.00  0.00    -0.103 SA
BRANCH  16  17
ATOM     17  C   UNL A   1      32.426  27.670  22.704  1.00  0.00     0.052 C 
ATOM     18  C   UNL A   1      33.322  28.909  22.682  1.00  0.00     0.020 C 
BRANCH  17  19
ATOM     19  C   UNL A   1      30.961  27.965  22.324  1.00  0.00     0.043 C 
BRANCH  19  20
ATOM     20  C   UNL A   1      30.456  29.396  22.492  1.00  0.00     0.157 C 
BRANCH  20  21
ATOM     21  O   UNL A   1      30.439  30.054  21.234  1.00  0.00    -0.396 OA
ATOM     22  H   UNL A   1      29.710  30.693  21.213  1.00  0.00     0.210 HD
ENDBRANCH  20  21
ENDBRANCH  19  20
ENDBRANCH  17  19
ENDBRANCH  16  17
ENDBRANCH   7  16
ENDBRANCH   3   6
ENDBRANCH   1   2
BRANCH   1  23
ATOM     23  C   UNL A   1      32.616  27.988  27.253  1.00  0.00     0.042 C 
BRANCH  23  24
ATOM     24  C   UNL A   1      33.666  28.685  26.403  1.00  0.00     0.118 C 
BRANCH  24  25
ATOM     25  N   UNL A   1      33.688  30.117  26.648  1.00  0.00    -0.352 N 
ATOM     26  C   UNL A   1      34.503  30.857  27.472  1.00  0.00     0.251 C 
ATOM     27  H   UNL A   1      33.018  30.636  26.148  1.00  0.00     0.163 HD
ATOM     28  O   UNL A   1      34.180  32.013  27.735  1.00  0.00    -0.269 OA
BRANCH  26  29
ATOM     29  C   UNL A   1      35.747  30.287  28.047  1.00  0.00     0.039 A 
ATOM     30  C   UNL A   1      36.923  30.335  27.290  1.00  0.00     0.014 A 
ATOM     31  C   UNL A   1      35.759  29.652  29.291  1.00  0.00     0.014 A 
ATOM     32  C   UNL A   1      38.106  29.783  27.793  1.00  0.00     0.010 A 
ATOM     33  C   UNL A   1      36.956  29.186  29.831  1.00  0.00     0.010 A 
ATOM     34  C   UNL A   1      38.138  29.223  29.080  1.00  0.00    -0.014 A 
BRANCH  34  35
ATOM     35  C   UNL A   1      39.386  28.641  29.645  1.00  0.00     0.031 A 
ATOM     36  C   UNL A   1      40.019  29.252  30.870  1.00  0.00     0.074 A 
ATOM     37  C   UNL A   1      39.994  27.617  29.014  1.00  0.00     0.049 A 
ATOM     38  N   UNL A   1      41.141  28.937  31.465  1.00  0.00    -0.248 NA
ATOM     39  C   UNL A   1      39.317  30.391  31.488  1.00  0.00     0.031 C 
ATOM     40  C   UNL A   1      39.525  26.988  27.778  1.00  0.00     0.029 A 
ATOM     41  N   UNL A   1      41.154  26.945  29.309  1.00  0.00    -0.354 N 
ATOM     42  C   UNL A   1      41.299  29.859  32.494  1.00  0.00     0.074 A 
ATOM     43  C   UNL A   1      40.178  30.769  32.420  1.00  0.00     0.031 C 
ATOM     44  C   UNL A   1      40.385  26.020  27.423  1.00  0.00     0.029 A 
ATOM     45  C   UNL A   1      41.481  25.977  28.386  1.00  0.00     0.049 A 
ATOM     46  H   UNL A   1      41.700  27.137  30.105  1.00  0.00     0.167 HD
ATOM     47  C   UNL A   1      42.270  29.925  33.435  1.00  0.00     0.034 A 
ATOM     48  C   UNL A   1      42.544  25.153  28.322  1.00  0.00     0.034 A 
ATOM     49  C   UNL A   1      43.351  28.983  33.542  1.00  0.00     0.049 A 
ATOM     50  C   UNL A   1      43.579  25.208  29.412  1.00  0.00     0.074 A 
ATOM     51  C   UNL A   1      44.332  28.905  34.514  1.00  0.00     0.029 A 
ATOM     52  N   UNL A   1      43.592  27.953  32.645  1.00  0.00    -0.354 N 
ATOM     53  N   UNL A   1      43.627  25.988  30.465  1.00  0.00    -0.248 NA
ATOM     54  C   UNL A   1      44.686  24.244  29.329  1.00  0.00     0.031 C 
ATOM     55  C   UNL A   1      45.177  27.837  34.195  1.00  0.00     0.029 A 
ATOM     56  C   UNL A   1      44.709  27.237  33.037  1.00  0.00     0.049 A 
ATOM     57  H   UNL A   1      43.049  27.761  31.848  1.00  0.00     0.167 HD
ATOM     58  C   UNL A   1      44.747  25.589  31.186  1.00  0.00     0.074 A 
ATOM     59  C   UNL A   1      45.335  24.481  30.461  1.00  0.00     0.031 C 
ATOM     60  C   UNL A   1      45.250  26.100  32.336  1.00  0.00     0.034 A 
BRANCH  47  61
ATOM     61  C   UNL A   1      42.173  31.020  34.468  1.00  0.00     0.023 A 
ATOM     62  C   UNL A   1      41.496  30.773  35.680  1.00  0.00     0.012 A 
ATOM     63  C   UNL A   1      42.792  32.269  34.266  1.00  0.00     0.148 A 
ATOM     64  C   UNL A   1      41.404  31.761  36.659  1.00  0.00     0.002 A 
ATOM     65  C   UNL A   1      42.735  33.235  35.266  1.00  0.00     0.091 A 
ATOM     66  F   UNL A   1      43.414  32.496  33.101  1.00  0.00    -0.205 F 
ATOM     67  C   UNL A   1      42.031  32.987  36.457  1.00  0.00     0.022 A 
BRANCH  65  68
ATOM     68  S   UNL A   1      43.575  34.817  35.136  1.00  0.00     0.127 S 
ATOM     69  O   UNL A   1      42.856  35.442  34.026  1.00  0.00    -0.237 OA
ATOM     70  O   UNL A   1      43.312  35.416  36.445  1.00  0.00    -0.237 OA
ATOM     71  O   UNL A   1      44.974  34.508  34.880  1.00  0.00    -0.744 OA
ENDBRANCH  65  68
ENDBRANCH  47  61
BRANCH  48  72
ATOM     72  C   UNL A   1      42.643  24.153  27.220  1.00  0.00     0.023 A 
ATOM     73  C   UNL A   1      43.387  24.471  26.066  1.00  0.00     0.012 A 
ATOM     74  C   UNL A   1      42.042  22.885  27.321  1.00  0.00     0.148 A 
ATOM     75  C   UNL A   1      43.505  23.555  25.021  1.00  0.00     0.002 A 
ATOM     76  C   UNL A   1      42.210  21.956  26.300  1.00  0.00     0.091 A 
ATOM     77  F   UNL A   1      41.328  22.605  28.421  1.00  0.00    -0.205 F 
ATOM     78  C   UNL A   1      42.927  22.294  25.141  1.00  0.00     0.022 A 
BRANCH  76  79
ATOM     79  S   UNL A   1      41.616  20.266  26.432  1.00  0.00     0.127 S 
ATOM     80  O   UNL A   1      42.164  19.857  27.725  1.00  0.00    -0.237 OA
ATOM     81  O   UNL A   1      40.163  20.453  26.412  1.00  0.00    -0.237 OA
ATOM     82  O   UNL A   1      42.147  19.572  25.270  1.00  0.00    -0.744 OA
ENDBRANCH  76  79
ENDBRANCH  48  72
BRANCH  60  83
ATOM     83  C   UNL A   1      46.483  25.453  32.908  1.00  0.00     0.023 A 
ATOM     84  C   UNL A   1      47.755  25.968  32.592  1.00  0.00     0.012 A 
ATOM     85  C   UNL A   1      46.375  24.385  33.822  1.00  0.00     0.148 A 
ATOM     86  C   UNL A   1      48.904  25.411  33.152  1.00  0.00     0.002 A 
ATOM     87  C   UNL A   1      47.521  23.867  34.413  1.00  0.00     0.091 A 
ATOM     88  F   UNL A   1      45.156  23.897  34.095  1.00  0.00    -0.205 F 
ATOM     89  C   UNL A   1      48.786  24.370  34.070  1.00  0.00     0.022 A 
BRANCH  87  90
ATOM     90  S   UNL A   1      47.457  22.593  35.677  1.00  0.00     0.127 S 
ATOM     91  O   UNL A   1      48.732  22.790  36.364  1.00  0.00    -0.237 OA
ATOM     92  O   UNL A   1      46.279  22.982  36.453  1.00  0.00    -0.237 OA
ATOM     93  O   UNL A   1      47.318  21.330  34.965  1.00  0.00    -0.744 OA
ENDBRANCH  87  90
ENDBRANCH  60  83
ENDBRANCH  34  35
ENDBRANCH  26  29
ENDBRANCH  24  25
ENDBRANCH  23  24
ENDBRANCH   1  23
TORSDOF 18
ENDMDL
MODEL 2
REMARK VINA RESULT:     -11.3      1.312      2.776
REMARK SMILES C[C@@H](CCO)Sc1cc(C(=O)NCCCNC(=O)c2ccc(-c3c4nc(c(-c5cccc(S(=O)(=O)[O-])c5F)c5ccc([nH]5)c(-c5cccc(S(=O)(=O)[O-])c5F)c5nc(c(-c6cccc(S(=O)(=O)[O-])c6F)c6ccc3[nH]6)C=C5)C=C4)cc2)c2ccccc2n1
REMARK SMILES IDX 13 1 12 2 10 3 11 4 9 6 7 7 8 8 88 9 87 10 82 11 86 12 83 13
REMARK SMILES IDX 85 14 84 15 6 16 2 17 1 18 3 19 4 20 5 21 14 23 15 24 16 25
REMARK SMILES IDX 17 26 18 28 19 29 20 30 81 31 21 32 80 33 22 34 23 35 24 36
REMARK SMILES IDX 74 37 25 38 79 39 73 40 75 41 26 42 78 43 72 44 71 45 27 47
REMARK SMILES IDX 59 48 39 49 58 50 40 51 43 52 57 53 76 54 41 55 42 56 56 58
REMARK SMILES IDX 77 59 44 60 28 61 29 62 37 63 30 64 32 65 38 66 31 67 33 68
REMARK SMILES IDX 34 69 35 70 36 71 60 72 61 73 69 74 62 75 64 76 70 77 63 78
REMARK SMILES IDX 65 79 66 80 67 81 68 82 45 83 46 84 54 85 47 86 49 87 55 88
REMARK SMILES IDX 48 89 50 90 51 91 52 92 53 93
REMARK H PARENT 12 5 5 22 16 27 75 46 43 57
REMARK Flexibility Score: inf
ROOT
ATOM      1  C   UNL A   1      31.590  27.803  26.744  1.00  0.00     0.118 C 
ENDROOT
BRANCH   1   2
ATOM      2  N   UNL A   1      31.375  26.423  27.137  1.00  0.00    -0.352 N 
ATOM      3  C   UNL A   1      31.711  25.210  26.606  1.00  0.00     0.252 C 
ATOM      4  O   UNL A   1      31.220  24.231  27.179  1.00  0.00    -0.269 OA
ATOM      5  H   UNL A   1      30.872  26.343  27.979  1.00  0.00     0.163 HD
BRANCH   3   6
ATOM      6  C   UNL A   1      32.686  24.947  25.502  1.00  0.00     0.051 A 
ATOM      7  C   UNL A   1      34.769  23.839  25.069  1.00  0.00     0.098 A 
ATOM      8  C   UNL A   1      33.836  24.295  25.971  1.00  0.00     0.050 A 
ATOM      9  N   UNL A   1      34.745  24.191  23.774  1.00  0.00    -0.241 NA
ATOM     10  C   UNL A   1      33.690  24.875  23.310  1.00  0.00     0.072 A 
ATOM     11  C   UNL A   1      32.561  25.167  24.104  1.00  0.00     0.013 A 
ATOM     12  C   UNL A   1      33.699  25.209  21.962  1.00  0.00     0.029 A 
ATOM     13  C   UNL A   1      31.404  25.568  23.404  1.00  0.00     0.011 A 
ATOM     14  C   UNL A   1      32.583  25.746  21.328  1.00  0.00     0.002 A 
ATOM     15  C   UNL A   1      31.412  25.888  22.046  1.00  0.00     0.001 A 
BRANCH   7  16
ATOM     16  S   UNL A   1      36.013  22.669  25.538  1.00  0.00    -0.103 SA
BRANCH  16  17
ATOM     17  C   UNL A   1      35.307  21.047  24.975  1.00  0.00     0.052 C 
ATOM     18  C   UNL A   1      36.336  19.918  24.902  1.00  0.00     0.020 C 
BRANCH  17  19
ATOM     19  C   UNL A   1      33.969  20.618  25.612  1.00  0.00     0.043 C 
BRANCH  19  20
ATOM     20  C   UNL A   1      32.887  20.063  24.689  1.00  0.00     0.157 C 
BRANCH  20  21
ATOM     21  O   UNL A   1      32.069  19.146  25.400  1.00  0.00    -0.396 OA
ATOM     22  H   UNL A   1      31.135  19.339  25.221  1.00  0.00     0.210 HD
ENDBRANCH  20  21
ENDBRANCH  19  20
ENDBRANCH  17  19
ENDBRANCH  16  17
ENDBRANCH   7  16
ENDBRANCH   3   6
ENDBRANCH   1   2
BRANCH   1  23
ATOM     23  C   UNL A   1      32.899  28.309  27.359  1.00  0.00     0.042 C 
BRANCH  23  24
ATOM     24  C   UNL A   1      33.770  29.106  26.402  1.00  0.00     0.118 C 
BRANCH  24  25
ATOM     25  N   UNL A   1      33.791  30.517  26.748  1.00  0.00    -0.352 N 
ATOM     26  C   UNL A   1      34.587  31.192  27.642  1.00  0.00     0.251 C 
ATOM     27  H   UNL A   1      33.135  31.073  26.270  1.00  0.00     0.163 HD
ATOM     28  O   UNL A   1      34.263  32.329  27.978  1.00  0.00    -0.269 OA
BRANCH  26  29
ATOM     29  C   UNL A   1      35.814  30.576  28.207  1.00  0.00     0.039 A 
ATOM     30  C   UNL A   1      37.028  30.753  27.533  1.00  0.00     0.014 A 
ATOM     31  C   UNL A   1      35.777  29.777  29.352  1.00  0.00     0.014 A 
ATOM     32  C   UNL A   1      38.197  30.162  28.025  1.00  0.00     0.010 A 
ATOM     33  C   UNL A   1      36.955  29.268  29.894  1.00  0.00     0.010 A 
ATOM     34  C   UNL A   1      38.176  29.432  29.224  1.00  0.00    -0.014 A 
BRANCH  34  35
ATOM     35  C   UNL A   1      39.407  28.806  29.777  1.00  0.00     0.031 A 
ATOM     36  C   UNL A   1      40.057  29.377  31.012  1.00  0.00     0.074 A 
ATOM     37  C   UNL A   1      39.987  27.779  29.126  1.00  0.00     0.049 A 
ATOM     38  N   UNL A   1      41.170  29.019  31.601  1.00  0.00    -0.248 NA
ATOM     39  C   UNL A   1      39.386  30.522  31.652  1.00  0.00     0.031 C 
ATOM     40  C   UNL A   1      39.501  27.185  27.878  1.00  0.00     0.029 A 
ATOM     41  N   UNL A   1      41.128  27.069  29.407  1.00  0.00    -0.354 N 
ATOM     42  C   UNL A   1      41.353  29.917  32.647  1.00  0.00     0.074 A 
ATOM     43  C   UNL A   1      40.258  30.859  32.592  1.00  0.00     0.031 C 
ATOM     44  C   UNL A   1      40.333  26.202  27.505  1.00  0.00     0.029 A 
ATOM     45  C   UNL A   1      41.428  26.110  28.466  1.00  0.00     0.049 A 
ATOM     46  H   UNL A   1      41.679  27.231  30.206  1.00  0.00     0.167 HD
ATOM     47  C   UNL A   1      42.327  29.938  33.589  1.00  0.00     0.034 A 
ATOM     48  C   UNL A   1      42.468  25.259  28.385  1.00  0.00     0.034 A 
ATOM     49  C   UNL A   1      43.381  28.965  33.677  1.00  0.00     0.049 A 
ATOM     50  C   UNL A   1      43.504  25.264  29.475  1.00  0.00     0.074 A 
ATOM     51  C   UNL A   1      44.360  28.842  34.646  1.00  0.00     0.029 A 
ATOM     52  N   UNL A   1      43.593  27.947  32.760  1.00  0.00    -0.354 N 
ATOM     53  N   UNL A   1      43.574  26.023  30.543  1.00  0.00    -0.248 NA
ATOM     54  C   UNL A   1      44.585  24.272  29.373  1.00  0.00     0.031 C 
ATOM     55  C   UNL A   1      45.175  27.757  34.307  1.00  0.00     0.029 A 
ATOM     56  C   UNL A   1      44.691  27.192  33.138  1.00  0.00     0.049 A 
ATOM     57  H   UNL A   1      43.045  27.784  31.959  1.00  0.00     0.167 HD
ATOM     58  C   UNL A   1      44.682  25.580  31.255  1.00  0.00     0.074 A 
ATOM     59  C   UNL A   1      45.240  24.470  30.509  1.00  0.00     0.031 C 
ATOM     60  C   UNL A   1      45.200  26.055  32.414  1.00  0.00     0.034 A 
BRANCH  47  61
ATOM     61  C   UNL A   1      42.260  31.016  34.642  1.00  0.00     0.023 A 
ATOM     62  C   UNL A   1      41.596  30.756  35.859  1.00  0.00     0.012 A 
ATOM     63  C   UNL A   1      42.894  32.260  34.454  1.00  0.00     0.148 A 
ATOM     64  C   UNL A   1      41.532  31.728  36.857  1.00  0.00     0.002 A 
ATOM     65  C   UNL A   1      42.865  33.208  35.472  1.00  0.00     0.091 A 
ATOM     66  F   UNL A   1      43.503  32.498  33.285  1.00  0.00    -0.205 F 
ATOM     67  C   UNL A   1      42.174  32.949  36.667  1.00  0.00     0.022 A 
BRANCH  65  68
ATOM     68  S   UNL A   1      43.726  34.780  35.358  1.00  0.00     0.127 S 
ATOM     69  O   UNL A   1      43.408  35.385  36.651  1.00  0.00    -0.237 OA
ATOM     70  O   UNL A   1      45.119  34.358  35.209  1.00  0.00    -0.237 OA
ATOM     71  O   UNL A   1      43.170  35.458  34.196  1.00  0.00    -0.744 OA
ENDBRANCH  65  68
ENDBRANCH  47  61
BRANCH  48  72
ATOM     72  C   UNL A   1      42.540  24.278  27.264  1.00  0.00     0.023 A 
ATOM     73  C   UNL A   1      43.249  24.617  26.096  1.00  0.00     0.012 A 
ATOM     74  C   UNL A   1      41.946  23.005  27.361  1.00  0.00     0.148 A 
ATOM     75  C   UNL A   1      43.341  23.719  25.032  1.00  0.00     0.002 A 
ATOM     76  C   UNL A   1      42.088  22.094  26.320  1.00  0.00     0.091 A 
ATOM     77  F   UNL A   1      41.264  22.705  28.476  1.00  0.00    -0.205 F 
ATOM     78  C   UNL A   1      42.770  22.455  25.148  1.00  0.00     0.022 A 
BRANCH  76  79
ATOM     79  S   UNL A   1      41.504  20.400  26.441  1.00  0.00     0.127 S 
ATOM     80  O   UNL A   1      41.957  20.023  27.780  1.00  0.00    -0.237 OA
ATOM     81  O   UNL A   1      40.055  20.569  26.308  1.00  0.00    -0.237 OA
ATOM     82  O   UNL A   1      42.128  19.691  25.337  1.00  0.00    -0.744 OA
ENDBRANCH  76  79
ENDBRANCH  48  72
BRANCH  60  83
ATOM     83  C   UNL A   1      46.415  25.363  32.973  1.00  0.00     0.023 A 
ATOM     84  C   UNL A   1      47.700  25.861  32.681  1.00  0.00     0.012 A 
ATOM     85  C   UNL A   1      46.278  24.270  33.852  1.00  0.00     0.148 A 
ATOM     86  C   UNL A   1      48.833  25.261  33.230  1.00  0.00     0.002 A 
ATOM     87  C   UNL A   1      47.408  23.708  34.433  1.00  0.00     0.091 A 
ATOM     88  F   UNL A   1      45.047  23.800  34.102  1.00  0.00    -0.205 F 
ATOM     89  C   UNL A   1      48.687  24.194  34.114  1.00  0.00     0.022 A 
BRANCH  87  90
ATOM     90  S   UNL A   1      47.309  22.396  35.656  1.00  0.00     0.127 S 
ATOM     91  O   UNL A   1      48.720  22.160  35.956  1.00  0.00    -0.237 OA
ATOM     92  O   UNL A   1      46.553  23.033  36.735  1.00  0.00    -0.237 OA
ATOM     93  O   UNL A   1      46.614  21.294  35.004  1.00  0.00    -0.744 OA
ENDBRANCH  87  90
ENDBRANCH  60  83
ENDBRANCH  34  35
ENDBRANCH  26  29
ENDBRANCH  24  25
ENDBRANCH  23  24
ENDBRANCH   1  23
TORSDOF 18
ENDMDL
MODEL 3
REMARK VINA RESULT:     -11.3      5.487      8.653
REMARK SMILES C[C@@H](CCO)Sc1cc(C(=O)NCCCNC(=O)c2ccc(-c3c4nc(c(-c5cccc(S(=O)(=O)[O-])c5F)c5ccc([nH]5)c(-c5cccc(S(=O)(=O)[O-])c5F)c5nc(c(-c6cccc(S(=O)(=O)[O-])c6F)c6ccc3[nH]6)C=C5)C=C4)cc2)c2ccccc2n1
REMARK SMILES IDX 13 1 12 2 10 3 11 4 9 6 7 7 8 8 88 9 87 10 82 11 86 12 83 13
REMARK SMILES IDX 85 14 84 15 6 16 2 17 1 18 3 19 4 20 5 21 14 23 15 24 16 25
REMARK SMILES IDX 17 26 18 28 19 29 20 30 81 31 21 32 80 33 22 34 23 35 24 36
REMARK SMILES IDX 74 37 25 38 79 39 73 40 75 41 26 42 78 43 72 44 71 45 27 47
REMARK SMILES IDX 59 48 39 49 58 50 40 51 43 52 57 53 76 54 41 55 42 56 56 58
REMARK SMILES IDX 77 59 44 60 28 61 29 62 37 63 30 64 32 65 38 66 31 67 33 68
REMARK SMILES IDX 34 69 35 70 36 71 60 72 61 73 69 74 62 75 64 76 70 77 63 78
REMARK SMILES IDX 65 79 66 80 67 81 68 82 45 83 46 84 54 85 47 86 49 87 55 88
REMARK SMILES IDX 48 89 50 90 51 91 52 92 53 93
REMARK H PARENT 12 5 5 22 16 27 75 46 43 57
REMARK Flexibility Score: inf
ROOT
ATOM      1  C   UNL A   1      37.422  21.124  24.739  1.00  0.00     0.118 C 
ENDROOT
BRANCH   1   2
ATOM      2  N   UNL A   1      36.562  21.284  25.895  1.00  0.00    -0.352 N 
ATOM      3  C   UNL A   1      35.210  21.283  26.094  1.00  0.00     0.252 C 
ATOM      4  O   UNL A   1      34.846  21.594  27.234  1.00  0.00    -0.269 OA
ATOM      5  H   UNL A   1      37.068  21.426  26.727  1.00  0.00     0.163 HD
BRANCH   3   6
ATOM      6  C   UNL A   1      34.156  20.838  25.130  1.00  0.00     0.051 A 
ATOM      7  C   UNL A   1      32.396  21.705  23.749  1.00  0.00     0.098 A 
ATOM      8  C   UNL A   1      33.323  21.900  24.746  1.00  0.00     0.050 A 
ATOM      9  N   UNL A   1      32.092  20.484  23.282  1.00  0.00    -0.241 NA
ATOM     10  C   UNL A   1      32.827  19.438  23.684  1.00  0.00     0.072 A 
ATOM     11  C   UNL A   1      33.964  19.575  24.508  1.00  0.00     0.013 A 
ATOM     12  C   UNL A   1      32.487  18.194  23.168  1.00  0.00     0.029 A 
ATOM     13  C   UNL A   1      34.828  18.461  24.556  1.00  0.00     0.011 A 
ATOM     14  C   UNL A   1      33.288  17.072  23.359  1.00  0.00     0.002 A 
ATOM     15  C   UNL A   1      34.490  17.217  24.024  1.00  0.00     0.001 A 
BRANCH   7  16
ATOM     16  S   UNL A   1      31.612  23.069  22.938  1.00  0.00    -0.103 SA
BRANCH  16  17
ATOM     17  C   UNL A   1      32.128  24.530  23.960  1.00  0.00     0.052 C 
ATOM     18  C   UNL A   1      32.587  25.731  23.132  1.00  0.00     0.020 C 
BRANCH  17  19
ATOM     19  C   UNL A   1      31.205  24.910  25.136  1.00  0.00     0.043 C 
BRANCH  19  20
ATOM     20  C   UNL A   1      31.807  24.920  26.539  1.00  0.00     0.157 C 
BRANCH  20  21
ATOM     21  O   UNL A   1      31.188  23.922  27.338  1.00  0.00    -0.396 OA
ATOM     22  H   UNL A   1      30.509  24.331  27.897  1.00  0.00     0.210 HD
ENDBRANCH  20  21
ENDBRANCH  19  20
ENDBRANCH  17  19
ENDBRANCH  16  17
ENDBRANCH   7  16
ENDBRANCH   3   6
ENDBRANCH   1   2
BRANCH   1  23
ATOM     23  C   UNL A   1      38.369  19.941  24.969  1.00  0.00     0.042 C 
BRANCH  23  24
ATOM     24  C   UNL A   1      39.283  20.099  26.174  1.00  0.00     0.118 C 
BRANCH  24  25
ATOM     25  N   UNL A   1      40.428  19.210  26.094  1.00  0.00    -0.352 N 
ATOM     26  C   UNL A   1      41.769  19.505  26.011  1.00  0.00     0.251 C 
ATOM     27  H   UNL A   1      40.213  18.249  26.102  1.00  0.00     0.163 HD
ATOM     28  O   UNL A   1      42.549  18.614  25.685  1.00  0.00    -0.269 OA
BRANCH  26  29
ATOM     29  C   UNL A   1      42.281  20.869  26.298  1.00  0.00     0.039 A 
ATOM     30  C   UNL A   1      42.551  21.221  27.625  1.00  0.00     0.014 A 
ATOM     31  C   UNL A   1      42.439  21.823  25.291  1.00  0.00     0.014 A 
ATOM     32  C   UNL A   1      43.009  22.507  27.932  1.00  0.00     0.010 A 
ATOM     33  C   UNL A   1      42.984  23.071  25.584  1.00  0.00     0.010 A 
ATOM     34  C   UNL A   1      43.252  23.438  26.910  1.00  0.00    -0.014 A 
BRANCH  34  35
ATOM     35  C   UNL A   1      43.753  24.808  27.206  1.00  0.00     0.031 A 
ATOM     36  C   UNL A   1      42.812  25.857  27.743  1.00  0.00     0.074 A 
ATOM     37  C   UNL A   1      45.028  25.133  26.915  1.00  0.00     0.049 A 
ATOM     38  N   UNL A   1      43.040  27.122  27.992  1.00  0.00    -0.248 NA
ATOM     39  C   UNL A   1      41.424  25.440  28.005  1.00  0.00     0.031 C 
ATOM     40  C   UNL A   1      46.016  24.231  26.319  1.00  0.00     0.029 A 
ATOM     41  N   UNL A   1      45.704  26.319  27.055  1.00  0.00    -0.354 N 
ATOM     42  C   UNL A   1      41.822  27.657  28.394  1.00  0.00     0.074 A 
ATOM     43  C   UNL A   1      40.848  26.590  28.323  1.00  0.00     0.031 C 
ATOM     44  C   UNL A   1      47.170  24.894  26.148  1.00  0.00     0.029 A 
ATOM     45  C   UNL A   1      47.000  26.273  26.594  1.00  0.00     0.049 A 
ATOM     46  H   UNL A   1      45.300  27.126  27.448  1.00  0.00     0.167 HD
ATOM     47  C   UNL A   1      41.542  28.913  28.818  1.00  0.00     0.034 A 
ATOM     48  C   UNL A   1      47.942  27.234  26.533  1.00  0.00     0.034 A 
ATOM     49  C   UNL A   1      42.524  29.954  28.945  1.00  0.00     0.049 A 
ATOM     50  C   UNL A   1      47.624  28.605  27.064  1.00  0.00     0.074 A 
ATOM     51  C   UNL A   1      42.364  31.232  29.452  1.00  0.00     0.029 A 
ATOM     52  N   UNL A   1      43.852  29.839  28.562  1.00  0.00    -0.354 N 
ATOM     53  N   UNL A   1      46.505  29.048  27.586  1.00  0.00    -0.248 NA
ATOM     54  C   UNL A   1      48.706  29.600  27.033  1.00  0.00     0.031 C 
ATOM     55  C   UNL A   1      43.593  31.894  29.361  1.00  0.00     0.029 A 
ATOM     56  C   UNL A   1      44.522  31.023  28.817  1.00  0.00     0.049 A 
ATOM     57  H   UNL A   1      44.258  29.034  28.167  1.00  0.00     0.167 HD
ATOM     58  C   UNL A   1      46.757  30.358  27.976  1.00  0.00     0.074 A 
ATOM     59  C   UNL A   1      48.143  30.629  27.651  1.00  0.00     0.031 C 
ATOM     60  C   UNL A   1      45.916  31.259  28.540  1.00  0.00     0.034 A 
BRANCH  47  61
ATOM     61  C   UNL A   1      40.125  29.213  29.236  1.00  0.00     0.023 A 
ATOM     62  C   UNL A   1      39.157  29.504  28.252  1.00  0.00     0.012 A 
ATOM     63  C   UNL A   1      39.736  29.154  30.589  1.00  0.00     0.148 A 
ATOM     64  C   UNL A   1      37.836  29.770  28.608  1.00  0.00     0.002 A 
ATOM     65  C   UNL A   1      38.406  29.375  30.933  1.00  0.00     0.091 A 
ATOM     66  F   UNL A   1      40.670  28.895  31.514  1.00  0.00    -0.205 F 
ATOM     67  C   UNL A   1      37.459  29.696  29.946  1.00  0.00     0.022 A 
BRANCH  65  68
ATOM     68  S   UNL A   1      37.803  29.226  32.618  1.00  0.00     0.127 S 
ATOM     69  O   UNL A   1      37.797  27.775  32.802  1.00  0.00    -0.237 OA
ATOM     70  O   UNL A   1      38.834  29.932  33.379  1.00  0.00    -0.237 OA
ATOM     71  O   UNL A   1      36.494  29.863  32.633  1.00  0.00    -0.744 OA
ENDBRANCH  65  68
ENDBRANCH  47  61
BRANCH  48  72
ATOM     72  C   UNL A   1      49.302  26.909  26.015  1.00  0.00     0.023 A 
ATOM     73  C   UNL A   1      50.201  26.200  26.835  1.00  0.00     0.012 A 
ATOM     74  C   UNL A   1      49.696  27.263  24.711  1.00  0.00     0.148 A 
ATOM     75  C   UNL A   1      51.478  25.874  26.377  1.00  0.00     0.002 A 
ATOM     76  C   UNL A   1      50.950  26.886  24.240  1.00  0.00     0.091 A 
ATOM     77  F   UNL A   1      48.832  27.949  23.949  1.00  0.00    -0.205 F 
ATOM     78  C   UNL A   1      51.848  26.207  25.077  1.00  0.00     0.022 A 
BRANCH  76  79
ATOM     79  S   UNL A   1      51.456  27.154  22.538  1.00  0.00     0.127 S 
ATOM     80  O   UNL A   1      50.297  26.654  21.799  1.00  0.00    -0.237 OA
ATOM     81  O   UNL A   1      51.629  28.609  22.499  1.00  0.00    -0.237 OA
ATOM     82  O   UNL A   1      52.687  26.400  22.372  1.00  0.00    -0.744 OA
ENDBRANCH  76  79
ENDBRANCH  48  72
BRANCH  60  83
ATOM     83  C   UNL A   1      46.470  32.618  28.875  1.00  0.00     0.023 A 
ATOM     84  C   UNL A   1      47.052  32.845  30.138  1.00  0.00     0.012 A 
ATOM     85  C   UNL A   1      46.486  33.646  27.911  1.00  0.00     0.148 A 
ATOM     86  C   UNL A   1      47.613  34.083  30.447  1.00  0.00     0.002 A 
ATOM     87  C   UNL A   1      47.090  34.861  28.209  1.00  0.00     0.091 A 
ATOM     88  F   UNL A   1      45.910  33.416  26.722  1.00  0.00    -0.205 F 
ATOM     89  C   UNL A   1      47.643  35.085  29.480  1.00  0.00     0.022 A 
BRANCH  87  90
ATOM     90  S   UNL A   1      47.260  36.173  26.994  1.00  0.00     0.127 S 
ATOM     91  O   UNL A   1      48.008  35.501  25.933  1.00  0.00    -0.237 OA
ATOM     92  O   UNL A   1      45.867  36.474  26.664  1.00  0.00    -0.237 OA
ATOM     93  O   UNL A   1      47.966  37.254  27.670  1.00  0.00    -0.744 OA
ENDBRANCH  87  90
ENDBRANCH  60  83
ENDBRANCH  34  35
ENDBRANCH  26  29
ENDBRANCH  24  25
ENDBRANCH  23  24
ENDBRANCH   1  23
TORSDOF 18
ENDMDL
