MODEL 1
REMARK VINA RESULT:     -12.4      0.000      0.000
REMARK SMILES Cc1cc(N2N=C(C(=O)NCCCNC(=O)c3ccc(-c4c5nc(c(-c6cccc(S(=O)(=O)[O-])c6F)c6ccc([nH]6)c(-c6cccc(S(=O)(=O)[O-])c6F)c6nc(c(-c7cccc(S(=O)(=O)[O-])c7F)c7ccc4[nH]7)C=C6)C=C5)cc3)C[C@H]2c2ccccc2)c([N+](=O)[O-])cc1C
REMARK SMILES IDX 12 1 11 2 10 3 8 4 9 5 7 7 5 8 6 9 81 10 80 11 4 12 1 13
REMARK SMILES IDX 2 14 3 15 93 16 92 17 94 18 88 19 89 20 90 21 91 22 82 23
REMARK SMILES IDX 83 24 87 25 84 26 86 27 85 28 13 29 14 30 15 31 16 33 17 34
REMARK SMILES IDX 18 35 79 36 19 37 78 38 20 39 21 40 22 41 72 42 23 43 77 44
REMARK SMILES IDX 71 45 73 46 24 47 76 48 70 49 69 50 25 52 57 53 37 54 56 55
REMARK SMILES IDX 38 56 41 57 55 58 74 59 39 60 40 61 54 63 75 64 42 65 26 66
REMARK SMILES IDX 27 67 35 68 28 69 30 70 36 71 29 72 31 73 32 74 33 75 34 76
REMARK SMILES IDX 58 77 59 78 67 79 60 80 62 81 68 82 61 83 63 84 64 85 65 86
REMARK SMILES IDX 66 87 43 88 44 89 52 90 45 91 47 92 53 93 46 94 48 95 49 96
REMARK SMILES IDX 50 97 51 98
REMARK H PARENT 10 6 14 32 73 51 41 62
REMARK Flexibility Score: inf
ROOT
ATOM      1  C   UNL A   1      35.524  22.364  25.760  1.00  0.00     0.042 C 
ENDROOT
BRANCH   1   2
ATOM      2  C   UNL A   1      34.344  23.264  26.104  1.00  0.00     0.118 C 
BRANCH   2   3
ATOM      3  N   UNL A   1      33.138  22.828  25.435  1.00  0.00    -0.351 N 
ATOM      4  C   UNL A   1      31.976  23.450  25.064  1.00  0.00     0.267 C 
ATOM      5  O   UNL A   1      31.116  22.762  24.519  1.00  0.00    -0.268 OA
ATOM      6  H   UNL A   1      33.156  21.873  25.194  1.00  0.00     0.163 HD
BRANCH   4   7
ATOM      7  C   UNL A   1      31.716  24.940  25.223  1.00  0.00     0.128 C 
ATOM      8  N   UNL A   1      31.401  26.958  24.604  1.00  0.00    -0.250 N 
ATOM      9  N   UNL A   1      31.616  25.694  24.166  1.00  0.00    -0.171 NA
ATOM     10  C   UNL A   1      31.364  27.081  26.066  1.00  0.00     0.144 C 
ATOM     11  C   UNL A   1      31.434  25.620  26.527  1.00  0.00     0.096 C 
BRANCH   8  12
ATOM     12  C   UNL A   1      30.709  27.866  23.807  1.00  0.00     0.138 A 
ATOM     13  C   UNL A   1      26.993  28.487  23.228  1.00  0.00     0.045 C 
ATOM     14  C   UNL A   1      28.482  28.648  23.086  1.00  0.00    -0.046 A 
ATOM     15  C   UNL A   1      29.310  27.883  23.924  1.00  0.00     0.039 A 
ATOM     16  C   UNL A   1      29.067  29.507  22.145  1.00  0.00    -0.041 A 
ATOM     17  C   UNL A   1      30.469  29.551  22.049  1.00  0.00     0.091 A 
ATOM     18  C   UNL A   1      28.265  30.397  21.236  1.00  0.00     0.045 C 
ATOM     19  C   UNL A   1      31.273  28.728  22.862  1.00  0.00     0.294 A 
BRANCH  19  20
ATOM     20  N   UNL A   1      32.711  28.760  22.620  1.00  0.00     0.065 N 
ATOM     21  O   UNL A   1      33.159  27.957  21.785  1.00  0.00    -0.258 OA
ATOM     22  O   UNL A   1      33.406  29.496  23.337  1.00  0.00    -0.258 OA
ENDBRANCH  19  20
ENDBRANCH   8  12
BRANCH  10  23
ATOM     23  C   UNL A   1      32.486  28.007  26.543  1.00  0.00    -0.023 A 
ATOM     24  C   UNL A   1      33.853  27.743  26.359  1.00  0.00     0.006 A 
ATOM     25  C   UNL A   1      32.132  29.227  27.151  1.00  0.00     0.006 A 
ATOM     26  C   UNL A   1      34.825  28.654  26.790  1.00  0.00     0.000 A 
ATOM     27  C   UNL A   1      33.100  30.155  27.539  1.00  0.00     0.000 A 
ATOM     28  C   UNL A   1      34.448  29.862  27.369  1.00  0.00     0.000 A 
ENDBRANCH  10  23
ENDBRANCH   4   7
ENDBRANCH   2   3
ENDBRANCH   1   2
BRANCH   1  29
ATOM     29  C   UNL A   1      36.842  23.132  25.725  1.00  0.00     0.118 C 
BRANCH  29  30
ATOM     30  N   UNL A   1      37.971  22.288  26.116  1.00  0.00    -0.352 N 
ATOM     31  C   UNL A   1      39.234  22.641  26.519  1.00  0.00     0.251 C 
ATOM     32  H   UNL A   1      37.798  21.320  26.086  1.00  0.00     0.163 HD
ATOM     33  O   UNL A   1      40.124  21.793  26.548  1.00  0.00    -0.269 OA
BRANCH  31  34
ATOM     34  C   UNL A   1      39.514  24.033  26.915  1.00  0.00     0.039 A 
ATOM     35  C   UNL A   1      39.282  24.438  28.232  1.00  0.00     0.014 A 
ATOM     36  C   UNL A   1      40.004  24.942  25.974  1.00  0.00     0.014 A 
ATOM     37  C   UNL A   1      39.608  25.739  28.620  1.00  0.00     0.010 A 
ATOM     38  C   UNL A   1      40.422  26.197  26.385  1.00  0.00     0.010 A 
ATOM     39  C   UNL A   1      40.215  26.616  27.707  1.00  0.00    -0.014 A 
BRANCH  39  40
ATOM     40  C   UNL A   1      40.628  27.990  28.085  1.00  0.00     0.031 A 
ATOM     41  C   UNL A   1      42.091  28.343  28.107  1.00  0.00     0.074 A 
ATOM     42  C   UNL A   1      39.707  28.869  28.523  1.00  0.00     0.049 A 
ATOM     43  N   UNL A   1      42.671  29.427  28.550  1.00  0.00    -0.248 NA
ATOM     44  C   UNL A   1      43.029  27.326  27.602  1.00  0.00     0.031 C 
ATOM     45  C   UNL A   1      38.266  28.617  28.613  1.00  0.00     0.029 A 
ATOM     46  N   UNL A   1      39.850  30.143  29.015  1.00  0.00    -0.354 N 
ATOM     47  C   UNL A   1      44.037  29.203  28.425  1.00  0.00     0.074 A 
ATOM     48  C   UNL A   1      44.201  27.866  27.900  1.00  0.00     0.031 C 
ATOM     49  C   UNL A   1      37.660  29.698  29.128  1.00  0.00     0.029 A 
ATOM     50  C   UNL A   1      38.669  30.703  29.447  1.00  0.00     0.049 A 
ATOM     51  H   UNL A   1      40.715  30.611  29.054  1.00  0.00     0.167 HD
ATOM     52  C   UNL A   1      45.062  30.043  28.697  1.00  0.00     0.034 A 
ATOM     53  C   UNL A   1      38.431  31.884  30.050  1.00  0.00     0.034 A 
ATOM     54  C   UNL A   1      44.887  31.386  29.173  1.00  0.00     0.049 A 
ATOM     55  C   UNL A   1      39.586  32.814  30.310  1.00  0.00     0.074 A 
ATOM     56  C   UNL A   1      45.853  32.352  29.393  1.00  0.00     0.029 A 
ATOM     57  N   UNL A   1      43.667  31.954  29.505  1.00  0.00    -0.354 N 
ATOM     58  N   UNL A   1      40.859  32.639  30.053  1.00  0.00    -0.248 NA
ATOM     59  C   UNL A   1      39.269  34.119  30.910  1.00  0.00     0.031 C 
ATOM     60  C   UNL A   1      45.218  33.494  29.890  1.00  0.00     0.029 A 
ATOM     61  C   UNL A   1      43.853  33.254  29.938  1.00  0.00     0.049 A 
ATOM     62  H   UNL A   1      42.796  31.499  29.443  1.00  0.00     0.167 HD
ATOM     63  C   UNL A   1      41.488  33.825  30.415  1.00  0.00     0.074 A 
ATOM     64  C   UNL A   1      40.454  34.714  30.901  1.00  0.00     0.031 C 
ATOM     65  C   UNL A   1      42.804  34.147  30.357  1.00  0.00     0.034 A 
BRANCH  52  66
ATOM     66  C   UNL A   1      46.462  29.547  28.445  1.00  0.00     0.023 A 
ATOM     67  C   UNL A   1      47.080  29.797  27.203  1.00  0.00     0.012 A 
ATOM     68  C   UNL A   1      47.185  28.882  29.453  1.00  0.00     0.148 A 
ATOM     69  C   UNL A   1      48.380  29.359  26.953  1.00  0.00     0.002 A 
ATOM     70  C   UNL A   1      48.498  28.493  29.215  1.00  0.00     0.091 A 
ATOM     71  F   UNL A   1      46.575  28.634  30.621  1.00  0.00    -0.205 F 
ATOM     72  C   UNL A   1      49.092  28.717  27.963  1.00  0.00     0.022 A 
BRANCH  70  73
ATOM     73  S   UNL A   1      49.529  27.737  30.477  1.00  0.00     0.127 S 
ATOM     74  O   UNL A   1      50.788  27.551  29.757  1.00  0.00    -0.237 OA
ATOM     75  O   UNL A   1      49.564  28.777  31.507  1.00  0.00    -0.237 OA
ATOM     76  O   UNL A   1      48.850  26.512  30.873  1.00  0.00    -0.744 OA
ENDBRANCH  70  73
ENDBRANCH  52  66
BRANCH  53  77
ATOM     77  C   UNL A   1      37.036  32.278  30.397  1.00  0.00     0.023 A 
ATOM     78  C   UNL A   1      36.536  31.987  31.681  1.00  0.00     0.012 A 
ATOM     79  C   UNL A   1      36.214  32.958  29.479  1.00  0.00     0.148 A 
ATOM     80  C   UNL A   1      35.230  32.329  32.032  1.00  0.00     0.002 A 
ATOM     81  C   UNL A   1      34.933  33.348  29.854  1.00  0.00     0.091 A 
ATOM     82  F   UNL A   1      36.707  33.223  28.261  1.00  0.00    -0.205 F 
ATOM     83  C   UNL A   1      34.433  33.018  31.122  1.00  0.00     0.022 A 
BRANCH  81  84
ATOM     84  S   UNL A   1      33.882  34.352  28.798  1.00  0.00     0.127 S 
ATOM     85  O   UNL A   1      34.809  35.387  28.350  1.00  0.00    -0.237 OA
ATOM     86  O   UNL A   1      33.486  33.391  27.768  1.00  0.00    -0.237 OA
ATOM     87  O   UNL A   1      32.789  34.806  29.647  1.00  0.00    -0.744 OA
ENDBRANCH  81  84
ENDBRANCH  53  77
BRANCH  65  88
ATOM     88  C   UNL A   1      43.209  35.539  30.762  1.00  0.00     0.023 A 
ATOM     89  C   UNL A   1      43.591  35.807  32.090  1.00  0.00     0.012 A 
ATOM     90  C   UNL A   1      43.310  36.556  29.791  1.00  0.00     0.148 A 
ATOM     91  C   UNL A   1      44.045  37.076  32.450  1.00  0.00     0.002 A 
ATOM     92  C   UNL A   1      43.813  37.799  30.146  1.00  0.00     0.091 A 
ATOM     93  F   UNL A   1      42.924  36.280  28.536  1.00  0.00    -0.205 F 
ATOM     94  C   UNL A   1      44.170  38.065  31.477  1.00  0.00     0.022 A 
BRANCH  92  95
ATOM     95  S   UNL A   1      44.106  39.100  28.942  1.00  0.00     0.127 S 
ATOM     96  O   UNL A   1      44.612  40.179  29.788  1.00  0.00    -0.237 OA
ATOM     97  O   UNL A   1      45.107  38.489  28.066  1.00  0.00    -0.237 OA
ATOM     98  O   UNL A   1      42.822  39.359  28.305  1.00  0.00    -0.744 OA
ENDBRANCH  92  95
ENDBRANCH  65  88
ENDBRANCH  39  40
ENDBRANCH  31  34
ENDBRANCH  29  30
ENDBRANCH   1  29
TORSDOF 16
ENDMDL
MODEL 2
REMARK VINA RESULT:     -11.8      2.741      3.345
REMARK SMILES Cc1cc(N2N=C(C(=O)NCCCNC(=O)c3ccc(-c4c5nc(c(-c6cccc(S(=O)(=O)[O-])c6F)c6ccc([nH]6)c(-c6cccc(S(=O)(=O)[O-])c6F)c6nc(c(-c7cccc(S(=O)(=O)[O-])c7F)c7ccc4[nH]7)C=C6)C=C5)cc3)C[C@H]2c2ccccc2)c([N+](=O)[O-])cc1C
REMARK SMILES IDX 12 1 11 2 10 3 8 4 9 5 7 7 5 8 6 9 81 10 80 11 4 12 1 13
REMARK SMILES IDX 2 14 3 15 93 16 92 17 94 18 88 19 89 20 90 21 91 22 82 23
REMARK SMILES IDX 83 24 87 25 84 26 86 27 85 28 13 29 14 30 15 31 16 33 17 34
REMARK SMILES IDX 18 35 79 36 19 37 78 38 20 39 21 40 22 41 72 42 23 43 77 44
REMARK SMILES IDX 71 45 73 46 24 47 76 48 70 49 69 50 25 52 57 53 37 54 56 55
REMARK SMILES IDX 38 56 41 57 55 58 74 59 39 60 40 61 54 63 75 64 42 65 26 66
REMARK SMILES IDX 27 67 35 68 28 69 30 70 36 71 29 72 31 73 32 74 33 75 34 76
REMARK SMILES IDX 58 77 59 78 67 79 60 80 62 81 68 82 61 83 63 84 64 85 65 86
REMARK SMILES IDX 66 87 43 88 44 89 52 90 45 91 47 92 53 93 46 94 48 95 49 96
REMARK SMILES IDX 50 97 51 98
REMARK H PARENT 10 6 14 32 73 51 41 62
REMARK Flexibility Score: inf
ROOT
ATOM      1  C   UNL A   1      35.480  22.264  24.708  1.00  0.00     0.042 C 
ENDROOT
BRANCH   1   2
ATOM      2  C   UNL A   1      34.449  23.384  24.656  1.00  0.00     0.118 C 
BRANCH   2   3
ATOM      3  N   UNL A   1      33.105  22.867  24.785  1.00  0.00    -0.351 N 
ATOM      4  C   UNL A   1      31.887  23.434  25.050  1.00  0.00     0.267 C 
ATOM      5  O   UNL A   1      30.917  22.683  25.117  1.00  0.00    -0.268 OA
ATOM      6  H   UNL A   1      33.054  21.892  24.655  1.00  0.00     0.163 HD
BRANCH   4   7
ATOM      7  C   UNL A   1      31.655  24.929  25.198  1.00  0.00     0.128 C 
ATOM      8  N   UNL A   1      31.393  26.950  24.565  1.00  0.00    -0.250 N 
ATOM      9  N   UNL A   1      31.591  25.680  24.136  1.00  0.00    -0.171 NA
ATOM     10  C   UNL A   1      31.330  27.081  26.025  1.00  0.00     0.144 C 
ATOM     11  C   UNL A   1      31.361  25.621  26.493  1.00  0.00     0.096 C 
BRANCH   8  12
ATOM     12  C   UNL A   1      30.736  27.869  23.750  1.00  0.00     0.138 A 
ATOM     13  C   UNL A   1      27.046  28.588  23.124  1.00  0.00     0.045 C 
ATOM     14  C   UNL A   1      28.539  28.705  22.997  1.00  0.00    -0.046 A 
ATOM     15  C   UNL A   1      29.337  27.926  23.851  1.00  0.00     0.039 A 
ATOM     16  C   UNL A   1      29.159  29.538  22.053  1.00  0.00    -0.041 A 
ATOM     17  C   UNL A   1      30.563  29.541  21.972  1.00  0.00     0.091 A 
ATOM     18  C   UNL A   1      28.392  30.440  21.126  1.00  0.00     0.045 C 
ATOM     19  C   UNL A   1      31.334  28.705  22.802  1.00  0.00     0.294 A 
BRANCH  19  20
ATOM     20  N   UNL A   1      32.775  28.694  22.576  1.00  0.00     0.065 N 
ATOM     21  O   UNL A   1      33.466  29.410  23.318  1.00  0.00    -0.258 OA
ATOM     22  O   UNL A   1      33.206  28.067  21.595  1.00  0.00    -0.258 OA
ENDBRANCH  19  20
ENDBRANCH   8  12
BRANCH  10  23
ATOM     23  C   UNL A   1      32.461  27.986  26.520  1.00  0.00    -0.023 A 
ATOM     24  C   UNL A   1      33.825  27.665  26.419  1.00  0.00     0.006 A 
ATOM     25  C   UNL A   1      32.124  29.244  27.057  1.00  0.00     0.006 A 
ATOM     26  C   UNL A   1      34.808  28.558  26.861  1.00  0.00     0.000 A 
ATOM     27  C   UNL A   1      33.107  30.152  27.455  1.00  0.00     0.000 A 
ATOM     28  C   UNL A   1      34.449  29.804  27.368  1.00  0.00     0.000 A 
ENDBRANCH  10  23
ENDBRANCH   4   7
ENDBRANCH   2   3
ENDBRANCH   1   2
BRANCH   1  29
ATOM     29  C   UNL A   1      36.337  22.329  25.970  1.00  0.00     0.118 C 
BRANCH  29  30
ATOM     30  N   UNL A   1      37.366  21.291  25.980  1.00  0.00    -0.352 N 
ATOM     31  C   UNL A   1      38.732  21.408  26.025  1.00  0.00     0.251 C 
ATOM     32  H   UNL A   1      37.028  20.368  25.949  1.00  0.00     0.163 HD
ATOM     33  O   UNL A   1      39.437  20.437  25.756  1.00  0.00    -0.269 OA
BRANCH  31  34
ATOM     34  C   UNL A   1      39.345  22.696  26.398  1.00  0.00     0.039 A 
ATOM     35  C   UNL A   1      40.421  22.718  27.289  1.00  0.00     0.014 A 
ATOM     36  C   UNL A   1      38.848  23.886  25.863  1.00  0.00     0.014 A 
ATOM     37  C   UNL A   1      41.039  23.933  27.591  1.00  0.00     0.010 A 
ATOM     38  C   UNL A   1      39.526  25.074  26.082  1.00  0.00     0.010 A 
ATOM     39  C   UNL A   1      40.619  25.115  26.960  1.00  0.00    -0.014 A 
BRANCH  39  40
ATOM     40  C   UNL A   1      41.279  26.420  27.206  1.00  0.00     0.031 A 
ATOM     41  C   UNL A   1      42.670  26.658  26.681  1.00  0.00     0.074 A 
ATOM     42  C   UNL A   1      40.683  27.333  27.998  1.00  0.00     0.049 A 
ATOM     43  N   UNL A   1      43.478  27.658  26.911  1.00  0.00    -0.248 NA
ATOM     44  C   UNL A   1      43.242  25.612  25.816  1.00  0.00     0.031 C 
ATOM     45  C   UNL A   1      39.365  27.185  28.621  1.00  0.00     0.029 A 
ATOM     46  N   UNL A   1      41.127  28.551  28.448  1.00  0.00    -0.354 N 
ATOM     47  C   UNL A   1      44.666  27.340  26.265  1.00  0.00     0.074 A 
ATOM     48  C   UNL A   1      44.487  26.037  25.664  1.00  0.00     0.031 C 
ATOM     49  C   UNL A   1      39.109  28.268  29.372  1.00  0.00     0.029 A 
ATOM     50  C   UNL A   1      40.258  29.166  29.321  1.00  0.00     0.049 A 
ATOM     51  H   UNL A   1      41.985  28.947  28.172  1.00  0.00     0.167 HD
ATOM     52  C   UNL A   1      45.796  28.076  26.157  1.00  0.00     0.034 A 
ATOM     53  C   UNL A   1      40.384  30.314  30.016  1.00  0.00     0.034 A 
ATOM     54  C   UNL A   1      45.948  29.390  26.717  1.00  0.00     0.049 A 
ATOM     55  C   UNL A   1      41.638  31.130  29.851  1.00  0.00     0.074 A 
ATOM     56  C   UNL A   1      47.016  30.259  26.590  1.00  0.00     0.029 A 
ATOM     57  N   UNL A   1      45.006  30.022  27.513  1.00  0.00    -0.354 N 
ATOM     58  N   UNL A   1      42.696  30.878  29.120  1.00  0.00    -0.248 NA
ATOM     59  C   UNL A   1      41.702  32.407  30.579  1.00  0.00     0.031 C 
ATOM     60  C   UNL A   1      46.732  31.407  27.337  1.00  0.00     0.029 A 
ATOM     61  C   UNL A   1      45.470  31.269  27.893  1.00  0.00     0.049 A 
ATOM     62  H   UNL A   1      44.136  29.641  27.771  1.00  0.00     0.167 HD
ATOM     63  C   UNL A   1      43.529  31.982  29.261  1.00  0.00     0.074 A 
ATOM     64  C   UNL A   1      42.849  32.909  30.141  1.00  0.00     0.031 C 
ATOM     65  C   UNL A   1      44.751  32.206  28.717  1.00  0.00     0.034 A 
BRANCH  52  66
ATOM     66  C   UNL A   1      46.941  27.495  25.369  1.00  0.00     0.023 A 
ATOM     67  C   UNL A   1      47.768  26.515  25.955  1.00  0.00     0.012 A 
ATOM     68  C   UNL A   1      47.166  27.878  24.033  1.00  0.00     0.148 A 
ATOM     69  C   UNL A   1      48.825  25.954  25.240  1.00  0.00     0.002 A 
ATOM     70  C   UNL A   1      48.190  27.278  23.309  1.00  0.00     0.091 A 
ATOM     71  F   UNL A   1      46.383  28.826  23.498  1.00  0.00    -0.205 F 
ATOM     72  C   UNL A   1      49.028  26.328  23.914  1.00  0.00     0.022 A 
BRANCH  70  73
ATOM     73  S   UNL A   1      48.480  27.626  21.571  1.00  0.00     0.127 S 
ATOM     74  O   UNL A   1      49.323  28.818  21.646  1.00  0.00    -0.237 OA
ATOM     75  O   UNL A   1      49.174  26.416  21.128  1.00  0.00    -0.237 OA
ATOM     76  O   UNL A   1      47.168  27.827  20.974  1.00  0.00    -0.744 OA
ENDBRANCH  70  73
ENDBRANCH  52  66
BRANCH  53  77
ATOM     77  C   UNL A   1      39.269  30.786  30.886  1.00  0.00     0.023 A 
ATOM     78  C   UNL A   1      39.326  30.544  32.272  1.00  0.00     0.012 A 
ATOM     79  C   UNL A   1      38.172  31.491  30.356  1.00  0.00     0.148 A 
ATOM     80  C   UNL A   1      38.292  30.961  33.111  1.00  0.00     0.002 A 
ATOM     81  C   UNL A   1      37.172  31.955  31.205  1.00  0.00     0.091 A 
ATOM     82  F   UNL A   1      38.135  31.708  29.034  1.00  0.00    -0.205 F 
ATOM     83  C   UNL A   1      37.221  31.673  32.579  1.00  0.00     0.022 A 
BRANCH  81  84
ATOM     84  S   UNL A   1      35.823  32.992  30.632  1.00  0.00     0.127 S 
ATOM     85  O   UNL A   1      35.180  32.128  29.646  1.00  0.00    -0.237 OA
ATOM     86  O   UNL A   1      35.060  33.199  31.863  1.00  0.00    -0.237 OA
ATOM     87  O   UNL A   1      36.449  34.198  30.105  1.00  0.00    -0.744 OA
ENDBRANCH  81  84
ENDBRANCH  53  77
BRANCH  65  88
ATOM     88  C   UNL A   1      45.414  33.528  28.992  1.00  0.00     0.023 A 
ATOM     89  C   UNL A   1      46.243  33.684  30.119  1.00  0.00     0.012 A 
ATOM     90  C   UNL A   1      45.295  34.584  28.066  1.00  0.00     0.148 A 
ATOM     91  C   UNL A   1      46.925  34.882  30.333  1.00  0.00     0.002 A 
ATOM     92  C   UNL A   1      46.019  35.753  28.257  1.00  0.00     0.091 A 
ATOM     93  F   UNL A   1      44.487  34.417  27.009  1.00  0.00    -0.205 F 
ATOM     94  C   UNL A   1      46.825  35.908  29.396  1.00  0.00     0.022 A 
BRANCH  92  95
ATOM     95  S   UNL A   1      46.033  37.086  27.053  1.00  0.00     0.127 S 
ATOM     96  O   UNL A   1      46.528  36.403  25.860  1.00  0.00    -0.237 OA
ATOM     97  O   UNL A   1      44.621  37.466  26.998  1.00  0.00    -0.237 OA
ATOM     98  O   UNL A   1      46.915  38.110  27.594  1.00  0.00    -0.744 OA
ENDBRANCH  92  95
ENDBRANCH  65  88
ENDBRANCH  39  40
ENDBRANCH  31  34
ENDBRANCH  29  30
ENDBRANCH   1  29
TORSDOF 16
ENDMDL
MODEL 3
REMARK VINA RESULT:     -11.7      3.890      8.911
REMARK SMILES Cc1cc(N2N=C(C(=O)NCCCNC(=O)c3ccc(-c4c5nc(c(-c6cccc(S(=O)(=O)[O-])c6F)c6ccc([nH]6)c(-c6cccc(S(=O)(=O)[O-])c6F)c6nc(c(-c7cccc(S(=O)(=O)[O-])c7F)c7ccc4[nH]7)C=C6)C=C5)cc3)C[C@H]2c2ccccc2)c([N+](=O)[O-])cc1C
REMARK SMILES IDX 12 1 11 2 10 3 8 4 9 5 7 7 5 8 6 9 81 10 80 11 4 12 1 13
REMARK SMILES IDX 2 14 3 15 93 16 92 17 94 18 88 19 89 20 90 21 91 22 82 23
REMARK SMILES IDX 83 24 87 25 84 26 86 27 85 28 13 29 14 30 15 31 16 33 17 34
REMARK SMILES IDX 18 35 79 36 19 37 78 38 20 39 21 40 22 41 72 42 23 43 77 44
REMARK SMILES IDX 71 45 73 46 24 47 76 48 70 49 69 50 25 52 57 53 37 54 56 55
REMARK SMILES IDX 38 56 41 57 55 58 74 59 39 60 40 61 54 63 75 64 42 65 26 66
REMARK SMILES IDX 27 67 35 68 28 69 30 70 36 71 29 72 31 73 32 74 33 75 34 76
REMARK SMILES IDX 58 77 59 78 67 79 60 80 62 81 68 82 61 83 63 84 64 85 65 86
REMARK SMILES IDX 66 87 43 88 44 89 52 90 45 91 47 92 53 93 46 94 48 95 49 96
REMARK SMILES IDX 50 97 51 98
REMARK H PARENT 10 6 14 32 73 51 41 62
REMARK Flexibility Score: inf
ROOT
ATOM      1  C   UNL A   1      39.192  20.209  25.298  1.00  0.00     0.042 C 
ENDROOT
BRANCH   1   2
ATOM      2  C   UNL A   1      37.916  20.923  25.726  1.00  0.00     0.118 C 
BRANCH   2   3
ATOM      3  N   UNL A   1      38.192  22.274  26.162  1.00  0.00    -0.351 N 
ATOM      4  C   UNL A   1      37.608  23.489  25.925  1.00  0.00     0.267 C 
ATOM      5  O   UNL A   1      38.124  24.476  26.447  1.00  0.00    -0.268 OA
ATOM      6  H   UNL A   1      38.972  22.333  26.759  1.00  0.00     0.163 HD
BRANCH   4   7
ATOM      7  C   UNL A   1      36.332  23.682  25.121  1.00  0.00     0.128 C 
ATOM      8  N   UNL A   1      34.354  24.367  24.705  1.00  0.00    -0.250 N 
ATOM      9  N   UNL A   1      35.350  24.373  25.624  1.00  0.00    -0.171 NA
ATOM     10  C   UNL A   1      34.672  23.606  23.490  1.00  0.00     0.144 C 
ATOM     11  C   UNL A   1      36.144  23.236  23.703  1.00  0.00     0.096 C 
BRANCH   8  12
ATOM     12  C   UNL A   1      33.442  25.419  24.654  1.00  0.00     0.138 A 
ATOM     13  C   UNL A   1      33.677  28.977  23.310  1.00  0.00     0.045 C 
ATOM     14  C   UNL A   1      33.083  27.761  23.965  1.00  0.00    -0.046 A 
ATOM     15  C   UNL A   1      33.844  26.581  23.977  1.00  0.00     0.039 A 
ATOM     16  C   UNL A   1      31.821  27.767  24.578  1.00  0.00    -0.041 A 
ATOM     17  C   UNL A   1      31.372  26.596  25.213  1.00  0.00     0.091 A 
ATOM     18  C   UNL A   1      30.916  28.968  24.579  1.00  0.00     0.045 C 
ATOM     19  C   UNL A   1      32.183  25.445  25.260  1.00  0.00     0.294 A 
BRANCH  19  20
ATOM     20  N   UNL A   1      31.683  24.313  26.031  1.00  0.00     0.065 N 
ATOM     21  O   UNL A   1      31.924  24.312  27.249  1.00  0.00    -0.258 OA
ATOM     22  O   UNL A   1      31.153  23.376  25.413  1.00  0.00    -0.258 OA
ENDBRANCH  19  20
ENDBRANCH   8  12
BRANCH  10  23
ATOM     23  C   UNL A   1      33.688  22.446  23.326  1.00  0.00    -0.023 A 
ATOM     24  C   UNL A   1      32.720  22.376  22.311  1.00  0.00     0.006 A 
ATOM     25  C   UNL A   1      33.793  21.351  24.206  1.00  0.00     0.006 A 
ATOM     26  C   UNL A   1      31.875  21.265  22.199  1.00  0.00     0.000 A 
ATOM     27  C   UNL A   1      32.980  20.224  24.066  1.00  0.00     0.000 A 
ATOM     28  C   UNL A   1      32.013  20.186  23.069  1.00  0.00     0.000 A 
ENDBRANCH  10  23
ENDBRANCH   4   7
ENDBRANCH   2   3
ENDBRANCH   1   2
BRANCH   1  29
ATOM     29  C   UNL A   1      39.983  19.680  26.491  1.00  0.00     0.118 C 
BRANCH  29  30
ATOM     30  N   UNL A   1      41.187  18.967  26.069  1.00  0.00    -0.352 N 
ATOM     31  C   UNL A   1      42.437  19.449  25.774  1.00  0.00     0.251 C 
ATOM     32  H   UNL A   1      41.086  17.992  25.983  1.00  0.00     0.163 HD
ATOM     33  O   UNL A   1      43.243  18.734  25.182  1.00  0.00    -0.269 OA
BRANCH  31  34
ATOM     34  C   UNL A   1      42.805  20.821  26.171  1.00  0.00     0.039 A 
ATOM     35  C   UNL A   1      42.918  21.142  27.526  1.00  0.00     0.014 A 
ATOM     36  C   UNL A   1      43.035  21.792  25.194  1.00  0.00     0.014 A 
ATOM     37  C   UNL A   1      43.328  22.424  27.898  1.00  0.00     0.010 A 
ATOM     38  C   UNL A   1      43.539  23.029  25.561  1.00  0.00     0.010 A 
ATOM     39  C   UNL A   1      43.677  23.365  26.916  1.00  0.00    -0.014 A 
BRANCH  39  40
ATOM     40  C   UNL A   1      44.170  24.722  27.260  1.00  0.00     0.031 A 
ATOM     41  C   UNL A   1      43.202  25.749  27.785  1.00  0.00     0.074 A 
ATOM     42  C   UNL A   1      45.444  25.061  26.986  1.00  0.00     0.049 A 
ATOM     43  N   UNL A   1      43.391  27.024  28.001  1.00  0.00    -0.248 NA
ATOM     44  C   UNL A   1      41.831  25.290  28.066  1.00  0.00     0.031 C 
ATOM     45  C   UNL A   1      46.455  24.169  26.412  1.00  0.00     0.029 A 
ATOM     46  N   UNL A   1      46.098  26.261  27.118  1.00  0.00    -0.354 N 
ATOM     47  C   UNL A   1      42.155  27.527  28.391  1.00  0.00     0.074 A 
ATOM     48  C   UNL A   1      41.216  26.429  28.347  1.00  0.00     0.031 C 
ATOM     49  C   UNL A   1      47.598  24.853  26.239  1.00  0.00     0.029 A 
ATOM     50  C   UNL A   1      47.391  26.238  26.648  1.00  0.00     0.049 A 
ATOM     51  H   UNL A   1      45.680  27.061  27.511  1.00  0.00     0.167 HD
ATOM     52  C   UNL A   1      41.836  28.784  28.778  1.00  0.00     0.034 A 
ATOM     53  C   UNL A   1      48.299  27.228  26.540  1.00  0.00     0.034 A 
ATOM     54  C   UNL A   1      42.786  29.857  28.864  1.00  0.00     0.049 A 
ATOM     55  C   UNL A   1      47.928  28.610  27.009  1.00  0.00     0.074 A 
ATOM     56  C   UNL A   1      42.588  31.144  29.330  1.00  0.00     0.029 A 
ATOM     57  N   UNL A   1      44.113  29.770  28.473  1.00  0.00    -0.354 N 
ATOM     58  N   UNL A   1      46.793  29.034  27.509  1.00  0.00    -0.248 NA
ATOM     59  C   UNL A   1      48.973  29.642  26.932  1.00  0.00     0.031 C 
ATOM     60  C   UNL A   1      43.790  31.846  29.191  1.00  0.00     0.029 A 
ATOM     61  C   UNL A   1      44.746  30.983  28.678  1.00  0.00     0.049 A 
ATOM     62  H   UNL A   1      44.542  28.965  28.104  1.00  0.00     0.167 HD
ATOM     63  C   UNL A   1      47.000  30.365  27.850  1.00  0.00     0.074 A 
ATOM     64  C   UNL A   1      48.372  30.676  27.507  1.00  0.00     0.031 C 
ATOM     65  C   UNL A   1      46.131  31.254  28.392  1.00  0.00     0.034 A 
BRANCH  52  66
ATOM     66  C   UNL A   1      40.409  29.055  29.177  1.00  0.00     0.023 A 
ATOM     67  C   UNL A   1      39.454  29.374  28.190  1.00  0.00     0.012 A 
ATOM     68  C   UNL A   1      40.001  28.940  30.520  1.00  0.00     0.148 A 
ATOM     69  C   UNL A   1      38.126  29.615  28.536  1.00  0.00     0.002 A 
ATOM     70  C   UNL A   1      38.665  29.133  30.851  1.00  0.00     0.091 A 
ATOM     71  F   UNL A   1      40.925  28.656  31.448  1.00  0.00    -0.205 F 
ATOM     72  C   UNL A   1      37.730  29.483  29.865  1.00  0.00     0.022 A 
BRANCH  70  73
ATOM     73  S   UNL A   1      38.037  28.902  32.518  1.00  0.00     0.127 S 
ATOM     74  O   UNL A   1      38.224  27.465  32.707  1.00  0.00    -0.237 OA
ATOM     75  O   UNL A   1      38.940  29.743  33.304  1.00  0.00    -0.237 OA
ATOM     76  O   UNL A   1      36.653  29.353  32.494  1.00  0.00    -0.744 OA
ENDBRANCH  70  73
ENDBRANCH  52  66
BRANCH  53  77
ATOM     77  C   UNL A   1      49.664  26.937  26.017  1.00  0.00     0.023 A 
ATOM     78  C   UNL A   1      50.606  26.315  26.859  1.00  0.00     0.012 A 
ATOM     79  C   UNL A   1      50.025  27.246  24.693  1.00  0.00     0.148 A 
ATOM     80  C   UNL A   1      51.897  26.042  26.404  1.00  0.00     0.002 A 
ATOM     81  C   UNL A   1      51.295  26.919  24.227  1.00  0.00     0.091 A 
ATOM     82  F   UNL A   1      49.115  27.841  23.909  1.00  0.00    -0.205 F 
ATOM     83  C   UNL A   1      52.237  26.335  25.087  1.00  0.00     0.022 A 
BRANCH  81  84
ATOM     84  S   UNL A   1      51.780  27.138  22.512  1.00  0.00     0.127 S 
ATOM     85  O   UNL A   1      52.133  28.555  22.479  1.00  0.00    -0.237 OA
ATOM     86  O   UNL A   1      52.912  26.218  22.400  1.00  0.00    -0.237 OA
ATOM     87  O   UNL A   1      50.617  26.757  21.721  1.00  0.00    -0.744 OA
ENDBRANCH  81  84
ENDBRANCH  53  77
BRANCH  65  88
ATOM     88  C   UNL A   1      46.642  32.632  28.718  1.00  0.00     0.023 A 
ATOM     89  C   UNL A   1      47.214  32.896  29.976  1.00  0.00     0.012 A 
ATOM     90  C   UNL A   1      46.647  33.635  27.727  1.00  0.00     0.148 A 
ATOM     91  C   UNL A   1      47.762  34.149  30.253  1.00  0.00     0.002 A 
ATOM     92  C   UNL A   1      47.243  34.861  27.992  1.00  0.00     0.091 A 
ATOM     93  F   UNL A   1      46.082  33.365  26.542  1.00  0.00    -0.205 F 
ATOM     94  C   UNL A   1      47.790  35.124  29.258  1.00  0.00     0.022 A 
BRANCH  92  95
ATOM     95  S   UNL A   1      47.417  36.138  26.741  1.00  0.00     0.127 S 
ATOM     96  O   UNL A   1      48.080  37.201  27.492  1.00  0.00    -0.237 OA
ATOM     97  O   UNL A   1      48.260  35.478  25.743  1.00  0.00    -0.237 OA
ATOM     98  O   UNL A   1      46.069  36.445  26.286  1.00  0.00    -0.744 OA
ENDBRANCH  92  95
ENDBRANCH  65  88
ENDBRANCH  39  40
ENDBRANCH  31  34
ENDBRANCH  29  30
ENDBRANCH   1  29
TORSDOF 16
ENDMDL
