MODEL 1
REMARK VINA RESULT:     -12.6      0.000      0.000
REMARK SMILES NS(=O)(=O)c1ccc(-n2nc(C(=O)NCCCNC(=O)c3ccc(-c4c5nc(c(-c6cccc(S(=O)(=O)[O-])c6F)c6ccc([nH]6)c(-c6cccc(S(=O)(=O)[O-])c6F)c6nc(c(-c7cccc(S(=O)(=O)[O-])c7F)c7ccc4[nH]7)C=C6)C=C5)cc3)cc2-c2cc3ccccc3s2)cc1
REMARK SMILES IDX 16 1 15 2 14 3 12 4 13 5 11 7 9 8 10 9 85 10 84 11 8 12 5 13
REMARK SMILES IDX 6 14 96 15 7 16 95 17 2 18 3 19 4 20 1 21 86 24 87 25 94 26
REMARK SMILES IDX 88 27 93 28 89 29 92 30 90 31 91 32 17 33 18 34 19 35 20 37
REMARK SMILES IDX 21 38 22 39 83 40 23 41 82 42 24 43 25 44 26 45 76 46 27 47
REMARK SMILES IDX 81 48 75 49 77 50 28 51 80 52 74 53 73 54 29 56 61 57 41 58
REMARK SMILES IDX 60 59 42 60 45 61 59 62 78 63 43 64 44 65 58 67 79 68 46 69
REMARK SMILES IDX 30 70 31 71 39 72 32 73 34 74 40 75 33 76 35 77 36 78 37 79
REMARK SMILES IDX 38 80 62 81 63 82 71 83 64 84 66 85 72 86 65 87 67 88 68 89
REMARK SMILES IDX 69 90 70 91 47 92 48 93 56 94 49 95 51 96 57 97 50 98 52 99
REMARK SMILES IDX 53 100 54 101 55 102
REMARK H PARENT 14 6 1 22 1 23 18 36 77 55 45 66
REMARK Flexibility Score: inf
ROOT
ATOM      1  C   UNL A   1      31.512  31.822  26.711  1.00  0.00     0.042 C 
ENDROOT
BRANCH   1   2
ATOM      2  C   UNL A   1      31.807  30.417  26.168  1.00  0.00     0.118 C 
BRANCH   2   3
ATOM      3  N   UNL A   1      31.546  30.302  24.739  1.00  0.00    -0.351 N 
ATOM      4  C   UNL A   1      31.407  29.186  23.929  1.00  0.00     0.271 C 
ATOM      5  O   UNL A   1      30.967  29.370  22.795  1.00  0.00    -0.267 OA
ATOM      6  H   UNL A   1      31.452  31.162  24.271  1.00  0.00     0.163 HD
BRANCH   4   7
ATOM      7  C   UNL A   1      31.687  27.842  24.466  1.00  0.00     0.151 A 
ATOM      8  N   UNL A   1      32.675  25.938  24.582  1.00  0.00    -0.231 N 
ATOM      9  N   UNL A   1      32.896  27.259  24.357  1.00  0.00    -0.162 NA
ATOM     10  C   UNL A   1      31.343  25.695  24.826  1.00  0.00     0.085 A 
ATOM     11  C   UNL A   1      30.812  26.942  25.100  1.00  0.00     0.066 A 
BRANCH   8  12
ATOM     12  C   UNL A   1      33.774  25.056  24.636  1.00  0.00     0.065 A 
ATOM     13  C   UNL A   1      35.911  23.299  24.875  1.00  0.00     0.082 A 
ATOM     14  C   UNL A   1      35.475  23.698  23.605  1.00  0.00     0.024 A 
ATOM     15  C   UNL A   1      35.286  23.776  26.029  1.00  0.00     0.024 A 
ATOM     16  C   UNL A   1      34.381  24.559  23.482  1.00  0.00     0.030 A 
ATOM     17  C   UNL A   1      34.237  24.682  25.909  1.00  0.00     0.030 A 
BRANCH  13  18
ATOM     18  S   UNL A   1      37.232  22.147  25.077  1.00  0.00     0.238 S 
ATOM     19  O   UNL A   1      38.322  22.799  25.750  1.00  0.00    -0.207 OA
ATOM     20  O   UNL A   1      37.397  21.406  23.842  1.00  0.00    -0.207 OA
BRANCH  18  21
ATOM     21  N   UNL A   1      36.647  21.028  26.190  1.00  0.00    -0.225 NA
ATOM     22  H   UNL A   1      35.642  21.158  26.307  1.00  0.00     0.137 HD
ATOM     23  H   UNL A   1      37.113  21.166  27.088  1.00  0.00     0.137 HD
ENDBRANCH  18  21
ENDBRANCH  13  18
ENDBRANCH   8  12
BRANCH  10  24
ATOM     24  C   UNL A   1      30.531  24.519  24.678  1.00  0.00     0.054 A 
ATOM     25  C   UNL A   1      30.569  23.660  23.585  1.00  0.00     0.031 A 
ATOM     26  S   UNL A   1      30.354  23.509  26.081  1.00  0.00    -0.134 S 
ATOM     27  C   UNL A   1      31.407  22.531  23.963  1.00  0.00    -0.007 A 
ATOM     28  C   UNL A   1      31.473  22.401  25.356  1.00  0.00     0.035 A 
ATOM     29  C   UNL A   1      32.234  21.694  23.178  1.00  0.00     0.009 A 
ATOM     30  C   UNL A   1      32.363  21.516  25.988  1.00  0.00     0.019 A 
ATOM     31  C   UNL A   1      33.159  20.847  23.800  1.00  0.00     0.001 A 
ATOM     32  C   UNL A   1      33.234  20.773  25.187  1.00  0.00     0.001 A 
ENDBRANCH  10  24
ENDBRANCH   4   7
ENDBRANCH   2   3
ENDBRANCH   1   2
BRANCH   1  33
ATOM     33  C   UNL A   1      32.750  32.499  27.257  1.00  0.00     0.118 C 
BRANCH  33  34
ATOM     34  N   UNL A   1      32.514  33.878  27.724  1.00  0.00    -0.352 N 
ATOM     35  C   UNL A   1      33.108  34.530  28.799  1.00  0.00     0.251 C 
ATOM     36  H   UNL A   1      31.856  34.401  27.211  1.00  0.00     0.163 HD
ATOM     37  O   UNL A   1      32.596  35.527  29.293  1.00  0.00    -0.269 OA
BRANCH  35  38
ATOM     38  C   UNL A   1      34.379  33.988  29.314  1.00  0.00     0.039 A 
ATOM     39  C   UNL A   1      34.466  32.945  30.239  1.00  0.00     0.014 A 
ATOM     40  C   UNL A   1      35.524  34.514  28.735  1.00  0.00     0.014 A 
ATOM     41  C   UNL A   1      35.725  32.398  30.487  1.00  0.00     0.010 A 
ATOM     42  C   UNL A   1      36.651  33.755  28.709  1.00  0.00     0.010 A 
ATOM     43  C   UNL A   1      36.810  32.798  29.687  1.00  0.00    -0.014 A 
BRANCH  43  44
ATOM     44  C   UNL A   1      38.124  32.183  29.757  1.00  0.00     0.031 A 
ATOM     45  C   UNL A   1      38.161  30.840  29.144  1.00  0.00     0.074 A 
ATOM     46  C   UNL A   1      39.237  32.850  30.141  1.00  0.00     0.049 A 
ATOM     47  N   UNL A   1      38.075  29.714  29.767  1.00  0.00    -0.248 NA
ATOM     48  C   UNL A   1      38.041  30.725  27.683  1.00  0.00     0.031 C 
ATOM     49  C   UNL A   1      39.405  34.282  30.441  1.00  0.00     0.029 A 
ATOM     50  N   UNL A   1      40.510  32.388  30.236  1.00  0.00    -0.354 N 
ATOM     51  C   UNL A   1      38.211  28.745  28.781  1.00  0.00     0.074 A 
ATOM     52  C   UNL A   1      37.899  29.404  27.542  1.00  0.00     0.031 C 
ATOM     53  C   UNL A   1      40.720  34.597  30.450  1.00  0.00     0.029 A 
ATOM     54  C   UNL A   1      41.488  33.374  30.344  1.00  0.00     0.049 A 
ATOM     55  H   UNL A   1      40.727  31.427  30.230  1.00  0.00     0.167 HD
ATOM     56  C   UNL A   1      38.885  27.591  29.047  1.00  0.00     0.034 A 
ATOM     57  C   UNL A   1      42.833  33.184  30.327  1.00  0.00     0.034 A 
ATOM     58  C   UNL A   1      39.108  27.450  30.472  1.00  0.00     0.049 A 
ATOM     59  C   UNL A   1      43.064  31.770  30.699  1.00  0.00     0.074 A 
ATOM     60  C   UNL A   1      38.301  27.424  31.592  1.00  0.00     0.029 A 
ATOM     61  N   UNL A   1      40.370  27.763  30.924  1.00  0.00    -0.354 N 
ATOM     62  N   UNL A   1      42.779  31.287  31.877  1.00  0.00    -0.248 NA
ATOM     63  C   UNL A   1      43.159  30.795  29.626  1.00  0.00     0.031 C 
ATOM     64  C   UNL A   1      39.006  28.187  32.571  1.00  0.00     0.029 A 
ATOM     65  C   UNL A   1      40.242  28.554  32.034  1.00  0.00     0.049 A 
ATOM     66  H   UNL A   1      41.217  27.468  30.519  1.00  0.00     0.167 HD
ATOM     67  C   UNL A   1      42.184  30.062  31.604  1.00  0.00     0.074 A 
ATOM     68  C   UNL A   1      42.545  29.767  30.217  1.00  0.00     0.031 C 
ATOM     69  C   UNL A   1      41.211  29.558  32.420  1.00  0.00     0.034 A 
BRANCH  56  70
ATOM     70  C   UNL A   1      39.717  26.809  28.051  1.00  0.00     0.023 A 
ATOM     71  C   UNL A   1      39.593  25.401  28.095  1.00  0.00     0.012 A 
ATOM     72  C   UNL A   1      40.789  27.328  27.290  1.00  0.00     0.148 A 
ATOM     73  C   UNL A   1      40.531  24.559  27.491  1.00  0.00     0.002 A 
ATOM     74  C   UNL A   1      41.678  26.488  26.629  1.00  0.00     0.091 A 
ATOM     75  F   UNL A   1      41.047  28.635  27.286  1.00  0.00    -0.205 F 
ATOM     76  C   UNL A   1      41.575  25.103  26.756  1.00  0.00     0.022 A 
BRANCH  74  77
ATOM     77  S   UNL A   1      43.026  27.136  25.629  1.00  0.00     0.127 S 
ATOM     78  O   UNL A   1      43.605  25.907  25.094  1.00  0.00    -0.237 OA
ATOM     79  O   UNL A   1      42.305  27.959  24.660  1.00  0.00    -0.237 OA
ATOM     80  O   UNL A   1      43.871  27.893  26.545  1.00  0.00    -0.744 OA
ENDBRANCH  74  77
ENDBRANCH  56  70
BRANCH  57  81
ATOM     81  C   UNL A   1      43.920  34.023  29.767  1.00  0.00     0.023 A 
ATOM     82  C   UNL A   1      44.811  34.689  30.635  1.00  0.00     0.012 A 
ATOM     83  C   UNL A   1      44.280  33.907  28.408  1.00  0.00     0.148 A 
ATOM     84  C   UNL A   1      46.039  35.183  30.174  1.00  0.00     0.002 A 
ATOM     85  C   UNL A   1      45.504  34.394  27.955  1.00  0.00     0.091 A 
ATOM     86  F   UNL A   1      43.465  33.233  27.584  1.00  0.00    -0.205 F 
ATOM     87  C   UNL A   1      46.392  35.022  28.838  1.00  0.00     0.022 A 
BRANCH  85  88
ATOM     88  S   UNL A   1      46.057  34.178  26.257  1.00  0.00     0.127 S 
ATOM     89  O   UNL A   1      44.995  34.850  25.509  1.00  0.00    -0.237 OA
ATOM     90  O   UNL A   1      47.337  34.880  26.266  1.00  0.00    -0.237 OA
ATOM     91  O   UNL A   1      46.129  32.738  26.046  1.00  0.00    -0.744 OA
ENDBRANCH  85  88
ENDBRANCH  57  81
BRANCH  69  92
ATOM     92  C   UNL A   1      40.981  30.235  33.750  1.00  0.00     0.023 A 
ATOM     93  C   UNL A   1      41.875  30.127  34.837  1.00  0.00     0.012 A 
ATOM     94  C   UNL A   1      39.910  31.138  33.845  1.00  0.00     0.148 A 
ATOM     95  C   UNL A   1      41.693  30.889  35.996  1.00  0.00     0.002 A 
ATOM     96  C   UNL A   1      39.758  31.927  34.978  1.00  0.00     0.091 A 
ATOM     97  F   UNL A   1      39.069  31.230  32.804  1.00  0.00    -0.205 F 
ATOM     98  C   UNL A   1      40.641  31.799  36.061  1.00  0.00     0.022 A 
BRANCH  96  99
ATOM     99  S   UNL A   1      38.496  33.199  35.065  1.00  0.00     0.127 S 
ATOM    100  O   UNL A   1      37.268  32.409  35.085  1.00  0.00    -0.237 OA
ATOM    101  O   UNL A   1      38.815  33.870  36.327  1.00  0.00    -0.237 OA
ATOM    102  O   UNL A   1      38.685  34.033  33.885  1.00  0.00    -0.744 OA
ENDBRANCH  96  99
ENDBRANCH  69  92
ENDBRANCH  43  44
ENDBRANCH  35  38
ENDBRANCH  33  34
ENDBRANCH   1  33
TORSDOF 17
ENDMDL
MODEL 2
REMARK VINA RESULT:     -12.5      1.576      2.741
REMARK SMILES NS(=O)(=O)c1ccc(-n2nc(C(=O)NCCCNC(=O)c3ccc(-c4c5nc(c(-c6cccc(S(=O)(=O)[O-])c6F)c6ccc([nH]6)c(-c6cccc(S(=O)(=O)[O-])c6F)c6nc(c(-c7cccc(S(=O)(=O)[O-])c7F)c7ccc4[nH]7)C=C6)C=C5)cc3)cc2-c2cc3ccccc3s2)cc1
REMARK SMILES IDX 16 1 15 2 14 3 12 4 13 5 11 7 9 8 10 9 85 10 84 11 8 12 5 13
REMARK SMILES IDX 6 14 96 15 7 16 95 17 2 18 3 19 4 20 1 21 86 24 87 25 94 26
REMARK SMILES IDX 88 27 93 28 89 29 92 30 90 31 91 32 17 33 18 34 19 35 20 37
REMARK SMILES IDX 21 38 22 39 83 40 23 41 82 42 24 43 25 44 26 45 76 46 27 47
REMARK SMILES IDX 81 48 75 49 77 50 28 51 80 52 74 53 73 54 29 56 61 57 41 58
REMARK SMILES IDX 60 59 42 60 45 61 59 62 78 63 43 64 44 65 58 67 79 68 46 69
REMARK SMILES IDX 30 70 31 71 39 72 32 73 34 74 40 75 33 76 35 77 36 78 37 79
REMARK SMILES IDX 38 80 62 81 63 82 71 83 64 84 66 85 72 86 65 87 67 88 68 89
REMARK SMILES IDX 69 90 70 91 47 92 48 93 56 94 49 95 51 96 57 97 50 98 52 99
REMARK SMILES IDX 53 100 54 101 55 102
REMARK H PARENT 14 6 1 22 1 23 18 36 77 55 45 66
REMARK Flexibility Score: inf
ROOT
ATOM      1  C   UNL A   1      31.533  31.797  26.652  1.00  0.00     0.042 C 
ENDROOT
BRANCH   1   2
ATOM      2  C   UNL A   1      31.812  30.341  26.256  1.00  0.00     0.118 C 
BRANCH   2   3
ATOM      3  N   UNL A   1      33.126  29.883  26.690  1.00  0.00    -0.351 N 
ATOM      4  C   UNL A   1      33.715  28.630  26.635  1.00  0.00     0.271 C 
ATOM      5  O   UNL A   1      34.922  28.569  26.867  1.00  0.00    -0.267 OA
ATOM      6  H   UNL A   1      33.691  30.583  27.090  1.00  0.00     0.163 HD
BRANCH   4   7
ATOM      7  C   UNL A   1      32.925  27.459  26.214  1.00  0.00     0.151 A 
ATOM      8  N   UNL A   1      32.601  25.479  25.449  1.00  0.00    -0.231 N 
ATOM      9  N   UNL A   1      33.414  26.206  26.258  1.00  0.00    -0.162 NA
ATOM     10  C   UNL A   1      31.616  26.268  24.901  1.00  0.00     0.085 A 
ATOM     11  C   UNL A   1      31.627  27.415  25.674  1.00  0.00     0.066 A 
BRANCH   8  12
ATOM     12  C   UNL A   1      32.790  24.084  25.357  1.00  0.00     0.065 A 
ATOM     13  C   UNL A   1      33.027  21.323  25.186  1.00  0.00     0.082 A 
ATOM     14  C   UNL A   1      34.126  22.137  24.881  1.00  0.00     0.024 A 
ATOM     15  C   UNL A   1      31.810  21.881  25.579  1.00  0.00     0.024 A 
ATOM     16  C   UNL A   1      34.000  23.528  24.939  1.00  0.00     0.030 A 
ATOM     17  C   UNL A   1      31.701  23.263  25.696  1.00  0.00     0.030 A 
BRANCH  13  18
ATOM     18  S   UNL A   1      33.114  19.566  25.044  1.00  0.00     0.238 S 
ATOM     19  O   UNL A   1      34.444  19.196  24.639  1.00  0.00    -0.207 OA
ATOM     20  O   UNL A   1      31.923  19.094  24.368  1.00  0.00    -0.207 OA
BRANCH  18  21
ATOM     21  N   UNL A   1      32.975  19.010  26.627  1.00  0.00    -0.225 NA
ATOM     22  H   UNL A   1      32.290  19.576  27.127  1.00  0.00     0.137 HD
ATOM     23  H   UNL A   1      33.881  19.082  27.093  1.00  0.00     0.137 HD
ENDBRANCH  18  21
ENDBRANCH  13  18
ENDBRANCH   8  12
BRANCH  10  24
ATOM     24  C   UNL A   1      30.827  26.141  23.707  1.00  0.00     0.054 A 
ATOM     25  C   UNL A   1      29.446  26.292  23.648  1.00  0.00     0.031 A 
ATOM     26  S   UNL A   1      31.457  26.889  22.270  1.00  0.00    -0.134 S 
ATOM     27  C   UNL A   1      29.187  27.646  23.179  1.00  0.00    -0.007 A 
ATOM     28  C   UNL A   1      30.292  28.156  22.485  1.00  0.00     0.035 A 
ATOM     29  C   UNL A   1      28.106  28.520  23.441  1.00  0.00     0.009 A 
ATOM     30  C   UNL A   1      30.380  29.502  22.095  1.00  0.00     0.019 A 
ATOM     31  C   UNL A   1      28.208  29.875  23.101  1.00  0.00     0.001 A 
ATOM     32  C   UNL A   1      29.338  30.361  22.453  1.00  0.00     0.001 A 
ENDBRANCH  10  24
ENDBRANCH   4   7
ENDBRANCH   2   3
ENDBRANCH   1   2
BRANCH   1  33
ATOM     33  C   UNL A   1      32.744  32.469  27.264  1.00  0.00     0.118 C 
BRANCH  33  34
ATOM     34  N   UNL A   1      32.490  33.849  27.715  1.00  0.00    -0.352 N 
ATOM     35  C   UNL A   1      33.085  34.525  28.776  1.00  0.00     0.251 C 
ATOM     36  H   UNL A   1      31.818  34.355  27.203  1.00  0.00     0.163 HD
ATOM     37  O   UNL A   1      32.562  35.520  29.263  1.00  0.00    -0.269 OA
BRANCH  35  38
ATOM     38  C   UNL A   1      34.370  34.011  29.283  1.00  0.00     0.039 A 
ATOM     39  C   UNL A   1      34.484  33.033  30.274  1.00  0.00     0.014 A 
ATOM     40  C   UNL A   1      35.497  34.487  28.631  1.00  0.00     0.014 A 
ATOM     41  C   UNL A   1      35.748  32.495  30.515  1.00  0.00     0.010 A 
ATOM     42  C   UNL A   1      36.619  33.721  28.619  1.00  0.00     0.010 A 
ATOM     43  C   UNL A   1      36.807  32.832  29.654  1.00  0.00    -0.014 A 
BRANCH  43  44
ATOM     44  C   UNL A   1      38.120  32.215  29.721  1.00  0.00     0.031 A 
ATOM     45  C   UNL A   1      38.150  30.865  29.120  1.00  0.00     0.074 A 
ATOM     46  C   UNL A   1      39.237  32.881  30.092  1.00  0.00     0.049 A 
ATOM     47  N   UNL A   1      38.065  29.745  29.753  1.00  0.00    -0.248 NA
ATOM     48  C   UNL A   1      38.020  30.738  27.661  1.00  0.00     0.031 C 
ATOM     49  C   UNL A   1      39.411  34.315  30.378  1.00  0.00     0.029 A 
ATOM     50  N   UNL A   1      40.510  32.417  30.183  1.00  0.00    -0.354 N 
ATOM     51  C   UNL A   1      38.192  28.767  28.775  1.00  0.00     0.074 A 
ATOM     52  C   UNL A   1      37.874  29.416  27.533  1.00  0.00     0.031 C 
ATOM     53  C   UNL A   1      40.727  34.627  30.376  1.00  0.00     0.029 A 
ATOM     54  C   UNL A   1      41.491  33.401  30.276  1.00  0.00     0.049 A 
ATOM     55  H   UNL A   1      40.723  31.455  30.185  1.00  0.00     0.167 HD
ATOM     56  C   UNL A   1      38.864  27.614  29.048  1.00  0.00     0.034 A 
ATOM     57  C   UNL A   1      42.835  33.208  30.252  1.00  0.00     0.034 A 
ATOM     58  C   UNL A   1      39.096  27.485  30.472  1.00  0.00     0.049 A 
ATOM     59  C   UNL A   1      43.064  31.796  30.636  1.00  0.00     0.074 A 
ATOM     60  C   UNL A   1      38.295  27.471  31.598  1.00  0.00     0.029 A 
ATOM     61  N   UNL A   1      40.361  27.798  30.914  1.00  0.00    -0.354 N 
ATOM     62  N   UNL A   1      42.785  31.325  31.820  1.00  0.00    -0.248 NA
ATOM     63  C   UNL A   1      43.150  30.811  29.571  1.00  0.00     0.031 C 
ATOM     64  C   UNL A   1      39.008  28.241  32.565  1.00  0.00     0.029 A 
ATOM     65  C   UNL A   1      40.242  28.600  32.018  1.00  0.00     0.049 A 
ATOM     66  H   UNL A   1      41.205  27.498  30.507  1.00  0.00     0.167 HD
ATOM     67  C   UNL A   1      42.186  30.099  31.562  1.00  0.00     0.074 A 
ATOM     68  C   UNL A   1      42.537  29.790  30.175  1.00  0.00     0.031 C 
ATOM     69  C   UNL A   1      41.217  29.605  32.388  1.00  0.00     0.034 A 
BRANCH  56  70
ATOM     70  C   UNL A   1      39.687  26.821  28.054  1.00  0.00     0.023 A 
ATOM     71  C   UNL A   1      39.538  25.414  28.092  1.00  0.00     0.012 A 
ATOM     72  C   UNL A   1      40.773  27.323  27.301  1.00  0.00     0.148 A 
ATOM     73  C   UNL A   1      40.464  24.558  27.490  1.00  0.00     0.002 A 
ATOM     74  C   UNL A   1      41.650  26.470  26.642  1.00  0.00     0.091 A 
ATOM     75  F   UNL A   1      41.054  28.626  27.302  1.00  0.00    -0.205 F 
ATOM     76  C   UNL A   1      41.522  25.086  26.763  1.00  0.00     0.022 A 
BRANCH  74  77
ATOM     77  S   UNL A   1      43.016  27.097  25.652  1.00  0.00     0.127 S 
ATOM     78  O   UNL A   1      43.575  25.860  25.114  1.00  0.00    -0.237 OA
ATOM     79  O   UNL A   1      42.315  27.937  24.682  1.00  0.00    -0.237 OA
ATOM     80  O   UNL A   1      43.869  27.835  26.576  1.00  0.00    -0.744 OA
ENDBRANCH  74  77
ENDBRANCH  56  70
BRANCH  57  81
ATOM     81  C   UNL A   1      43.921  34.038  29.678  1.00  0.00     0.023 A 
ATOM     82  C   UNL A   1      44.794  34.743  30.535  1.00  0.00     0.012 A 
ATOM     83  C   UNL A   1      44.300  33.880  28.328  1.00  0.00     0.148 A 
ATOM     84  C   UNL A   1      46.023  35.233  30.072  1.00  0.00     0.002 A 
ATOM     85  C   UNL A   1      45.525  34.364  27.875  1.00  0.00     0.091 A 
ATOM     86  F   UNL A   1      43.502  33.171  27.517  1.00  0.00    -0.205 F 
ATOM     87  C   UNL A   1      46.394  35.031  28.747  1.00  0.00     0.022 A 
BRANCH  85  88
ATOM     88  S   UNL A   1      46.102  34.097  26.193  1.00  0.00     0.127 S 
ATOM     89  O   UNL A   1      45.108  34.838  25.415  1.00  0.00    -0.237 OA
ATOM     90  O   UNL A   1      47.428  34.706  26.229  1.00  0.00    -0.237 OA
ATOM     91  O   UNL A   1      46.075  32.654  25.991  1.00  0.00    -0.744 OA
ENDBRANCH  85  88
ENDBRANCH  57  81
BRANCH  69  92
ATOM     92  C   UNL A   1      40.997  30.294  33.714  1.00  0.00     0.023 A 
ATOM     93  C   UNL A   1      41.853  30.127  34.823  1.00  0.00     0.012 A 
ATOM     94  C   UNL A   1      39.985  31.266  33.783  1.00  0.00     0.148 A 
ATOM     95  C   UNL A   1      41.691  30.898  35.979  1.00  0.00     0.002 A 
ATOM     96  C   UNL A   1      39.856  32.062  34.914  1.00  0.00     0.091 A 
ATOM     97  F   UNL A   1      39.179  31.413  32.720  1.00  0.00    -0.205 F 
ATOM     98  C   UNL A   1      40.700  31.875  36.019  1.00  0.00     0.022 A 
BRANCH  96  99
ATOM     99  S   UNL A   1      38.678  33.414  34.971  1.00  0.00     0.127 S 
ATOM    100  O   UNL A   1      39.141  34.267  33.880  1.00  0.00    -0.237 OA
ATOM    101  O   UNL A   1      37.407  32.732  34.719  1.00  0.00    -0.237 OA
ATOM    102  O   UNL A   1      38.790  33.987  36.306  1.00  0.00    -0.744 OA
ENDBRANCH  96  99
ENDBRANCH  69  92
ENDBRANCH  43  44
ENDBRANCH  35  38
ENDBRANCH  33  34
ENDBRANCH   1  33
TORSDOF 17
ENDMDL
MODEL 3
REMARK VINA RESULT:     -12.3      3.058      7.089
REMARK SMILES NS(=O)(=O)c1ccc(-n2nc(C(=O)NCCCNC(=O)c3ccc(-c4c5nc(c(-c6cccc(S(=O)(=O)[O-])c6F)c6ccc([nH]6)c(-c6cccc(S(=O)(=O)[O-])c6F)c6nc(c(-c7cccc(S(=O)(=O)[O-])c7F)c7ccc4[nH]7)C=C6)C=C5)cc3)cc2-c2cc3ccccc3s2)cc1
REMARK SMILES IDX 16 1 15 2 14 3 12 4 13 5 11 7 9 8 10 9 85 10 84 11 8 12 5 13
REMARK SMILES IDX 6 14 96 15 7 16 95 17 2 18 3 19 4 20 1 21 86 24 87 25 94 26
REMARK SMILES IDX 88 27 93 28 89 29 92 30 90 31 91 32 17 33 18 34 19 35 20 37
REMARK SMILES IDX 21 38 22 39 83 40 23 41 82 42 24 43 25 44 26 45 76 46 27 47
REMARK SMILES IDX 81 48 75 49 77 50 28 51 80 52 74 53 73 54 29 56 61 57 41 58
REMARK SMILES IDX 60 59 42 60 45 61 59 62 78 63 43 64 44 65 58 67 79 68 46 69
REMARK SMILES IDX 30 70 31 71 39 72 32 73 34 74 40 75 33 76 35 77 36 78 37 79
REMARK SMILES IDX 38 80 62 81 63 82 71 83 64 84 66 85 72 86 65 87 67 88 68 89
REMARK SMILES IDX 69 90 70 91 47 92 48 93 56 94 49 95 51 96 57 97 50 98 52 99
REMARK SMILES IDX 53 100 54 101 55 102
REMARK H PARENT 14 6 1 22 1 23 18 36 77 55 45 66
REMARK Flexibility Score: inf
ROOT
ATOM      1  C   UNL A   1      33.828  30.447  27.306  1.00  0.00     0.042 C 
ENDROOT
BRANCH   1   2
ATOM      2  C   UNL A   1      32.301  30.514  27.167  1.00  0.00     0.118 C 
BRANCH   2   3
ATOM      3  N   UNL A   1      31.867  30.592  25.778  1.00  0.00    -0.351 N 
ATOM      4  C   UNL A   1      31.543  29.596  24.871  1.00  0.00     0.271 C 
ATOM      5  O   UNL A   1      30.991  29.947  23.829  1.00  0.00    -0.267 OA
ATOM      6  H   UNL A   1      31.792  31.507  25.425  1.00  0.00     0.163 HD
BRANCH   4   7
ATOM      7  C   UNL A   1      31.770  28.180  25.214  1.00  0.00     0.151 A 
ATOM      8  N   UNL A   1      32.651  26.230  25.029  1.00  0.00    -0.231 N 
ATOM      9  N   UNL A   1      32.936  27.556  24.964  1.00  0.00    -0.162 NA
ATOM     10  C   UNL A   1      31.320  26.025  25.312  1.00  0.00     0.085 A 
ATOM     11  C   UNL A   1      30.876  27.251  25.774  1.00  0.00     0.066 A 
BRANCH   8  12
ATOM     12  C   UNL A   1      33.699  25.294  24.909  1.00  0.00     0.065 A 
ATOM     13  C   UNL A   1      35.742  23.417  24.804  1.00  0.00     0.082 A 
ATOM     14  C   UNL A   1      35.245  23.973  23.618  1.00  0.00     0.024 A 
ATOM     15  C   UNL A   1      35.226  23.796  26.044  1.00  0.00     0.024 A 
ATOM     16  C   UNL A   1      34.197  24.896  23.668  1.00  0.00     0.030 A 
ATOM     17  C   UNL A   1      34.224  24.760  26.098  1.00  0.00     0.030 A 
BRANCH  13  18
ATOM     18  S   UNL A   1      37.006  22.186  24.786  1.00  0.00     0.238 S 
ATOM     19  O   UNL A   1      37.365  21.905  23.421  1.00  0.00    -0.207 OA
ATOM     20  O   UNL A   1      36.661  21.150  25.740  1.00  0.00    -0.207 OA
BRANCH  18  21
ATOM     21  N   UNL A   1      38.354  22.956  25.435  1.00  0.00    -0.225 NA
ATOM     22  H   UNL A   1      38.749  23.592  24.742  1.00  0.00     0.137 HD
ATOM     23  H   UNL A   1      39.053  22.259  25.694  1.00  0.00     0.137 HD
ENDBRANCH  18  21
ENDBRANCH  13  18
ENDBRANCH   8  12
BRANCH  10  24
ATOM     24  C   UNL A   1      30.435  24.921  25.057  1.00  0.00     0.054 A 
ATOM     25  C   UNL A   1      30.336  24.247  23.846  1.00  0.00     0.031 A 
ATOM     26  S   UNL A   1      30.321  23.709  26.297  1.00  0.00    -0.134 S 
ATOM     27  C   UNL A   1      31.139  23.039  23.966  1.00  0.00    -0.007 A 
ATOM     28  C   UNL A   1      31.315  22.686  25.310  1.00  0.00     0.035 A 
ATOM     29  C   UNL A   1      31.851  22.305  22.988  1.00  0.00     0.009 A 
ATOM     30  C   UNL A   1      32.204  21.676  25.713  1.00  0.00     0.019 A 
ATOM     31  C   UNL A   1      32.777  21.332  23.385  1.00  0.00     0.001 A 
ATOM     32  C   UNL A   1      32.963  21.036  24.731  1.00  0.00     0.001 A 
ENDBRANCH  10  24
ENDBRANCH   4   7
ENDBRANCH   2   3
ENDBRANCH   1   2
BRANCH   1  33
ATOM     33  C   UNL A   1      34.440  31.801  27.590  1.00  0.00     0.118 C 
BRANCH  33  34
ATOM     34  N   UNL A   1      34.354  32.205  29.005  1.00  0.00    -0.352 N 
ATOM     35  C   UNL A   1      35.188  31.830  30.053  1.00  0.00     0.251 C 
ATOM     36  H   UNL A   1      33.617  32.816  29.236  1.00  0.00     0.163 HD
ATOM     37  O   UNL A   1      34.827  31.944  31.219  1.00  0.00    -0.269 OA
BRANCH  35  38
ATOM     38  C   UNL A   1      36.523  31.304  29.715  1.00  0.00     0.039 A 
ATOM     39  C   UNL A   1      37.683  32.081  29.681  1.00  0.00     0.014 A 
ATOM     40  C   UNL A   1      36.589  29.932  29.530  1.00  0.00     0.014 A 
ATOM     41  C   UNL A   1      38.905  31.423  29.546  1.00  0.00     0.010 A 
ATOM     42  C   UNL A   1      37.768  29.297  29.762  1.00  0.00     0.010 A 
ATOM     43  C   UNL A   1      38.932  30.019  29.616  1.00  0.00    -0.014 A 
BRANCH  43  44
ATOM     44  C   UNL A   1      40.159  29.243  29.641  1.00  0.00     0.031 A 
ATOM     45  C   UNL A   1      40.655  28.997  31.011  1.00  0.00     0.074 A 
ATOM     46  C   UNL A   1      40.674  28.629  28.550  1.00  0.00     0.049 A 
ATOM     47  N   UNL A   1      41.572  29.666  31.623  1.00  0.00    -0.248 NA
ATOM     48  C   UNL A   1      39.903  28.080  31.881  1.00  0.00     0.031 C 
ATOM     49  C   UNL A   1      40.098  28.499  27.201  1.00  0.00     0.029 A 
ATOM     50  N   UNL A   1      41.799  27.876  28.453  1.00  0.00    -0.354 N 
ATOM     51  C   UNL A   1      41.722  29.033  32.850  1.00  0.00     0.074 A 
ATOM     52  C   UNL A   1      40.511  28.286  33.053  1.00  0.00     0.031 C 
ATOM     53  C   UNL A   1      40.754  27.536  26.514  1.00  0.00     0.029 A 
ATOM     54  C   UNL A   1      41.901  27.114  27.292  1.00  0.00     0.049 A 
ATOM     55  H   UNL A   1      42.493  27.869  29.152  1.00  0.00     0.167 HD
ATOM     56  C   UNL A   1      42.957  28.927  33.415  1.00  0.00     0.034 A 
ATOM     57  C   UNL A   1      42.856  26.191  27.011  1.00  0.00     0.034 A 
ATOM     58  C   UNL A   1      43.905  29.786  32.734  1.00  0.00     0.049 A 
ATOM     59  C   UNL A   1      44.015  26.508  27.876  1.00  0.00     0.074 A 
ATOM     60  C   UNL A   1      43.976  31.136  32.453  1.00  0.00     0.029 A 
ATOM     61  N   UNL A   1      44.753  29.170  31.843  1.00  0.00    -0.354 N 
ATOM     62  N   UNL A   1      44.713  27.604  27.759  1.00  0.00    -0.248 NA
ATOM     63  C   UNL A   1      44.098  25.844  29.165  1.00  0.00     0.031 C 
ATOM     64  C   UNL A   1      44.475  31.207  31.118  1.00  0.00     0.029 A 
ATOM     65  C   UNL A   1      44.774  29.911  30.692  1.00  0.00     0.049 A 
ATOM     66  H   UNL A   1      45.257  28.340  32.004  1.00  0.00     0.167 HD
ATOM     67  C   UNL A   1      44.911  28.019  29.069  1.00  0.00     0.074 A 
ATOM     68  C   UNL A   1      44.608  26.845  29.888  1.00  0.00     0.031 C 
ATOM     69  C   UNL A   1      45.001  29.347  29.377  1.00  0.00     0.034 A 
BRANCH  56  70
ATOM     70  C   UNL A   1      43.435  27.771  34.270  1.00  0.00     0.023 A 
ATOM     71  C   UNL A   1      44.010  28.106  35.519  1.00  0.00     0.012 A 
ATOM     72  C   UNL A   1      43.612  26.440  33.828  1.00  0.00     0.148 A 
ATOM     73  C   UNL A   1      44.787  27.197  36.241  1.00  0.00     0.002 A 
ATOM     74  C   UNL A   1      44.324  25.517  34.584  1.00  0.00     0.091 A 
ATOM     75  F   UNL A   1      43.202  26.068  32.616  1.00  0.00    -0.205 F 
ATOM     76  C   UNL A   1      44.945  25.899  35.773  1.00  0.00     0.022 A 
BRANCH  74  77
ATOM     77  S   UNL A   1      44.528  23.811  34.049  1.00  0.00     0.127 S 
ATOM     78  O   UNL A   1      44.957  23.991  32.666  1.00  0.00    -0.237 OA
ATOM     79  O   UNL A   1      45.563  23.336  34.966  1.00  0.00    -0.237 OA
ATOM     80  O   UNL A   1      43.227  23.179  34.238  1.00  0.00    -0.744 OA
ENDBRANCH  74  77
ENDBRANCH  56  70
BRANCH  57  81
ATOM     81  C   UNL A   1      42.773  24.910  26.269  1.00  0.00     0.023 A 
ATOM     82  C   UNL A   1      43.713  24.624  25.255  1.00  0.00     0.012 A 
ATOM     83  C   UNL A   1      41.992  23.847  26.769  1.00  0.00     0.148 A 
ATOM     84  C   UNL A   1      43.899  23.316  24.787  1.00  0.00     0.002 A 
ATOM     85  C   UNL A   1      42.185  22.547  26.306  1.00  0.00     0.091 A 
ATOM     86  F   UNL A   1      41.132  24.097  27.766  1.00  0.00    -0.205 F 
ATOM     87  C   UNL A   1      43.146  22.276  25.323  1.00  0.00     0.022 A 
BRANCH  85  88
ATOM     88  S   UNL A   1      41.292  21.141  26.984  1.00  0.00     0.127 S 
ATOM     89  O   UNL A   1      40.235  20.950  25.990  1.00  0.00    -0.237 OA
ATOM     90  O   UNL A   1      42.320  20.105  26.991  1.00  0.00    -0.237 OA
ATOM     91  O   UNL A   1      40.819  21.570  28.294  1.00  0.00    -0.744 OA
ENDBRANCH  85  88
ENDBRANCH  57  81
BRANCH  69  92
ATOM     92  C   UNL A   1      45.135  30.331  28.240  1.00  0.00     0.023 A 
ATOM     93  C   UNL A   1      44.030  30.845  27.527  1.00  0.00     0.012 A 
ATOM     94  C   UNL A   1      46.407  30.875  27.996  1.00  0.00     0.148 A 
ATOM     95  C   UNL A   1      44.195  31.862  26.582  1.00  0.00     0.002 A 
ATOM     96  C   UNL A   1      46.561  31.917  27.090  1.00  0.00     0.091 A 
ATOM     97  F   UNL A   1      47.448  30.376  28.681  1.00  0.00    -0.205 F 
ATOM     98  C   UNL A   1      45.459  32.407  26.373  1.00  0.00     0.022 A 
BRANCH  96  99
ATOM     99  S   UNL A   1      48.141  32.736  26.873  1.00  0.00     0.127 S 
ATOM    100  O   UNL A   1      47.828  33.735  25.854  1.00  0.00    -0.237 OA
ATOM    101  O   UNL A   1      48.398  33.281  28.207  1.00  0.00    -0.237 OA
ATOM    102  O   UNL A   1      49.079  31.697  26.465  1.00  0.00    -0.744 OA
ENDBRANCH  96  99
ENDBRANCH  69  92
ENDBRANCH  43  44
ENDBRANCH  35  38
ENDBRANCH  33  34
ENDBRANCH   1  33
TORSDOF 17
ENDMDL
