MODEL 1
REMARK VINA RESULT:     -12.0      0.000      0.000
REMARK SMILES CCc1nc2sc(C(=O)NCC(=O)NCCCNC(=O)c3ccc(-c4c5nc(c(-c6cccc(S(=O)(=O)[O-])c6F)c6ccc([nH]6)c(-c6cccc(S(=O)(=O)[O-])c6F)c6nc(c(-c7cccc(S(=O)(=O)[O-])c7F)c7ccc4[nH]7)C=C6)C=C5)cc3)c(N)c2c(C(F)(F)F)c1C
REMARK SMILES IDX 16 1 15 2 14 3 12 4 13 5 11 7 10 8 8 9 9 10 7 12 3 13 4 14
REMARK SMILES IDX 92 15 5 16 87 17 93 18 6 19 86 20 84 21 2 22 1 23 88 24
REMARK SMILES IDX 89 25 90 26 91 27 85 28 17 31 18 32 19 33 20 35 21 36 22 37
REMARK SMILES IDX 83 38 23 39 82 40 24 41 25 42 26 43 76 44 27 45 81 46 75 47
REMARK SMILES IDX 77 48 28 49 80 50 74 51 73 52 29 54 61 55 41 56 60 57 42 58
REMARK SMILES IDX 45 59 59 60 78 61 43 62 44 63 58 65 79 66 46 67 30 68 31 69
REMARK SMILES IDX 39 70 32 71 34 72 40 73 33 74 35 75 36 76 37 77 38 78 62 79
REMARK SMILES IDX 63 80 71 81 64 82 66 83 72 84 65 85 67 86 68 87 69 88 70 89
REMARK SMILES IDX 47 90 48 91 56 92 49 93 51 94 57 95 50 96 52 97 53 98 54 99
REMARK SMILES IDX 55 100
REMARK H PARENT 14 6 10 11 85 29 85 30 18 34 77 53 45 64
REMARK Flexibility Score: inf
ROOT
ATOM      1  C   UNL A   1      33.446  30.251  27.591  1.00  0.00     0.042 C 
ENDROOT
BRANCH   1   2
ATOM      2  C   UNL A   1      32.793  30.070  26.227  1.00  0.00     0.117 C 
BRANCH   2   3
ATOM      3  N   UNL A   1      33.638  29.472  25.209  1.00  0.00    -0.355 N 
ATOM      4  C   UNL A   1      33.365  28.739  24.097  1.00  0.00     0.239 C 
ATOM      5  O   UNL A   1      34.297  28.606  23.295  1.00  0.00    -0.273 OA
ATOM      6  H   UNL A   1      34.599  29.628  25.354  1.00  0.00     0.163 HD
BRANCH   4   7
ATOM      7  C   UNL A   1      31.974  28.204  23.718  1.00  0.00     0.216 C 
BRANCH   7   8
ATOM      8  N   UNL A   1      31.750  27.554  22.450  1.00  0.00    -0.342 N 
ATOM      9  C   UNL A   1      31.760  26.250  22.030  1.00  0.00     0.264 C 
ATOM     10  O   UNL A   1      31.283  26.120  20.895  1.00  0.00    -0.268 OA
ATOM     11  H   UNL A   1      31.542  28.188  21.725  1.00  0.00     0.164 HD
BRANCH   9  12
ATOM     12  C   UNL A   1      32.342  25.122  22.768  1.00  0.00     0.118 A 
ATOM     13  C   UNL A   1      33.072  20.811  24.569  1.00  0.00     0.045 A 
ATOM     14  N   UNL A   1      32.063  21.589  24.135  1.00  0.00    -0.242 NA
ATOM     15  C   UNL A   1      34.415  21.223  24.596  1.00  0.00    -0.017 A 
ATOM     16  C   UNL A   1      32.397  22.824  23.737  1.00  0.00     0.127 A 
ATOM     17  C   UNL A   1      34.728  22.566  24.223  1.00  0.00     0.073 A 
ATOM     18  C   UNL A   1      35.515  20.290  25.035  1.00  0.00     0.047 C 
ATOM     19  S   UNL A   1      31.210  23.850  23.117  1.00  0.00    -0.108 S 
ATOM     20  C   UNL A   1      33.654  23.393  23.765  1.00  0.00     0.048 A 
ATOM     21  C   UNL A   1      33.594  24.746  23.244  1.00  0.00     0.066 A 
BRANCH  13  22
ATOM     22  C   UNL A   1      32.602  19.451  25.029  1.00  0.00     0.053 C 
ATOM     23  C   UNL A   1      32.542  18.445  23.889  1.00  0.00     0.011 C 
ENDBRANCH  13  22
BRANCH  17  24
ATOM     24  C   UNL A   1      36.142  23.109  24.242  1.00  0.00     0.417 C 
ATOM     25  F   UNL A   1      36.594  23.426  22.995  1.00  0.00    -0.166 F 
ATOM     26  F   UNL A   1      36.254  24.253  24.981  1.00  0.00    -0.166 F 
ATOM     27  F   UNL A   1      37.087  22.282  24.768  1.00  0.00    -0.166 F 
ENDBRANCH  17  24
BRANCH  21  28
ATOM     28  N   UNL A   1      34.724  25.480  23.163  1.00  0.00    -0.397 N 
ATOM     29  H   UNL A   1      35.502  25.133  22.669  1.00  0.00     0.156 HD
ATOM     30  H   UNL A   1      34.770  26.362  23.597  1.00  0.00     0.156 HD
ENDBRANCH  21  28
ENDBRANCH   9  12
ENDBRANCH   7   8
ENDBRANCH   4   7
ENDBRANCH   2   3
ENDBRANCH   1   2
BRANCH   1  31
ATOM     31  C   UNL A   1      34.375  31.450  27.610  1.00  0.00     0.118 C 
BRANCH  31  32
ATOM     32  N   UNL A   1      34.386  32.131  28.908  1.00  0.00    -0.352 N 
ATOM     33  C   UNL A   1      35.215  31.884  29.992  1.00  0.00     0.251 C 
ATOM     34  H   UNL A   1      33.726  32.853  29.024  1.00  0.00     0.163 HD
ATOM     35  O   UNL A   1      34.950  32.304  31.099  1.00  0.00    -0.269 OA
BRANCH  33  36
ATOM     36  C   UNL A   1      36.419  31.070  29.748  1.00  0.00     0.039 A 
ATOM     37  C   UNL A   1      37.636  31.676  29.436  1.00  0.00     0.014 A 
ATOM     38  C   UNL A   1      36.332  29.700  29.972  1.00  0.00     0.014 A 
ATOM     39  C   UNL A   1      38.790  30.900  29.464  1.00  0.00     0.010 A 
ATOM     40  C   UNL A   1      37.486  28.978  30.157  1.00  0.00     0.010 A 
ATOM     41  C   UNL A   1      38.718  29.555  29.867  1.00  0.00    -0.014 A 
BRANCH  41  42
ATOM     42  C   UNL A   1      39.940  28.776  30.051  1.00  0.00     0.031 A 
ATOM     43  C   UNL A   1      40.468  28.694  31.442  1.00  0.00     0.074 A 
ATOM     44  C   UNL A   1      40.523  28.047  29.076  1.00  0.00     0.049 A 
ATOM     45  N   UNL A   1      41.505  29.304  31.917  1.00  0.00    -0.248 NA
ATOM     46  C   UNL A   1      39.708  27.940  32.447  1.00  0.00     0.031 C 
ATOM     47  C   UNL A   1      40.032  27.747  27.725  1.00  0.00     0.029 A 
ATOM     48  N   UNL A   1      41.671  27.322  29.145  1.00  0.00    -0.354 N 
ATOM     49  C   UNL A   1      41.661  28.844  33.223  1.00  0.00     0.074 A 
ATOM     50  C   UNL A   1      40.443  28.144  33.545  1.00  0.00     0.031 C 
ATOM     51  C   UNL A   1      40.737  26.719  27.205  1.00  0.00     0.029 A 
ATOM     52  C   UNL A   1      41.851  26.444  28.087  1.00  0.00     0.049 A 
ATOM     53  H   UNL A   1      42.318  27.412  29.881  1.00  0.00     0.167 HD
ATOM     54  C   UNL A   1      42.867  28.904  33.856  1.00  0.00     0.034 A 
ATOM     55  C   UNL A   1      42.857  25.553  27.944  1.00  0.00     0.034 A 
ATOM     56  C   UNL A   1      43.796  29.739  33.136  1.00  0.00     0.049 A 
ATOM     57  C   UNL A   1      43.990  26.058  28.749  1.00  0.00     0.074 A 
ATOM     58  C   UNL A   1      43.841  31.064  32.755  1.00  0.00     0.029 A 
ATOM     59  N   UNL A   1      44.736  29.093  32.370  1.00  0.00    -0.354 N 
ATOM     60  N   UNL A   1      44.633  27.159  28.477  1.00  0.00    -0.248 NA
ATOM     61  C   UNL A   1      44.176  25.538  30.092  1.00  0.00     0.031 C 
ATOM     62  C   UNL A   1      44.458  31.054  31.468  1.00  0.00     0.029 A 
ATOM     63  C   UNL A   1      44.795  29.733  31.161  1.00  0.00     0.049 A 
ATOM     64  H   UNL A   1      45.270  28.311  32.640  1.00  0.00     0.167 HD
ATOM     65  C   UNL A   1      44.929  27.704  29.719  1.00  0.00     0.074 A 
ATOM     66  C   UNL A   1      44.752  26.601  30.661  1.00  0.00     0.031 C 
ATOM     67  C   UNL A   1      45.014  29.056  29.897  1.00  0.00     0.034 A 
BRANCH  54  68
ATOM     68  C   UNL A   1      43.356  27.970  34.943  1.00  0.00     0.023 A 
ATOM     69  C   UNL A   1      43.837  28.561  36.137  1.00  0.00     0.012 A 
ATOM     70  C   UNL A   1      43.618  26.594  34.767  1.00  0.00     0.148 A 
ATOM     71  C   UNL A   1      44.585  27.838  37.073  1.00  0.00     0.002 A 
ATOM     72  C   UNL A   1      44.293  25.860  35.739  1.00  0.00     0.091 A 
ATOM     73  F   UNL A   1      43.338  26.005  33.601  1.00  0.00    -0.205 F 
ATOM     74  C   UNL A   1      44.807  26.483  36.878  1.00  0.00     0.022 A 
BRANCH  72  75
ATOM     75  S   UNL A   1      44.553  24.090  35.569  1.00  0.00     0.127 S 
ATOM     76  O   UNL A   1      45.156  23.757  36.855  1.00  0.00    -0.237 OA
ATOM     77  O   UNL A   1      43.186  23.602  35.381  1.00  0.00    -0.237 OA
ATOM     78  O   UNL A   1      45.405  23.935  34.397  1.00  0.00    -0.744 OA
ENDBRANCH  72  75
ENDBRANCH  54  68
BRANCH  55  79
ATOM     79  C   UNL A   1      42.841  24.205  27.346  1.00  0.00     0.023 A 
ATOM     80  C   UNL A   1      41.630  23.490  27.287  1.00  0.00     0.012 A 
ATOM     81  C   UNL A   1      43.930  23.754  26.566  1.00  0.00     0.148 A 
ATOM     82  C   UNL A   1      41.488  22.391  26.433  1.00  0.00     0.002 A 
ATOM     83  C   UNL A   1      43.781  22.665  25.714  1.00  0.00     0.091 A 
ATOM     84  F   UNL A   1      45.073  24.453  26.591  1.00  0.00    -0.205 F 
ATOM     85  C   UNL A   1      42.556  21.989  25.636  1.00  0.00     0.022 A 
BRANCH  83  86
ATOM     86  S   UNL A   1      45.093  22.114  24.616  1.00  0.00     0.127 S 
ATOM     87  O   UNL A   1      44.536  20.872  24.079  1.00  0.00    -0.237 OA
ATOM     88  O   UNL A   1      45.166  23.215  23.659  1.00  0.00    -0.237 OA
ATOM     89  O   UNL A   1      46.268  21.930  25.459  1.00  0.00    -0.744 OA
ENDBRANCH  83  86
ENDBRANCH  55  79
BRANCH  67  90
ATOM     90  C   UNL A   1      45.045  29.941  28.670  1.00  0.00     0.023 A 
ATOM     91  C   UNL A   1      43.870  30.302  27.977  1.00  0.00     0.012 A 
ATOM     92  C   UNL A   1      46.252  30.576  28.326  1.00  0.00     0.148 A 
ATOM     93  C   UNL A   1      43.900  31.256  26.957  1.00  0.00     0.002 A 
ATOM     94  C   UNL A   1      46.270  31.562  27.345  1.00  0.00     0.091 A 
ATOM     95  F   UNL A   1      47.363  30.229  28.993  1.00  0.00    -0.205 F 
ATOM     96  C   UNL A   1      45.097  31.898  26.651  1.00  0.00     0.022 A 
BRANCH  94  97
ATOM     97  S   UNL A   1      47.744  32.527  27.001  1.00  0.00     0.127 S 
ATOM     98  O   UNL A   1      48.024  33.134  28.300  1.00  0.00    -0.237 OA
ATOM     99  O   UNL A   1      48.702  31.499  26.589  1.00  0.00    -0.237 OA
ATOM    100  O   UNL A   1      47.377  33.455  25.940  1.00  0.00    -0.744 OA
ENDBRANCH  94  97
ENDBRANCH  67  90
ENDBRANCH  41  42
ENDBRANCH  33  36
ENDBRANCH  31  32
ENDBRANCH   1  31
TORSDOF 18
ENDMDL
MODEL 2
REMARK VINA RESULT:     -11.9      1.682      2.041
REMARK SMILES CCc1nc2sc(C(=O)NCC(=O)NCCCNC(=O)c3ccc(-c4c5nc(c(-c6cccc(S(=O)(=O)[O-])c6F)c6ccc([nH]6)c(-c6cccc(S(=O)(=O)[O-])c6F)c6nc(c(-c7cccc(S(=O)(=O)[O-])c7F)c7ccc4[nH]7)C=C6)C=C5)cc3)c(N)c2c(C(F)(F)F)c1C
REMARK SMILES IDX 16 1 15 2 14 3 12 4 13 5 11 7 10 8 8 9 9 10 7 12 3 13 4 14
REMARK SMILES IDX 92 15 5 16 87 17 93 18 6 19 86 20 84 21 2 22 1 23 88 24
REMARK SMILES IDX 89 25 90 26 91 27 85 28 17 31 18 32 19 33 20 35 21 36 22 37
REMARK SMILES IDX 83 38 23 39 82 40 24 41 25 42 26 43 76 44 27 45 81 46 75 47
REMARK SMILES IDX 77 48 28 49 80 50 74 51 73 52 29 54 61 55 41 56 60 57 42 58
REMARK SMILES IDX 45 59 59 60 78 61 43 62 44 63 58 65 79 66 46 67 30 68 31 69
REMARK SMILES IDX 39 70 32 71 34 72 40 73 33 74 35 75 36 76 37 77 38 78 62 79
REMARK SMILES IDX 63 80 71 81 64 82 66 83 72 84 65 85 67 86 68 87 69 88 70 89
REMARK SMILES IDX 47 90 48 91 56 92 49 93 51 94 57 95 50 96 52 97 53 98 54 99
REMARK SMILES IDX 55 100
REMARK H PARENT 14 6 10 11 85 29 85 30 18 34 77 53 45 64
REMARK Flexibility Score: inf
ROOT
ATOM      1  C   UNL A   1      33.216  31.098  27.527  1.00  0.00     0.042 C 
ENDROOT
BRANCH   1   2
ATOM      2  C   UNL A   1      33.537  30.009  26.510  1.00  0.00     0.117 C 
BRANCH   2   3
ATOM      3  N   UNL A   1      32.396  29.245  26.039  1.00  0.00    -0.355 N 
ATOM      4  C   UNL A   1      32.281  28.026  25.447  1.00  0.00     0.239 C 
ATOM      5  O   UNL A   1      31.143  27.546  25.413  1.00  0.00    -0.273 OA
ATOM      6  H   UNL A   1      31.533  29.700  26.176  1.00  0.00     0.163 HD
BRANCH   4   7
ATOM      7  C   UNL A   1      33.465  27.172  24.963  1.00  0.00     0.216 C 
BRANCH   7   8
ATOM      8  N   UNL A   1      33.652  26.891  23.560  1.00  0.00    -0.342 N 
ATOM      9  C   UNL A   1      33.662  25.745  22.810  1.00  0.00     0.264 C 
ATOM     10  O   UNL A   1      33.629  25.982  21.594  1.00  0.00    -0.268 OA
ATOM     11  H   UNL A   1      33.807  27.702  23.023  1.00  0.00     0.164 HD
BRANCH   9  12
ATOM     12  C   UNL A   1      33.788  24.381  23.338  1.00  0.00     0.118 A 
ATOM     13  C   UNL A   1      33.111  19.764  24.101  1.00  0.00     0.045 A 
ATOM     14  N   UNL A   1      32.431  20.850  23.690  1.00  0.00    -0.242 NA
ATOM     15  C   UNL A   1      34.460  19.792  24.490  1.00  0.00    -0.017 A 
ATOM     16  C   UNL A   1      33.108  22.006  23.688  1.00  0.00     0.127 A 
ATOM     17  C   UNL A   1      35.135  21.050  24.535  1.00  0.00     0.073 A 
ATOM     18  C   UNL A   1      35.192  18.533  24.884  1.00  0.00     0.047 C 
ATOM     19  S   UNL A   1      32.361  23.411  23.129  1.00  0.00    -0.108 S 
ATOM     20  C   UNL A   1      34.411  22.205  24.102  1.00  0.00     0.048 A 
ATOM     21  C   UNL A   1      34.772  23.601  23.936  1.00  0.00     0.066 A 
BRANCH  13  22
ATOM     22  C   UNL A   1      32.262  18.513  24.103  1.00  0.00     0.053 C 
ATOM     23  C   UNL A   1      32.391  17.725  22.808  1.00  0.00     0.011 C 
ENDBRANCH  13  22
BRANCH  17  24
ATOM     24  C   UNL A   1      36.582  21.185  24.963  1.00  0.00     0.417 C 
ATOM     25  F   UNL A   1      37.367  21.715  23.982  1.00  0.00    -0.166 F 
ATOM     26  F   UNL A   1      36.734  22.005  26.046  1.00  0.00    -0.166 F 
ATOM     27  F   UNL A   1      37.200  20.030  25.334  1.00  0.00    -0.166 F 
ENDBRANCH  17  24
BRANCH  21  28
ATOM     28  N   UNL A   1      36.015  24.011  24.263  1.00  0.00    -0.397 N 
ATOM     29  H   UNL A   1      36.164  24.934  24.572  1.00  0.00     0.156 HD
ATOM     30  H   UNL A   1      36.774  23.388  24.193  1.00  0.00     0.156 HD
ENDBRANCH  21  28
ENDBRANCH   9  12
ENDBRANCH   7   8
ENDBRANCH   4   7
ENDBRANCH   2   3
ENDBRANCH   1   2
BRANCH   1  31
ATOM     31  C   UNL A   1      34.430  31.958  27.823  1.00  0.00     0.118 C 
BRANCH  31  32
ATOM     32  N   UNL A   1      34.477  32.400  29.220  1.00  0.00    -0.352 N 
ATOM     33  C   UNL A   1      35.365  32.003  30.209  1.00  0.00     0.251 C 
ATOM     34  H   UNL A   1      33.797  33.059  29.489  1.00  0.00     0.163 HD
ATOM     35  O   UNL A   1      35.137  32.210  31.382  1.00  0.00    -0.269 OA
BRANCH  33  36
ATOM     36  C   UNL A   1      36.586  31.300  29.776  1.00  0.00     0.039 A 
ATOM     37  C   UNL A   1      37.786  31.993  29.616  1.00  0.00     0.014 A 
ATOM     38  C   UNL A   1      36.532  29.914  29.667  1.00  0.00     0.014 A 
ATOM     39  C   UNL A   1      38.958  31.260  29.456  1.00  0.00     0.010 A 
ATOM     40  C   UNL A   1      37.704  29.197  29.672  1.00  0.00     0.010 A 
ATOM     41  C   UNL A   1      38.920  29.857  29.526  1.00  0.00    -0.014 A 
BRANCH  41  42
ATOM     42  C   UNL A   1      40.160  29.086  29.518  1.00  0.00     0.031 A 
ATOM     43  C   UNL A   1      40.774  28.806  30.846  1.00  0.00     0.074 A 
ATOM     44  C   UNL A   1      40.692  28.527  28.410  1.00  0.00     0.049 A 
ATOM     45  N   UNL A   1      41.830  29.359  31.347  1.00  0.00    -0.248 NA
ATOM     46  C   UNL A   1      40.087  27.891  31.767  1.00  0.00     0.031 C 
ATOM     47  C   UNL A   1      40.123  28.424  27.060  1.00  0.00     0.029 A 
ATOM     48  N   UNL A   1      41.852  27.825  28.300  1.00  0.00    -0.354 N 
ATOM     49  C   UNL A   1      42.072  28.710  32.556  1.00  0.00     0.074 A 
ATOM     50  C   UNL A   1      40.885  27.943  32.839  1.00  0.00     0.031 C 
ATOM     51  C   UNL A   1      40.809  27.503  26.349  1.00  0.00     0.029 A 
ATOM     52  C   UNL A   1      41.978  27.121  27.112  1.00  0.00     0.049 A 
ATOM     53  H   UNL A   1      42.541  27.817  29.003  1.00  0.00     0.167 HD
ATOM     54  C   UNL A   1      43.313  28.700  33.120  1.00  0.00     0.034 A 
ATOM     55  C   UNL A   1      42.985  26.285  26.776  1.00  0.00     0.034 A 
ATOM     56  C   UNL A   1      44.185  29.654  32.482  1.00  0.00     0.049 A 
ATOM     57  C   UNL A   1      44.159  26.687  27.581  1.00  0.00     0.074 A 
ATOM     58  C   UNL A   1      44.190  31.023  32.306  1.00  0.00     0.029 A 
ATOM     59  N   UNL A   1      45.085  29.153  31.573  1.00  0.00    -0.354 N 
ATOM     60  N   UNL A   1      44.769  27.830  27.443  1.00  0.00    -0.248 NA
ATOM     61  C   UNL A   1      44.433  25.974  28.815  1.00  0.00     0.031 C 
ATOM     62  C   UNL A   1      44.728  31.222  30.999  1.00  0.00     0.029 A 
ATOM     63  C   UNL A   1      45.062  29.970  30.475  1.00  0.00     0.049 A 
ATOM     64  H   UNL A   1      45.645  28.352  31.689  1.00  0.00     0.167 HD
ATOM     65  C   UNL A   1      45.134  28.187  28.734  1.00  0.00     0.074 A 
ATOM     66  C   UNL A   1      45.029  26.950  29.505  1.00  0.00     0.031 C 
ATOM     67  C   UNL A   1      45.212  29.498  29.112  1.00  0.00     0.034 A 
BRANCH  54  68
ATOM     68  C   UNL A   1      43.880  27.623  34.021  1.00  0.00     0.023 A 
ATOM     69  C   UNL A   1      44.409  26.467  33.396  1.00  0.00     0.012 A 
ATOM     70  C   UNL A   1      43.687  27.556  35.418  1.00  0.00     0.148 A 
ATOM     71  C   UNL A   1      44.675  25.294  34.111  1.00  0.00     0.002 A 
ATOM     72  C   UNL A   1      44.029  26.414  36.138  1.00  0.00     0.091 A 
ATOM     73  F   UNL A   1      43.047  28.542  36.052  1.00  0.00    -0.205 F 
ATOM     74  C   UNL A   1      44.492  25.269  35.486  1.00  0.00     0.022 A 
BRANCH  72  75
ATOM     75  S   UNL A   1      43.874  26.348  37.927  1.00  0.00     0.127 S 
ATOM     76  O   UNL A   1      42.425  26.298  38.095  1.00  0.00    -0.237 OA
ATOM     77  O   UNL A   1      44.579  25.105  38.244  1.00  0.00    -0.237 OA
ATOM     78  O   UNL A   1      44.539  27.549  38.417  1.00  0.00    -0.744 OA
ENDBRANCH  72  75
ENDBRANCH  54  68
BRANCH  55  79
ATOM     79  C   UNL A   1      42.950  25.043  25.981  1.00  0.00     0.023 A 
ATOM     80  C   UNL A   1      43.924  24.832  24.986  1.00  0.00     0.012 A 
ATOM     81  C   UNL A   1      42.164  23.946  26.399  1.00  0.00     0.148 A 
ATOM     82  C   UNL A   1      44.149  23.554  24.464  1.00  0.00     0.002 A 
ATOM     83  C   UNL A   1      42.397  22.676  25.882  1.00  0.00     0.091 A 
ATOM     84  F   UNL A   1      41.261  24.135  27.372  1.00  0.00    -0.205 F 
ATOM     85  C   UNL A   1      43.399  22.475  24.923  1.00  0.00     0.022 A 
BRANCH  83  86
ATOM     86  S   UNL A   1      41.507  21.224  26.456  1.00  0.00     0.127 S 
ATOM     87  O   UNL A   1      41.810  21.231  27.888  1.00  0.00    -0.237 OA
ATOM     88  O   UNL A   1      40.128  21.564  26.121  1.00  0.00    -0.237 OA
ATOM     89  O   UNL A   1      42.075  20.095  25.729  1.00  0.00    -0.744 OA
ENDBRANCH  83  86
ENDBRANCH  55  79
BRANCH  67  90
ATOM     90  C   UNL A   1      45.156  30.559  28.034  1.00  0.00     0.023 A 
ATOM     91  C   UNL A   1      43.938  30.986  27.465  1.00  0.00     0.012 A 
ATOM     92  C   UNL A   1      46.329  31.275  27.730  1.00  0.00     0.148 A 
ATOM     93  C   UNL A   1      43.891  32.084  26.603  1.00  0.00     0.002 A 
ATOM     94  C   UNL A   1      46.271  32.398  26.912  1.00  0.00     0.091 A 
ATOM     95  F   UNL A   1      47.482  30.864  28.279  1.00  0.00    -0.205 F 
ATOM     96  C   UNL A   1      45.055  32.800  26.338  1.00  0.00     0.022 A 
BRANCH  94  97
ATOM     97  S   UNL A   1      47.703  33.447  26.645  1.00  0.00     0.127 S 
ATOM     98  O   UNL A   1      47.871  34.076  27.953  1.00  0.00    -0.237 OA
ATOM     99  O   UNL A   1      48.742  32.477  26.297  1.00  0.00    -0.237 OA
ATOM    100  O   UNL A   1      47.343  34.347  25.557  1.00  0.00    -0.744 OA
ENDBRANCH  94  97
ENDBRANCH  67  90
ENDBRANCH  41  42
ENDBRANCH  33  36
ENDBRANCH  31  32
ENDBRANCH   1  31
TORSDOF 18
ENDMDL
MODEL 3
REMARK VINA RESULT:     -11.9      1.740      2.079
REMARK SMILES CCc1nc2sc(C(=O)NCC(=O)NCCCNC(=O)c3ccc(-c4c5nc(c(-c6cccc(S(=O)(=O)[O-])c6F)c6ccc([nH]6)c(-c6cccc(S(=O)(=O)[O-])c6F)c6nc(c(-c7cccc(S(=O)(=O)[O-])c7F)c7ccc4[nH]7)C=C6)C=C5)cc3)c(N)c2c(C(F)(F)F)c1C
REMARK SMILES IDX 16 1 15 2 14 3 12 4 13 5 11 7 10 8 8 9 9 10 7 12 3 13 4 14
REMARK SMILES IDX 92 15 5 16 87 17 93 18 6 19 86 20 84 21 2 22 1 23 88 24
REMARK SMILES IDX 89 25 90 26 91 27 85 28 17 31 18 32 19 33 20 35 21 36 22 37
REMARK SMILES IDX 83 38 23 39 82 40 24 41 25 42 26 43 76 44 27 45 81 46 75 47
REMARK SMILES IDX 77 48 28 49 80 50 74 51 73 52 29 54 61 55 41 56 60 57 42 58
REMARK SMILES IDX 45 59 59 60 78 61 43 62 44 63 58 65 79 66 46 67 30 68 31 69
REMARK SMILES IDX 39 70 32 71 34 72 40 73 33 74 35 75 36 76 37 77 38 78 62 79
REMARK SMILES IDX 63 80 71 81 64 82 66 83 72 84 65 85 67 86 68 87 69 88 70 89
REMARK SMILES IDX 47 90 48 91 56 92 49 93 51 94 57 95 50 96 52 97 53 98 54 99
REMARK SMILES IDX 55 100
REMARK H PARENT 14 6 10 11 85 29 85 30 18 34 77 53 45 64
REMARK Flexibility Score: inf
ROOT
ATOM      1  C   UNL A   1      32.674  30.554  26.706  1.00  0.00     0.042 C 
ENDROOT
BRANCH   1   2
ATOM      2  C   UNL A   1      33.108  29.445  25.755  1.00  0.00     0.117 C 
BRANCH   2   3
ATOM      3  N   UNL A   1      32.563  29.530  24.413  1.00  0.00    -0.355 N 
ATOM      4  C   UNL A   1      31.933  28.628  23.612  1.00  0.00     0.239 C 
ATOM      5  O   UNL A   1      31.354  29.094  22.624  1.00  0.00    -0.273 OA
ATOM      6  H   UNL A   1      32.670  30.418  24.000  1.00  0.00     0.163 HD
BRANCH   4   7
ATOM      7  C   UNL A   1      31.781  27.132  23.930  1.00  0.00     0.216 C 
BRANCH   7   8
ATOM      8  N   UNL A   1      30.803  26.672  24.886  1.00  0.00    -0.342 N 
ATOM      9  C   UNL A   1      30.755  25.634  25.778  1.00  0.00     0.264 C 
ATOM     10  O   UNL A   1      29.812  25.745  26.574  1.00  0.00    -0.268 OA
ATOM     11  H   UNL A   1      29.990  27.228  24.900  1.00  0.00     0.164 HD
BRANCH   9  12
ATOM     12  C   UNL A   1      31.640  24.463  25.772  1.00  0.00     0.118 A 
ATOM     13  C   UNL A   1      33.313  20.083  25.161  1.00  0.00     0.045 A 
ATOM     14  N   UNL A   1      32.144  20.722  25.349  1.00  0.00    -0.242 NA
ATOM     15  C   UNL A   1      34.556  20.735  25.115  1.00  0.00    -0.017 A 
ATOM     16  C   UNL A   1      32.215  22.048  25.519  1.00  0.00     0.127 A 
ATOM     17  C   UNL A   1      34.603  22.141  25.360  1.00  0.00     0.073 A 
ATOM     18  C   UNL A   1      35.832  19.978  24.840  1.00  0.00     0.047 C 
ATOM     19  S   UNL A   1      30.797  22.944  25.698  1.00  0.00    -0.108 S 
ATOM     20  C   UNL A   1      33.360  22.819  25.564  1.00  0.00     0.048 A 
ATOM     21  C   UNL A   1      33.008  24.213  25.760  1.00  0.00     0.066 A 
BRANCH  13  22
ATOM     22  C   UNL A   1      33.142  18.589  25.012  1.00  0.00     0.053 C 
ATOM     23  C   UNL A   1      32.527  18.208  23.673  1.00  0.00     0.011 C 
ENDBRANCH  13  22
BRANCH  17  24
ATOM     24  C   UNL A   1      35.898  22.928  25.354  1.00  0.00     0.417 C 
ATOM     25  F   UNL A   1      36.992  22.128  25.210  1.00  0.00    -0.166 F 
ATOM     26  F   UNL A   1      35.958  23.831  24.329  1.00  0.00    -0.166 F 
ATOM     27  F   UNL A   1      36.142  23.674  26.467  1.00  0.00    -0.166 F 
ENDBRANCH  17  24
BRANCH  21  28
ATOM     28  N   UNL A   1      33.983  25.145  25.813  1.00  0.00    -0.397 N 
ATOM     29  H   UNL A   1      33.785  26.078  25.566  1.00  0.00     0.156 HD
ATOM     30  H   UNL A   1      34.890  24.894  26.099  1.00  0.00     0.156 HD
ENDBRANCH  21  28
ENDBRANCH   9  12
ENDBRANCH   7   8
ENDBRANCH   4   7
ENDBRANCH   2   3
ENDBRANCH   1   2
BRANCH   1  31
ATOM     31  C   UNL A   1      33.745  30.853  27.738  1.00  0.00     0.118 C 
BRANCH  31  32
ATOM     32  N   UNL A   1      34.374  32.162  27.530  1.00  0.00    -0.352 N 
ATOM     33  C   UNL A   1      35.603  32.599  27.999  1.00  0.00     0.251 C 
ATOM     34  H   UNL A   1      33.861  32.807  26.991  1.00  0.00     0.163 HD
ATOM     35  O   UNL A   1      35.891  33.777  28.011  1.00  0.00    -0.269 OA
BRANCH  33  36
ATOM     36  C   UNL A   1      36.536  31.575  28.504  1.00  0.00     0.039 A 
ATOM     37  C   UNL A   1      36.513  30.278  27.990  1.00  0.00     0.014 A 
ATOM     38  C   UNL A   1      37.519  31.979  29.401  1.00  0.00     0.014 A 
ATOM     39  C   UNL A   1      37.563  29.422  28.305  1.00  0.00     0.010 A 
ATOM     40  C   UNL A   1      38.629  31.189  29.576  1.00  0.00     0.010 A 
ATOM     41  C   UNL A   1      38.645  29.894  29.067  1.00  0.00    -0.014 A 
BRANCH  41  42
ATOM     42  C   UNL A   1      39.823  29.056  29.271  1.00  0.00     0.031 A 
ATOM     43  C   UNL A   1      40.223  28.811  30.685  1.00  0.00     0.074 A 
ATOM     44  C   UNL A   1      40.470  28.411  28.277  1.00  0.00     0.049 A 
ATOM     45  N   UNL A   1      41.231  29.328  31.309  1.00  0.00    -0.248 NA
ATOM     46  C   UNL A   1      39.357  27.985  31.536  1.00  0.00     0.031 C 
ATOM     47  C   UNL A   1      40.093  28.271  26.864  1.00  0.00     0.029 A 
ATOM     48  N   UNL A   1      41.587  27.640  28.365  1.00  0.00    -0.354 N 
ATOM     49  C   UNL A   1      41.258  28.730  32.567  1.00  0.00     0.074 A 
ATOM     50  C   UNL A   1      39.997  28.047  32.708  1.00  0.00     0.031 C 
ATOM     51  C   UNL A   1      40.812  27.277  26.300  1.00  0.00     0.029 A 
ATOM     52  C   UNL A   1      41.835  26.870  27.239  1.00  0.00     0.049 A 
ATOM     53  H   UNL A   1      42.168  27.630  29.160  1.00  0.00     0.167 HD
ATOM     54  C   UNL A   1      42.404  28.680  33.303  1.00  0.00     0.034 A 
ATOM     55  C   UNL A   1      42.825  25.963  27.089  1.00  0.00     0.034 A 
ATOM     56  C   UNL A   1      43.416  29.549  32.758  1.00  0.00     0.049 A 
ATOM     57  C   UNL A   1      43.896  26.339  28.037  1.00  0.00     0.074 A 
ATOM     58  C   UNL A   1      43.532  30.904  32.526  1.00  0.00     0.029 A 
ATOM     59  N   UNL A   1      44.402  28.952  32.010  1.00  0.00    -0.354 N 
ATOM     60  N   UNL A   1      44.591  27.437  27.939  1.00  0.00    -0.248 NA
ATOM     61  C   UNL A   1      43.948  25.676  29.327  1.00  0.00     0.031 C 
ATOM     62  C   UNL A   1      44.261  31.005  31.302  1.00  0.00     0.029 A 
ATOM     63  C   UNL A   1      44.586  29.711  30.886  1.00  0.00     0.049 A 
ATOM     64  H   UNL A   1      44.888  28.127  32.240  1.00  0.00     0.167 HD
ATOM     65  C   UNL A   1      44.791  27.839  29.253  1.00  0.00     0.074 A 
ATOM     66  C   UNL A   1      44.500  26.651  30.053  1.00  0.00     0.031 C 
ATOM     67  C   UNL A   1      44.897  29.162  29.581  1.00  0.00     0.034 A 
BRANCH  54  68
ATOM     68  C   UNL A   1      42.769  27.620  34.323  1.00  0.00     0.023 A 
ATOM     69  C   UNL A   1      42.788  28.010  35.684  1.00  0.00     0.012 A 
ATOM     70  C   UNL A   1      43.342  26.368  34.014  1.00  0.00     0.148 A 
ATOM     71  C   UNL A   1      43.393  27.225  36.671  1.00  0.00     0.002 A 
ATOM     72  C   UNL A   1      43.871  25.553  35.012  1.00  0.00     0.091 A 
ATOM     73  F   UNL A   1      43.504  26.003  32.739  1.00  0.00    -0.205 F 
ATOM     74  C   UNL A   1      43.930  25.991  36.337  1.00  0.00     0.022 A 
BRANCH  72  75
ATOM     75  S   UNL A   1      44.520  23.917  34.645  1.00  0.00     0.127 S 
ATOM     76  O   UNL A   1      45.695  24.241  33.842  1.00  0.00    -0.237 OA
ATOM     77  O   UNL A   1      44.809  23.402  35.985  1.00  0.00    -0.237 OA
ATOM     78  O   UNL A   1      43.441  23.218  33.960  1.00  0.00    -0.744 OA
ENDBRANCH  72  75
ENDBRANCH  54  68
BRANCH  55  79
ATOM     79  C   UNL A   1      42.824  24.685  26.351  1.00  0.00     0.023 A 
ATOM     80  C   UNL A   1      43.911  24.371  25.513  1.00  0.00     0.012 A 
ATOM     81  C   UNL A   1      41.923  23.655  26.702  1.00  0.00     0.148 A 
ATOM     82  C   UNL A   1      44.128  23.058  25.084  1.00  0.00     0.002 A 
ATOM     83  C   UNL A   1      42.147  22.350  26.278  1.00  0.00     0.091 A 
ATOM     84  F   UNL A   1      40.908  23.942  27.529  1.00  0.00    -0.205 F 
ATOM     85  C   UNL A   1      43.258  22.046  25.479  1.00  0.00     0.022 A 
BRANCH  83  86
ATOM     86  S   UNL A   1      41.101  20.979  26.784  1.00  0.00     0.127 S 
ATOM     87  O   UNL A   1      39.918  21.176  25.945  1.00  0.00    -0.237 OA
ATOM     88  O   UNL A   1      41.921  19.825  26.423  1.00  0.00    -0.237 OA
ATOM     89  O   UNL A   1      40.863  21.163  28.210  1.00  0.00    -0.744 OA
ENDBRANCH  83  86
ENDBRANCH  55  79
BRANCH  67  90
ATOM     90  C   UNL A   1      45.062  30.167  28.462  1.00  0.00     0.023 A 
ATOM     91  C   UNL A   1      43.956  30.790  27.846  1.00  0.00     0.012 A 
ATOM     92  C   UNL A   1      46.353  30.636  28.160  1.00  0.00     0.148 A 
ATOM     93  C   UNL A   1      44.132  31.840  26.941  1.00  0.00     0.002 A 
ATOM     94  C   UNL A   1      46.523  31.714  27.298  1.00  0.00     0.091 A 
ATOM     95  F   UNL A   1      47.399  30.039  28.753  1.00  0.00    -0.205 F 
ATOM     96  C   UNL A   1      45.415  32.313  26.678  1.00  0.00     0.022 A 
BRANCH  94  97
ATOM     97  S   UNL A   1      48.132  32.463  27.026  1.00  0.00     0.127 S 
ATOM     98  O   UNL A   1      48.911  31.338  26.512  1.00  0.00    -0.237 OA
ATOM     99  O   UNL A   1      47.832  33.500  26.038  1.00  0.00    -0.237 OA
ATOM    100  O   UNL A   1      48.557  32.981  28.321  1.00  0.00    -0.744 OA
ENDBRANCH  94  97
ENDBRANCH  67  90
ENDBRANCH  41  42
ENDBRANCH  33  36
ENDBRANCH  31  32
ENDBRANCH   1  31
TORSDOF 18
ENDMDL
