MODEL 1
REMARK VINA RESULT:     -11.3      0.000      0.000
REMARK SMILES COc1ccc(-c2cc(C(F)(F)F)n3nc(C(=O)NCCCNC(=O)c4ccc(-c5c6nc(c(-c7cccc(S(=O)(=O)[O-])c7F)c7ccc([nH]7)c(-c7cccc(S(=O)(=O)[O-])c7F)c7nc(c(-c8cccc(S(=O)(=O)[O-])c8F)c8ccc5[nH]8)C=C7)C=C6)cc4)cc3n2)cc1OC
REMARK SMILES IDX 21 1 20 2 19 3 17 4 18 5 16 7 7 8 8 9 91 10 9 11 90 12 14 13
REMARK SMILES IDX 89 14 15 15 6 16 3 17 4 18 93 19 5 20 92 21 2 22 1 23 94 24
REMARK SMILES IDX 95 25 10 26 11 27 12 28 13 29 22 30 23 31 24 32 25 34 26 35
REMARK SMILES IDX 27 36 88 37 28 38 87 39 29 40 30 41 31 42 81 43 32 44 86 45
REMARK SMILES IDX 80 46 82 47 33 48 85 49 79 50 78 51 34 53 66 54 46 55 65 56
REMARK SMILES IDX 47 57 50 58 64 59 83 60 48 61 49 62 63 64 84 65 51 66 35 67
REMARK SMILES IDX 36 68 44 69 37 70 39 71 45 72 38 73 40 74 41 75 42 76 43 77
REMARK SMILES IDX 67 78 68 79 76 80 69 81 71 82 77 83 70 84 72 85 73 86 74 87
REMARK SMILES IDX 75 88 52 89 53 90 61 91 54 92 56 93 62 94 55 95 57 96 58 97
REMARK SMILES IDX 59 98 60 99
REMARK H PARENT 19 6 23 33 82 52 50 63
REMARK Flexibility Score: inf
ROOT
ATOM      1  C   UNL A   1      33.723  36.128  28.854  1.00  0.00     0.042 C 
ENDROOT
BRANCH   1   2
ATOM      2  C   UNL A   1      34.624  35.318  27.924  1.00  0.00     0.118 C 
BRANCH   2   3
ATOM      3  N   UNL A   1      35.740  34.731  28.638  1.00  0.00    -0.351 N 
ATOM      4  C   UNL A   1      36.159  33.429  28.771  1.00  0.00     0.271 C 
ATOM      5  O   UNL A   1      37.224  33.268  29.383  1.00  0.00    -0.267 OA
ATOM      6  H   UNL A   1      36.300  35.385  29.115  1.00  0.00     0.163 HD
BRANCH   4   7
ATOM      7  C   UNL A   1      35.408  32.298  28.187  1.00  0.00     0.152 A 
ATOM      8  C   UNL A   1      33.342  28.690  26.665  1.00  0.00     0.075 A 
ATOM      9  C   UNL A   1      32.218  29.658  26.463  1.00  0.00     0.062 A 
ATOM     10  N   UNL A   1      34.509  29.000  27.146  1.00  0.00    -0.228 NA
ATOM     11  C   UNL A   1      32.450  30.928  26.854  1.00  0.00     0.150 A 
ATOM     12  C   UNL A   1      34.702  30.311  27.464  1.00  0.00     0.157 A 
ATOM     13  N   UNL A   1      33.690  31.265  27.383  1.00  0.00    -0.209 N 
ATOM     14  C   UNL A   1      35.827  30.989  27.857  1.00  0.00     0.085 A 
ATOM     15  N   UNL A   1      34.104  32.451  27.878  1.00  0.00    -0.161 NA
BRANCH   8  16
ATOM     16  C   UNL A   1      33.063  27.283  26.303  1.00  0.00     0.004 A 
ATOM     17  C   UNL A   1      32.531  24.626  25.630  1.00  0.00     0.160 A 
ATOM     18  C   UNL A   1      31.529  25.422  26.203  1.00  0.00     0.051 A 
ATOM     19  C   UNL A   1      33.806  25.161  25.389  1.00  0.00     0.161 A 
ATOM     20  C   UNL A   1      31.798  26.747  26.556  1.00  0.00     0.014 A 
ATOM     21  C   UNL A   1      34.061  26.494  25.727  1.00  0.00     0.060 A 
BRANCH  17  22
ATOM     22  O   UNL A   1      32.205  23.365  25.210  1.00  0.00    -0.493 OA
ATOM     23  C   UNL A   1      32.271  22.413  26.273  1.00  0.00     0.278 C 
ENDBRANCH  17  22
BRANCH  19  24
ATOM     24  O   UNL A   1      34.877  24.542  24.804  1.00  0.00    -0.493 OA
ATOM     25  C   UNL A   1      35.756  23.823  25.658  1.00  0.00     0.278 C 
ENDBRANCH  19  24
ENDBRANCH   8  16
BRANCH  11  26
ATOM     26  C   UNL A   1      31.459  32.022  26.738  1.00  0.00     0.433 C 
ATOM     27  F   UNL A   1      30.519  31.994  27.714  1.00  0.00    -0.165 F 
ATOM     28  F   UNL A   1      32.026  33.253  26.738  1.00  0.00    -0.165 F 
ATOM     29  F   UNL A   1      30.769  31.937  25.563  1.00  0.00    -0.165 F 
ENDBRANCH  11  26
ENDBRANCH   4   7
ENDBRANCH   2   3
ENDBRANCH   1   2
BRANCH   1  30
ATOM     30  C   UNL A   1      32.796  35.255  29.699  1.00  0.00     0.118 C 
BRANCH  30  31
ATOM     31  N   UNL A   1      32.358  35.944  30.909  1.00  0.00    -0.352 N 
ATOM     32  C   UNL A   1      32.736  35.772  32.216  1.00  0.00     0.251 C 
ATOM     33  H   UNL A   1      31.683  36.645  30.764  1.00  0.00     0.163 HD
ATOM     34  O   UNL A   1      32.066  36.293  33.105  1.00  0.00    -0.269 OA
BRANCH  32  35
ATOM     35  C   UNL A   1      33.931  34.973  32.560  1.00  0.00     0.039 A 
ATOM     36  C   UNL A   1      35.193  35.460  32.202  1.00  0.00     0.014 A 
ATOM     37  C   UNL A   1      33.813  33.730  33.186  1.00  0.00     0.014 A 
ATOM     38  C   UNL A   1      36.335  34.725  32.521  1.00  0.00     0.010 A 
ATOM     39  C   UNL A   1      34.957  33.034  33.569  1.00  0.00     0.010 A 
ATOM     40  C   UNL A   1      36.229  33.520  33.234  1.00  0.00    -0.014 A 
BRANCH  40  41
ATOM     41  C   UNL A   1      37.438  32.768  33.657  1.00  0.00     0.031 A 
ATOM     42  C   UNL A   1      38.222  33.199  34.867  1.00  0.00     0.074 A 
ATOM     43  C   UNL A   1      37.879  31.748  32.895  1.00  0.00     0.049 A 
ATOM     44  N   UNL A   1      39.326  32.695  35.355  1.00  0.00    -0.248 NA
ATOM     45  C   UNL A   1      37.716  34.365  35.612  1.00  0.00     0.031 C 
ATOM     46  C   UNL A   1      37.250  31.289  31.655  1.00  0.00     0.029 A 
ATOM     47  N   UNL A   1      38.971  30.930  33.036  1.00  0.00    -0.354 N 
ATOM     48  C   UNL A   1      39.667  33.500  36.436  1.00  0.00     0.074 A 
ATOM     49  C   UNL A   1      38.670  34.546  36.514  1.00  0.00     0.031 C 
ATOM     50  C   UNL A   1      37.962  30.269  31.151  1.00  0.00     0.029 A 
ATOM     51  C   UNL A   1      39.114  30.022  32.012  1.00  0.00     0.049 A 
ATOM     52  H   UNL A   1      39.593  30.986  33.796  1.00  0.00     0.167 HD
ATOM     53  C   UNL A   1      40.701  33.367  37.302  1.00  0.00     0.034 A 
ATOM     54  C   UNL A   1      40.070  29.099  31.787  1.00  0.00     0.034 A 
ATOM     55  C   UNL A   1      41.666  32.302  37.242  1.00  0.00     0.049 A 
ATOM     56  C   UNL A   1      41.184  28.946  32.786  1.00  0.00     0.074 A 
ATOM     57  C   UNL A   1      42.695  32.022  38.124  1.00  0.00     0.029 A 
ATOM     58  N   UNL A   1      41.732  31.349  36.237  1.00  0.00    -0.354 N 
ATOM     59  N   UNL A   1      41.397  29.614  33.893  1.00  0.00    -0.248 NA
ATOM     60  C   UNL A   1      42.170  27.888  32.523  1.00  0.00     0.031 C 
ATOM     61  C   UNL A   1      43.401  30.918  37.636  1.00  0.00     0.029 A 
ATOM     62  C   UNL A   1      42.792  30.487  36.468  1.00  0.00     0.049 A 
ATOM     63  H   UNL A   1      41.116  31.293  35.471  1.00  0.00     0.167 HD
ATOM     64  C   UNL A   1      42.517  29.035  34.478  1.00  0.00     0.074 A 
ATOM     65  C   UNL A   1      42.925  27.948  33.611  1.00  0.00     0.031 C 
ATOM     66  C   UNL A   1      43.157  29.380  35.623  1.00  0.00     0.034 A 
BRANCH  53  67
ATOM     67  C   UNL A   1      40.814  34.371  38.420  1.00  0.00     0.023 A 
ATOM     68  C   UNL A   1      41.707  35.455  38.298  1.00  0.00     0.012 A 
ATOM     69  C   UNL A   1      40.001  34.275  39.567  1.00  0.00     0.148 A 
ATOM     70  C   UNL A   1      41.818  36.405  39.313  1.00  0.00     0.002 A 
ATOM     71  C   UNL A   1      40.083  35.252  40.553  1.00  0.00     0.091 A 
ATOM     72  F   UNL A   1      39.172  33.227  39.678  1.00  0.00    -0.205 F 
ATOM     73  C   UNL A   1      40.999  36.309  40.434  1.00  0.00     0.022 A 
BRANCH  71  74
ATOM     74  S   UNL A   1      39.014  35.263  41.997  1.00  0.00     0.127 S 
ATOM     75  O   UNL A   1      39.458  34.062  42.702  1.00  0.00    -0.237 OA
ATOM     76  O   UNL A   1      39.385  36.522  42.644  1.00  0.00    -0.237 OA
ATOM     77  O   UNL A   1      37.650  35.222  41.489  1.00  0.00    -0.744 OA
ENDBRANCH  71  74
ENDBRANCH  53  67
BRANCH  54  78
ATOM     78  C   UNL A   1      39.972  28.205  30.599  1.00  0.00     0.023 A 
ATOM     79  C   UNL A   1      39.036  27.152  30.602  1.00  0.00     0.012 A 
ATOM     80  C   UNL A   1      40.770  28.411  29.457  1.00  0.00     0.148 A 
ATOM     81  C   UNL A   1      38.918  26.302  29.502  1.00  0.00     0.002 A 
ATOM     82  C   UNL A   1      40.607  27.596  28.343  1.00  0.00     0.091 A 
ATOM     83  F   UNL A   1      41.660  29.413  29.477  1.00  0.00    -0.205 F 
ATOM     84  C   UNL A   1      39.695  26.530  28.370  1.00  0.00     0.022 A 
BRANCH  82  85
ATOM     85  S   UNL A   1      41.467  27.896  26.793  1.00  0.00     0.127 S 
ATOM     86  O   UNL A   1      42.857  27.981  27.234  1.00  0.00    -0.237 OA
ATOM     87  O   UNL A   1      41.135  26.693  26.028  1.00  0.00    -0.237 OA
ATOM     88  O   UNL A   1      40.896  29.124  26.259  1.00  0.00    -0.744 OA
ENDBRANCH  82  85
ENDBRANCH  54  78
BRANCH  66  89
ATOM     89  C   UNL A   1      44.348  28.554  36.033  1.00  0.00     0.023 A 
ATOM     90  C   UNL A   1      45.641  28.922  35.607  1.00  0.00     0.012 A 
ATOM     91  C   UNL A   1      44.193  27.454  36.899  1.00  0.00     0.148 A 
ATOM     92  C   UNL A   1      46.755  28.188  36.011  1.00  0.00     0.002 A 
ATOM     93  C   UNL A   1      45.312  26.759  37.339  1.00  0.00     0.091 A 
ATOM     94  F   UNL A   1      42.953  27.108  37.277  1.00  0.00    -0.205 F 
ATOM     95  C   UNL A   1      46.593  27.116  36.886  1.00  0.00     0.022 A 
BRANCH  93  96
ATOM     96  S   UNL A   1      45.210  25.428  38.541  1.00  0.00     0.127 S 
ATOM     97  O   UNL A   1      44.438  24.425  37.810  1.00  0.00    -0.237 OA
ATOM     98  O   UNL A   1      46.618  25.085  38.744  1.00  0.00    -0.237 OA
ATOM     99  O   UNL A   1      44.550  25.993  39.711  1.00  0.00    -0.744 OA
ENDBRANCH  93  96
ENDBRANCH  66  89
ENDBRANCH  40  41
ENDBRANCH  32  35
ENDBRANCH  30  31
ENDBRANCH   1  30
TORSDOF 17
ENDMDL
MODEL 2
REMARK VINA RESULT:     -11.2      5.842     12.075
REMARK SMILES COc1ccc(-c2cc(C(F)(F)F)n3nc(C(=O)NCCCNC(=O)c4ccc(-c5c6nc(c(-c7cccc(S(=O)(=O)[O-])c7F)c7ccc([nH]7)c(-c7cccc(S(=O)(=O)[O-])c7F)c7nc(c(-c8cccc(S(=O)(=O)[O-])c8F)c8ccc5[nH]8)C=C7)C=C6)cc4)cc3n2)cc1OC
REMARK SMILES IDX 21 1 20 2 19 3 17 4 18 5 16 7 7 8 8 9 91 10 9 11 90 12 14 13
REMARK SMILES IDX 89 14 15 15 6 16 3 17 4 18 93 19 5 20 92 21 2 22 1 23 94 24
REMARK SMILES IDX 95 25 10 26 11 27 12 28 13 29 22 30 23 31 24 32 25 34 26 35
REMARK SMILES IDX 27 36 88 37 28 38 87 39 29 40 30 41 31 42 81 43 32 44 86 45
REMARK SMILES IDX 80 46 82 47 33 48 85 49 79 50 78 51 34 53 66 54 46 55 65 56
REMARK SMILES IDX 47 57 50 58 64 59 83 60 48 61 49 62 63 64 84 65 51 66 35 67
REMARK SMILES IDX 36 68 44 69 37 70 39 71 45 72 38 73 40 74 41 75 42 76 43 77
REMARK SMILES IDX 67 78 68 79 76 80 69 81 71 82 77 83 70 84 72 85 73 86 74 87
REMARK SMILES IDX 75 88 52 89 53 90 61 91 54 92 56 93 62 94 55 95 57 96 58 97
REMARK SMILES IDX 59 98 60 99
REMARK H PARENT 19 6 23 33 82 52 50 63
REMARK Flexibility Score: inf
ROOT
ATOM      1  C   UNL A   1      41.406  21.061  26.367  1.00  0.00     0.042 C 
ENDROOT
BRANCH   1   2
ATOM      2  C   UNL A   1      42.420  22.173  26.110  1.00  0.00     0.118 C 
BRANCH   2   3
ATOM      3  N   UNL A   1      43.169  21.943  24.891  1.00  0.00    -0.351 N 
ATOM      4  C   UNL A   1      44.087  22.713  24.220  1.00  0.00     0.271 C 
ATOM      5  O   UNL A   1      44.624  22.179  23.240  1.00  0.00    -0.267 OA
ATOM      6  H   UNL A   1      42.985  21.074  24.466  1.00  0.00     0.163 HD
BRANCH   4   7
ATOM      7  C   UNL A   1      44.441  24.078  24.664  1.00  0.00     0.152 A 
ATOM      8  C   UNL A   1      45.230  28.140  26.240  1.00  0.00     0.075 A 
ATOM      9  C   UNL A   1      46.636  27.806  25.847  1.00  0.00     0.062 A 
ATOM     10  N   UNL A   1      44.210  27.351  26.079  1.00  0.00    -0.228 NA
ATOM     11  C   UNL A   1      46.833  26.577  25.328  1.00  0.00     0.150 A 
ATOM     12  C   UNL A   1      44.464  26.147  25.492  1.00  0.00     0.157 A 
ATOM     13  N   UNL A   1      45.749  25.721  25.167  1.00  0.00    -0.209 N 
ATOM     14  C   UNL A   1      43.618  25.158  25.061  1.00  0.00     0.085 A 
ATOM     15  N   UNL A   1      45.736  24.447  24.723  1.00  0.00    -0.161 NA
BRANCH   8  16
ATOM     16  C   UNL A   1      45.028  29.460  26.875  1.00  0.00     0.004 A 
ATOM     17  C   UNL A   1      44.638  31.955  28.065  1.00  0.00     0.160 A 
ATOM     18  C   UNL A   1      43.537  31.156  27.727  1.00  0.00     0.051 A 
ATOM     19  C   UNL A   1      45.942  31.505  27.810  1.00  0.00     0.161 A 
ATOM     20  C   UNL A   1      43.729  29.914  27.116  1.00  0.00     0.014 A 
ATOM     21  C   UNL A   1      46.127  30.253  27.216  1.00  0.00     0.060 A 
BRANCH  17  22
ATOM     22  O   UNL A   1      44.415  33.120  28.749  1.00  0.00    -0.493 OA
ATOM     23  C   UNL A   1      44.106  34.205  27.871  1.00  0.00     0.278 C 
ENDBRANCH  17  22
BRANCH  19  24
ATOM     24  O   UNL A   1      47.119  32.134  28.112  1.00  0.00    -0.493 OA
ATOM     25  C   UNL A   1      47.693  32.954  27.103  1.00  0.00     0.278 C 
ENDBRANCH  19  24
ENDBRANCH   8  16
BRANCH  11  26
ATOM     26  C   UNL A   1      48.151  26.066  24.888  1.00  0.00     0.433 C 
ATOM     27  F   UNL A   1      48.131  25.559  23.630  1.00  0.00    -0.165 F 
ATOM     28  F   UNL A   1      49.129  27.003  24.947  1.00  0.00    -0.165 F 
ATOM     29  F   UNL A   1      48.573  25.044  25.688  1.00  0.00    -0.165 F 
ENDBRANCH  11  26
ENDBRANCH   4   7
ENDBRANCH   2   3
ENDBRANCH   1   2
BRANCH   1  30
ATOM     30  C   UNL A   1      40.185  21.534  27.156  1.00  0.00     0.118 C 
BRANCH  30  31
ATOM     31  N   UNL A   1      39.144  22.063  26.280  1.00  0.00    -0.352 N 
ATOM     32  C   UNL A   1      38.577  23.310  26.226  1.00  0.00     0.251 C 
ATOM     33  H   UNL A   1      38.794  21.421  25.621  1.00  0.00     0.163 HD
ATOM     34  O   UNL A   1      37.549  23.471  25.571  1.00  0.00    -0.269 OA
BRANCH  32  35
ATOM     35  C   UNL A   1      39.186  24.451  26.941  1.00  0.00     0.039 A 
ATOM     36  C   UNL A   1      40.063  25.291  26.247  1.00  0.00     0.014 A 
ATOM     37  C   UNL A   1      38.938  24.668  28.299  1.00  0.00     0.014 A 
ATOM     38  C   UNL A   1      40.647  26.377  26.902  1.00  0.00     0.010 A 
ATOM     39  C   UNL A   1      39.461  25.794  28.929  1.00  0.00     0.010 A 
ATOM     40  C   UNL A   1      40.327  26.656  28.240  1.00  0.00    -0.014 A 
BRANCH  40  41
ATOM     41  C   UNL A   1      40.870  27.855  28.926  1.00  0.00     0.031 A 
ATOM     42  C   UNL A   1      42.247  27.831  29.532  1.00  0.00     0.074 A 
ATOM     43  C   UNL A   1      40.083  28.939  29.079  1.00  0.00     0.049 A 
ATOM     44  N   UNL A   1      42.865  28.764  30.210  1.00  0.00    -0.248 NA
ATOM     45  C   UNL A   1      43.022  26.588  29.383  1.00  0.00     0.031 C 
ATOM     46  C   UNL A   1      38.702  29.051  28.607  1.00  0.00     0.029 A 
ATOM     47  N   UNL A   1      40.322  30.140  29.697  1.00  0.00    -0.354 N 
ATOM     48  C   UNL A   1      44.080  28.212  30.598  1.00  0.00     0.074 A 
ATOM     49  C   UNL A   1      44.100  26.850  30.109  1.00  0.00     0.031 C 
ATOM     50  C   UNL A   1      38.217  30.256  28.946  1.00  0.00     0.029 A 
ATOM     51  C   UNL A   1      39.239  30.989  29.687  1.00  0.00     0.049 A 
ATOM     52  H   UNL A   1      41.185  30.374  30.108  1.00  0.00     0.167 HD
ATOM     53  C   UNL A   1      45.098  28.793  31.278  1.00  0.00     0.034 A 
ATOM     54  C   UNL A   1      39.083  32.216  30.221  1.00  0.00     0.034 A 
ATOM     55  C   UNL A   1      45.088  30.159  31.728  1.00  0.00     0.049 A 
ATOM     56  C   UNL A   1      40.243  32.852  30.936  1.00  0.00     0.074 A 
ATOM     57  C   UNL A   1      46.103  30.871  32.341  1.00  0.00     0.029 A 
ATOM     58  N   UNL A   1      44.003  31.017  31.627  1.00  0.00    -0.354 N 
ATOM     59  N   UNL A   1      41.444  32.373  31.150  1.00  0.00    -0.248 NA
ATOM     60  C   UNL A   1      40.040  34.214  31.451  1.00  0.00     0.031 C 
ATOM     61  C   UNL A   1      45.623  32.150  32.638  1.00  0.00     0.029 A 
ATOM     62  C   UNL A   1      44.319  32.248  32.178  1.00  0.00     0.049 A 
ATOM     63  H   UNL A   1      43.136  30.786  31.222  1.00  0.00     0.167 HD
ATOM     64  C   UNL A   1      42.150  33.384  31.790  1.00  0.00     0.074 A 
ATOM     65  C   UNL A   1      41.247  34.511  31.911  1.00  0.00     0.031 C 
ATOM     66  C   UNL A   1      43.426  33.376  32.248  1.00  0.00     0.034 A 
BRANCH  53  67
ATOM     67  C   UNL A   1      46.333  27.966  31.534  1.00  0.00     0.023 A 
ATOM     68  C   UNL A   1      46.401  27.150  32.682  1.00  0.00     0.012 A 
ATOM     69  C   UNL A   1      47.400  27.952  30.615  1.00  0.00     0.148 A 
ATOM     70  C   UNL A   1      47.526  26.365  32.932  1.00  0.00     0.002 A 
ATOM     71  C   UNL A   1      48.498  27.131  30.847  1.00  0.00     0.091 A 
ATOM     72  F   UNL A   1      47.329  28.749  29.539  1.00  0.00    -0.205 F 
ATOM     73  C   UNL A   1      48.569  26.348  32.010  1.00  0.00     0.022 A 
BRANCH  71  74
ATOM     74  S   UNL A   1      49.856  26.975  29.681  1.00  0.00     0.127 S 
ATOM     75  O   UNL A   1      50.494  28.285  29.794  1.00  0.00    -0.237 OA
ATOM     76  O   UNL A   1      50.627  25.870  30.252  1.00  0.00    -0.237 OA
ATOM     77  O   UNL A   1      49.246  26.685  28.390  1.00  0.00    -0.744 OA
ENDBRANCH  71  74
ENDBRANCH  53  67
BRANCH  54  78
ATOM     78  C   UNL A   1      37.797  32.947  30.038  1.00  0.00     0.023 A 
ATOM     79  C   UNL A   1      37.449  33.421  28.758  1.00  0.00     0.012 A 
ATOM     80  C   UNL A   1      36.904  33.142  31.109  1.00  0.00     0.148 A 
ATOM     81  C   UNL A   1      36.249  34.104  28.553  1.00  0.00     0.002 A 
ATOM     82  C   UNL A   1      35.685  33.772  30.887  1.00  0.00     0.091 A 
ATOM     83  F   UNL A   1      37.257  32.690  32.321  1.00  0.00    -0.205 F 
ATOM     84  C   UNL A   1      35.363  34.270  29.615  1.00  0.00     0.022 A 
BRANCH  82  85
ATOM     85  S   UNL A   1      34.425  33.912  32.161  1.00  0.00     0.127 S 
ATOM     86  O   UNL A   1      35.123  34.681  33.189  1.00  0.00    -0.237 OA
ATOM     87  O   UNL A   1      33.368  34.640  31.458  1.00  0.00    -0.237 OA
ATOM     88  O   UNL A   1      34.076  32.545  32.521  1.00  0.00    -0.744 OA
ENDBRANCH  82  85
ENDBRANCH  54  78
BRANCH  66  89
ATOM     89  C   UNL A   1      43.945  34.635  32.892  1.00  0.00     0.023 A 
ATOM     90  C   UNL A   1      43.928  34.768  34.295  1.00  0.00     0.012 A 
ATOM     91  C   UNL A   1      44.516  35.658  32.109  1.00  0.00     0.148 A 
ATOM     92  C   UNL A   1      44.439  35.912  34.906  1.00  0.00     0.002 A 
ATOM     93  C   UNL A   1      45.071  36.772  32.726  1.00  0.00     0.091 A 
ATOM     94  F   UNL A   1      44.505  35.522  30.774  1.00  0.00    -0.205 F 
ATOM     95  C   UNL A   1      45.021  36.907  34.123  1.00  0.00     0.022 A 
BRANCH  93  96
ATOM     96  S   UNL A   1      45.927  38.056  31.808  1.00  0.00     0.127 S 
ATOM     97  O   UNL A   1      44.840  38.636  31.021  1.00  0.00    -0.237 OA
ATOM     98  O   UNL A   1      46.434  38.916  32.877  1.00  0.00    -0.237 OA
ATOM     99  O   UNL A   1      46.961  37.377  31.037  1.00  0.00    -0.744 OA
ENDBRANCH  93  96
ENDBRANCH  66  89
ENDBRANCH  40  41
ENDBRANCH  32  35
ENDBRANCH  30  31
ENDBRANCH   1  30
TORSDOF 17
ENDMDL
MODEL 3
REMARK VINA RESULT:     -11.1      6.102     11.229
REMARK SMILES COc1ccc(-c2cc(C(F)(F)F)n3nc(C(=O)NCCCNC(=O)c4ccc(-c5c6nc(c(-c7cccc(S(=O)(=O)[O-])c7F)c7ccc([nH]7)c(-c7cccc(S(=O)(=O)[O-])c7F)c7nc(c(-c8cccc(S(=O)(=O)[O-])c8F)c8ccc5[nH]8)C=C7)C=C6)cc4)cc3n2)cc1OC
REMARK SMILES IDX 21 1 20 2 19 3 17 4 18 5 16 7 7 8 8 9 91 10 9 11 90 12 14 13
REMARK SMILES IDX 89 14 15 15 6 16 3 17 4 18 93 19 5 20 92 21 2 22 1 23 94 24
REMARK SMILES IDX 95 25 10 26 11 27 12 28 13 29 22 30 23 31 24 32 25 34 26 35
REMARK SMILES IDX 27 36 88 37 28 38 87 39 29 40 30 41 31 42 81 43 32 44 86 45
REMARK SMILES IDX 80 46 82 47 33 48 85 49 79 50 78 51 34 53 66 54 46 55 65 56
REMARK SMILES IDX 47 57 50 58 64 59 83 60 48 61 49 62 63 64 84 65 51 66 35 67
REMARK SMILES IDX 36 68 44 69 37 70 39 71 45 72 38 73 40 74 41 75 42 76 43 77
REMARK SMILES IDX 67 78 68 79 76 80 69 81 71 82 77 83 70 84 72 85 73 86 74 87
REMARK SMILES IDX 75 88 52 89 53 90 61 91 54 92 56 93 62 94 55 95 57 96 58 97
REMARK SMILES IDX 59 98 60 99
REMARK H PARENT 19 6 23 33 82 52 50 63
REMARK Flexibility Score: inf
ROOT
ATOM      1  C   UNL A   1      34.866  21.847  25.494  1.00  0.00     0.042 C 
ENDROOT
BRANCH   1   2
ATOM      2  C   UNL A   1      33.772  22.905  25.367  1.00  0.00     0.118 C 
BRANCH   2   3
ATOM      3  N   UNL A   1      32.747  22.739  26.377  1.00  0.00    -0.351 N 
ATOM      4  C   UNL A   1      31.662  23.511  26.718  1.00  0.00     0.271 C 
ATOM      5  O   UNL A   1      30.913  23.033  27.581  1.00  0.00    -0.267 OA
ATOM      6  H   UNL A   1      32.845  21.922  26.918  1.00  0.00     0.163 HD
BRANCH   4   7
ATOM      7  C   UNL A   1      31.387  24.809  26.068  1.00  0.00     0.152 A 
ATOM      8  C   UNL A   1      30.211  28.597  24.099  1.00  0.00     0.075 A 
ATOM      9  C   UNL A   1      31.331  29.146  24.927  1.00  0.00     0.062 A 
ATOM     10  N   UNL A   1      29.844  27.350  24.085  1.00  0.00    -0.228 NA
ATOM     11  C   UNL A   1      31.961  28.268  25.734  1.00  0.00     0.150 A 
ATOM     12  C   UNL A   1      30.559  26.501  24.876  1.00  0.00     0.157 A 
ATOM     13  N   UNL A   1      31.565  26.936  25.736  1.00  0.00    -0.209 N 
ATOM     14  C   UNL A   1      30.528  25.135  24.993  1.00  0.00     0.085 A 
ATOM     15  N   UNL A   1      32.020  25.919  26.498  1.00  0.00    -0.161 NA
BRANCH   8  16
ATOM     16  C   UNL A   1      29.475  29.574  23.268  1.00  0.00     0.004 A 
ATOM     17  C   UNL A   1      28.092  31.416  21.691  1.00  0.00     0.160 A 
ATOM     18  C   UNL A   1      28.185  30.075  21.291  1.00  0.00     0.051 A 
ATOM     19  C   UNL A   1      28.690  31.839  22.887  1.00  0.00     0.161 A 
ATOM     20  C   UNL A   1      28.892  29.156  22.070  1.00  0.00     0.014 A 
ATOM     21  C   UNL A   1      29.379  30.908  23.671  1.00  0.00     0.060 A 
BRANCH  17  22
ATOM     22  O   UNL A   1      27.313  32.266  20.953  1.00  0.00    -0.493 OA
ATOM     23  C   UNL A   1      27.981  32.715  19.772  1.00  0.00     0.278 C 
ENDBRANCH  17  22
BRANCH  19  24
ATOM     24  O   UNL A   1      28.661  33.090  23.441  1.00  0.00    -0.493 OA
ATOM     25  C   UNL A   1      29.892  33.795  23.517  1.00  0.00     0.278 C 
ENDBRANCH  19  24
ENDBRANCH   8  16
BRANCH  11  26
ATOM     26  C   UNL A   1      33.086  28.626  26.627  1.00  0.00     0.433 C 
ATOM     27  F   UNL A   1      33.628  29.835  26.341  1.00  0.00    -0.165 F 
ATOM     28  F   UNL A   1      32.745  28.619  27.939  1.00  0.00    -0.165 F 
ATOM     29  F   UNL A   1      34.109  27.730  26.510  1.00  0.00    -0.165 F 
ENDBRANCH  11  26
ENDBRANCH   4   7
ENDBRANCH   2   3
ENDBRANCH   1   2
BRANCH   1  30
ATOM     30  C   UNL A   1      36.159  22.393  26.099  1.00  0.00     0.118 C 
BRANCH  30  31
ATOM     31  N   UNL A   1      37.243  21.418  26.031  1.00  0.00    -0.352 N 
ATOM     32  C   UNL A   1      38.602  21.595  26.085  1.00  0.00     0.251 C 
ATOM     33  H   UNL A   1      36.952  20.483  25.932  1.00  0.00     0.163 HD
ATOM     34  O   UNL A   1      39.339  20.663  25.768  1.00  0.00    -0.269 OA
BRANCH  32  35
ATOM     35  C   UNL A   1      39.181  22.884  26.516  1.00  0.00     0.039 A 
ATOM     36  C   UNL A   1      40.181  22.879  27.494  1.00  0.00     0.014 A 
ATOM     37  C   UNL A   1      38.713  24.095  26.002  1.00  0.00     0.014 A 
ATOM     38  C   UNL A   1      40.746  24.085  27.914  1.00  0.00     0.010 A 
ATOM     39  C   UNL A   1      39.329  25.290  26.366  1.00  0.00     0.010 A 
ATOM     40  C   UNL A   1      40.346  25.298  27.331  1.00  0.00    -0.014 A 
BRANCH  40  41
ATOM     41  C   UNL A   1      40.996  26.580  27.703  1.00  0.00     0.031 A 
ATOM     42  C   UNL A   1      42.451  26.816  27.399  1.00  0.00     0.074 A 
ATOM     43  C   UNL A   1      40.294  27.498  28.397  1.00  0.00     0.049 A 
ATOM     44  N   UNL A   1      43.196  27.851  27.692  1.00  0.00    -0.248 NA
ATOM     45  C   UNL A   1      43.171  25.740  26.697  1.00  0.00     0.031 C 
ATOM     46  C   UNL A   1      38.901  27.348  28.823  1.00  0.00     0.029 A 
ATOM     47  N   UNL A   1      40.661  28.724  28.889  1.00  0.00    -0.354 N 
ATOM     48  C   UNL A   1      44.475  27.537  27.247  1.00  0.00     0.074 A 
ATOM     49  C   UNL A   1      44.413  26.202  26.693  1.00  0.00     0.031 C 
ATOM     50  C   UNL A   1      38.529  28.442  29.506  1.00  0.00     0.029 A 
ATOM     51  C   UNL A   1      39.663  29.355  29.596  1.00  0.00     0.049 A 
ATOM     52  H   UNL A   1      41.553  29.117  28.750  1.00  0.00     0.167 HD
ATOM     53  C   UNL A   1      45.594  28.300  27.273  1.00  0.00     0.034 A 
ATOM     54  C   UNL A   1      39.664  30.533  30.250  1.00  0.00     0.034 A 
ATOM     55  C   UNL A   1      45.640  29.642  27.790  1.00  0.00     0.049 A 
ATOM     56  C   UNL A   1      40.908  31.378  30.229  1.00  0.00     0.074 A 
ATOM     57  C   UNL A   1      46.698  30.533  27.779  1.00  0.00     0.029 A 
ATOM     58  N   UNL A   1      44.586  30.282  28.425  1.00  0.00    -0.354 N 
ATOM     59  N   UNL A   1      42.063  31.132  29.659  1.00  0.00    -0.248 NA
ATOM     60  C   UNL A   1      40.839  32.678  30.910  1.00  0.00     0.031 C 
ATOM     61  C   UNL A   1      46.294  31.701  28.434  1.00  0.00     0.029 A 
ATOM     62  C   UNL A   1      44.972  31.551  28.823  1.00  0.00     0.049 A 
ATOM     63  H   UNL A   1      43.695  29.890  28.573  1.00  0.00     0.167 HD
ATOM     64  C   UNL A   1      42.845  32.259  29.880  1.00  0.00     0.074 A 
ATOM     65  C   UNL A   1      42.024  33.198  30.619  1.00  0.00     0.031 C 
ATOM     66  C   UNL A   1      44.129  32.493  29.515  1.00  0.00     0.034 A 
BRANCH  53  67
ATOM     67  C   UNL A   1      46.854  27.720  26.680  1.00  0.00     0.023 A 
ATOM     68  C   UNL A   1      47.121  27.889  25.307  1.00  0.00     0.012 A 
ATOM     69  C   UNL A   1      47.797  27.057  27.489  1.00  0.00     0.148 A 
ATOM     70  C   UNL A   1      48.286  27.374  24.739  1.00  0.00     0.002 A 
ATOM     71  C   UNL A   1      48.979  26.588  26.926  1.00  0.00     0.091 A 
ATOM     72  F   UNL A   1      47.519  26.886  28.790  1.00  0.00    -0.205 F 
ATOM     73  C   UNL A   1      49.219  26.734  25.550  1.00  0.00     0.022 A 
BRANCH  71  74
ATOM     74  S   UNL A   1      50.280  25.822  27.899  1.00  0.00     0.127 S 
ATOM     75  O   UNL A   1      50.388  24.509  27.265  1.00  0.00    -0.237 OA
ATOM     76  O   UNL A   1      51.414  26.714  27.652  1.00  0.00    -0.237 OA
ATOM     77  O   UNL A   1      49.803  25.815  29.275  1.00  0.00    -0.744 OA
ENDBRANCH  71  74
ENDBRANCH  53  67
BRANCH  54  78
ATOM     78  C   UNL A   1      38.421  31.009  30.921  1.00  0.00     0.023 A 
ATOM     79  C   UNL A   1      38.297  30.876  32.318  1.00  0.00     0.012 A 
ATOM     80  C   UNL A   1      37.383  31.622  30.194  1.00  0.00     0.148 A 
ATOM     81  C   UNL A   1      37.147  31.317  32.975  1.00  0.00     0.002 A 
ATOM     82  C   UNL A   1      36.266  32.110  30.862  1.00  0.00     0.091 A 
ATOM     83  F   UNL A   1      37.517  31.732  28.865  1.00  0.00    -0.205 F 
ATOM     84  C   UNL A   1      36.138  31.943  32.250  1.00  0.00     0.022 A 
BRANCH  82  85
ATOM     85  S   UNL A   1      34.978  33.049  30.031  1.00  0.00     0.127 S 
ATOM     86  O   UNL A   1      35.730  34.186  29.505  1.00  0.00    -0.237 OA
ATOM     87  O   UNL A   1      34.515  32.096  29.022  1.00  0.00    -0.237 OA
ATOM     88  O   UNL A   1      33.994  33.362  31.058  1.00  0.00    -0.744 OA
ENDBRANCH  82  85
ENDBRANCH  54  78
BRANCH  66  89
ATOM     89  C   UNL A   1      44.726  33.828  29.873  1.00  0.00     0.023 A 
ATOM     90  C   UNL A   1      45.443  33.980  31.077  1.00  0.00     0.012 A 
ATOM     91  C   UNL A   1      44.637  34.916  28.981  1.00  0.00     0.148 A 
ATOM     92  C   UNL A   1      46.032  35.201  31.402  1.00  0.00     0.002 A 
ATOM     93  C   UNL A   1      45.270  36.113  29.286  1.00  0.00     0.091 A 
ATOM     94  F   UNL A   1      43.934  34.757  27.848  1.00  0.00    -0.205 F 
ATOM     95  C   UNL A   1      45.956  36.262  30.503  1.00  0.00     0.022 A 
BRANCH  93  96
ATOM     96  S   UNL A   1      45.310  37.501  28.147  1.00  0.00     0.127 S 
ATOM     97  O   UNL A   1      44.210  38.326  28.643  1.00  0.00    -0.237 OA
ATOM     98  O   UNL A   1      46.643  38.056  28.381  1.00  0.00    -0.237 OA
ATOM     99  O   UNL A   1      45.115  36.936  26.818  1.00  0.00    -0.744 OA
ENDBRANCH  93  96
ENDBRANCH  66  89
ENDBRANCH  40  41
ENDBRANCH  32  35
ENDBRANCH  30  31
ENDBRANCH   1  30
TORSDOF 17
ENDMDL
