MODEL 1
REMARK VINA RESULT:     -13.2      0.000      0.000
REMARK SMILES O=C(NCCCNC(=O)c1ccc2c(c1)[C@@H]1C=CC[C@@H]1[C@H](c1ccncc1)N2)c1ccc(-c2c3nc(c(-c4cccc(S(=O)(=O)[O-])c4F)c4ccc([nH]4)c(-c4cccc(S(=O)(=O)[O-])c4F)c4nc(c(-c5cccc(S(=O)(=O)[O-])c5F)c5ccc2[nH]5)C=C4)C=C3)cc1
REMARK SMILES IDX 4 1 3 2 1 3 2 4 29 6 30 7 91 8 31 9 90 10 32 11 33 12 34 13
REMARK SMILES IDX 84 14 35 15 89 16 83 17 85 18 36 19 88 20 82 21 81 22 37 24
REMARK SMILES IDX 69 25 49 26 68 27 50 28 53 29 67 30 86 31 51 32 52 33 66 35
REMARK SMILES IDX 87 36 54 37 38 38 39 39 47 40 40 41 42 42 48 43 41 44 43 45
REMARK SMILES IDX 44 46 45 47 46 48 70 49 71 50 79 51 72 52 74 53 80 54 73 55
REMARK SMILES IDX 75 56 76 57 77 58 78 59 55 60 56 61 64 62 57 63 59 64 65 65
REMARK SMILES IDX 58 66 60 67 61 68 62 69 63 70 5 71 6 72 7 73 8 74 9 76 10 77
REMARK SMILES IDX 11 78 15 79 12 80 14 81 13 82 16 83 28 84 17 85 20 86 21 87
REMARK SMILES IDX 18 89 19 90 22 91 23 92 27 93 24 94 26 95 25 96
REMARK H PARENT 3 5 85 23 53 34 7 75 28 88
REMARK Flexibility Score: inf
ROOT
ATOM      1  C   UNL A   1      32.797  29.436  25.494  1.00  0.00     0.118 C 
ENDROOT
BRANCH   1   2
ATOM      2  N   UNL A   1      32.429  30.794  25.875  1.00  0.00    -0.352 N 
ATOM      3  O   UNL A   1      32.294  32.627  27.161  1.00  0.00    -0.269 OA
ATOM      4  C   UNL A   1      32.908  31.601  26.879  1.00  0.00     0.251 C 
ATOM      5  H   UNL A   1      31.722  31.198  25.322  1.00  0.00     0.163 HD
BRANCH   4   6
ATOM      6  C   UNL A   1      34.134  31.236  27.622  1.00  0.00     0.039 A 
ATOM      7  C   UNL A   1      34.340  29.930  28.070  1.00  0.00     0.014 A 
ATOM      8  C   UNL A   1      35.121  32.205  27.835  1.00  0.00     0.014 A 
ATOM      9  C   UNL A   1      35.442  29.631  28.861  1.00  0.00     0.010 A 
ATOM     10  C   UNL A   1      36.282  31.876  28.544  1.00  0.00     0.010 A 
ATOM     11  C   UNL A   1      36.438  30.594  29.089  1.00  0.00    -0.014 A 
BRANCH  11  12
ATOM     12  C   UNL A   1      37.670  30.196  29.816  1.00  0.00     0.031 A 
ATOM     13  C   UNL A   1      37.940  30.662  31.220  1.00  0.00     0.074 A 
ATOM     14  C   UNL A   1      38.550  29.390  29.189  1.00  0.00     0.049 A 
ATOM     15  N   UNL A   1      38.947  30.365  32.000  1.00  0.00    -0.248 NA
ATOM     16  C   UNL A   1      36.968  31.585  31.826  1.00  0.00     0.031 C 
ATOM     17  C   UNL A   1      38.420  28.920  27.806  1.00  0.00     0.029 A 
ATOM     18  N   UNL A   1      39.720  28.821  29.621  1.00  0.00    -0.354 N 
ATOM     19  C   UNL A   1      38.755  31.091  33.170  1.00  0.00     0.074 A 
ATOM     20  C   UNL A   1      37.534  31.848  32.998  1.00  0.00     0.031 C 
ATOM     21  C   UNL A   1      39.448  28.111  27.515  1.00  0.00     0.029 A 
ATOM     22  C   UNL A   1      40.337  28.043  28.670  1.00  0.00     0.049 A 
ATOM     23  H   UNL A   1      40.083  28.956  30.526  1.00  0.00     0.167 HD
ATOM     24  C   UNL A   1      39.518  31.108  34.288  1.00  0.00     0.034 A 
ATOM     25  C   UNL A   1      41.495  27.357  28.712  1.00  0.00     0.034 A 
ATOM     26  C   UNL A   1      40.704  30.313  34.471  1.00  0.00     0.049 A 
ATOM     27  C   UNL A   1      42.292  27.363  29.983  1.00  0.00     0.074 A 
ATOM     28  C   UNL A   1      41.500  30.205  35.599  1.00  0.00     0.029 A 
ATOM     29  N   UNL A   1      41.268  29.495  33.505  1.00  0.00    -0.354 N 
ATOM     30  N   UNL A   1      42.014  27.941  31.126  1.00  0.00    -0.248 NA
ATOM     31  C   UNL A   1      43.549  26.601  29.982  1.00  0.00     0.031 C 
ATOM     32  C   UNL A   1      42.552  29.330  35.310  1.00  0.00     0.029 A 
ATOM     33  C   UNL A   1      42.407  28.886  34.006  1.00  0.00     0.049 A 
ATOM     34  H   UNL A   1      40.912  29.367  32.596  1.00  0.00     0.167 HD
ATOM     35  C   UNL A   1      43.050  27.601  31.986  1.00  0.00     0.074 A 
ATOM     36  C   UNL A   1      43.943  26.737  31.241  1.00  0.00     0.031 C 
ATOM     37  C   UNL A   1      43.257  27.989  33.268  1.00  0.00     0.034 A 
BRANCH  24  38
ATOM     38  C   UNL A   1      39.075  31.977  35.436  1.00  0.00     0.023 A 
ATOM     39  C   UNL A   1      38.199  31.448  36.405  1.00  0.00     0.012 A 
ATOM     40  C   UNL A   1      39.603  33.272  35.611  1.00  0.00     0.148 A 
ATOM     41  C   UNL A   1      37.841  32.200  37.523  1.00  0.00     0.002 A 
ATOM     42  C   UNL A   1      39.267  34.002  36.747  1.00  0.00     0.091 A 
ATOM     43  F   UNL A   1      40.419  33.763  34.669  1.00  0.00    -0.205 F 
ATOM     44  C   UNL A   1      38.384  33.470  37.700  1.00  0.00     0.022 A 
BRANCH  42  45
ATOM     45  S   UNL A   1      39.967  35.619  37.103  1.00  0.00     0.127 S 
ATOM     46  O   UNL A   1      39.276  35.973  38.341  1.00  0.00    -0.237 OA
ATOM     47  O   UNL A   1      41.389  35.311  37.265  1.00  0.00    -0.237 OA
ATOM     48  O   UNL A   1      39.655  36.454  35.950  1.00  0.00    -0.744 OA
ENDBRANCH  42  45
ENDBRANCH  24  38
BRANCH  25  49
ATOM     49  C   UNL A   1      41.932  26.571  27.525  1.00  0.00     0.023 A 
ATOM     50  C   UNL A   1      42.688  27.200  26.518  1.00  0.00     0.012 A 
ATOM     51  C   UNL A   1      41.650  25.195  27.415  1.00  0.00     0.148 A 
ATOM     52  C   UNL A   1      43.135  26.478  25.411  1.00  0.00     0.002 A 
ATOM     53  C   UNL A   1      42.150  24.470  26.340  1.00  0.00     0.091 A 
ATOM     54  F   UNL A   1      40.910  24.616  28.371  1.00  0.00    -0.205 F 
ATOM     55  C   UNL A   1      42.879  25.111  25.328  1.00  0.00     0.022 A 
BRANCH  53  56
ATOM     56  S   UNL A   1      41.987  22.682  26.259  1.00  0.00     0.127 S 
ATOM     57  O   UNL A   1      42.635  22.265  27.497  1.00  0.00    -0.237 OA
ATOM     58  O   UNL A   1      40.534  22.502  26.232  1.00  0.00    -0.237 OA
ATOM     59  O   UNL A   1      42.653  22.299  25.021  1.00  0.00    -0.744 OA
ENDBRANCH  53  56
ENDBRANCH  25  49
BRANCH  37  60
ATOM     60  C   UNL A   1      44.493  27.475  33.952  1.00  0.00     0.023 A 
ATOM     61  C   UNL A   1      45.672  28.246  33.920  1.00  0.00     0.012 A 
ATOM     62  C   UNL A   1      44.474  26.267  34.674  1.00  0.00     0.148 A 
ATOM     63  C   UNL A   1      46.822  27.808  34.573  1.00  0.00     0.002 A 
ATOM     64  C   UNL A   1      45.613  25.858  35.358  1.00  0.00     0.091 A 
ATOM     65  F   UNL A   1      43.349  25.536  34.671  1.00  0.00    -0.205 F 
ATOM     66  C   UNL A   1      46.790  26.621  35.301  1.00  0.00     0.022 A 
BRANCH  64  67
ATOM     67  S   UNL A   1      45.628  24.386  36.389  1.00  0.00     0.127 S 
ATOM     68  O   UNL A   1      46.942  24.479  37.023  1.00  0.00    -0.237 OA
ATOM     69  O   UNL A   1      44.498  24.620  37.289  1.00  0.00    -0.237 OA
ATOM     70  O   UNL A   1      45.446  23.263  35.479  1.00  0.00    -0.744 OA
ENDBRANCH  64  67
ENDBRANCH  37  60
ENDBRANCH  11  12
ENDBRANCH   4   6
ENDBRANCH   1   2
BRANCH   1  71
ATOM     71  C   UNL A   1      31.614  28.644  24.961  1.00  0.00     0.042 C 
BRANCH  71  72
ATOM     72  C   UNL A   1      31.343  28.881  23.484  1.00  0.00     0.118 C 
BRANCH  72  73
ATOM     73  N   UNL A   1      32.567  28.950  22.691  1.00  0.00    -0.352 N 
ATOM     74  C   UNL A   1      33.455  27.956  22.358  1.00  0.00     0.251 C 
ATOM     75  H   UNL A   1      32.788  29.843  22.342  1.00  0.00     0.163 HD
ATOM     76  O   UNL A   1      34.533  28.233  21.839  1.00  0.00    -0.269 OA
BRANCH  74  77
ATOM     77  C   UNL A   1      33.117  26.547  22.637  1.00  0.00     0.040 A 
ATOM     78  C   UNL A   1      32.398  25.814  21.698  1.00  0.00     0.016 A 
ATOM     79  C   UNL A   1      33.546  25.942  23.818  1.00  0.00     0.020 A 
ATOM     80  C   UNL A   1      32.157  24.457  21.927  1.00  0.00     0.027 A 
ATOM     81  C   UNL A   1      33.404  24.560  23.995  1.00  0.00    -0.017 A 
ATOM     82  C   UNL A   1      32.644  23.818  23.078  1.00  0.00     0.038 A 
ATOM     83  C   UNL A   1      34.122  23.887  25.143  1.00  0.00     0.049 C 
ATOM     84  N   UNL A   1      32.451  22.451  23.233  1.00  0.00    -0.378 N 
ATOM     85  C   UNL A   1      35.614  24.134  25.112  1.00  0.00    -0.023 C 
ATOM     86  C   UNL A   1      34.097  22.352  25.069  1.00  0.00     0.031 C 
ATOM     87  C   UNL A   1      32.773  21.828  24.510  1.00  0.00     0.114 C 
ATOM     88  H   UNL A   1      32.102  21.911  22.490  1.00  0.00     0.161 HD
ATOM     89  C   UNL A   1      36.289  23.081  24.636  1.00  0.00    -0.030 C 
ATOM     90  C   UNL A   1      35.365  21.957  24.292  1.00  0.00     0.034 C 
BRANCH  87  91
ATOM     91  C   UNL A   1      32.747  20.309  24.433  1.00  0.00    -0.022 A 
ATOM     92  C   UNL A   1      32.528  19.692  23.192  1.00  0.00     0.026 A 
ATOM     93  C   UNL A   1      32.910  19.480  25.549  1.00  0.00     0.026 A 
ATOM     94  C   UNL A   1      32.496  18.307  23.123  1.00  0.00     0.111 A 
ATOM     95  C   UNL A   1      32.878  18.104  25.375  1.00  0.00     0.111 A 
ATOM     96  N   UNL A   1      32.679  17.500  24.185  1.00  0.00    -0.265 NA
ENDBRANCH  87  91
ENDBRANCH  74  77
ENDBRANCH  72  73
ENDBRANCH  71  72
ENDBRANCH   1  71
TORSDOF 14
ENDMDL
MODEL 2
REMARK VINA RESULT:     -13.2      1.256      1.652
REMARK SMILES O=C(NCCCNC(=O)c1ccc2c(c1)[C@@H]1C=CC[C@@H]1[C@H](c1ccncc1)N2)c1ccc(-c2c3nc(c(-c4cccc(S(=O)(=O)[O-])c4F)c4ccc([nH]4)c(-c4cccc(S(=O)(=O)[O-])c4F)c4nc(c(-c5cccc(S(=O)(=O)[O-])c5F)c5ccc2[nH]5)C=C4)C=C3)cc1
REMARK SMILES IDX 4 1 3 2 1 3 2 4 29 6 30 7 91 8 31 9 90 10 32 11 33 12 34 13
REMARK SMILES IDX 84 14 35 15 89 16 83 17 85 18 36 19 88 20 82 21 81 22 37 24
REMARK SMILES IDX 69 25 49 26 68 27 50 28 53 29 67 30 86 31 51 32 52 33 66 35
REMARK SMILES IDX 87 36 54 37 38 38 39 39 47 40 40 41 42 42 48 43 41 44 43 45
REMARK SMILES IDX 44 46 45 47 46 48 70 49 71 50 79 51 72 52 74 53 80 54 73 55
REMARK SMILES IDX 75 56 76 57 77 58 78 59 55 60 56 61 64 62 57 63 59 64 65 65
REMARK SMILES IDX 58 66 60 67 61 68 62 69 63 70 5 71 6 72 7 73 8 74 9 76 10 77
REMARK SMILES IDX 11 78 15 79 12 80 14 81 13 82 16 83 28 84 17 85 20 86 21 87
REMARK SMILES IDX 18 89 19 90 22 91 23 92 27 93 24 94 26 95 25 96
REMARK H PARENT 3 5 85 23 53 34 7 75 28 88
REMARK Flexibility Score: inf
ROOT
ATOM      1  C   UNL A   1      32.657  29.575  25.884  1.00  0.00     0.118 C 
ENDROOT
BRANCH   1   2
ATOM      2  N   UNL A   1      32.420  30.989  26.148  1.00  0.00    -0.352 N 
ATOM      3  O   UNL A   1      32.498  32.937  27.256  1.00  0.00    -0.269 OA
ATOM      4  C   UNL A   1      33.011  31.841  27.049  1.00  0.00     0.251 C 
ATOM      5  H   UNL A   1      31.723  31.399  25.587  1.00  0.00     0.163 HD
BRANCH   4   6
ATOM      6  C   UNL A   1      34.238  31.442  27.774  1.00  0.00     0.039 A 
ATOM      7  C   UNL A   1      34.428  30.124  28.194  1.00  0.00     0.014 A 
ATOM      8  C   UNL A   1      35.242  32.390  27.996  1.00  0.00     0.014 A 
ATOM      9  C   UNL A   1      35.532  29.792  28.969  1.00  0.00     0.010 A 
ATOM     10  C   UNL A   1      36.404  32.030  28.688  1.00  0.00     0.010 A 
ATOM     11  C   UNL A   1      36.545  30.734  29.207  1.00  0.00    -0.014 A 
BRANCH  11  12
ATOM     12  C   UNL A   1      37.777  30.303  29.914  1.00  0.00     0.031 A 
ATOM     13  C   UNL A   1      38.073  30.748  31.320  1.00  0.00     0.074 A 
ATOM     14  C   UNL A   1      38.632  29.486  29.268  1.00  0.00     0.049 A 
ATOM     15  N   UNL A   1      39.083  30.421  32.084  1.00  0.00    -0.248 NA
ATOM     16  C   UNL A   1      37.127  31.684  31.948  1.00  0.00     0.031 C 
ATOM     17  C   UNL A   1      38.476  29.034  27.882  1.00  0.00     0.029 A 
ATOM     18  N   UNL A   1      39.794  28.888  29.680  1.00  0.00    -0.354 N 
ATOM     19  C   UNL A   1      38.920  31.138  33.264  1.00  0.00     0.074 A 
ATOM     20  C   UNL A   1      37.713  31.922  33.115  1.00  0.00     0.031 C 
ATOM     21  C   UNL A   1      39.483  28.207  27.570  1.00  0.00     0.029 A 
ATOM     22  C   UNL A   1      40.384  28.107  28.713  1.00  0.00     0.049 A 
ATOM     23  H   UNL A   1      40.172  29.005  30.582  1.00  0.00     0.167 HD
ATOM     24  C   UNL A   1      39.696  31.127  34.373  1.00  0.00     0.034 A 
ATOM     25  C   UNL A   1      41.527  27.397  28.734  1.00  0.00     0.034 A 
ATOM     26  C   UNL A   1      40.867  30.305  34.533  1.00  0.00     0.049 A 
ATOM     27  C   UNL A   1      42.340  27.372  29.995  1.00  0.00     0.074 A 
ATOM     28  C   UNL A   1      41.674  30.168  35.650  1.00  0.00     0.029 A 
ATOM     29  N   UNL A   1      41.403  29.486  33.552  1.00  0.00    -0.354 N 
ATOM     30  N   UNL A   1      42.087  27.944  31.148  1.00  0.00    -0.248 NA
ATOM     31  C   UNL A   1      43.580  26.584  29.970  1.00  0.00     0.031 C 
ATOM     32  C   UNL A   1      42.704  29.275  35.339  1.00  0.00     0.029 A 
ATOM     33  C   UNL A   1      42.534  28.848  34.032  1.00  0.00     0.049 A 
ATOM     34  H   UNL A   1      41.033  29.375  32.646  1.00  0.00     0.167 HD
ATOM     35  C   UNL A   1      43.126  27.572  31.991  1.00  0.00     0.074 A 
ATOM     36  C   UNL A   1      43.992  26.697  31.226  1.00  0.00     0.031 C 
ATOM     37  C   UNL A   1      43.356  27.941  33.274  1.00  0.00     0.034 A 
BRANCH  24  38
ATOM     38  C   UNL A   1      39.286  31.992  35.536  1.00  0.00     0.023 A 
ATOM     39  C   UNL A   1      39.581  33.369  35.511  1.00  0.00     0.012 A 
ATOM     40  C   UNL A   1      38.524  31.465  36.598  1.00  0.00     0.148 A 
ATOM     41  C   UNL A   1      39.139  34.208  36.533  1.00  0.00     0.002 A 
ATOM     42  C   UNL A   1      38.057  32.315  37.596  1.00  0.00     0.091 A 
ATOM     43  F   UNL A   1      38.270  30.149  36.612  1.00  0.00    -0.205 F 
ATOM     44  C   UNL A   1      38.367  33.684  37.567  1.00  0.00     0.022 A 
BRANCH  42  45
ATOM     45  S   UNL A   1      36.997  31.750  38.934  1.00  0.00     0.127 S 
ATOM     46  O   UNL A   1      37.873  31.915  40.092  1.00  0.00    -0.237 OA
ATOM     47  O   UNL A   1      35.886  32.700  38.869  1.00  0.00    -0.237 OA
ATOM     48  O   UNL A   1      36.640  30.375  38.610  1.00  0.00    -0.744 OA
ENDBRANCH  42  45
ENDBRANCH  24  38
BRANCH  25  49
ATOM     49  C   UNL A   1      41.934  26.615  27.533  1.00  0.00     0.023 A 
ATOM     50  C   UNL A   1      42.642  27.253  26.498  1.00  0.00     0.012 A 
ATOM     51  C   UNL A   1      41.671  25.235  27.436  1.00  0.00     0.148 A 
ATOM     52  C   UNL A   1      43.060  26.536  25.377  1.00  0.00     0.002 A 
ATOM     53  C   UNL A   1      42.143  24.515  26.345  1.00  0.00     0.091 A 
ATOM     54  F   UNL A   1      40.976  24.646  28.420  1.00  0.00    -0.205 F 
ATOM     55  C   UNL A   1      42.824  25.165  25.306  1.00  0.00     0.022 A 
BRANCH  53  56
ATOM     56  S   UNL A   1      42.006  22.725  26.274  1.00  0.00     0.127 S 
ATOM     57  O   UNL A   1      40.560  22.533  26.287  1.00  0.00    -0.237 OA
ATOM     58  O   UNL A   1      42.658  22.411  25.001  1.00  0.00    -0.237 OA
ATOM     59  O   UNL A   1      42.731  22.244  27.443  1.00  0.00    -0.744 OA
ENDBRANCH  53  56
ENDBRANCH  25  49
BRANCH  37  60
ATOM     60  C   UNL A   1      44.590  27.394  33.938  1.00  0.00     0.023 A 
ATOM     61  C   UNL A   1      45.793  28.124  33.870  1.00  0.00     0.012 A 
ATOM     62  C   UNL A   1      44.545  26.197  34.677  1.00  0.00     0.148 A 
ATOM     63  C   UNL A   1      46.942  27.655  34.503  1.00  0.00     0.002 A 
ATOM     64  C   UNL A   1      45.685  25.758  35.341  1.00  0.00     0.091 A 
ATOM     65  F   UNL A   1      43.397  25.506  34.709  1.00  0.00    -0.205 F 
ATOM     66  C   UNL A   1      46.886  26.480  35.247  1.00  0.00     0.022 A 
BRANCH  64  67
ATOM     67  S   UNL A   1      45.674  24.300  36.392  1.00  0.00     0.127 S 
ATOM     68  O   UNL A   1      45.570  23.224  35.408  1.00  0.00    -0.237 OA
ATOM     69  O   UNL A   1      46.969  24.389  37.067  1.00  0.00    -0.237 OA
ATOM     70  O   UNL A   1      44.526  24.458  37.276  1.00  0.00    -0.744 OA
ENDBRANCH  64  67
ENDBRANCH  37  60
ENDBRANCH  11  12
ENDBRANCH   4   6
ENDBRANCH   1   2
BRANCH   1  71
ATOM     71  C   UNL A   1      31.419  28.868  25.357  1.00  0.00     0.042 C 
BRANCH  71  72
ATOM     72  C   UNL A   1      31.178  29.093  23.873  1.00  0.00     0.118 C 
BRANCH  72  73
ATOM     73  N   UNL A   1      32.419  29.215  23.114  1.00  0.00    -0.352 N 
ATOM     74  C   UNL A   1      33.330  28.251  22.757  1.00  0.00     0.251 C 
ATOM     75  H   UNL A   1      32.636  30.128  22.814  1.00  0.00     0.163 HD
ATOM     76  O   UNL A   1      34.415  28.567  22.277  1.00  0.00    -0.269 OA
BRANCH  74  77
ATOM     77  C   UNL A   1      33.006  26.825  22.961  1.00  0.00     0.040 A 
ATOM     78  C   UNL A   1      32.260  26.146  22.002  1.00  0.00     0.016 A 
ATOM     79  C   UNL A   1      33.474  26.153  24.089  1.00  0.00     0.020 A 
ATOM     80  C   UNL A   1      32.031  24.777  22.156  1.00  0.00     0.027 A 
ATOM     81  C   UNL A   1      33.343  24.762  24.187  1.00  0.00    -0.017 A 
ATOM     82  C   UNL A   1      32.557  24.073  23.250  1.00  0.00     0.038 A 
ATOM     83  C   UNL A   1      34.100  24.025  25.268  1.00  0.00     0.049 C 
ATOM     84  N   UNL A   1      32.374  22.698  23.329  1.00  0.00    -0.378 N 
ATOM     85  C   UNL A   1      35.589  24.281  25.206  1.00  0.00    -0.023 C 
ATOM     86  C   UNL A   1      34.078  22.497  25.102  1.00  0.00     0.031 C 
ATOM     87  C   UNL A   1      32.739  22.001  24.554  1.00  0.00     0.114 C 
ATOM     88  H   UNL A   1      32.003  22.201  22.566  1.00  0.00     0.161 HD
ATOM     89  C   UNL A   1      36.253  23.263  24.646  1.00  0.00    -0.030 C 
ATOM     90  C   UNL A   1      35.322  22.156  24.264  1.00  0.00     0.034 C 
BRANCH  87  91
ATOM     91  C   UNL A   1      32.716  20.489  24.387  1.00  0.00    -0.022 A 
ATOM     92  C   UNL A   1      32.915  19.675  25.513  1.00  0.00     0.026 A 
ATOM     93  C   UNL A   1      32.526  19.854  23.155  1.00  0.00     0.026 A 
ATOM     94  C   UNL A   1      32.902  18.297  25.361  1.00  0.00     0.111 A 
ATOM     95  C   UNL A   1      32.514  18.467  23.107  1.00  0.00     0.111 A 
ATOM     96  N   UNL A   1      32.693  17.675  24.184  1.00  0.00    -0.265 NA
ENDBRANCH  87  91
ENDBRANCH  74  77
ENDBRANCH  72  73
ENDBRANCH  71  72
ENDBRANCH   1  71
TORSDOF 14
ENDMDL
MODEL 3
REMARK VINA RESULT:     -13.1      5.078     10.267
REMARK SMILES O=C(NCCCNC(=O)c1ccc2c(c1)[C@@H]1C=CC[C@@H]1[C@H](c1ccncc1)N2)c1ccc(-c2c3nc(c(-c4cccc(S(=O)(=O)[O-])c4F)c4ccc([nH]4)c(-c4cccc(S(=O)(=O)[O-])c4F)c4nc(c(-c5cccc(S(=O)(=O)[O-])c5F)c5ccc2[nH]5)C=C4)C=C3)cc1
REMARK SMILES IDX 4 1 3 2 1 3 2 4 29 6 30 7 91 8 31 9 90 10 32 11 33 12 34 13
REMARK SMILES IDX 84 14 35 15 89 16 83 17 85 18 36 19 88 20 82 21 81 22 37 24
REMARK SMILES IDX 69 25 49 26 68 27 50 28 53 29 67 30 86 31 51 32 52 33 66 35
REMARK SMILES IDX 87 36 54 37 38 38 39 39 47 40 40 41 42 42 48 43 41 44 43 45
REMARK SMILES IDX 44 46 45 47 46 48 70 49 71 50 79 51 72 52 74 53 80 54 73 55
REMARK SMILES IDX 75 56 76 57 77 58 78 59 55 60 56 61 64 62 57 63 59 64 65 65
REMARK SMILES IDX 58 66 60 67 61 68 62 69 63 70 5 71 6 72 7 73 8 74 9 76 10 77
REMARK SMILES IDX 11 78 15 79 12 80 14 81 13 82 16 83 28 84 17 85 20 86 21 87
REMARK SMILES IDX 18 89 19 90 22 91 23 92 27 93 24 94 26 95 25 96
REMARK H PARENT 3 5 85 23 53 34 7 75 28 88
REMARK Flexibility Score: inf
ROOT
ATOM      1  C   UNL A   1      36.568  21.966  25.745  1.00  0.00     0.118 C 
ENDROOT
BRANCH   1   2
ATOM      2  N   UNL A   1      37.579  20.924  25.873  1.00  0.00    -0.352 N 
ATOM      3  O   UNL A   1      39.628  20.013  25.934  1.00  0.00    -0.269 OA
ATOM      4  C   UNL A   1      38.934  21.015  26.086  1.00  0.00     0.251 C 
ATOM      5  H   UNL A   1      37.235  20.005  25.795  1.00  0.00     0.163 HD
BRANCH   4   6
ATOM      6  C   UNL A   1      39.552  22.301  26.477  1.00  0.00     0.039 A 
ATOM      7  C   UNL A   1      40.605  22.342  27.393  1.00  0.00     0.014 A 
ATOM      8  C   UNL A   1      39.105  23.485  25.882  1.00  0.00     0.014 A 
ATOM      9  C   UNL A   1      41.099  23.565  27.832  1.00  0.00     0.010 A 
ATOM     10  C   UNL A   1      39.675  24.710  26.248  1.00  0.00     0.010 A 
ATOM     11  C   UNL A   1      40.656  24.763  27.249  1.00  0.00    -0.014 A 
BRANCH  11  12
ATOM     12  C   UNL A   1      41.310  26.037  27.640  1.00  0.00     0.031 A 
ATOM     13  C   UNL A   1      42.714  26.362  27.215  1.00  0.00     0.074 A 
ATOM     14  C   UNL A   1      40.607  26.913  28.386  1.00  0.00     0.049 A 
ATOM     15  N   UNL A   1      43.404  27.451  27.440  1.00  0.00    -0.248 NA
ATOM     16  C   UNL A   1      43.446  25.340  26.451  1.00  0.00     0.031 C 
ATOM     17  C   UNL A   1      39.255  26.680  28.904  1.00  0.00     0.029 A 
ATOM     18  N   UNL A   1      40.920  28.169  28.836  1.00  0.00    -0.354 N 
ATOM     19  C   UNL A   1      44.660  27.233  26.884  1.00  0.00     0.074 A 
ATOM     20  C   UNL A   1      44.639  25.904  26.312  1.00  0.00     0.031 C 
ATOM     21  C   UNL A   1      38.844  27.766  29.571  1.00  0.00     0.029 A 
ATOM     22  C   UNL A   1      39.917  28.754  29.574  1.00  0.00     0.049 A 
ATOM     23  H   UNL A   1      41.780  28.610  28.650  1.00  0.00     0.167 HD
ATOM     24  C   UNL A   1      45.722  28.071  26.841  1.00  0.00     0.034 A 
ATOM     25  C   UNL A   1      39.866  29.948  30.195  1.00  0.00     0.034 A 
ATOM     26  C   UNL A   1      45.717  29.411  27.368  1.00  0.00     0.049 A 
ATOM     27  C   UNL A   1      41.044  30.870  30.088  1.00  0.00     0.074 A 
ATOM     28  C   UNL A   1      46.721  30.363  27.301  1.00  0.00     0.029 A 
ATOM     29  N   UNL A   1      44.665  29.988  28.060  1.00  0.00    -0.354 N 
ATOM     30  N   UNL A   1      42.167  30.698  29.433  1.00  0.00    -0.248 NA
ATOM     31  C   UNL A   1      40.942  32.160  30.783  1.00  0.00     0.031 C 
ATOM     32  C   UNL A   1      46.278  31.512  27.964  1.00  0.00     0.029 A 
ATOM     33  C   UNL A   1      44.996  31.280  28.435  1.00  0.00     0.049 A 
ATOM     34  H   UNL A   1      43.808  29.545  28.256  1.00  0.00     0.167 HD
ATOM     35  C   UNL A   1      42.898  31.863  29.620  1.00  0.00     0.074 A 
ATOM     36  C   UNL A   1      42.076  32.747  30.422  1.00  0.00     0.031 C 
ATOM     37  C   UNL A   1      44.147  32.165  29.189  1.00  0.00     0.034 A 
BRANCH  24  38
ATOM     38  C   UNL A   1      46.976  27.595  26.155  1.00  0.00     0.023 A 
ATOM     39  C   UNL A   1      47.873  26.763  26.855  1.00  0.00     0.012 A 
ATOM     40  C   UNL A   1      47.214  27.883  24.797  1.00  0.00     0.148 A 
ATOM     41  C   UNL A   1      48.996  26.238  26.219  1.00  0.00     0.002 A 
ATOM     42  C   UNL A   1      48.319  27.327  24.160  1.00  0.00     0.091 A 
ATOM     43  F   UNL A   1      46.359  28.691  24.155  1.00  0.00    -0.205 F 
ATOM     44  C   UNL A   1      49.213  26.509  24.871  1.00  0.00     0.022 A 
BRANCH  42  45
ATOM     45  S   UNL A   1      48.648  27.559  22.408  1.00  0.00     0.127 S 
ATOM     46  O   UNL A   1      49.921  28.278  22.440  1.00  0.00    -0.237 OA
ATOM     47  O   UNL A   1      48.738  26.181  21.926  1.00  0.00    -0.237 OA
ATOM     48  O   UNL A   1      47.517  28.313  21.884  1.00  0.00    -0.744 OA
ENDBRANCH  42  45
ENDBRANCH  24  38
BRANCH  25  49
ATOM     49  C   UNL A   1      38.631  30.347  30.926  1.00  0.00     0.023 A 
ATOM     50  C   UNL A   1      38.512  30.054  32.297  1.00  0.00     0.012 A 
ATOM     51  C   UNL A   1      37.601  31.062  30.284  1.00  0.00     0.148 A 
ATOM     52  C   UNL A   1      37.379  30.445  33.011  1.00  0.00     0.002 A 
ATOM     53  C   UNL A   1      36.503  31.501  31.015  1.00  0.00     0.091 A 
ATOM     54  F   UNL A   1      37.719  31.314  28.973  1.00  0.00    -0.205 F 
ATOM     55  C   UNL A   1      36.381  31.180  32.375  1.00  0.00     0.022 A 
BRANCH  53  56
ATOM     56  S   UNL A   1      35.265  32.582  30.289  1.00  0.00     0.127 S 
ATOM     57  O   UNL A   1      36.065  33.739  29.904  1.00  0.00    -0.237 OA
ATOM     58  O   UNL A   1      34.765  31.779  29.172  1.00  0.00    -0.237 OA
ATOM     59  O   UNL A   1      34.286  32.797  31.347  1.00  0.00    -0.744 OA
ENDBRANCH  53  56
ENDBRANCH  25  49
BRANCH  37  60
ATOM     60  C   UNL A   1      44.700  33.511  29.568  1.00  0.00     0.023 A 
ATOM     61  C   UNL A   1      45.436  33.644  30.762  1.00  0.00     0.012 A 
ATOM     62  C   UNL A   1      44.547  34.623  28.720  1.00  0.00     0.148 A 
ATOM     63  C   UNL A   1      45.986  34.873  31.121  1.00  0.00     0.002 A 
ATOM     64  C   UNL A   1      45.135  35.835  29.063  1.00  0.00     0.091 A 
ATOM     65  F   UNL A   1      43.823  34.480  27.600  1.00  0.00    -0.205 F 
ATOM     66  C   UNL A   1      45.846  35.964  30.267  1.00  0.00     0.022 A 
BRANCH  64  67
ATOM     67  S   UNL A   1      45.075  37.265  27.977  1.00  0.00     0.127 S 
ATOM     68  O   UNL A   1      45.671  38.303  28.817  1.00  0.00    -0.237 OA
ATOM     69  O   UNL A   1      45.906  36.840  26.850  1.00  0.00    -0.237 OA
ATOM     70  O   UNL A   1      43.668  37.453  27.647  1.00  0.00    -0.744 OA
ENDBRANCH  64  67
ENDBRANCH  37  60
ENDBRANCH  11  12
ENDBRANCH   4   6
ENDBRANCH   1   2
BRANCH   1  71
ATOM     71  C   UNL A   1      35.528  21.636  24.685  1.00  0.00     0.042 C 
BRANCH  71  72
ATOM     72  C   UNL A   1      34.363  20.816  25.214  1.00  0.00     0.118 C 
BRANCH  72  73
ATOM     73  N   UNL A   1      34.051  21.117  26.609  1.00  0.00    -0.352 N 
ATOM     74  C   UNL A   1      33.378  22.186  27.148  1.00  0.00     0.251 C 
ATOM     75  H   UNL A   1      34.371  20.452  27.260  1.00  0.00     0.163 HD
ATOM     76  O   UNL A   1      33.371  22.370  28.362  1.00  0.00    -0.269 OA
BRANCH  74  77
ATOM     77  C   UNL A   1      32.667  23.127  26.260  1.00  0.00     0.040 A 
ATOM     78  C   UNL A   1      31.371  22.834  25.844  1.00  0.00     0.016 A 
ATOM     79  C   UNL A   1      33.274  24.321  25.871  1.00  0.00     0.020 A 
ATOM     80  C   UNL A   1      30.672  23.769  25.077  1.00  0.00     0.027 A 
ATOM     81  C   UNL A   1      32.535  25.304  25.201  1.00  0.00    -0.017 A 
ATOM     82  C   UNL A   1      31.245  25.004  24.737  1.00  0.00     0.038 A 
ATOM     83  C   UNL A   1      33.124  26.687  25.041  1.00  0.00     0.049 C 
ATOM     84  N   UNL A   1      30.490  25.939  24.040  1.00  0.00    -0.378 N 
ATOM     85  C   UNL A   1      33.502  27.308  26.367  1.00  0.00    -0.023 C 
ATOM     86  C   UNL A   1      32.116  27.729  24.529  1.00  0.00     0.031 C 
ATOM     87  C   UNL A   1      31.141  27.129  23.514  1.00  0.00     0.114 C 
ATOM     88  H   UNL A   1      29.526  25.798  23.905  1.00  0.00     0.161 HD
ATOM     89  C   UNL A   1      32.600  28.207  26.779  1.00  0.00    -0.030 C 
ATOM     90  C   UNL A   1      31.487  28.348  25.789  1.00  0.00     0.034 C 
BRANCH  87  91
ATOM     91  C   UNL A   1      30.142  28.158  23.007  1.00  0.00    -0.022 A 
ATOM     92  C   UNL A   1      28.776  27.966  23.262  1.00  0.00     0.026 A 
ATOM     93  C   UNL A   1      30.510  29.291  22.271  1.00  0.00     0.026 A 
ATOM     94  C   UNL A   1      27.863  28.899  22.794  1.00  0.00     0.111 A 
ATOM     95  C   UNL A   1      29.524  30.175  21.859  1.00  0.00     0.111 A 
ATOM     96  N   UNL A   1      28.209  30.006  22.109  1.00  0.00    -0.265 NA
ENDBRANCH  87  91
ENDBRANCH  74  77
ENDBRANCH  72  73
ENDBRANCH  71  72
ENDBRANCH   1  71
TORSDOF 14
ENDMDL
