MODEL 1
REMARK VINA RESULT:     -13.2      0.000      0.000
REMARK SMILES Cc1ccc(C(C)(C)C)c(OCC(=O)c2nc(C)c(C(=O)NCCCNC(=O)c3ccc(-c4c5nc(c(-c6cccc(S(=O)(=O)[O-])c6F)c6ccc([nH]6)c(-c6cccc(S(=O)(=O)[O-])c6F)c6nc(c(-c7cccc(S(=O)(=O)[O-])c7F)c7ccc4[nH]7)C=C6)C=C5)cc3)s2)c1
REMARK SMILES IDX 23 1 22 2 20 3 21 4 19 6 15 7 16 8 92 9 17 10 18 11 13 12
REMARK SMILES IDX 14 13 12 14 11 15 10 16 1 17 2 18 3 19 93 20 4 21 5 22 6 23
REMARK SMILES IDX 7 24 8 25 9 26 24 27 25 28 26 29 27 30 28 32 29 33 30 34
REMARK SMILES IDX 91 35 31 36 90 37 32 38 33 39 34 40 84 41 35 42 89 43 83 44
REMARK SMILES IDX 85 45 36 46 88 47 82 48 81 49 37 51 69 52 49 53 68 54 50 55
REMARK SMILES IDX 53 56 67 57 86 58 51 59 52 60 66 62 87 63 54 64 38 65 39 66
REMARK SMILES IDX 47 67 40 68 42 69 48 70 41 71 43 72 44 73 45 74 46 75 70 76
REMARK SMILES IDX 71 77 79 78 72 79 74 80 80 81 73 82 75 83 76 84 77 85 78 86
REMARK SMILES IDX 55 87 56 88 64 89 57 90 59 91 65 92 58 93 60 94 61 95 62 96
REMARK SMILES IDX 63 97
REMARK H PARENT 22 5 26 31 85 50 53 61
REMARK Flexibility Score: inf
ROOT
ATOM      1  C   UNL A   1      36.386  20.944  25.073  1.00  0.00     0.118 C 
ENDROOT
BRANCH   1   2
ATOM      2  N   UNL A   1      35.739  21.812  26.027  1.00  0.00    -0.351 N 
ATOM      3  C   UNL A   1      34.689  22.691  25.966  1.00  0.00     0.263 C 
ATOM      4  O   UNL A   1      34.447  23.203  27.068  1.00  0.00    -0.268 OA
ATOM      5  H   UNL A   1      36.143  21.763  26.924  1.00  0.00     0.163 HD
BRANCH   3   6
ATOM      6  C   UNL A   1      33.894  23.021  24.776  1.00  0.00     0.115 A 
ATOM      7  C   UNL A   1      33.033  24.463  22.954  1.00  0.00     0.164 A 
ATOM      8  N   UNL A   1      32.526  23.261  22.874  1.00  0.00    -0.237 NA
ATOM      9  S   UNL A   1      34.096  24.687  24.249  1.00  0.00    -0.105 S 
ATOM     10  C   UNL A   1      33.028  22.419  23.862  1.00  0.00     0.062 A 
ATOM     11  C   UNL A   1      32.544  21.033  23.670  1.00  0.00     0.068 C 
BRANCH   7  12
ATOM     12  C   UNL A   1      32.664  25.487  21.988  1.00  0.00     0.228 C 
ATOM     13  O   UNL A   1      33.237  25.612  20.896  1.00  0.00    -0.288 OA
BRANCH  12  14
ATOM     14  C   UNL A   1      31.600  26.528  22.360  1.00  0.00     0.313 C 
BRANCH  14  15
ATOM     15  O   UNL A   1      31.885  27.905  22.434  1.00  0.00    -0.485 OA
BRANCH  15  16
ATOM     16  C   UNL A   1      31.999  28.527  23.643  1.00  0.00     0.123 A 
ATOM     17  C   UNL A   1      34.449  28.844  26.560  1.00  0.00     0.044 C 
ATOM     18  C   UNL A   1      33.244  29.037  25.688  1.00  0.00    -0.047 A 
ATOM     19  C   UNL A   1      32.246  29.932  26.055  1.00  0.00     0.004 A 
ATOM     20  C   UNL A   1      33.092  28.313  24.503  1.00  0.00     0.050 A 
ATOM     21  C   UNL A   1      31.130  30.109  25.236  1.00  0.00     0.008 A 
ATOM     22  C   UNL A   1      30.972  29.427  24.006  1.00  0.00    -0.000 A 
BRANCH  22  23
ATOM     23  C   UNL A   1      29.687  29.713  23.183  1.00  0.00    -0.010 C 
ATOM     24  C   UNL A   1      30.097  29.972  21.713  1.00  0.00     0.016 C 
ATOM     25  C   UNL A   1      28.743  28.487  23.238  1.00  0.00     0.016 C 
ATOM     26  C   UNL A   1      28.827  30.926  23.605  1.00  0.00     0.016 C 
ENDBRANCH  22  23
ENDBRANCH  15  16
ENDBRANCH  14  15
ENDBRANCH  12  14
ENDBRANCH   7  12
ENDBRANCH   3   6
ENDBRANCH   1   2
BRANCH   1  27
ATOM     27  C   UNL A   1      37.900  21.076  25.137  1.00  0.00     0.042 C 
BRANCH  27  28
ATOM     28  C   UNL A   1      38.409  22.377  25.729  1.00  0.00     0.118 C 
BRANCH  28  29
ATOM     29  N   UNL A   1      39.838  22.297  26.032  1.00  0.00    -0.352 N 
ATOM     30  C   UNL A   1      40.721  23.298  26.395  1.00  0.00     0.251 C 
ATOM     31  H   UNL A   1      40.229  21.397  25.968  1.00  0.00     0.163 HD
ATOM     32  O   UNL A   1      41.908  23.054  26.507  1.00  0.00    -0.269 OA
BRANCH  30  33
ATOM     33  C   UNL A   1      40.154  24.612  26.759  1.00  0.00     0.039 A 
ATOM     34  C   UNL A   1      40.708  25.737  26.138  1.00  0.00     0.014 A 
ATOM     35  C   UNL A   1      39.356  24.729  27.892  1.00  0.00     0.014 A 
ATOM     36  C   UNL A   1      40.672  26.959  26.798  1.00  0.00     0.010 A 
ATOM     37  C   UNL A   1      39.397  25.916  28.589  1.00  0.00     0.010 A 
ATOM     38  C   UNL A   1      40.116  27.005  28.073  1.00  0.00    -0.014 A 
BRANCH  38  39
ATOM     39  C   UNL A   1      40.302  28.106  29.004  1.00  0.00     0.031 A 
ATOM     40  C   UNL A   1      39.402  29.273  28.957  1.00  0.00     0.074 A 
ATOM     41  C   UNL A   1      41.160  27.941  30.034  1.00  0.00     0.049 A 
ATOM     42  N   UNL A   1      39.616  30.383  29.577  1.00  0.00    -0.248 NA
ATOM     43  C   UNL A   1      38.190  29.279  28.152  1.00  0.00     0.031 C 
ATOM     44  C   UNL A   1      41.163  28.667  31.297  1.00  0.00     0.029 A 
ATOM     45  N   UNL A   1      42.355  27.210  30.051  1.00  0.00    -0.354 N 
ATOM     46  C   UNL A   1      38.464  31.137  29.483  1.00  0.00     0.074 A 
ATOM     47  C   UNL A   1      37.641  30.437  28.526  1.00  0.00     0.031 C 
ATOM     48  C   UNL A   1      42.387  28.580  31.837  1.00  0.00     0.029 A 
ATOM     49  C   UNL A   1      43.246  27.943  30.855  1.00  0.00     0.049 A 
ATOM     50  H   UNL A   1      42.533  26.357  29.594  1.00  0.00     0.167 HD
ATOM     51  C   UNL A   1      38.290  32.188  30.336  1.00  0.00     0.034 A 
ATOM     52  C   UNL A   1      44.446  28.425  30.423  1.00  0.00     0.034 A 
ATOM     53  C   UNL A   1      39.491  32.405  31.153  1.00  0.00     0.049 A 
ATOM     54  C   UNL A   1      44.579  29.932  30.563  1.00  0.00     0.074 A 
ATOM     55  C   UNL A   1      39.853  32.019  32.434  1.00  0.00     0.029 A 
ATOM     56  N   UNL A   1      40.647  32.881  30.548  1.00  0.00    -0.354 N 
ATOM     57  N   UNL A   1      43.625  30.716  30.985  1.00  0.00    -0.248 NA
ATOM     58  C   UNL A   1      45.778  30.684  30.195  1.00  0.00     0.031 C 
ATOM     59  C   UNL A   1      41.261  32.175  32.559  1.00  0.00     0.029 A 
ATOM     60  C   UNL A   1      41.747  32.684  31.367  1.00  0.00     0.049 A 
ATOM     61  H   UNL A   1      40.679  33.302  29.658  1.00  0.00     0.167 HD
ATOM     62  C   UNL A   1      43.981  32.024  30.790  1.00  0.00     0.074 A 
ATOM     63  C   UNL A   1      45.375  31.952  30.389  1.00  0.00     0.031 C 
ATOM     64  C   UNL A   1      43.077  33.047  30.888  1.00  0.00     0.034 A 
BRANCH  51  65
ATOM     65  C   UNL A   1      36.948  32.828  30.665  1.00  0.00     0.023 A 
ATOM     66  C   UNL A   1      36.391  32.552  31.935  1.00  0.00     0.012 A 
ATOM     67  C   UNL A   1      36.147  33.609  29.804  1.00  0.00     0.148 A 
ATOM     68  C   UNL A   1      35.084  32.916  32.281  1.00  0.00     0.002 A 
ATOM     69  C   UNL A   1      34.816  33.902  30.111  1.00  0.00     0.091 A 
ATOM     70  F   UNL A   1      36.688  34.174  28.722  1.00  0.00    -0.205 F 
ATOM     71  C   UNL A   1      34.277  33.552  31.351  1.00  0.00     0.022 A 
BRANCH  69  72
ATOM     72  S   UNL A   1      33.697  34.645  28.910  1.00  0.00     0.127 S 
ATOM     73  O   UNL A   1      33.547  33.573  27.921  1.00  0.00    -0.237 OA
ATOM     74  O   UNL A   1      32.501  34.905  29.709  1.00  0.00    -0.237 OA
ATOM     75  O   UNL A   1      34.382  35.826  28.399  1.00  0.00    -0.744 OA
ENDBRANCH  69  72
ENDBRANCH  51  65
BRANCH  52  76
ATOM     76  C   UNL A   1      45.088  27.587  29.372  1.00  0.00     0.023 A 
ATOM     77  C   UNL A   1      45.459  26.274  29.748  1.00  0.00     0.012 A 
ATOM     78  C   UNL A   1      44.975  27.895  28.005  1.00  0.00     0.148 A 
ATOM     79  C   UNL A   1      45.601  25.264  28.797  1.00  0.00     0.002 A 
ATOM     80  C   UNL A   1      45.109  26.877  27.060  1.00  0.00     0.091 A 
ATOM     81  F   UNL A   1      44.649  29.146  27.656  1.00  0.00    -0.205 F 
ATOM     82  C   UNL A   1      45.393  25.559  27.455  1.00  0.00     0.022 A 
BRANCH  80  83
ATOM     83  S   UNL A   1      44.770  27.151  25.315  1.00  0.00     0.127 S 
ATOM     84  O   UNL A   1      45.912  27.967  24.919  1.00  0.00    -0.237 OA
ATOM     85  O   UNL A   1      44.769  25.788  24.784  1.00  0.00    -0.237 OA
ATOM     86  O   UNL A   1      43.467  27.802  25.285  1.00  0.00    -0.744 OA
ENDBRANCH  80  83
ENDBRANCH  52  76
BRANCH  64  87
ATOM     87  C   UNL A   1      43.327  34.484  30.479  1.00  0.00     0.023 A 
ATOM     88  C   UNL A   1      43.730  35.469  31.401  1.00  0.00     0.012 A 
ATOM     89  C   UNL A   1      43.344  34.844  29.107  1.00  0.00     0.148 A 
ATOM     90  C   UNL A   1      44.093  36.757  30.990  1.00  0.00     0.002 A 
ATOM     91  C   UNL A   1      43.808  36.091  28.697  1.00  0.00     0.091 A 
ATOM     92  F   UNL A   1      42.901  33.975  28.185  1.00  0.00    -0.205 F 
ATOM     93  C   UNL A   1      44.158  37.061  29.636  1.00  0.00     0.022 A 
BRANCH  91  94
ATOM     94  S   UNL A   1      44.123  36.412  26.954  1.00  0.00     0.127 S 
ATOM     95  O   UNL A   1      44.788  37.712  26.994  1.00  0.00    -0.237 OA
ATOM     96  O   UNL A   1      44.992  35.297  26.573  1.00  0.00    -0.237 OA
ATOM     97  O   UNL A   1      42.804  36.377  26.335  1.00  0.00    -0.744 OA
ENDBRANCH  91  94
ENDBRANCH  64  87
ENDBRANCH  38  39
ENDBRANCH  30  33
ENDBRANCH  28  29
ENDBRANCH  27  28
ENDBRANCH   1  27
TORSDOF 18
ENDMDL
MODEL 2
REMARK VINA RESULT:     -13.0      4.118      9.989
REMARK SMILES Cc1ccc(C(C)(C)C)c(OCC(=O)c2nc(C)c(C(=O)NCCCNC(=O)c3ccc(-c4c5nc(c(-c6cccc(S(=O)(=O)[O-])c6F)c6ccc([nH]6)c(-c6cccc(S(=O)(=O)[O-])c6F)c6nc(c(-c7cccc(S(=O)(=O)[O-])c7F)c7ccc4[nH]7)C=C6)C=C5)cc3)s2)c1
REMARK SMILES IDX 23 1 22 2 20 3 21 4 19 6 15 7 16 8 92 9 17 10 18 11 13 12
REMARK SMILES IDX 14 13 12 14 11 15 10 16 1 17 2 18 3 19 93 20 4 21 5 22 6 23
REMARK SMILES IDX 7 24 8 25 9 26 24 27 25 28 26 29 27 30 28 32 29 33 30 34
REMARK SMILES IDX 91 35 31 36 90 37 32 38 33 39 34 40 84 41 35 42 89 43 83 44
REMARK SMILES IDX 85 45 36 46 88 47 82 48 81 49 37 51 69 52 49 53 68 54 50 55
REMARK SMILES IDX 53 56 67 57 86 58 51 59 52 60 66 62 87 63 54 64 38 65 39 66
REMARK SMILES IDX 47 67 40 68 42 69 48 70 41 71 43 72 44 73 45 74 46 75 70 76
REMARK SMILES IDX 71 77 79 78 72 79 74 80 80 81 73 82 75 83 76 84 77 85 78 86
REMARK SMILES IDX 55 87 56 88 64 89 57 90 59 91 65 92 58 93 60 94 61 95 62 96
REMARK SMILES IDX 63 97
REMARK H PARENT 22 5 26 31 85 50 53 61
REMARK Flexibility Score: inf
ROOT
ATOM      1  C   UNL A   1      31.832  30.384  26.134  1.00  0.00     0.118 C 
ENDROOT
BRANCH   1   2
ATOM      2  N   UNL A   1      32.614  29.865  25.038  1.00  0.00    -0.351 N 
ATOM      3  C   UNL A   1      32.588  28.707  24.305  1.00  0.00     0.263 C 
ATOM      4  O   UNL A   1      33.444  28.704  23.409  1.00  0.00    -0.268 OA
ATOM      5  H   UNL A   1      33.326  30.481  24.751  1.00  0.00     0.163 HD
BRANCH   3   6
ATOM      6  C   UNL A   1      31.674  27.573  24.496  1.00  0.00     0.115 A 
ATOM      7  C   UNL A   1      30.908  25.413  25.438  1.00  0.00     0.164 A 
ATOM      8  N   UNL A   1      30.022  25.898  24.609  1.00  0.00    -0.237 NA
ATOM      9  S   UNL A   1      32.290  26.368  25.619  1.00  0.00    -0.105 S 
ATOM     10  C   UNL A   1      30.410  27.133  24.098  1.00  0.00     0.062 A 
ATOM     11  C   UNL A   1      29.334  27.724  23.269  1.00  0.00     0.068 C 
BRANCH   7  12
ATOM     12  C   UNL A   1      30.674  24.143  26.109  1.00  0.00     0.228 C 
ATOM     13  O   UNL A   1      29.988  24.048  27.137  1.00  0.00    -0.288 OA
BRANCH  12  14
ATOM     14  C   UNL A   1      31.381  22.880  25.603  1.00  0.00     0.313 C 
BRANCH  14  15
ATOM     15  O   UNL A   1      32.781  22.726  25.655  1.00  0.00    -0.485 OA
BRANCH  15  16
ATOM     16  C   UNL A   1      33.357  21.517  25.396  1.00  0.00     0.123 A 
ATOM     17  C   UNL A   1      32.463  17.801  25.305  1.00  0.00     0.044 C 
ATOM     18  C   UNL A   1      33.237  19.080  25.188  1.00  0.00    -0.047 A 
ATOM     19  C   UNL A   1      34.546  19.071  24.723  1.00  0.00     0.004 A 
ATOM     20  C   UNL A   1      32.667  20.301  25.558  1.00  0.00     0.050 A 
ATOM     21  C   UNL A   1      35.259  20.266  24.612  1.00  0.00     0.008 A 
ATOM     22  C   UNL A   1      34.691  21.523  24.932  1.00  0.00    -0.000 A 
BRANCH  22  23
ATOM     23  C   UNL A   1      35.585  22.781  24.763  1.00  0.00    -0.010 C 
ATOM     24  C   UNL A   1      36.979  22.325  24.272  1.00  0.00     0.016 C 
ATOM     25  C   UNL A   1      34.962  23.731  23.712  1.00  0.00     0.016 C 
ATOM     26  C   UNL A   1      35.838  23.649  26.018  1.00  0.00     0.016 C 
ENDBRANCH  22  23
ENDBRANCH  15  16
ENDBRANCH  14  15
ENDBRANCH  12  14
ENDBRANCH   7  12
ENDBRANCH   3   6
ENDBRANCH   1   2
BRANCH   1  27
ATOM     27  C   UNL A   1      32.705  31.110  27.146  1.00  0.00     0.042 C 
BRANCH  27  28
ATOM     28  C   UNL A   1      34.135  30.609  27.240  1.00  0.00     0.118 C 
BRANCH  28  29
ATOM     29  N   UNL A   1      35.024  31.645  27.766  1.00  0.00    -0.352 N 
ATOM     30  C   UNL A   1      36.263  31.523  28.366  1.00  0.00     0.251 C 
ATOM     31  H   UNL A   1      34.690  32.567  27.680  1.00  0.00     0.163 HD
ATOM     32  O   UNL A   1      36.813  32.501  28.838  1.00  0.00    -0.269 OA
BRANCH  30  33
ATOM     33  C   UNL A   1      36.932  30.208  28.294  1.00  0.00     0.039 A 
ATOM     34  C   UNL A   1      37.006  29.466  29.477  1.00  0.00     0.014 A 
ATOM     35  C   UNL A   1      37.724  29.897  27.194  1.00  0.00     0.014 A 
ATOM     36  C   UNL A   1      38.053  28.569  29.650  1.00  0.00     0.010 A 
ATOM     37  C   UNL A   1      38.813  29.078  27.394  1.00  0.00     0.010 A 
ATOM     38  C   UNL A   1      39.012  28.475  28.645  1.00  0.00    -0.014 A 
BRANCH  38  39
ATOM     39  C   UNL A   1      40.313  27.848  28.817  1.00  0.00     0.031 A 
ATOM     40  C   UNL A   1      40.469  26.398  28.602  1.00  0.00     0.074 A 
ATOM     41  C   UNL A   1      41.396  28.643  28.961  1.00  0.00     0.049 A 
ATOM     42  N   UNL A   1      41.512  25.719  28.941  1.00  0.00    -0.248 NA
ATOM     43  C   UNL A   1      39.414  25.590  28.010  1.00  0.00     0.031 C 
ATOM     44  C   UNL A   1      42.783  28.292  28.685  1.00  0.00     0.029 A 
ATOM     45  N   UNL A   1      41.474  29.886  29.602  1.00  0.00    -0.354 N 
ATOM     46  C   UNL A   1      41.390  24.466  28.378  1.00  0.00     0.074 A 
ATOM     47  C   UNL A   1      40.037  24.416  27.876  1.00  0.00     0.031 C 
ATOM     48  C   UNL A   1      43.579  29.122  29.373  1.00  0.00     0.029 A 
ATOM     49  C   UNL A   1      42.726  29.915  30.240  1.00  0.00     0.049 A 
ATOM     50  H   UNL A   1      40.791  30.595  29.604  1.00  0.00     0.167 HD
ATOM     51  C   UNL A   1      42.496  23.674  28.280  1.00  0.00     0.034 A 
ATOM     52  C   UNL A   1      42.896  30.076  31.584  1.00  0.00     0.034 A 
ATOM     53  C   UNL A   1      43.647  24.295  28.949  1.00  0.00     0.049 A 
ATOM     54  C   UNL A   1      43.656  28.934  32.239  1.00  0.00     0.074 A 
ATOM     55  C   UNL A   1      44.714  25.055  28.495  1.00  0.00     0.029 A 
ATOM     56  N   UNL A   1      43.652  24.404  30.333  1.00  0.00    -0.354 N 
ATOM     57  N   UNL A   1      44.052  27.862  31.611  1.00  0.00    -0.248 NA
ATOM     58  C   UNL A   1      43.988  28.885  33.663  1.00  0.00     0.031 C 
ATOM     59  C   UNL A   1      45.300  25.703  29.617  1.00  0.00     0.029 A 
ATOM     60  C   UNL A   1      44.609  25.313  30.752  1.00  0.00     0.049 A 
ATOM     61  H   UNL A   1      43.054  23.902  30.935  1.00  0.00     0.167 HD
ATOM     62  C   UNL A   1      44.506  26.938  32.514  1.00  0.00     0.074 A 
ATOM     63  C   UNL A   1      44.540  27.664  33.771  1.00  0.00     0.031 C 
ATOM     64  C   UNL A   1      44.730  25.632  32.170  1.00  0.00     0.034 A 
BRANCH  51  65
ATOM     65  C   UNL A   1      42.639  22.494  27.329  1.00  0.00     0.023 A 
ATOM     66  C   UNL A   1      41.874  21.338  27.609  1.00  0.00     0.012 A 
ATOM     67  C   UNL A   1      43.522  22.390  26.232  1.00  0.00     0.148 A 
ATOM     68  C   UNL A   1      42.060  20.127  26.932  1.00  0.00     0.002 A 
ATOM     69  C   UNL A   1      43.771  21.164  25.608  1.00  0.00     0.091 A 
ATOM     70  F   UNL A   1      44.056  23.492  25.701  1.00  0.00    -0.205 F 
ATOM     71  C   UNL A   1      43.043  20.025  25.960  1.00  0.00     0.022 A 
BRANCH  69  72
ATOM     72  S   UNL A   1      45.096  20.953  24.405  1.00  0.00     0.127 S 
ATOM     73  O   UNL A   1      45.011  19.523  24.097  1.00  0.00    -0.237 OA
ATOM     74  O   UNL A   1      44.679  21.835  23.317  1.00  0.00    -0.237 OA
ATOM     75  O   UNL A   1      46.325  21.337  25.091  1.00  0.00    -0.744 OA
ENDBRANCH  69  72
ENDBRANCH  51  65
BRANCH  52  76
ATOM     76  C   UNL A   1      41.840  30.904  32.229  1.00  0.00     0.023 A 
ATOM     77  C   UNL A   1      41.707  32.235  31.764  1.00  0.00     0.012 A 
ATOM     78  C   UNL A   1      40.778  30.327  32.946  1.00  0.00     0.148 A 
ATOM     79  C   UNL A   1      40.508  32.932  31.908  1.00  0.00     0.002 A 
ATOM     80  C   UNL A   1      39.579  31.027  33.077  1.00  0.00     0.091 A 
ATOM     81  F   UNL A   1      40.921  29.077  33.405  1.00  0.00    -0.205 F 
ATOM     82  C   UNL A   1      39.433  32.315  32.535  1.00  0.00     0.022 A 
BRANCH  80  83
ATOM     83  S   UNL A   1      38.111  30.272  33.794  1.00  0.00     0.127 S 
ATOM     84  O   UNL A   1      38.516  30.111  35.186  1.00  0.00    -0.237 OA
ATOM     85  O   UNL A   1      37.094  31.297  33.561  1.00  0.00    -0.237 OA
ATOM     86  O   UNL A   1      37.910  29.049  33.032  1.00  0.00    -0.744 OA
ENDBRANCH  80  83
ENDBRANCH  52  76
BRANCH  64  87
ATOM     87  C   UNL A   1      45.019  24.505  33.140  1.00  0.00     0.023 A 
ATOM     88  C   UNL A   1      44.144  23.416  33.310  1.00  0.00     0.012 A 
ATOM     89  C   UNL A   1      46.283  24.418  33.778  1.00  0.00     0.148 A 
ATOM     90  C   UNL A   1      44.486  22.313  34.103  1.00  0.00     0.002 A 
ATOM     91  C   UNL A   1      46.659  23.273  34.476  1.00  0.00     0.091 A 
ATOM     92  F   UNL A   1      47.133  25.455  33.715  1.00  0.00    -0.205 F 
ATOM     93  C   UNL A   1      45.753  22.229  34.664  1.00  0.00     0.022 A 
BRANCH  91  94
ATOM     94  S   UNL A   1      48.366  23.050  35.000  1.00  0.00     0.127 S 
ATOM     95  O   UNL A   1      48.466  23.971  36.129  1.00  0.00    -0.237 OA
ATOM     96  O   UNL A   1      48.410  21.633  35.365  1.00  0.00    -0.237 OA
ATOM     97  O   UNL A   1      49.154  23.384  33.820  1.00  0.00    -0.744 OA
ENDBRANCH  91  94
ENDBRANCH  64  87
ENDBRANCH  38  39
ENDBRANCH  30  33
ENDBRANCH  28  29
ENDBRANCH  27  28
ENDBRANCH   1  27
TORSDOF 18
ENDMDL
MODEL 3
REMARK VINA RESULT:     -13.0      3.951      9.640
REMARK SMILES Cc1ccc(C(C)(C)C)c(OCC(=O)c2nc(C)c(C(=O)NCCCNC(=O)c3ccc(-c4c5nc(c(-c6cccc(S(=O)(=O)[O-])c6F)c6ccc([nH]6)c(-c6cccc(S(=O)(=O)[O-])c6F)c6nc(c(-c7cccc(S(=O)(=O)[O-])c7F)c7ccc4[nH]7)C=C6)C=C5)cc3)s2)c1
REMARK SMILES IDX 23 1 22 2 20 3 21 4 19 6 15 7 16 8 92 9 17 10 18 11 13 12
REMARK SMILES IDX 14 13 12 14 11 15 10 16 1 17 2 18 3 19 93 20 4 21 5 22 6 23
REMARK SMILES IDX 7 24 8 25 9 26 24 27 25 28 26 29 27 30 28 32 29 33 30 34
REMARK SMILES IDX 91 35 31 36 90 37 32 38 33 39 34 40 84 41 35 42 89 43 83 44
REMARK SMILES IDX 85 45 36 46 88 47 82 48 81 49 37 51 69 52 49 53 68 54 50 55
REMARK SMILES IDX 53 56 67 57 86 58 51 59 52 60 66 62 87 63 54 64 38 65 39 66
REMARK SMILES IDX 47 67 40 68 42 69 48 70 41 71 43 72 44 73 45 74 46 75 70 76
REMARK SMILES IDX 71 77 79 78 72 79 74 80 80 81 73 82 75 83 76 84 77 85 78 86
REMARK SMILES IDX 55 87 56 88 64 89 57 90 59 91 65 92 58 93 60 94 61 95 62 96
REMARK SMILES IDX 63 97
REMARK H PARENT 22 5 26 31 85 50 53 61
REMARK Flexibility Score: inf
ROOT
ATOM      1  C   UNL A   1      31.753  30.209  25.925  1.00  0.00     0.118 C 
ENDROOT
BRANCH   1   2
ATOM      2  N   UNL A   1      32.732  29.608  25.052  1.00  0.00    -0.351 N 
ATOM      3  C   UNL A   1      32.880  28.368  24.486  1.00  0.00     0.263 C 
ATOM      4  O   UNL A   1      33.877  28.307  23.753  1.00  0.00    -0.268 OA
ATOM      5  H   UNL A   1      33.458  30.226  24.808  1.00  0.00     0.163 HD
BRANCH   3   6
ATOM      6  C   UNL A   1      31.993  27.211  24.672  1.00  0.00     0.115 A 
ATOM      7  C   UNL A   1      31.323  24.983  25.524  1.00  0.00     0.164 A 
ATOM      8  N   UNL A   1      30.369  25.511  24.803  1.00  0.00    -0.237 NA
ATOM      9  S   UNL A   1      32.708  25.942  25.658  1.00  0.00    -0.105 S 
ATOM     10  C   UNL A   1      30.705  26.782  24.348  1.00  0.00     0.062 A 
ATOM     11  C   UNL A   1      29.562  27.412  23.649  1.00  0.00     0.068 C 
BRANCH   7  12
ATOM     12  C   UNL A   1      31.154  23.669  26.125  1.00  0.00     0.228 C 
ATOM     13  O   UNL A   1      30.625  23.504  27.233  1.00  0.00    -0.288 OA
BRANCH  12  14
ATOM     14  C   UNL A   1      31.743  22.437  25.425  1.00  0.00     0.313 C 
BRANCH  14  15
ATOM     15  O   UNL A   1      32.629  21.553  26.072  1.00  0.00    -0.485 OA
BRANCH  15  16
ATOM     16  C   UNL A   1      33.953  21.530  25.742  1.00  0.00     0.123 A 
ATOM     17  C   UNL A   1      37.098  23.676  26.082  1.00  0.00     0.044 C 
ATOM     18  C   UNL A   1      36.185  22.534  25.746  1.00  0.00    -0.047 A 
ATOM     19  C   UNL A   1      36.690  21.377  25.164  1.00  0.00     0.004 A 
ATOM     20  C   UNL A   1      34.812  22.614  25.993  1.00  0.00     0.050 A 
ATOM     21  C   UNL A   1      35.835  20.317  24.858  1.00  0.00     0.008 A 
ATOM     22  C   UNL A   1      34.449  20.351  25.143  1.00  0.00    -0.000 A 
BRANCH  22  23
ATOM     23  C   UNL A   1      33.604  19.107  24.759  1.00  0.00    -0.010 C 
ATOM     24  C   UNL A   1      34.564  18.004  24.250  1.00  0.00     0.016 C 
ATOM     25  C   UNL A   1      32.843  18.583  26.002  1.00  0.00     0.016 C 
ATOM     26  C   UNL A   1      32.536  19.283  23.655  1.00  0.00     0.016 C 
ENDBRANCH  22  23
ENDBRANCH  15  16
ENDBRANCH  14  15
ENDBRANCH  12  14
ENDBRANCH   7  12
ENDBRANCH   3   6
ENDBRANCH   1   2
BRANCH   1  27
ATOM     27  C   UNL A   1      32.404  31.146  26.931  1.00  0.00     0.042 C 
BRANCH  27  28
ATOM     28  C   UNL A   1      33.702  30.642  27.535  1.00  0.00     0.118 C 
BRANCH  28  29
ATOM     29  N   UNL A   1      34.304  31.648  28.409  1.00  0.00    -0.352 N 
ATOM     30  C   UNL A   1      35.409  31.552  29.234  1.00  0.00     0.251 C 
ATOM     31  H   UNL A   1      33.856  32.524  28.410  1.00  0.00     0.163 HD
ATOM     32  O   UNL A   1      35.702  32.475  29.973  1.00  0.00    -0.269 OA
BRANCH  30  33
ATOM     33  C   UNL A   1      36.273  30.364  29.088  1.00  0.00     0.039 A 
ATOM     34  C   UNL A   1      36.649  29.702  30.261  1.00  0.00     0.014 A 
ATOM     35  C   UNL A   1      36.931  30.133  27.884  1.00  0.00     0.014 A 
ATOM     36  C   UNL A   1      37.848  28.999  30.287  1.00  0.00     0.010 A 
ATOM     37  C   UNL A   1      38.160  29.515  27.929  1.00  0.00     0.010 A 
ATOM     38  C   UNL A   1      38.645  29.014  29.147  1.00  0.00    -0.014 A 
BRANCH  38  39
ATOM     39  C   UNL A   1      40.045  28.619  29.126  1.00  0.00     0.031 A 
ATOM     40  C   UNL A   1      40.413  27.216  28.862  1.00  0.00     0.074 A 
ATOM     41  C   UNL A   1      40.988  29.587  29.136  1.00  0.00     0.049 A 
ATOM     42  N   UNL A   1      41.591  26.726  29.041  1.00  0.00    -0.248 NA
ATOM     43  C   UNL A   1      39.437  26.238  28.404  1.00  0.00     0.031 C 
ATOM     44  C   UNL A   1      42.362  29.477  28.665  1.00  0.00     0.029 A 
ATOM     45  N   UNL A   1      40.941  30.827  29.785  1.00  0.00    -0.354 N 
ATOM     46  C   UNL A   1      41.606  25.468  28.475  1.00  0.00     0.074 A 
ATOM     47  C   UNL A   1      40.225  25.187  28.162  1.00  0.00     0.031 C 
ATOM     48  C   UNL A   1      43.094  30.432  29.254  1.00  0.00     0.029 A 
ATOM     49  C   UNL A   1      42.248  31.071  30.247  1.00  0.00     0.049 A 
ATOM     50  H   UNL A   1      40.156  31.409  29.895  1.00  0.00     0.167 HD
ATOM     51  C   UNL A   1      42.806  24.876  28.210  1.00  0.00     0.034 A 
ATOM     52  C   UNL A   1      42.572  31.263  31.557  1.00  0.00     0.034 A 
ATOM     53  C   UNL A   1      43.917  25.686  28.727  1.00  0.00     0.049 A 
ATOM     54  C   UNL A   1      43.597  30.269  32.079  1.00  0.00     0.074 A 
ATOM     55  C   UNL A   1      44.767  26.614  28.147  1.00  0.00     0.029 A 
ATOM     56  N   UNL A   1      44.095  25.798  30.099  1.00  0.00    -0.354 N 
ATOM     57  N   UNL A   1      44.078  29.278  31.380  1.00  0.00    -0.248 NA
ATOM     58  C   UNL A   1      44.127  30.282  33.442  1.00  0.00     0.031 C 
ATOM     59  C   UNL A   1      45.384  27.357  29.190  1.00  0.00     0.029 A 
ATOM     60  C   UNL A   1      44.934  26.858  30.401  1.00  0.00     0.049 A 
ATOM     61  H   UNL A   1      43.680  25.204  30.767  1.00  0.00     0.167 HD
ATOM     62  C   UNL A   1      44.802  28.447  32.194  1.00  0.00     0.074 A 
ATOM     63  C   UNL A   1      44.887  29.173  33.449  1.00  0.00     0.031 C 
ATOM     64  C   UNL A   1      45.194  27.198  31.796  1.00  0.00     0.034 A 
BRANCH  51  65
ATOM     65  C   UNL A   1      43.014  23.734  27.224  1.00  0.00     0.023 A 
ATOM     66  C   UNL A   1      43.628  24.046  25.989  1.00  0.00     0.012 A 
ATOM     67  C   UNL A   1      42.583  22.397  27.370  1.00  0.00     0.148 A 
ATOM     68  C   UNL A   1      43.697  23.135  24.928  1.00  0.00     0.002 A 
ATOM     69  C   UNL A   1      42.573  21.511  26.289  1.00  0.00     0.091 A 
ATOM     70  F   UNL A   1      42.274  21.926  28.580  1.00  0.00    -0.205 F 
ATOM     71  C   UNL A   1      43.127  21.879  25.061  1.00  0.00     0.022 A 
BRANCH  69  72
ATOM     72  S   UNL A   1      41.767  19.902  26.378  1.00  0.00     0.127 S 
ATOM     73  O   UNL A   1      42.268  19.372  27.649  1.00  0.00    -0.237 OA
ATOM     74  O   UNL A   1      40.350  20.258  26.385  1.00  0.00    -0.237 OA
ATOM     75  O   UNL A   1      42.224  19.159  25.209  1.00  0.00    -0.744 OA
ENDBRANCH  69  72
ENDBRANCH  51  65
BRANCH  52  76
ATOM     76  C   UNL A   1      41.490  31.902  32.358  1.00  0.00     0.023 A 
ATOM     77  C   UNL A   1      41.090  33.199  31.959  1.00  0.00     0.012 A 
ATOM     78  C   UNL A   1      40.635  31.151  33.183  1.00  0.00     0.148 A 
ATOM     79  C   UNL A   1      39.825  33.692  32.276  1.00  0.00     0.002 A 
ATOM     80  C   UNL A   1      39.368  31.647  33.488  1.00  0.00     0.091 A 
ATOM     81  F   UNL A   1      41.033  29.935  33.578  1.00  0.00    -0.205 F 
ATOM     82  C   UNL A   1      38.951  32.901  33.012  1.00  0.00     0.022 A 
BRANCH  80  83
ATOM     83  S   UNL A   1      38.144  30.656  34.358  1.00  0.00     0.127 S 
ATOM     84  O   UNL A   1      36.976  31.529  34.316  1.00  0.00    -0.237 OA
ATOM     85  O   UNL A   1      38.056  29.465  33.512  1.00  0.00    -0.237 OA
ATOM     86  O   UNL A   1      38.725  30.412  35.670  1.00  0.00    -0.744 OA
ENDBRANCH  80  83
ENDBRANCH  52  76
BRANCH  64  87
ATOM     87  C   UNL A   1      45.801  26.139  32.694  1.00  0.00     0.023 A 
ATOM     88  C   UNL A   1      47.189  26.029  32.894  1.00  0.00     0.012 A 
ATOM     89  C   UNL A   1      44.968  25.335  33.514  1.00  0.00     0.148 A 
ATOM     90  C   UNL A   1      47.730  25.140  33.832  1.00  0.00     0.002 A 
ATOM     91  C   UNL A   1      45.506  24.533  34.517  1.00  0.00     0.091 A 
ATOM     92  F   UNL A   1      43.639  25.339  33.321  1.00  0.00    -0.205 F 
ATOM     93  C   UNL A   1      46.888  24.411  34.662  1.00  0.00     0.022 A 
BRANCH  91  94
ATOM     94  S   UNL A   1      44.431  23.775  35.746  1.00  0.00     0.127 S 
ATOM     95  O   UNL A   1      43.913  22.613  35.029  1.00  0.00    -0.237 OA
ATOM     96  O   UNL A   1      45.359  23.455  36.833  1.00  0.00    -0.237 OA
ATOM     97  O   UNL A   1      43.466  24.817  36.075  1.00  0.00    -0.744 OA
ENDBRANCH  91  94
ENDBRANCH  64  87
ENDBRANCH  38  39
ENDBRANCH  30  33
ENDBRANCH  28  29
ENDBRANCH  27  28
ENDBRANCH   1  27
TORSDOF 18
ENDMDL
