MODEL 1
REMARK VINA RESULT:     -11.4      0.000      0.000
REMARK SMILES C[C@H]1[C@H](C(=O)NCCCNC(=O)c2ccc(-c3c4nc(c(-c5cccc(S(=O)(=O)[O-])c5F)c5ccc([nH]5)c(-c5cccc(S(=O)(=O)[O-])c5F)c5nc(c(-c6cccc(S(=O)(=O)[O-])c6F)c6ccc3[nH]6)C=C5)C=C4)cc2)CCN1C(=O)CC[NH2+]C1CC1
REMARK SMILES IDX 7 1 6 2 4 3 5 4 3 6 1 7 2 8 78 9 76 10 77 11 79 12 80 13
REMARK SMILES IDX 81 14 82 15 83 16 84 19 85 20 86 21 8 22 9 23 10 24 11 25
REMARK SMILES IDX 12 27 13 28 14 29 75 30 15 31 74 32 16 33 17 34 18 35 68 36
REMARK SMILES IDX 19 37 73 38 67 39 69 40 20 41 72 42 66 43 65 44 21 46 53 47
REMARK SMILES IDX 33 48 52 49 34 50 37 51 51 52 70 53 35 54 36 55 50 57 71 58
REMARK SMILES IDX 38 59 22 60 23 61 31 62 24 63 26 64 32 65 25 66 27 67 28 68
REMARK SMILES IDX 29 69 30 70 54 71 55 72 63 73 56 74 58 75 64 76 57 77 59 78
REMARK SMILES IDX 60 79 61 80 62 81 39 82 40 83 48 84 41 85 43 86 49 87 42 88
REMARK SMILES IDX 44 89 45 90 46 91 47 92
REMARK H PARENT 6 5 83 17 83 18 10 26 69 45 37 56
REMARK Flexibility Score: inf
ROOT
ATOM      1  C   UNL A   1      31.149  27.430  26.078  1.00  0.00     0.117 C 
ENDROOT
BRANCH   1   2
ATOM      2  N   UNL A   1      31.129  26.174  26.804  1.00  0.00    -0.356 N 
ATOM      3  C   UNL A   1      31.631  24.956  26.490  1.00  0.00     0.225 C 
ATOM      4  O   UNL A   1      31.452  24.042  27.300  1.00  0.00    -0.275 OA
ATOM      5  H   UNL A   1      30.674  26.215  27.676  1.00  0.00     0.163 HD
BRANCH   3   6
ATOM      6  C   UNL A   1      32.356  24.679  25.188  1.00  0.00     0.102 C 
ATOM      7  C   UNL A   1      31.469  23.446  23.226  1.00  0.00     0.032 C 
ATOM      8  C   UNL A   1      31.426  24.780  23.972  1.00  0.00     0.094 C 
ATOM      9  N   UNL A   1      31.997  25.834  23.140  1.00  0.00    -0.339 N 
ATOM     10  C   UNL A   1      33.574  25.555  24.885  1.00  0.00     0.037 C 
ATOM     11  C   UNL A   1      33.405  26.007  23.437  1.00  0.00     0.120 C 
BRANCH   9  12
ATOM     12  C   UNL A   1      31.402  26.550  22.118  1.00  0.00     0.228 C 
ATOM     13  O   UNL A   1      31.622  26.261  20.938  1.00  0.00    -0.275 OA
BRANCH  12  14
ATOM     14  C   UNL A   1      30.514  27.740  22.454  1.00  0.00     0.161 C 
BRANCH  14  15
ATOM     15  C   UNL A   1      31.265  29.073  22.502  1.00  0.00     0.270 C 
BRANCH  15  16
ATOM     16  N   UNL A   1      30.652  30.078  21.626  1.00  0.00    -0.343 N 
ATOM     17  H   UNL A   1      30.829  29.808  20.659  1.00  0.00     0.346 HD
ATOM     18  H   UNL A   1      31.072  30.973  21.875  1.00  0.00     0.346 HD
BRANCH  16  19
ATOM     19  C   UNL A   1      29.206  30.235  21.799  1.00  0.00     0.182 C 
ATOM     20  C   UNL A   1      28.597  30.745  23.078  1.00  0.00     0.071 C 
ATOM     21  C   UNL A   1      28.640  31.632  21.872  1.00  0.00     0.071 C 
ENDBRANCH  16  19
ENDBRANCH  15  16
ENDBRANCH  14  15
ENDBRANCH  12  14
ENDBRANCH   9  12
ENDBRANCH   3   6
ENDBRANCH   1   2
BRANCH   1  22
ATOM     22  C   UNL A   1      31.814  28.543  26.871  1.00  0.00     0.042 C 
BRANCH  22  23
ATOM     23  C   UNL A   1      32.758  29.407  26.047  1.00  0.00     0.118 C 
BRANCH  23  24
ATOM     24  N   UNL A   1      32.594  30.829  26.317  1.00  0.00    -0.352 N 
ATOM     25  C   UNL A   1      33.264  31.643  27.191  1.00  0.00     0.251 C 
ATOM     26  H   UNL A   1      31.891  31.274  25.789  1.00  0.00     0.163 HD
ATOM     27  O   UNL A   1      32.818  32.765  27.435  1.00  0.00    -0.269 OA
BRANCH  25  28
ATOM     28  C   UNL A   1      34.507  31.181  27.840  1.00  0.00     0.039 A 
ATOM     29  C   UNL A   1      35.563  32.079  28.001  1.00  0.00     0.014 A 
ATOM     30  C   UNL A   1      34.637  29.857  28.270  1.00  0.00     0.014 A 
ATOM     31  C   UNL A   1      36.728  31.662  28.644  1.00  0.00     0.010 A 
ATOM     32  C   UNL A   1      35.757  29.473  28.998  1.00  0.00     0.010 A 
ATOM     33  C   UNL A   1      36.823  30.365  29.179  1.00  0.00    -0.014 A 
BRANCH  33  34
ATOM     34  C   UNL A   1      38.026  29.933  29.932  1.00  0.00     0.031 A 
ATOM     35  C   UNL A   1      38.296  30.468  31.312  1.00  0.00     0.074 A 
ATOM     36  C   UNL A   1      38.914  29.111  29.339  1.00  0.00     0.049 A 
ATOM     37  N   UNL A   1      39.303  30.222  32.107  1.00  0.00    -0.248 NA
ATOM     38  C   UNL A   1      37.323  31.429  31.860  1.00  0.00     0.031 C 
ATOM     39  C   UNL A   1      38.812  28.600  27.970  1.00  0.00     0.029 A 
ATOM     40  N   UNL A   1      40.090  28.579  29.805  1.00  0.00    -0.354 N 
ATOM     41  C   UNL A   1      39.103  31.013  33.232  1.00  0.00     0.074 A 
ATOM     42  C   UNL A   1      37.902  31.785  32.998  1.00  0.00     0.031 C 
ATOM     43  C   UNL A   1      39.873  27.821  27.711  1.00  0.00     0.029 A 
ATOM     44  C   UNL A   1      40.746  27.802  28.879  1.00  0.00     0.049 A 
ATOM     45  H   UNL A   1      40.431  28.737  30.714  1.00  0.00     0.167 HD
ATOM     46  C   UNL A   1      39.832  31.070  34.372  1.00  0.00     0.034 A 
ATOM     47  C   UNL A   1      41.924  27.153  28.960  1.00  0.00     0.034 A 
ATOM     48  C   UNL A   1      41.009  30.279  34.613  1.00  0.00     0.049 A 
ATOM     49  C   UNL A   1      42.692  27.197  30.250  1.00  0.00     0.074 A 
ATOM     50  C   UNL A   1      41.774  30.201  35.763  1.00  0.00     0.029 A 
ATOM     51  N   UNL A   1      41.599  29.437  33.683  1.00  0.00    -0.354 N 
ATOM     52  N   UNL A   1      42.401  27.827  31.363  1.00  0.00    -0.248 NA
ATOM     53  C   UNL A   1      43.931  26.409  30.311  1.00  0.00     0.031 C 
ATOM     54  C   UNL A   1      42.844  29.335  35.519  1.00  0.00     0.029 A 
ATOM     55  C   UNL A   1      42.725  28.842  34.228  1.00  0.00     0.049 A 
ATOM     56  H   UNL A   1      41.267  29.283  32.769  1.00  0.00     0.167 HD
ATOM     57  C   UNL A   1      43.402  27.487  32.266  1.00  0.00     0.074 A 
ATOM     58  C   UNL A   1      44.291  26.574  31.577  1.00  0.00     0.031 C 
ATOM     59  C   UNL A   1      43.579  27.906  33.544  1.00  0.00     0.034 A 
BRANCH  46  60
ATOM     60  C   UNL A   1      39.345  31.985  35.468  1.00  0.00     0.023 A 
ATOM     61  C   UNL A   1      38.404  31.510  36.406  1.00  0.00     0.012 A 
ATOM     62  C   UNL A   1      39.848  33.293  35.601  1.00  0.00     0.148 A 
ATOM     63  C   UNL A   1      37.941  32.332  37.432  1.00  0.00     0.002 A 
ATOM     64  C   UNL A   1      39.420  34.091  36.657  1.00  0.00     0.091 A 
ATOM     65  F   UNL A   1      40.727  33.738  34.691  1.00  0.00    -0.205 F 
ATOM     66  C   UNL A   1      38.457  33.618  37.563  1.00  0.00     0.022 A 
BRANCH  64  67
ATOM     67  S   UNL A   1      40.082  35.733  36.962  1.00  0.00     0.127 S 
ATOM     68  O   UNL A   1      39.654  36.452  35.763  1.00  0.00    -0.237 OA
ATOM     69  O   UNL A   1      39.381  36.122  38.188  1.00  0.00    -0.237 OA
ATOM     70  O   UNL A   1      41.520  35.567  37.111  1.00  0.00    -0.744 OA
ENDBRANCH  64  67
ENDBRANCH  46  60
BRANCH  47  71
ATOM     71  C   UNL A   1      42.415  26.361  27.796  1.00  0.00     0.023 A 
ATOM     72  C   UNL A   1      43.335  26.938  26.899  1.00  0.00     0.012 A 
ATOM     73  C   UNL A   1      42.001  25.031  27.596  1.00  0.00     0.148 A 
ATOM     74  C   UNL A   1      43.807  26.214  25.804  1.00  0.00     0.002 A 
ATOM     75  C   UNL A   1      42.521  24.296  26.538  1.00  0.00     0.091 A 
ATOM     76  F   UNL A   1      41.120  24.504  28.458  1.00  0.00    -0.205 F 
ATOM     77  C   UNL A   1      43.409  24.891  25.628  1.00  0.00     0.022 A 
BRANCH  75  78
ATOM     78  S   UNL A   1      42.170  22.549  26.314  1.00  0.00     0.127 S 
ATOM     79  O   UNL A   1      40.709  22.531  26.346  1.00  0.00    -0.237 OA
ATOM     80  O   UNL A   1      42.762  22.289  25.002  1.00  0.00    -0.237 OA
ATOM     81  O   UNL A   1      42.834  21.869  27.418  1.00  0.00    -0.744 OA
ENDBRANCH  75  78
ENDBRANCH  47  71
BRANCH  59  82
ATOM     82  C   UNL A   1      44.764  27.355  34.296  1.00  0.00     0.023 A 
ATOM     83  C   UNL A   1      45.994  28.040  34.270  1.00  0.00     0.012 A 
ATOM     84  C   UNL A   1      44.641  26.184  35.070  1.00  0.00     0.148 A 
ATOM     85  C   UNL A   1      47.096  27.545  34.966  1.00  0.00     0.002 A 
ATOM     86  C   UNL A   1      45.727  25.726  35.804  1.00  0.00     0.091 A 
ATOM     87  F   UNL A   1      43.467  25.536  35.068  1.00  0.00    -0.205 F 
ATOM     88  C   UNL A   1      46.961  26.396  35.741  1.00  0.00     0.022 A 
BRANCH  86  89
ATOM     89  S   UNL A   1      45.617  24.312  36.905  1.00  0.00     0.127 S 
ATOM     90  O   UNL A   1      45.486  23.206  35.959  1.00  0.00    -0.237 OA
ATOM     91  O   UNL A   1      46.900  24.365  37.608  1.00  0.00    -0.237 OA
ATOM     92  O   UNL A   1      44.456  24.552  37.752  1.00  0.00    -0.744 OA
ENDBRANCH  86  89
ENDBRANCH  59  82
ENDBRANCH  33  34
ENDBRANCH  25  28
ENDBRANCH  23  24
ENDBRANCH  22  23
ENDBRANCH   1  22
TORSDOF 18
ENDMDL
MODEL 2
REMARK VINA RESULT:     -10.9      2.697      4.487
REMARK SMILES C[C@H]1[C@H](C(=O)NCCCNC(=O)c2ccc(-c3c4nc(c(-c5cccc(S(=O)(=O)[O-])c5F)c5ccc([nH]5)c(-c5cccc(S(=O)(=O)[O-])c5F)c5nc(c(-c6cccc(S(=O)(=O)[O-])c6F)c6ccc3[nH]6)C=C5)C=C4)cc2)CCN1C(=O)CC[NH2+]C1CC1
REMARK SMILES IDX 7 1 6 2 4 3 5 4 3 6 1 7 2 8 78 9 76 10 77 11 79 12 80 13
REMARK SMILES IDX 81 14 82 15 83 16 84 19 85 20 86 21 8 22 9 23 10 24 11 25
REMARK SMILES IDX 12 27 13 28 14 29 75 30 15 31 74 32 16 33 17 34 18 35 68 36
REMARK SMILES IDX 19 37 73 38 67 39 69 40 20 41 72 42 66 43 65 44 21 46 53 47
REMARK SMILES IDX 33 48 52 49 34 50 37 51 51 52 70 53 35 54 36 55 50 57 71 58
REMARK SMILES IDX 38 59 22 60 23 61 31 62 24 63 26 64 32 65 25 66 27 67 28 68
REMARK SMILES IDX 29 69 30 70 54 71 55 72 63 73 56 74 58 75 64 76 57 77 59 78
REMARK SMILES IDX 60 79 61 80 62 81 39 82 40 83 48 84 41 85 43 86 49 87 42 88
REMARK SMILES IDX 44 89 45 90 46 91 47 92
REMARK H PARENT 6 5 83 17 83 18 10 26 69 45 37 56
REMARK Flexibility Score: inf
ROOT
ATOM      1  C   UNL A   1      31.799  27.827  26.388  1.00  0.00     0.117 C 
ENDROOT
BRANCH   1   2
ATOM      2  N   UNL A   1      31.077  26.634  26.788  1.00  0.00    -0.356 N 
ATOM      3  C   UNL A   1      30.978  25.415  26.205  1.00  0.00     0.225 C 
ATOM      4  O   UNL A   1      30.268  24.574  26.763  1.00  0.00    -0.275 OA
ATOM      5  H   UNL A   1      30.572  26.725  27.628  1.00  0.00     0.163 HD
BRANCH   3   6
ATOM      6  C   UNL A   1      31.669  25.072  24.900  1.00  0.00     0.102 C 
ATOM      7  C   UNL A   1      34.067  25.405  24.355  1.00  0.00     0.032 C 
ATOM      8  C   UNL A   1      33.083  24.518  25.119  1.00  0.00     0.094 C 
ATOM      9  N   UNL A   1      33.064  23.180  24.538  1.00  0.00    -0.339 N 
ATOM     10  C   UNL A   1      30.946  24.082  23.984  1.00  0.00     0.037 C 
ATOM     11  C   UNL A   1      32.004  23.069  23.557  1.00  0.00     0.120 C 
BRANCH   9  12
ATOM     12  C   UNL A   1      33.944  22.133  24.742  1.00  0.00     0.228 C 
ATOM     13  O   UNL A   1      34.981  22.045  24.077  1.00  0.00    -0.275 OA
BRANCH  12  14
ATOM     14  C   UNL A   1      33.601  21.052  25.758  1.00  0.00     0.161 C 
BRANCH  14  15
ATOM     15  C   UNL A   1      32.981  19.799  25.135  1.00  0.00     0.270 C 
BRANCH  15  16
ATOM     16  N   UNL A   1      33.931  18.682  25.092  1.00  0.00    -0.343 N 
ATOM     17  H   UNL A   1      34.258  18.506  26.042  1.00  0.00     0.346 HD
ATOM     18  H   UNL A   1      34.678  18.961  24.458  1.00  0.00     0.346 HD
BRANCH  16  19
ATOM     19  C   UNL A   1      33.380  17.434  24.561  1.00  0.00     0.182 C 
ATOM     20  C   UNL A   1      34.243  16.242  24.243  1.00  0.00     0.071 C 
ATOM     21  C   UNL A   1      33.364  16.218  25.456  1.00  0.00     0.071 C 
ENDBRANCH  16  19
ENDBRANCH  15  16
ENDBRANCH  14  15
ENDBRANCH  12  14
ENDBRANCH   9  12
ENDBRANCH   3   6
ENDBRANCH   1   2
BRANCH   1  22
ATOM     22  C   UNL A   1      33.232  27.827  26.893  1.00  0.00     0.042 C 
BRANCH  22  23
ATOM     23  C   UNL A   1      34.120  28.869  26.228  1.00  0.00     0.118 C 
BRANCH  23  24
ATOM     24  N   UNL A   1      33.851  30.219  26.702  1.00  0.00    -0.352 N 
ATOM     25  C   UNL A   1      34.477  30.952  27.675  1.00  0.00     0.251 C 
ATOM     26  H   UNL A   1      33.102  30.676  26.254  1.00  0.00     0.163 HD
ATOM     27  O   UNL A   1      33.950  31.987  28.086  1.00  0.00    -0.269 OA
BRANCH  25  28
ATOM     28  C   UNL A   1      35.769  30.505  28.233  1.00  0.00     0.039 A 
ATOM     29  C   UNL A   1      35.772  29.677  29.356  1.00  0.00     0.014 A 
ATOM     30  C   UNL A   1      36.975  30.917  27.660  1.00  0.00     0.014 A 
ATOM     31  C   UNL A   1      36.986  29.219  29.870  1.00  0.00     0.010 A 
ATOM     32  C   UNL A   1      38.175  30.381  28.112  1.00  0.00     0.010 A 
ATOM     33  C   UNL A   1      38.196  29.540  29.232  1.00  0.00    -0.014 A 
BRANCH  33  34
ATOM     34  C   UNL A   1      39.488  28.998  29.722  1.00  0.00     0.031 A 
ATOM     35  C   UNL A   1      40.217  29.669  30.854  1.00  0.00     0.074 A 
ATOM     36  C   UNL A   1      40.040  27.941  29.095  1.00  0.00     0.049 A 
ATOM     37  N   UNL A   1      41.362  29.353  31.398  1.00  0.00    -0.248 NA
ATOM     38  C   UNL A   1      39.593  30.871  31.434  1.00  0.00     0.031 C 
ATOM     39  C   UNL A   1      39.476  27.263  27.924  1.00  0.00     0.029 A 
ATOM     40  N   UNL A   1      41.208  27.265  29.338  1.00  0.00    -0.354 N 
ATOM     41  C   UNL A   1      41.611  30.325  32.359  1.00  0.00     0.074 A 
ATOM     42  C   UNL A   1      40.519  31.272  32.293  1.00  0.00     0.031 C 
ATOM     43  C   UNL A   1      40.293  26.263  27.560  1.00  0.00     0.029 A 
ATOM     44  C   UNL A   1      41.452  26.247  28.446  1.00  0.00     0.049 A 
ATOM     45  H   UNL A   1      41.815  27.487  30.081  1.00  0.00     0.167 HD
ATOM     46  C   UNL A   1      42.635  30.407  33.241  1.00  0.00     0.034 A 
ATOM     47  C   UNL A   1      42.495  25.401  28.348  1.00  0.00     0.034 A 
ATOM     48  C   UNL A   1      43.702  29.447  33.323  1.00  0.00     0.049 A 
ATOM     49  C   UNL A   1      43.598  25.486  29.365  1.00  0.00     0.074 A 
ATOM     50  C   UNL A   1      44.745  29.393  34.231  1.00  0.00     0.029 A 
ATOM     51  N   UNL A   1      43.872  28.378  32.456  1.00  0.00    -0.354 N 
ATOM     52  N   UNL A   1      43.733  26.317  30.370  1.00  0.00    -0.248 NA
ATOM     53  C   UNL A   1      44.674  24.490  29.260  1.00  0.00     0.031 C 
ATOM     54  C   UNL A   1      45.562  28.308  33.896  1.00  0.00     0.029 A 
ATOM     55  C   UNL A   1      45.008  27.663  32.801  1.00  0.00     0.049 A 
ATOM     56  H   UNL A   1      43.274  28.158  31.706  1.00  0.00     0.167 HD
ATOM     57  C   UNL A   1      44.889  25.927  31.035  1.00  0.00     0.074 A 
ATOM     58  C   UNL A   1      45.400  24.767  30.334  1.00  0.00     0.031 C 
ATOM     59  C   UNL A   1      45.484  26.488  32.118  1.00  0.00     0.034 A 
BRANCH  46  60
ATOM     60  C   UNL A   1      42.621  31.551  34.224  1.00  0.00     0.023 A 
ATOM     61  C   UNL A   1      43.313  32.742  33.917  1.00  0.00     0.012 A 
ATOM     62  C   UNL A   1      41.889  31.471  35.424  1.00  0.00     0.148 A 
ATOM     63  C   UNL A   1      43.312  33.816  34.805  1.00  0.00     0.002 A 
ATOM     64  C   UNL A   1      41.851  32.565  36.282  1.00  0.00     0.091 A 
ATOM     65  F   UNL A   1      41.253  30.326  35.712  1.00  0.00    -0.205 F 
ATOM     66  C   UNL A   1      42.573  33.732  35.981  1.00  0.00     0.022 A 
BRANCH  64  67
ATOM     67  S   UNL A   1      40.863  32.588  37.782  1.00  0.00     0.127 S 
ATOM     68  O   UNL A   1      41.702  31.819  38.700  1.00  0.00    -0.237 OA
ATOM     69  O   UNL A   1      40.792  34.020  38.079  1.00  0.00    -0.237 OA
ATOM     70  O   UNL A   1      39.590  31.975  37.436  1.00  0.00    -0.744 OA
ENDBRANCH  64  67
ENDBRANCH  46  60
BRANCH  47  71
ATOM     71  C   UNL A   1      42.511  24.366  27.277  1.00  0.00     0.023 A 
ATOM     72  C   UNL A   1      43.196  24.620  26.071  1.00  0.00     0.012 A 
ATOM     73  C   UNL A   1      41.883  23.120  27.460  1.00  0.00     0.148 A 
ATOM     74  C   UNL A   1      43.223  23.665  25.055  1.00  0.00     0.002 A 
ATOM     75  C   UNL A   1      41.965  22.151  26.468  1.00  0.00     0.091 A 
ATOM     76  F   UNL A   1      41.231  22.901  28.611  1.00  0.00    -0.205 F 
ATOM     77  C   UNL A   1      42.618  22.427  25.257  1.00  0.00     0.022 A 
BRANCH  75  78
ATOM     78  S   UNL A   1      41.333  20.485  26.695  1.00  0.00     0.127 S 
ATOM     79  O   UNL A   1      42.021  20.068  27.914  1.00  0.00    -0.237 OA
ATOM     80  O   UNL A   1      39.898  20.726  26.847  1.00  0.00    -0.237 OA
ATOM     81  O   UNL A   1      41.694  19.758  25.485  1.00  0.00    -0.744 OA
ENDBRANCH  75  78
ENDBRANCH  47  71
BRANCH  59  82
ATOM     82  C   UNL A   1      46.740  25.835  32.634  1.00  0.00     0.023 A 
ATOM     83  C   UNL A   1      48.000  26.289  32.197  1.00  0.00     0.012 A 
ATOM     84  C   UNL A   1      46.671  24.804  33.592  1.00  0.00     0.148 A 
ATOM     85  C   UNL A   1      49.171  25.697  32.672  1.00  0.00     0.002 A 
ATOM     86  C   UNL A   1      47.842  24.257  34.101  1.00  0.00     0.091 A 
ATOM     87  F   UNL A   1      45.463  24.373  33.983  1.00  0.00    -0.205 F 
ATOM     88  C   UNL A   1      49.092  24.690  33.630  1.00  0.00     0.022 A 
BRANCH  86  89
ATOM     89  S   UNL A   1      47.839  23.026  35.409  1.00  0.00     0.127 S 
ATOM     90  O   UNL A   1      47.097  23.713  36.464  1.00  0.00    -0.237 OA
ATOM     91  O   UNL A   1      47.123  21.912  34.785  1.00  0.00    -0.237 OA
ATOM     92  O   UNL A   1      49.239  22.751  35.705  1.00  0.00    -0.744 OA
ENDBRANCH  86  89
ENDBRANCH  59  82
ENDBRANCH  33  34
ENDBRANCH  25  28
ENDBRANCH  23  24
ENDBRANCH  22  23
ENDBRANCH   1  22
TORSDOF 18
ENDMDL
MODEL 3
REMARK VINA RESULT:     -10.9      1.708      7.813
REMARK SMILES C[C@H]1[C@H](C(=O)NCCCNC(=O)c2ccc(-c3c4nc(c(-c5cccc(S(=O)(=O)[O-])c5F)c5ccc([nH]5)c(-c5cccc(S(=O)(=O)[O-])c5F)c5nc(c(-c6cccc(S(=O)(=O)[O-])c6F)c6ccc3[nH]6)C=C5)C=C4)cc2)CCN1C(=O)CC[NH2+]C1CC1
REMARK SMILES IDX 7 1 6 2 4 3 5 4 3 6 1 7 2 8 78 9 76 10 77 11 79 12 80 13
REMARK SMILES IDX 81 14 82 15 83 16 84 19 85 20 86 21 8 22 9 23 10 24 11 25
REMARK SMILES IDX 12 27 13 28 14 29 75 30 15 31 74 32 16 33 17 34 18 35 68 36
REMARK SMILES IDX 19 37 73 38 67 39 69 40 20 41 72 42 66 43 65 44 21 46 53 47
REMARK SMILES IDX 33 48 52 49 34 50 37 51 51 52 70 53 35 54 36 55 50 57 71 58
REMARK SMILES IDX 38 59 22 60 23 61 31 62 24 63 26 64 32 65 25 66 27 67 28 68
REMARK SMILES IDX 29 69 30 70 54 71 55 72 63 73 56 74 58 75 64 76 57 77 59 78
REMARK SMILES IDX 60 79 61 80 62 81 39 82 40 83 48 84 41 85 43 86 49 87 42 88
REMARK SMILES IDX 44 89 45 90 46 91 47 92
REMARK H PARENT 6 5 83 17 83 18 10 26 69 45 37 56
REMARK Flexibility Score: inf
ROOT
ATOM      1  C   UNL A   1      32.376  27.425  26.600  1.00  0.00     0.117 C 
ENDROOT
BRANCH   1   2
ATOM      2  N   UNL A   1      31.392  26.395  26.878  1.00  0.00    -0.356 N 
ATOM      3  C   UNL A   1      31.268  25.131  26.406  1.00  0.00     0.225 C 
ATOM      4  O   UNL A   1      30.308  24.467  26.806  1.00  0.00    -0.275 OA
ATOM      5  H   UNL A   1      30.695  26.660  27.521  1.00  0.00     0.163 HD
BRANCH   3   6
ATOM      6  C   UNL A   1      32.231  24.534  25.399  1.00  0.00     0.102 C 
ATOM      7  C   UNL A   1      31.687  23.750  23.109  1.00  0.00     0.032 C 
ATOM      8  C   UNL A   1      31.930  24.992  23.966  1.00  0.00     0.094 C 
ATOM      9  N   UNL A   1      33.139  25.676  23.520  1.00  0.00    -0.339 N 
ATOM     10  C   UNL A   1      33.720  24.794  25.639  1.00  0.00     0.037 C 
ATOM     11  C   UNL A   1      34.283  25.235  24.292  1.00  0.00     0.120 C 
BRANCH   9  12
ATOM     12  C   UNL A   1      33.301  26.550  22.461  1.00  0.00     0.228 C 
ATOM     13  O   UNL A   1      33.795  26.164  21.398  1.00  0.00    -0.275 OA
BRANCH  12  14
ATOM     14  C   UNL A   1      32.918  28.014  22.632  1.00  0.00     0.161 C 
BRANCH  14  15
ATOM     15  C   UNL A   1      31.413  28.271  22.523  1.00  0.00     0.270 C 
BRANCH  15  16
ATOM     16  N   UNL A   1      31.123  29.588  21.946  1.00  0.00    -0.343 N 
ATOM     17  H   UNL A   1      31.379  29.566  20.959  1.00  0.00     0.346 HD
ATOM     18  H   UNL A   1      31.663  30.265  22.484  1.00  0.00     0.346 HD
BRANCH  16  19
ATOM     19  C   UNL A   1      29.722  30.002  22.045  1.00  0.00     0.182 C 
ATOM     20  C   UNL A   1      28.713  29.241  22.863  1.00  0.00     0.071 C 
ATOM     21  C   UNL A   1      29.229  30.557  23.359  1.00  0.00     0.071 C 
ENDBRANCH  16  19
ENDBRANCH  15  16
ENDBRANCH  14  15
ENDBRANCH  12  14
ENDBRANCH   9  12
ENDBRANCH   3   6
ENDBRANCH   1   2
BRANCH   1  22
ATOM     22  C   UNL A   1      31.731  28.744  26.209  1.00  0.00     0.042 C 
BRANCH  22  23
ATOM     23  C   UNL A   1      32.722  29.799  25.738  1.00  0.00     0.118 C 
BRANCH  23  24
ATOM     24  N   UNL A   1      32.346  31.144  26.152  1.00  0.00    -0.352 N 
ATOM     25  C   UNL A   1      32.887  31.953  27.115  1.00  0.00     0.251 C 
ATOM     26  H   UNL A   1      31.584  31.532  25.662  1.00  0.00     0.163 HD
ATOM     27  O   UNL A   1      32.278  32.964  27.468  1.00  0.00    -0.269 OA
BRANCH  25  28
ATOM     28  C   UNL A   1      34.186  31.616  27.731  1.00  0.00     0.039 A 
ATOM     29  C   UNL A   1      35.136  32.623  27.904  1.00  0.00     0.014 A 
ATOM     30  C   UNL A   1      34.473  30.304  28.119  1.00  0.00     0.014 A 
ATOM     31  C   UNL A   1      36.353  32.322  28.517  1.00  0.00     0.010 A 
ATOM     32  C   UNL A   1      35.643  30.029  28.817  1.00  0.00     0.010 A 
ATOM     33  C   UNL A   1      36.604  31.030  29.010  1.00  0.00    -0.014 A 
BRANCH  33  34
ATOM     34  C   UNL A   1      37.861  30.715  29.731  1.00  0.00     0.031 A 
ATOM     35  C   UNL A   1      38.906  29.837  29.097  1.00  0.00     0.074 A 
ATOM     36  C   UNL A   1      38.028  31.162  30.991  1.00  0.00     0.049 A 
ATOM     37  N   UNL A   1      40.051  29.438  29.584  1.00  0.00    -0.248 NA
ATOM     38  C   UNL A   1      38.616  29.316  27.750  1.00  0.00     0.031 C 
ATOM     39  C   UNL A   1      37.046  31.942  31.749  1.00  0.00     0.029 A 
ATOM     40  N   UNL A   1      39.074  31.008  31.865  1.00  0.00    -0.354 N 
ATOM     41  C   UNL A   1      40.603  28.600  28.623  1.00  0.00     0.074 A 
ATOM     42  C   UNL A   1      39.646  28.509  27.542  1.00  0.00     0.031 C 
ATOM     43  C   UNL A   1      37.540  32.205  32.968  1.00  0.00     0.029 A 
ATOM     44  C   UNL A   1      38.856  31.589  33.092  1.00  0.00     0.049 A 
ATOM     45  H   UNL A   1      39.901  30.527  31.636  1.00  0.00     0.167 HD
ATOM     46  C   UNL A   1      41.811  27.988  28.621  1.00  0.00     0.034 A 
ATOM     47  C   UNL A   1      39.627  31.616  34.196  1.00  0.00     0.034 A 
ATOM     48  C   UNL A   1      42.772  28.105  29.684  1.00  0.00     0.049 A 
ATOM     49  C   UNL A   1      40.981  30.965  34.154  1.00  0.00     0.074 A 
ATOM     50  C   UNL A   1      44.055  27.591  29.747  1.00  0.00     0.029 A 
ATOM     51  N   UNL A   1      42.551  28.773  30.879  1.00  0.00    -0.354 N 
ATOM     52  N   UNL A   1      41.552  30.310  33.172  1.00  0.00    -0.248 NA
ATOM     53  C   UNL A   1      41.814  31.090  35.359  1.00  0.00     0.031 C 
ATOM     54  C   UNL A   1      44.600  27.924  30.991  1.00  0.00     0.029 A 
ATOM     55  C   UNL A   1      43.670  28.677  31.691  1.00  0.00     0.049 A 
ATOM     56  H   UNL A   1      41.722  29.247  31.116  1.00  0.00     0.167 HD
ATOM     57  C   UNL A   1      42.822  29.972  33.627  1.00  0.00     0.074 A 
ATOM     58  C   UNL A   1      42.944  30.520  34.962  1.00  0.00     0.031 C 
ATOM     59  C   UNL A   1      43.792  29.260  33.002  1.00  0.00     0.034 A 
BRANCH  46  60
ATOM     60  C   UNL A   1      42.181  27.175  27.405  1.00  0.00     0.023 A 
ATOM     61  C   UNL A   1      42.717  27.821  26.272  1.00  0.00     0.012 A 
ATOM     62  C   UNL A   1      42.045  25.773  27.398  1.00  0.00     0.148 A 
ATOM     63  C   UNL A   1      43.072  27.094  25.137  1.00  0.00     0.002 A 
ATOM     64  C   UNL A   1      42.448  25.049  26.281  1.00  0.00     0.091 A 
ATOM     65  F   UNL A   1      41.516  25.175  28.475  1.00  0.00    -0.205 F 
ATOM     66  C   UNL A   1      42.948  25.708  25.146  1.00  0.00     0.022 A 
BRANCH  64  67
ATOM     67  S   UNL A   1      42.406  23.254  26.222  1.00  0.00     0.127 S 
ATOM     68  O   UNL A   1      41.008  22.981  26.553  1.00  0.00    -0.237 OA
ATOM     69  O   UNL A   1      42.765  22.986  24.828  1.00  0.00    -0.237 OA
ATOM     70  O   UNL A   1      43.380  22.795  27.200  1.00  0.00    -0.744 OA
ENDBRANCH  64  67
ENDBRANCH  46  60
BRANCH  47  71
ATOM     71  C   UNL A   1      39.154  32.333  35.413  1.00  0.00     0.023 A 
ATOM     72  C   UNL A   1      39.319  33.729  35.509  1.00  0.00     0.012 A 
ATOM     73  C   UNL A   1      38.510  31.644  36.459  1.00  0.00     0.148 A 
ATOM     74  C   UNL A   1      38.882  34.420  36.640  1.00  0.00     0.002 A 
ATOM     75  C   UNL A   1      38.025  32.346  37.555  1.00  0.00     0.091 A 
ATOM     76  F   UNL A   1      38.369  30.315  36.351  1.00  0.00    -0.205 F 
ATOM     77  C   UNL A   1      38.227  33.731  37.658  1.00  0.00     0.022 A 
BRANCH  75  78
ATOM     78  S   UNL A   1      37.050  31.564  38.845  1.00  0.00     0.127 S 
ATOM     79  O   UNL A   1      37.915  31.725  40.012  1.00  0.00    -0.237 OA
ATOM     80  O   UNL A   1      35.843  32.390  38.852  1.00  0.00    -0.237 OA
ATOM     81  O   UNL A   1      36.837  30.193  38.401  1.00  0.00    -0.744 OA
ENDBRANCH  75  78
ENDBRANCH  47  71
BRANCH  59  82
ATOM     82  C   UNL A   1      45.088  29.056  33.744  1.00  0.00     0.023 A 
ATOM     83  C   UNL A   1      46.120  30.009  33.634  1.00  0.00     0.012 A 
ATOM     84  C   UNL A   1      45.262  27.944  34.592  1.00  0.00     0.148 A 
ATOM     85  C   UNL A   1      47.321  29.835  34.321  1.00  0.00     0.002 A 
ATOM     86  C   UNL A   1      46.440  27.806  35.314  1.00  0.00     0.091 A 
ATOM     87  F   UNL A   1      44.276  27.038  34.670  1.00  0.00    -0.205 F 
ATOM     88  C   UNL A   1      47.478  28.742  35.168  1.00  0.00     0.022 A 
BRANCH  86  89
ATOM     89  S   UNL A   1      46.690  26.483  36.503  1.00  0.00     0.127 S 
ATOM     90  O   UNL A   1      47.999  26.823  37.057  1.00  0.00    -0.237 OA
ATOM     91  O   UNL A   1      45.569  26.676  37.423  1.00  0.00    -0.237 OA
ATOM     92  O   UNL A   1      46.636  25.243  35.741  1.00  0.00    -0.744 OA
ENDBRANCH  86  89
ENDBRANCH  59  82
ENDBRANCH  33  34
ENDBRANCH  25  28
ENDBRANCH  23  24
ENDBRANCH  22  23
ENDBRANCH   1  22
TORSDOF 18
ENDMDL
