MODEL 1
REMARK VINA RESULT:     -12.5      0.000      0.000
REMARK SMILES CCOc1ccc(C(=O)NCC(=O)NCCCNC(=O)c2ccc(-c3c4nc(c(-c5cccc(S(=O)(=O)[O-])c5F)c5ccc([nH]5)c(-c5cccc(S(=O)(=O)[O-])c5F)c5nc(c(-c6cccc(S(=O)(=O)[O-])c6F)c6ccc3[nH]6)C=C5)C=C4)cc2)c2ccccc12
REMARK SMILES IDX 15 1 14 2 12 3 13 4 11 6 10 7 8 8 9 9 7 11 4 12 5 13 89 14
REMARK SMILES IDX 6 15 84 16 88 17 85 18 87 19 86 20 3 21 2 22 1 23 16 24
REMARK SMILES IDX 17 25 18 26 19 27 20 29 21 30 22 31 83 32 23 33 82 34 24 35
REMARK SMILES IDX 25 36 26 37 76 38 27 39 81 40 75 41 77 42 28 43 80 44 74 45
REMARK SMILES IDX 73 46 29 48 61 49 41 50 60 51 42 52 45 53 59 54 78 55 43 56
REMARK SMILES IDX 44 57 58 59 79 60 46 61 30 62 31 63 39 64 32 65 34 66 40 67
REMARK SMILES IDX 33 68 35 69 36 70 37 71 38 72 62 73 63 74 71 75 64 76 66 77
REMARK SMILES IDX 72 78 65 79 67 80 68 81 69 82 70 83 47 84 48 85 56 86 49 87
REMARK SMILES IDX 51 88 57 89 50 90 52 91 53 92 54 93 55 94
REMARK H PARENT 14 5 10 10 18 28 77 47 45 58
REMARK Flexibility Score: inf
ROOT
ATOM      1  C   UNL A   1      35.186  22.921  23.501  1.00  0.00     0.117 C 
ENDROOT
BRANCH   1   2
ATOM      2  N   UNL A   1      34.942  24.083  24.328  1.00  0.00    -0.355 N 
ATOM      3  C   UNL A   1      33.905  24.403  25.144  1.00  0.00     0.239 C 
ATOM      4  O   UNL A   1      34.082  25.366  25.901  1.00  0.00    -0.273 OA
ATOM      5  H   UNL A   1      35.654  24.762  24.292  1.00  0.00     0.163 HD
BRANCH   3   6
ATOM      6  C   UNL A   1      32.624  23.561  25.288  1.00  0.00     0.216 C 
BRANCH   6   7
ATOM      7  N   UNL A   1      31.506  24.041  26.083  1.00  0.00    -0.343 N 
ATOM      8  C   UNL A   1      30.548  25.019  25.993  1.00  0.00     0.252 C 
ATOM      9  O   UNL A   1      29.593  24.818  26.743  1.00  0.00    -0.269 OA
ATOM     10  H   UNL A   1      31.411  23.522  26.914  1.00  0.00     0.164 HD
BRANCH   8  11
ATOM     11  C   UNL A   1      30.600  26.254  25.116  1.00  0.00     0.047 A 
ATOM     12  C   UNL A   1      30.692  28.498  23.400  1.00  0.00     0.127 A 
ATOM     13  C   UNL A   1      30.335  27.255  22.911  1.00  0.00     0.048 A 
ATOM     14  C   UNL A   1      31.119  28.646  24.733  1.00  0.00     0.025 A 
ATOM     15  C   UNL A   1      30.251  26.168  23.763  1.00  0.00     0.018 A 
ATOM     16  C   UNL A   1      31.101  27.517  25.612  1.00  0.00    -0.002 A 
ATOM     17  C   UNL A   1      31.596  29.895  25.194  1.00  0.00     0.012 A 
ATOM     18  C   UNL A   1      31.630  27.743  26.915  1.00  0.00     0.010 A 
ATOM     19  C   UNL A   1      32.092  30.063  26.483  1.00  0.00     0.001 A 
ATOM     20  C   UNL A   1      32.119  28.981  27.342  1.00  0.00     0.001 A 
BRANCH  12  21
ATOM     21  O   UNL A   1      30.746  29.551  22.517  1.00  0.00    -0.493 OA
BRANCH  21  22
ATOM     22  C   UNL A   1      29.450  29.941  22.039  1.00  0.00     0.226 C 
ATOM     23  C   UNL A   1      28.465  30.207  23.170  1.00  0.00     0.049 C 
ENDBRANCH  21  22
ENDBRANCH  12  21
ENDBRANCH   8  11
ENDBRANCH   6   7
ENDBRANCH   3   6
ENDBRANCH   1   2
BRANCH   1  24
ATOM     24  C   UNL A   1      36.506  22.229  23.778  1.00  0.00     0.042 C 
BRANCH  24  25
ATOM     25  C   UNL A   1      36.738  21.942  25.254  1.00  0.00     0.118 C 
BRANCH  25  26
ATOM     26  N   UNL A   1      37.707  20.874  25.481  1.00  0.00    -0.352 N 
ATOM     27  C   UNL A   1      38.994  20.926  25.962  1.00  0.00     0.251 C 
ATOM     28  H   UNL A   1      37.387  19.971  25.253  1.00  0.00     0.163 HD
ATOM     29  O   UNL A   1      39.696  19.924  25.925  1.00  0.00    -0.269 OA
BRANCH  27  30
ATOM     30  C   UNL A   1      39.532  22.193  26.503  1.00  0.00     0.039 A 
ATOM     31  C   UNL A   1      40.593  22.145  27.412  1.00  0.00     0.014 A 
ATOM     32  C   UNL A   1      39.000  23.422  26.111  1.00  0.00     0.014 A 
ATOM     33  C   UNL A   1      41.176  23.332  27.857  1.00  0.00     0.010 A 
ATOM     34  C   UNL A   1      39.637  24.600  26.483  1.00  0.00     0.010 A 
ATOM     35  C   UNL A   1      40.734  24.568  27.357  1.00  0.00    -0.014 A 
BRANCH  35  36
ATOM     36  C   UNL A   1      41.424  25.837  27.695  1.00  0.00     0.031 A 
ATOM     37  C   UNL A   1      40.708  26.915  28.459  1.00  0.00     0.074 A 
ATOM     38  C   UNL A   1      42.664  26.060  27.214  1.00  0.00     0.049 A 
ATOM     39  N   UNL A   1      41.124  28.111  28.784  1.00  0.00    -0.248 NA
ATOM     40  C   UNL A   1      39.331  26.621  28.888  1.00  0.00     0.031 C 
ATOM     41  C   UNL A   1      43.435  25.122  26.396  1.00  0.00     0.029 A 
ATOM     42  N   UNL A   1      43.481  27.157  27.320  1.00  0.00    -0.354 N 
ATOM     43  C   UNL A   1      40.053  28.727  29.419  1.00  0.00     0.074 A 
ATOM     44  C   UNL A   1      38.955  27.783  29.400  1.00  0.00     0.031 C 
ATOM     45  C   UNL A   1      44.619  25.674  26.092  1.00  0.00     0.029 A 
ATOM     46  C   UNL A   1      44.677  27.019  26.655  1.00  0.00     0.049 A 
ATOM     47  H   UNL A   1      43.235  27.966  27.825  1.00  0.00     0.167 HD
ATOM     48  C   UNL A   1      39.995  29.954  29.990  1.00  0.00     0.034 A 
ATOM     49  C   UNL A   1      45.702  27.880  26.508  1.00  0.00     0.034 A 
ATOM     50  C   UNL A   1      41.099  30.874  30.029  1.00  0.00     0.049 A 
ATOM     51  C   UNL A   1      45.616  29.235  27.154  1.00  0.00     0.074 A 
ATOM     52  C   UNL A   1      41.176  32.099  30.667  1.00  0.00     0.029 A 
ATOM     53  N   UNL A   1      42.313  30.682  29.387  1.00  0.00    -0.354 N 
ATOM     54  N   UNL A   1      44.658  29.737  27.896  1.00  0.00    -0.248 NA
ATOM     55  C   UNL A   1      46.765  30.132  26.966  1.00  0.00     0.031 C 
ATOM     56  C   UNL A   1      42.424  32.664  30.380  1.00  0.00     0.029 A 
ATOM     57  C   UNL A   1      43.138  31.775  29.590  1.00  0.00     0.049 A 
ATOM     58  H   UNL A   1      42.554  29.883  28.864  1.00  0.00     0.167 HD
ATOM     59  C   UNL A   1      45.100  30.995  28.289  1.00  0.00     0.074 A 
ATOM     60  C   UNL A   1      46.420  31.170  27.717  1.00  0.00     0.031 C 
ATOM     61  C   UNL A   1      44.465  31.924  29.046  1.00  0.00     0.034 A 
BRANCH  48  62
ATOM     62  C   UNL A   1      38.697  30.349  30.650  1.00  0.00     0.023 A 
ATOM     63  C   UNL A   1      38.469  30.016  32.002  1.00  0.00     0.012 A 
ATOM     64  C   UNL A   1      37.710  31.063  29.942  1.00  0.00     0.148 A 
ATOM     65  C   UNL A   1      37.263  30.338  32.622  1.00  0.00     0.002 A 
ATOM     66  C   UNL A   1      36.530  31.424  30.582  1.00  0.00     0.091 A 
ATOM     67  F   UNL A   1      37.930  31.354  28.653  1.00  0.00    -0.205 F 
ATOM     68  C   UNL A   1      36.297  31.048  31.915  1.00  0.00     0.022 A 
BRANCH  66  69
ATOM     69  S   UNL A   1      35.262  32.411  29.779  1.00  0.00     0.127 S 
ATOM     70  O   UNL A   1      34.355  32.689  30.892  1.00  0.00    -0.237 OA
ATOM     71  O   UNL A   1      36.022  33.570  29.309  1.00  0.00    -0.237 OA
ATOM     72  O   UNL A   1      34.719  31.574  28.718  1.00  0.00    -0.744 OA
ENDBRANCH  66  69
ENDBRANCH  48  62
BRANCH  49  73
ATOM     73  C   UNL A   1      46.931  27.448  25.785  1.00  0.00     0.023 A 
ATOM     74  C   UNL A   1      47.859  26.624  26.452  1.00  0.00     0.012 A 
ATOM     75  C   UNL A   1      47.160  27.795  24.440  1.00  0.00     0.148 A 
ATOM     76  C   UNL A   1      49.004  26.169  25.799  1.00  0.00     0.002 A 
ATOM     77  C   UNL A   1      48.277  27.297  23.779  1.00  0.00     0.091 A 
ATOM     78  F   UNL A   1      46.264  28.582  23.828  1.00  0.00    -0.205 F 
ATOM     79  C   UNL A   1      49.207  26.497  24.460  1.00  0.00     0.022 A 
BRANCH  77  80
ATOM     80  S   UNL A   1      48.566  27.559  22.026  1.00  0.00     0.127 S 
ATOM     81  O   UNL A   1      49.669  28.515  22.045  1.00  0.00    -0.237 OA
ATOM     82  O   UNL A   1      48.924  26.213  21.579  1.00  0.00    -0.237 OA
ATOM     83  O   UNL A   1      47.309  28.063  21.489  1.00  0.00    -0.744 OA
ENDBRANCH  77  80
ENDBRANCH  49  73
BRANCH  61  84
ATOM     84  C   UNL A   1      45.193  33.214  29.325  1.00  0.00     0.023 A 
ATOM     85  C   UNL A   1      46.027  33.318  30.456  1.00  0.00     0.012 A 
ATOM     86  C   UNL A   1      45.111  34.296  28.426  1.00  0.00     0.148 A 
ATOM     87  C   UNL A   1      46.743  34.488  30.704  1.00  0.00     0.002 A 
ATOM     88  C   UNL A   1      45.867  35.440  28.652  1.00  0.00     0.091 A 
ATOM     89  F   UNL A   1      44.299  34.184  27.365  1.00  0.00    -0.205 F 
ATOM     90  C   UNL A   1      46.673  35.542  29.797  1.00  0.00     0.022 A 
BRANCH  88  91
ATOM     91  S   UNL A   1      45.917  36.810  27.492  1.00  0.00     0.127 S 
ATOM     92  O   UNL A   1      46.339  36.143  26.260  1.00  0.00    -0.237 OA
ATOM     93  O   UNL A   1      44.528  37.267  27.493  1.00  0.00    -0.237 OA
ATOM     94  O   UNL A   1      46.870  37.767  28.039  1.00  0.00    -0.744 OA
ENDBRANCH  88  91
ENDBRANCH  61  84
ENDBRANCH  35  36
ENDBRANCH  27  30
ENDBRANCH  25  26
ENDBRANCH  24  25
ENDBRANCH   1  24
TORSDOF 17
ENDMDL
MODEL 2
REMARK VINA RESULT:     -12.3      5.378     10.353
REMARK SMILES CCOc1ccc(C(=O)NCC(=O)NCCCNC(=O)c2ccc(-c3c4nc(c(-c5cccc(S(=O)(=O)[O-])c5F)c5ccc([nH]5)c(-c5cccc(S(=O)(=O)[O-])c5F)c5nc(c(-c6cccc(S(=O)(=O)[O-])c6F)c6ccc3[nH]6)C=C5)C=C4)cc2)c2ccccc12
REMARK SMILES IDX 15 1 14 2 12 3 13 4 11 6 10 7 8 8 9 9 7 11 4 12 5 13 89 14
REMARK SMILES IDX 6 15 84 16 88 17 85 18 87 19 86 20 3 21 2 22 1 23 16 24
REMARK SMILES IDX 17 25 18 26 19 27 20 29 21 30 22 31 83 32 23 33 82 34 24 35
REMARK SMILES IDX 25 36 26 37 76 38 27 39 81 40 75 41 77 42 28 43 80 44 74 45
REMARK SMILES IDX 73 46 29 48 61 49 41 50 60 51 42 52 45 53 59 54 78 55 43 56
REMARK SMILES IDX 44 57 58 59 79 60 46 61 30 62 31 63 39 64 32 65 34 66 40 67
REMARK SMILES IDX 33 68 35 69 36 70 37 71 38 72 62 73 63 74 71 75 64 76 66 77
REMARK SMILES IDX 72 78 65 79 67 80 68 81 69 82 70 83 47 84 48 85 56 86 49 87
REMARK SMILES IDX 51 88 57 89 50 90 52 91 53 92 54 93 55 94
REMARK H PARENT 14 5 10 10 18 28 77 47 45 58
REMARK Flexibility Score: inf
ROOT
ATOM      1  C   UNL A   1      31.472  27.521  25.377  1.00  0.00     0.117 C 
ENDROOT
BRANCH   1   2
ATOM      2  N   UNL A   1      30.792  27.955  24.176  1.00  0.00    -0.355 N 
ATOM      3  C   UNL A   1      31.235  28.122  22.903  1.00  0.00     0.239 C 
ATOM      4  O   UNL A   1      30.365  28.289  22.039  1.00  0.00    -0.273 OA
ATOM      5  H   UNL A   1      29.840  28.170  24.305  1.00  0.00     0.163 HD
BRANCH   3   6
ATOM      6  C   UNL A   1      32.703  27.959  22.469  1.00  0.00     0.216 C 
BRANCH   6   7
ATOM      7  N   UNL A   1      33.083  26.937  21.509  1.00  0.00    -0.343 N 
ATOM      8  C   UNL A   1      32.891  25.588  21.339  1.00  0.00     0.252 C 
ATOM      9  O   UNL A   1      33.109  25.220  20.185  1.00  0.00    -0.269 OA
ATOM     10  H   UNL A   1      33.628  27.315  20.781  1.00  0.00     0.164 HD
BRANCH   8  11
ATOM     11  C   UNL A   1      32.487  24.594  22.409  1.00  0.00     0.047 A 
ATOM     12  C   UNL A   1      31.649  22.791  24.417  1.00  0.00     0.127 A 
ATOM     13  C   UNL A   1      30.762  23.707  23.882  1.00  0.00     0.048 A 
ATOM     14  C   UNL A   1      33.008  22.813  24.050  1.00  0.00     0.025 A 
ATOM     15  C   UNL A   1      31.165  24.559  22.869  1.00  0.00     0.018 A 
ATOM     16  C   UNL A   1      33.456  23.734  23.050  1.00  0.00    -0.002 A 
ATOM     17  C   UNL A   1      33.932  21.955  24.690  1.00  0.00     0.012 A 
ATOM     18  C   UNL A   1      34.860  23.742  22.807  1.00  0.00     0.010 A 
ATOM     19  C   UNL A   1      35.293  21.997  24.404  1.00  0.00     0.001 A 
ATOM     20  C   UNL A   1      35.759  22.900  23.469  1.00  0.00     0.001 A 
BRANCH  12  21
ATOM     21  O   UNL A   1      31.196  21.955  25.411  1.00  0.00    -0.493 OA
BRANCH  21  22
ATOM     22  C   UNL A   1      30.698  22.670  26.552  1.00  0.00     0.226 C 
ATOM     23  C   UNL A   1      31.757  23.557  27.194  1.00  0.00     0.049 C 
ENDBRANCH  21  22
ENDBRANCH  12  21
ENDBRANCH   8  11
ENDBRANCH   6   7
ENDBRANCH   3   6
ENDBRANCH   1   2
BRANCH   1  24
ATOM     24  C   UNL A   1      31.735  28.631  26.376  1.00  0.00     0.042 C 
BRANCH  24  25
ATOM     25  C   UNL A   1      32.750  29.654  25.887  1.00  0.00     0.118 C 
BRANCH  25  26
ATOM     26  N   UNL A   1      32.460  31.008  26.349  1.00  0.00    -0.352 N 
ATOM     27  C   UNL A   1      33.130  31.806  27.247  1.00  0.00     0.251 C 
ATOM     28  H   UNL A   1      31.656  31.416  25.953  1.00  0.00     0.163 HD
ATOM     29  O   UNL A   1      32.626  32.859  27.615  1.00  0.00    -0.269 OA
BRANCH  27  30
ATOM     30  C   UNL A   1      34.444  31.382  27.777  1.00  0.00     0.039 A 
ATOM     31  C   UNL A   1      35.438  32.346  27.971  1.00  0.00     0.014 A 
ATOM     32  C   UNL A   1      34.692  30.045  28.090  1.00  0.00     0.014 A 
ATOM     33  C   UNL A   1      36.648  31.979  28.562  1.00  0.00     0.010 A 
ATOM     34  C   UNL A   1      35.860  29.699  28.760  1.00  0.00     0.010 A 
ATOM     35  C   UNL A   1      36.849  30.662  29.006  1.00  0.00    -0.014 A 
BRANCH  35  36
ATOM     36  C   UNL A   1      38.062  30.273  29.767  1.00  0.00     0.031 A 
ATOM     37  C   UNL A   1      39.039  29.287  29.192  1.00  0.00     0.074 A 
ATOM     38  C   UNL A   1      38.222  30.726  31.026  1.00  0.00     0.049 A 
ATOM     39  N   UNL A   1      40.113  28.777  29.736  1.00  0.00    -0.248 NA
ATOM     40  C   UNL A   1      38.756  28.784  27.838  1.00  0.00     0.031 C 
ATOM     41  C   UNL A   1      37.303  31.627  31.724  1.00  0.00     0.029 A 
ATOM     42  N   UNL A   1      39.200  30.468  31.953  1.00  0.00    -0.354 N 
ATOM     43  C   UNL A   1      40.613  27.868  28.813  1.00  0.00     0.074 A 
ATOM     44  C   UNL A   1      39.702  27.869  27.687  1.00  0.00     0.031 C 
ATOM     45  C   UNL A   1      37.769  31.863  32.959  1.00  0.00     0.029 A 
ATOM     46  C   UNL A   1      38.997  31.098  33.158  1.00  0.00     0.049 A 
ATOM     47  H   UNL A   1      39.973  29.887  31.773  1.00  0.00     0.167 HD
ATOM     48  C   UNL A   1      41.741  27.120  28.880  1.00  0.00     0.034 A 
ATOM     49  C   UNL A   1      39.713  31.061  34.298  1.00  0.00     0.034 A 
ATOM     50  C   UNL A   1      42.655  27.146  29.990  1.00  0.00     0.049 A 
ATOM     51  C   UNL A   1      40.963  30.227  34.349  1.00  0.00     0.074 A 
ATOM     52  C   UNL A   1      43.874  26.503  30.115  1.00  0.00     0.029 A 
ATOM     53  N   UNL A   1      42.443  27.835  31.175  1.00  0.00    -0.354 N 
ATOM     54  N   UNL A   1      41.510  29.503  33.403  1.00  0.00    -0.248 NA
ATOM     55  C   UNL A   1      41.707  30.227  35.616  1.00  0.00     0.031 C 
ATOM     56  C   UNL A   1      44.382  26.775  31.391  1.00  0.00     0.029 A 
ATOM     57  C   UNL A   1      43.494  27.614  32.049  1.00  0.00     0.049 A 
ATOM     58  H   UNL A   1      41.660  28.400  31.366  1.00  0.00     0.167 HD
ATOM     59  C   UNL A   1      42.680  28.985  33.948  1.00  0.00     0.074 A 
ATOM     60  C   UNL A   1      42.769  29.495  35.302  1.00  0.00     0.031 C 
ATOM     61  C   UNL A   1      43.591  28.155  33.382  1.00  0.00     0.034 A 
BRANCH  48  62
ATOM     62  C   UNL A   1      42.058  26.238  27.699  1.00  0.00     0.023 A 
ATOM     63  C   UNL A   1      42.725  26.781  26.580  1.00  0.00     0.012 A 
ATOM     64  C   UNL A   1      41.715  24.872  27.698  1.00  0.00     0.148 A 
ATOM     65  C   UNL A   1      42.996  25.995  25.461  1.00  0.00     0.002 A 
ATOM     66  C   UNL A   1      42.033  24.083  26.599  1.00  0.00     0.091 A 
ATOM     67  F   UNL A   1      41.063  24.374  28.758  1.00  0.00    -0.205 F 
ATOM     68  C   UNL A   1      42.657  24.645  25.473  1.00  0.00     0.022 A 
BRANCH  66  69
ATOM     69  S   UNL A   1      41.711  22.316  26.556  1.00  0.00     0.127 S 
ATOM     70  O   UNL A   1      42.368  21.867  27.783  1.00  0.00    -0.237 OA
ATOM     71  O   UNL A   1      40.249  22.265  26.595  1.00  0.00    -0.237 OA
ATOM     72  O   UNL A   1      42.299  21.835  25.314  1.00  0.00    -0.744 OA
ENDBRANCH  66  69
ENDBRANCH  48  62
BRANCH  49  73
ATOM     73  C   UNL A   1      39.305  31.908  35.455  1.00  0.00     0.023 A 
ATOM     74  C   UNL A   1      39.641  33.276  35.449  1.00  0.00     0.012 A 
ATOM     75  C   UNL A   1      38.546  31.389  36.521  1.00  0.00     0.148 A 
ATOM     76  C   UNL A   1      39.247  34.109  36.496  1.00  0.00     0.002 A 
ATOM     77  C   UNL A   1      38.113  32.236  37.535  1.00  0.00     0.091 A 
ATOM     78  F   UNL A   1      38.241  30.084  36.505  1.00  0.00    -0.205 F 
ATOM     79  C   UNL A   1      38.474  33.592  37.532  1.00  0.00     0.022 A 
BRANCH  77  80
ATOM     80  S   UNL A   1      37.015  31.694  38.849  1.00  0.00     0.127 S 
ATOM     81  O   UNL A   1      37.855  31.866  40.031  1.00  0.00    -0.237 OA
ATOM     82  O   UNL A   1      35.914  32.652  38.730  1.00  0.00    -0.237 OA
ATOM     83  O   UNL A   1      36.659  30.319  38.527  1.00  0.00    -0.744 OA
ENDBRANCH  77  80
ENDBRANCH  49  73
BRANCH  61  84
ATOM     84  C   UNL A   1      44.783  27.756  34.213  1.00  0.00     0.023 A 
ATOM     85  C   UNL A   1      45.944  28.555  34.203  1.00  0.00     0.012 A 
ATOM     86  C   UNL A   1      44.726  26.631  35.061  1.00  0.00     0.148 A 
ATOM     87  C   UNL A   1      47.039  28.225  35.001  1.00  0.00     0.002 A 
ATOM     88  C   UNL A   1      45.801  26.338  35.890  1.00  0.00     0.091 A 
ATOM     89  F   UNL A   1      43.620  25.874  35.043  1.00  0.00    -0.205 F 
ATOM     90  C   UNL A   1      46.963  27.126  35.852  1.00  0.00     0.022 A 
BRANCH  88  91
ATOM     91  S   UNL A   1      45.760  25.001  37.090  1.00  0.00     0.127 S 
ATOM     92  O   UNL A   1      47.073  25.126  37.720  1.00  0.00    -0.237 OA
ATOM     93  O   UNL A   1      44.635  25.387  37.942  1.00  0.00    -0.237 OA
ATOM     94  O   UNL A   1      45.549  23.780  36.326  1.00  0.00    -0.744 OA
ENDBRANCH  88  91
ENDBRANCH  61  84
ENDBRANCH  35  36
ENDBRANCH  27  30
ENDBRANCH  25  26
ENDBRANCH  24  25
ENDBRANCH   1  24
TORSDOF 17
ENDMDL
MODEL 3
REMARK VINA RESULT:     -12.3      5.217      8.236
REMARK SMILES CCOc1ccc(C(=O)NCC(=O)NCCCNC(=O)c2ccc(-c3c4nc(c(-c5cccc(S(=O)(=O)[O-])c5F)c5ccc([nH]5)c(-c5cccc(S(=O)(=O)[O-])c5F)c5nc(c(-c6cccc(S(=O)(=O)[O-])c6F)c6ccc3[nH]6)C=C5)C=C4)cc2)c2ccccc12
REMARK SMILES IDX 15 1 14 2 12 3 13 4 11 6 10 7 8 8 9 9 7 11 4 12 5 13 89 14
REMARK SMILES IDX 6 15 84 16 88 17 85 18 87 19 86 20 3 21 2 22 1 23 16 24
REMARK SMILES IDX 17 25 18 26 19 27 20 29 21 30 22 31 83 32 23 33 82 34 24 35
REMARK SMILES IDX 25 36 26 37 76 38 27 39 81 40 75 41 77 42 28 43 80 44 74 45
REMARK SMILES IDX 73 46 29 48 61 49 41 50 60 51 42 52 45 53 59 54 78 55 43 56
REMARK SMILES IDX 44 57 58 59 79 60 46 61 30 62 31 63 39 64 32 65 34 66 40 67
REMARK SMILES IDX 33 68 35 69 36 70 37 71 38 72 62 73 63 74 71 75 64 76 66 77
REMARK SMILES IDX 72 78 65 79 67 80 68 81 69 82 70 83 47 84 48 85 56 86 49 87
REMARK SMILES IDX 51 88 57 89 50 90 52 91 53 92 54 93 55 94
REMARK H PARENT 14 5 10 10 18 28 77 47 45 58
REMARK Flexibility Score: inf
ROOT
ATOM      1  C   UNL A   1      31.742  27.631  25.809  1.00  0.00     0.117 C 
ENDROOT
BRANCH   1   2
ATOM      2  N   UNL A   1      31.520  26.454  26.621  1.00  0.00    -0.355 N 
ATOM      3  C   UNL A   1      31.280  25.161  26.282  1.00  0.00     0.239 C 
ATOM      4  O   UNL A   1      31.357  24.333  27.198  1.00  0.00    -0.273 OA
ATOM      5  H   UNL A   1      31.548  26.620  27.591  1.00  0.00     0.163 HD
BRANCH   3   6
ATOM      6  C   UNL A   1      31.081  24.667  24.838  1.00  0.00     0.216 C 
BRANCH   6   7
ATOM      7  N   UNL A   1      32.185  24.675  23.893  1.00  0.00    -0.343 N 
ATOM      8  C   UNL A   1      33.008  23.756  23.292  1.00  0.00     0.252 C 
ATOM      9  O   UNL A   1      33.567  24.203  22.290  1.00  0.00    -0.269 OA
ATOM     10  H   UNL A   1      32.400  25.591  23.603  1.00  0.00     0.164 HD
BRANCH   8  11
ATOM     11  C   UNL A   1      33.276  22.342  23.766  1.00  0.00     0.047 A 
ATOM     12  C   UNL A   1      33.679  19.692  24.664  1.00  0.00     0.127 A 
ATOM     13  C   UNL A   1      32.406  20.151  24.380  1.00  0.00     0.048 A 
ATOM     14  C   UNL A   1      34.781  20.567  24.615  1.00  0.00     0.025 A 
ATOM     15  C   UNL A   1      32.218  21.436  23.900  1.00  0.00     0.018 A 
ATOM     16  C   UNL A   1      34.594  21.918  24.183  1.00  0.00    -0.002 A 
ATOM     17  C   UNL A   1      36.060  20.122  25.023  1.00  0.00     0.012 A 
ATOM     18  C   UNL A   1      35.749  22.750  24.248  1.00  0.00     0.010 A 
ATOM     19  C   UNL A   1      37.159  20.976  25.055  1.00  0.00     0.001 A 
ATOM     20  C   UNL A   1      37.000  22.295  24.677  1.00  0.00     0.001 A 
BRANCH  12  21
ATOM     21  O   UNL A   1      33.815  18.404  25.124  1.00  0.00    -0.493 OA
BRANCH  21  22
ATOM     22  C   UNL A   1      33.150  17.444  24.289  1.00  0.00     0.226 C 
ATOM     23  C   UNL A   1      33.970  17.072  23.060  1.00  0.00     0.049 C 
ENDBRANCH  21  22
ENDBRANCH  12  21
ENDBRANCH   8  11
ENDBRANCH   6   7
ENDBRANCH   3   6
ENDBRANCH   1   2
BRANCH   1  24
ATOM     24  C   UNL A   1      31.838  28.921  26.601  1.00  0.00     0.042 C 
BRANCH  24  25
ATOM     25  C   UNL A   1      32.926  29.858  26.097  1.00  0.00     0.118 C 
BRANCH  25  26
ATOM     26  N   UNL A   1      32.802  31.212  26.628  1.00  0.00    -0.352 N 
ATOM     27  C   UNL A   1      33.584  31.889  27.534  1.00  0.00     0.251 C 
ATOM     28  H   UNL A   1      32.034  31.722  26.281  1.00  0.00     0.163 HD
ATOM     29  O   UNL A   1      33.211  32.972  27.966  1.00  0.00    -0.269 OA
BRANCH  27  30
ATOM     30  C   UNL A   1      34.861  31.302  27.995  1.00  0.00     0.039 A 
ATOM     31  C   UNL A   1      35.997  32.114  28.053  1.00  0.00     0.014 A 
ATOM     32  C   UNL A   1      34.935  29.961  28.376  1.00  0.00     0.014 A 
ATOM     33  C   UNL A   1      37.185  31.602  28.578  1.00  0.00     0.010 A 
ATOM     34  C   UNL A   1      36.090  29.480  28.981  1.00  0.00     0.010 A 
ATOM     35  C   UNL A   1      37.226  30.295  29.092  1.00  0.00    -0.014 A 
BRANCH  35  36
ATOM     36  C   UNL A   1      38.427  29.770  29.788  1.00  0.00     0.031 A 
ATOM     37  C   UNL A   1      38.822  30.304  31.136  1.00  0.00     0.074 A 
ATOM     38  C   UNL A   1      39.224  28.889  29.151  1.00  0.00     0.049 A 
ATOM     39  N   UNL A   1      39.871  30.018  31.861  1.00  0.00    -0.248 NA
ATOM     40  C   UNL A   1      37.936  31.316  31.734  1.00  0.00     0.031 C 
ATOM     41  C   UNL A   1      38.989  28.352  27.809  1.00  0.00     0.029 A 
ATOM     42  N   UNL A   1      40.407  28.312  29.536  1.00  0.00    -0.354 N 
ATOM     43  C   UNL A   1      39.795  30.838  32.980  1.00  0.00     0.074 A 
ATOM     44  C   UNL A   1      38.614  31.660  32.818  1.00  0.00     0.031 C 
ATOM     45  C   UNL A   1      39.983  27.511  27.491  1.00  0.00     0.029 A 
ATOM     46  C   UNL A   1      40.949  27.478  28.585  1.00  0.00     0.049 A 
ATOM     47  H   UNL A   1      40.829  28.478  30.410  1.00  0.00     0.167 HD
ATOM     48  C   UNL A   1      40.616  30.885  34.057  1.00  0.00     0.034 A 
ATOM     49  C   UNL A   1      42.095  26.773  28.590  1.00  0.00     0.034 A 
ATOM     50  C   UNL A   1      41.771  30.045  34.223  1.00  0.00     0.049 A 
ATOM     51  C   UNL A   1      42.988  26.837  29.798  1.00  0.00     0.074 A 
ATOM     52  C   UNL A   1      42.611  29.944  35.317  1.00  0.00     0.029 A 
ATOM     53  N   UNL A   1      42.262  29.176  33.260  1.00  0.00    -0.354 N 
ATOM     54  N   UNL A   1      42.813  27.493  30.919  1.00  0.00    -0.248 NA
ATOM     55  C   UNL A   1      44.225  26.044  29.750  1.00  0.00     0.031 C 
ATOM     56  C   UNL A   1      43.632  29.039  35.002  1.00  0.00     0.029 A 
ATOM     57  C   UNL A   1      43.409  28.552  33.723  1.00  0.00     0.049 A 
ATOM     58  H   UNL A   1      41.855  29.023  32.377  1.00  0.00     0.167 HD
ATOM     59  C   UNL A   1      43.899  27.167  31.725  1.00  0.00     0.074 A 
ATOM     60  C   UNL A   1      44.716  26.242  30.966  1.00  0.00     0.031 C 
ATOM     61  C   UNL A   1      44.196  27.604  32.974  1.00  0.00     0.034 A 
BRANCH  48  62
ATOM     62  C   UNL A   1      40.263  31.860  35.153  1.00  0.00     0.023 A 
ATOM     63  C   UNL A   1      40.985  33.067  35.275  1.00  0.00     0.012 A 
ATOM     64  C   UNL A   1      39.212  31.594  36.051  1.00  0.00     0.148 A 
ATOM     65  C   UNL A   1      40.702  33.965  36.302  1.00  0.00     0.002 A 
ATOM     66  C   UNL A   1      38.903  32.518  37.043  1.00  0.00     0.091 A 
ATOM     67  F   UNL A   1      38.549  30.434  35.938  1.00  0.00    -0.205 F 
ATOM     68  C   UNL A   1      39.657  33.695  37.181  1.00  0.00     0.022 A 
BRANCH  66  69
ATOM     69  S   UNL A   1      37.522  32.296  38.170  1.00  0.00     0.127 S 
ATOM     70  O   UNL A   1      36.443  32.971  37.450  1.00  0.00    -0.237 OA
ATOM     71  O   UNL A   1      37.398  30.840  38.227  1.00  0.00    -0.237 OA
ATOM     72  O   UNL A   1      37.928  32.917  39.423  1.00  0.00    -0.744 OA
ENDBRANCH  66  69
ENDBRANCH  48  62
BRANCH  49  73
ATOM     73  C   UNL A   1      42.417  25.878  27.441  1.00  0.00     0.023 A 
ATOM     74  C   UNL A   1      43.197  26.382  26.383  1.00  0.00     0.012 A 
ATOM     75  C   UNL A   1      42.008  24.531  27.416  1.00  0.00     0.148 A 
ATOM     76  C   UNL A   1      43.549  25.566  25.308  1.00  0.00     0.002 A 
ATOM     77  C   UNL A   1      42.404  23.710  26.367  1.00  0.00     0.091 A 
ATOM     78  F   UNL A   1      41.262  24.076  28.433  1.00  0.00    -0.205 F 
ATOM     79  C   UNL A   1      43.162  24.228  25.306  1.00  0.00     0.022 A 
BRANCH  77  80
ATOM     80  S   UNL A   1      42.061  21.947  26.330  1.00  0.00     0.127 S 
ATOM     81  O   UNL A   1      40.622  21.929  26.080  1.00  0.00    -0.237 OA
ATOM     82  O   UNL A   1      42.888  21.507  25.206  1.00  0.00    -0.237 OA
ATOM     83  O   UNL A   1      42.478  21.435  27.628  1.00  0.00    -0.744 OA
ENDBRANCH  77  80
ENDBRANCH  49  73
BRANCH  61  84
ATOM     84  C   UNL A   1      45.450  27.073  33.620  1.00  0.00     0.023 A 
ATOM     85  C   UNL A   1      46.647  27.813  33.538  1.00  0.00     0.012 A 
ATOM     86  C   UNL A   1      45.424  25.881  34.370  1.00  0.00     0.148 A 
ATOM     87  C   UNL A   1      47.805  27.359  34.169  1.00  0.00     0.002 A 
ATOM     88  C   UNL A   1      46.568  25.461  35.038  1.00  0.00     0.091 A 
ATOM     89  F   UNL A   1      44.281  25.183  34.421  1.00  0.00    -0.205 F 
ATOM     90  C   UNL A   1      47.763  26.192  34.928  1.00  0.00     0.022 A 
BRANCH  88  91
ATOM     91  S   UNL A   1      46.586  24.025  36.117  1.00  0.00     0.127 S 
ATOM     92  O   UNL A   1      48.019  23.831  36.331  1.00  0.00    -0.237 OA
ATOM     93  O   UNL A   1      45.855  24.510  37.287  1.00  0.00    -0.237 OA
ATOM     94  O   UNL A   1      45.916  22.961  35.383  1.00  0.00    -0.744 OA
ENDBRANCH  88  91
ENDBRANCH  61  84
ENDBRANCH  35  36
ENDBRANCH  27  30
ENDBRANCH  25  26
ENDBRANCH  24  25
ENDBRANCH   1  24
TORSDOF 17
ENDMDL
