MODEL 1
REMARK VINA RESULT:     -12.2      0.000      0.000
REMARK SMILES O=C(NCCCNC(=O)c1ccc(S(=O)(=O)NCc2ccn[nH]2)c(F)c1)c1ccc(-c2c3nc(c(-c4cccc(S(=O)(=O)[O-])c4F)c4ccc([nH]4)c(-c4cccc(S(=O)(=O)[O-])c4F)c4nc(c(-c5cccc(S(=O)(=O)[O-])c5F)c5ccc2[nH]5)C=C4)C=C3)cc1
REMARK SMILES IDX 5 1 4 2 3 3 1 4 2 5 27 7 28 8 89 9 29 10 88 11 30 12 31 13
REMARK SMILES IDX 32 14 82 15 33 16 87 17 81 18 83 19 34 20 86 21 80 22 79 23
REMARK SMILES IDX 35 25 67 26 47 27 66 28 48 29 51 30 65 31 84 32 49 33 50 34
REMARK SMILES IDX 64 36 85 37 52 38 36 39 37 40 45 41 38 42 40 43 46 44 39 45
REMARK SMILES IDX 41 46 42 47 43 48 44 49 68 50 69 51 77 52 70 53 72 54 78 55
REMARK SMILES IDX 71 56 73 57 74 58 75 59 76 60 53 61 54 62 62 63 55 64 57 65
REMARK SMILES IDX 63 66 56 67 58 68 59 69 60 70 61 71 6 72 7 73 8 74 9 76
REMARK SMILES IDX 10 77 11 78 26 79 12 80 24 81 13 82 25 83 14 84 15 85 16 86
REMARK SMILES IDX 17 87 18 89 19 90 20 91 23 92 21 93 22 94
REMARK H PARENT 3 6 83 24 51 35 7 75 17 88 23 95
REMARK Flexibility Score: inf
ROOT
ATOM      1  C   UNL A   1      33.380  28.931  23.328  1.00  0.00     0.042 C 
ENDROOT
BRANCH   1   2
ATOM      2  C   UNL A   1      33.415  29.001  24.847  1.00  0.00     0.118 C 
BRANCH   2   3
ATOM      3  N   UNL A   1      32.701  30.158  25.363  1.00  0.00    -0.352 N 
ATOM      4  O   UNL A   1      31.994  31.649  26.879  1.00  0.00    -0.269 OA
ATOM      5  C   UNL A   1      32.863  30.851  26.537  1.00  0.00     0.251 C 
ATOM      6  H   UNL A   1      31.986  30.498  24.779  1.00  0.00     0.163 HD
BRANCH   5   7
ATOM      7  C   UNL A   1      34.059  30.643  27.384  1.00  0.00     0.039 A 
ATOM      8  C   UNL A   1      34.355  29.386  27.918  1.00  0.00     0.014 A 
ATOM      9  C   UNL A   1      34.945  31.709  27.584  1.00  0.00     0.014 A 
ATOM     10  C   UNL A   1      35.462  29.222  28.744  1.00  0.00     0.010 A 
ATOM     11  C   UNL A   1      36.105  31.521  28.341  1.00  0.00     0.010 A 
ATOM     12  C   UNL A   1      36.365  30.279  28.935  1.00  0.00    -0.014 A 
BRANCH  12  13
ATOM     13  C   UNL A   1      37.645  30.017  29.638  1.00  0.00     0.031 A 
ATOM     14  C   UNL A   1      37.922  30.573  31.002  1.00  0.00     0.074 A 
ATOM     15  C   UNL A   1      38.562  29.253  29.014  1.00  0.00     0.049 A 
ATOM     16  N   UNL A   1      38.980  30.408  31.752  1.00  0.00    -0.248 NA
ATOM     17  C   UNL A   1      36.884  31.424  31.605  1.00  0.00     0.031 C 
ATOM     18  C   UNL A   1      38.405  28.687  27.672  1.00  0.00     0.029 A 
ATOM     19  N   UNL A   1      39.794  28.809  29.418  1.00  0.00    -0.354 N 
ATOM     20  C   UNL A   1      38.752  31.149  32.904  1.00  0.00     0.074 A 
ATOM     21  C   UNL A   1      37.456  31.777  32.749  1.00  0.00     0.031 C 
ATOM     22  C   UNL A   1      39.474  27.934  27.383  1.00  0.00     0.029 A 
ATOM     23  C   UNL A   1      40.418  28.008  28.491  1.00  0.00     0.049 A 
ATOM     24  H   UNL A   1      40.194  29.042  30.287  1.00  0.00     0.167 HD
ATOM     25  C   UNL A   1      39.544  31.278  33.996  1.00  0.00     0.034 A 
ATOM     26  C   UNL A   1      41.617  27.397  28.525  1.00  0.00     0.034 A 
ATOM     27  C   UNL A   1      40.826  30.639  34.141  1.00  0.00     0.049 A 
ATOM     28  C   UNL A   1      42.470  27.547  29.749  1.00  0.00     0.074 A 
ATOM     29  C   UNL A   1      41.706  30.706  35.209  1.00  0.00     0.029 A 
ATOM     30  N   UNL A   1      41.414  29.811  33.195  1.00  0.00    -0.354 N 
ATOM     31  N   UNL A   1      42.204  28.193  30.858  1.00  0.00    -0.248 NA
ATOM     32  C   UNL A   1      43.771  26.868  29.741  1.00  0.00     0.031 C 
ATOM     33  C   UNL A   1      42.824  29.923  34.906  1.00  0.00     0.029 A 
ATOM     34  C   UNL A   1      42.638  29.355  33.655  1.00  0.00     0.049 A 
ATOM     35  H   UNL A   1      41.019  29.582  32.323  1.00  0.00     0.167 HD
ATOM     36  C   UNL A   1      43.295  27.984  31.691  1.00  0.00     0.074 A 
ATOM     37  C   UNL A   1      44.216  27.132  30.963  1.00  0.00     0.031 C 
ATOM     38  C   UNL A   1      43.521  28.471  32.936  1.00  0.00     0.034 A 
BRANCH  25  39
ATOM     39  C   UNL A   1      39.025  32.102  35.144  1.00  0.00     0.023 A 
ATOM     40  C   UNL A   1      39.019  33.508  35.033  1.00  0.00     0.012 A 
ATOM     41  C   UNL A   1      38.486  31.500  36.298  1.00  0.00     0.148 A 
ATOM     42  C   UNL A   1      38.505  34.301  36.059  1.00  0.00     0.002 A 
ATOM     43  C   UNL A   1      37.942  32.296  37.300  1.00  0.00     0.091 A 
ATOM     44  F   UNL A   1      38.525  30.163  36.401  1.00  0.00    -0.205 F 
ATOM     45  C   UNL A   1      37.957  33.695  37.186  1.00  0.00     0.022 A 
BRANCH  43  46
ATOM     46  S   UNL A   1      37.147  31.593  38.752  1.00  0.00     0.127 S 
ATOM     47  O   UNL A   1      35.925  32.389  38.836  1.00  0.00    -0.237 OA
ATOM     48  O   UNL A   1      36.940  30.199  38.356  1.00  0.00    -0.237 OA
ATOM     49  O   UNL A   1      38.098  31.771  39.841  1.00  0.00    -0.744 OA
ENDBRANCH  43  46
ENDBRANCH  25  39
BRANCH  26  50
ATOM     50  C   UNL A   1      42.012  26.522  27.386  1.00  0.00     0.023 A 
ATOM     51  C   UNL A   1      42.854  27.042  26.385  1.00  0.00     0.012 A 
ATOM     52  C   UNL A   1      41.675  25.154  27.362  1.00  0.00     0.148 A 
ATOM     53  C   UNL A   1      43.354  26.215  25.379  1.00  0.00     0.002 A 
ATOM     54  C   UNL A   1      42.225  24.325  26.393  1.00  0.00     0.091 A 
ATOM     55  F   UNL A   1      40.866  24.684  28.322  1.00  0.00    -0.205 F 
ATOM     56  C   UNL A   1      43.056  24.855  25.393  1.00  0.00     0.022 A 
BRANCH  54  57
ATOM     57  S   UNL A   1      42.030  22.538  26.426  1.00  0.00     0.127 S 
ATOM     58  O   UNL A   1      42.651  22.193  27.702  1.00  0.00    -0.237 OA
ATOM     59  O   UNL A   1      40.574  22.395  26.388  1.00  0.00    -0.237 OA
ATOM     60  O   UNL A   1      42.714  22.044  25.238  1.00  0.00    -0.744 OA
ENDBRANCH  54  57
ENDBRANCH  26  50
BRANCH  38  61
ATOM     61  C   UNL A   1      44.812  28.085  33.605  1.00  0.00     0.023 A 
ATOM     62  C   UNL A   1      45.936  28.924  33.480  1.00  0.00     0.012 A 
ATOM     63  C   UNL A   1      44.888  26.941  34.422  1.00  0.00     0.148 A 
ATOM     64  C   UNL A   1      47.125  28.618  34.141  1.00  0.00     0.002 A 
ATOM     65  C   UNL A   1      46.064  26.664  35.110  1.00  0.00     0.091 A 
ATOM     66  F   UNL A   1      43.816  26.140  34.508  1.00  0.00    -0.205 F 
ATOM     67  C   UNL A   1      47.186  27.497  34.965  1.00  0.00     0.022 A 
BRANCH  65  68
ATOM     68  S   UNL A   1      46.189  25.286  36.256  1.00  0.00     0.127 S 
ATOM     69  O   UNL A   1      46.021  24.140  35.366  1.00  0.00    -0.237 OA
ATOM     70  O   UNL A   1      47.539  25.445  36.798  1.00  0.00    -0.237 OA
ATOM     71  O   UNL A   1      45.126  25.491  37.232  1.00  0.00    -0.744 OA
ENDBRANCH  65  68
ENDBRANCH  38  61
ENDBRANCH  12  13
ENDBRANCH   5   7
ENDBRANCH   2   3
ENDBRANCH   1   2
BRANCH   1  72
ATOM     72  C   UNL A   1      32.138  28.255  22.766  1.00  0.00     0.118 C 
BRANCH  72  73
ATOM     73  N   UNL A   1      32.443  27.318  21.690  1.00  0.00    -0.352 N 
ATOM     74  C   UNL A   1      32.824  26.001  21.740  1.00  0.00     0.251 C 
ATOM     75  H   UNL A   1      32.365  27.691  20.782  1.00  0.00     0.163 HD
ATOM     76  O   UNL A   1      33.208  25.426  20.727  1.00  0.00    -0.269 OA
BRANCH  74  77
ATOM     77  C   UNL A   1      32.805  25.268  23.022  1.00  0.00     0.042 A 
ATOM     78  C   UNL A   1      33.939  25.212  23.838  1.00  0.00     0.015 A 
ATOM     79  C   UNL A   1      31.623  24.637  23.419  1.00  0.00     0.054 A 
ATOM     80  C   UNL A   1      33.936  24.393  24.965  1.00  0.00     0.026 A 
ATOM     81  C   UNL A   1      31.610  23.863  24.578  1.00  0.00     0.144 A 
ATOM     82  C   UNL A   1      32.773  23.691  25.315  1.00  0.00     0.118 A 
ATOM     83  F   UNL A   1      30.460  23.275  24.930  1.00  0.00    -0.205 F 
BRANCH  82  84
ATOM     84  S   UNL A   1      32.893  22.554  26.656  1.00  0.00     0.243 S 
ATOM     85  O   UNL A   1      34.289  22.513  27.030  1.00  0.00    -0.207 OA
ATOM     86  O   UNL A   1      31.878  22.944  27.612  1.00  0.00    -0.207 OA
BRANCH  84  87
ATOM     87  N   UNL A   1      32.459  21.043  26.121  1.00  0.00    -0.205 NA
ATOM     88  H   UNL A   1      31.443  21.063  26.040  1.00  0.00     0.141 HD
BRANCH  87  89
ATOM     89  C   UNL A   1      32.935  20.436  24.893  1.00  0.00     0.154 C 
BRANCH  89  90
ATOM     90  C   UNL A   1      33.045  18.969  25.000  1.00  0.00     0.050 A 
ATOM     91  C   UNL A   1      33.444  17.978  24.129  1.00  0.00     0.046 A 
ATOM     92  N   UNL A   1      32.723  18.319  26.164  1.00  0.00    -0.281 N 
ATOM     93  C   UNL A   1      33.314  16.781  24.857  1.00  0.00     0.135 A 
ATOM     94  N   UNL A   1      32.895  16.992  26.105  1.00  0.00    -0.184 NA
ATOM     95  H   UNL A   1      32.398  18.784  26.968  1.00  0.00     0.190 HD
ENDBRANCH  89  90
ENDBRANCH  87  89
ENDBRANCH  84  87
ENDBRANCH  82  84
ENDBRANCH  74  77
ENDBRANCH  72  73
ENDBRANCH   1  72
TORSDOF 17
ENDMDL
MODEL 2
REMARK VINA RESULT:     -12.2      5.305     10.398
REMARK SMILES O=C(NCCCNC(=O)c1ccc(S(=O)(=O)NCc2ccn[nH]2)c(F)c1)c1ccc(-c2c3nc(c(-c4cccc(S(=O)(=O)[O-])c4F)c4ccc([nH]4)c(-c4cccc(S(=O)(=O)[O-])c4F)c4nc(c(-c5cccc(S(=O)(=O)[O-])c5F)c5ccc2[nH]5)C=C4)C=C3)cc1
REMARK SMILES IDX 5 1 4 2 3 3 1 4 2 5 27 7 28 8 89 9 29 10 88 11 30 12 31 13
REMARK SMILES IDX 32 14 82 15 33 16 87 17 81 18 83 19 34 20 86 21 80 22 79 23
REMARK SMILES IDX 35 25 67 26 47 27 66 28 48 29 51 30 65 31 84 32 49 33 50 34
REMARK SMILES IDX 64 36 85 37 52 38 36 39 37 40 45 41 38 42 40 43 46 44 39 45
REMARK SMILES IDX 41 46 42 47 43 48 44 49 68 50 69 51 77 52 70 53 72 54 78 55
REMARK SMILES IDX 71 56 73 57 74 58 75 59 76 60 53 61 54 62 62 63 55 64 57 65
REMARK SMILES IDX 63 66 56 67 58 68 59 69 60 70 61 71 6 72 7 73 8 74 9 76
REMARK SMILES IDX 10 77 11 78 26 79 12 80 24 81 13 82 25 83 14 84 15 85 16 86
REMARK SMILES IDX 17 87 18 89 19 90 20 91 23 92 21 93 22 94
REMARK H PARENT 3 6 83 24 51 35 7 75 17 88 23 95
REMARK Flexibility Score: inf
ROOT
ATOM      1  C   UNL A   1      36.078  21.383  24.642  1.00  0.00     0.042 C 
ENDROOT
BRANCH   1   2
ATOM      2  C   UNL A   1      37.515  21.823  24.879  1.00  0.00     0.118 C 
BRANCH   2   3
ATOM      3  N   UNL A   1      38.307  20.794  25.535  1.00  0.00    -0.352 N 
ATOM      4  O   UNL A   1      40.090  19.873  26.531  1.00  0.00    -0.269 OA
ATOM      5  C   UNL A   1      39.461  20.896  26.272  1.00  0.00     0.251 C 
ATOM      6  H   UNL A   1      37.961  19.878  25.434  1.00  0.00     0.163 HD
BRANCH   5   7
ATOM      7  C   UNL A   1      39.948  22.212  26.744  1.00  0.00     0.039 A 
ATOM      8  C   UNL A   1      41.012  22.306  27.644  1.00  0.00     0.014 A 
ATOM      9  C   UNL A   1      39.379  23.376  26.216  1.00  0.00     0.014 A 
ATOM     10  C   UNL A   1      41.427  23.551  28.106  1.00  0.00     0.010 A 
ATOM     11  C   UNL A   1      39.856  24.630  26.612  1.00  0.00     0.010 A 
ATOM     12  C   UNL A   1      40.876  24.724  27.568  1.00  0.00    -0.014 A 
BRANCH  12  13
ATOM     13  C   UNL A   1      41.485  26.032  27.915  1.00  0.00     0.031 A 
ATOM     14  C   UNL A   1      42.882  26.385  27.503  1.00  0.00     0.074 A 
ATOM     15  C   UNL A   1      40.738  26.908  28.615  1.00  0.00     0.049 A 
ATOM     16  N   UNL A   1      43.538  27.497  27.709  1.00  0.00    -0.248 NA
ATOM     17  C   UNL A   1      43.645  25.364  26.769  1.00  0.00     0.031 C 
ATOM     18  C   UNL A   1      39.376  26.652  29.092  1.00  0.00     0.029 A 
ATOM     19  N   UNL A   1      41.002  28.185  29.038  1.00  0.00    -0.354 N 
ATOM     20  C   UNL A   1      44.797  27.307  27.154  1.00  0.00     0.074 A 
ATOM     21  C   UNL A   1      44.817  25.965  26.610  1.00  0.00     0.031 C 
ATOM     22  C   UNL A   1      38.908  27.751  29.698  1.00  0.00     0.029 A 
ATOM     23  C   UNL A   1      39.952  28.769  29.705  1.00  0.00     0.049 A 
ATOM     24  H   UNL A   1      41.861  28.639  28.880  1.00  0.00     0.167 HD
ATOM     25  C   UNL A   1      45.831  28.180  27.089  1.00  0.00     0.034 A 
ATOM     26  C   UNL A   1      39.835  29.989  30.262  1.00  0.00     0.034 A 
ATOM     27  C   UNL A   1      45.793  29.516  27.624  1.00  0.00     0.049 A 
ATOM     28  C   UNL A   1      40.991  30.940  30.166  1.00  0.00     0.074 A 
ATOM     29  C   UNL A   1      46.789  30.478  27.608  1.00  0.00     0.029 A 
ATOM     30  N   UNL A   1      44.702  30.085  28.267  1.00  0.00    -0.354 N 
ATOM     31  N   UNL A   1      42.146  30.767  29.572  1.00  0.00    -0.248 NA
ATOM     32  C   UNL A   1      40.822  32.257  30.791  1.00  0.00     0.031 C 
ATOM     33  C   UNL A   1      46.300  31.625  28.244  1.00  0.00     0.029 A 
ATOM     34  C   UNL A   1      44.996  31.384  28.645  1.00  0.00     0.049 A 
ATOM     35  H   UNL A   1      43.844  29.630  28.431  1.00  0.00     0.167 HD
ATOM     36  C   UNL A   1      42.839  31.960  29.733  1.00  0.00     0.074 A 
ATOM     37  C   UNL A   1      41.961  32.855  30.463  1.00  0.00     0.031 C 
ATOM     38  C   UNL A   1      44.094  32.275  29.330  1.00  0.00     0.034 A 
BRANCH  25  39
ATOM     39  C   UNL A   1      47.077  27.736  26.369  1.00  0.00     0.023 A 
ATOM     40  C   UNL A   1      48.076  27.047  27.086  1.00  0.00     0.012 A 
ATOM     41  C   UNL A   1      47.237  27.936  24.984  1.00  0.00     0.148 A 
ATOM     42  C   UNL A   1      49.223  26.583  26.443  1.00  0.00     0.002 A 
ATOM     43  C   UNL A   1      48.366  27.438  24.342  1.00  0.00     0.091 A 
ATOM     44  F   UNL A   1      46.292  28.618  24.321  1.00  0.00    -0.205 F 
ATOM     45  C   UNL A   1      49.363  26.768  25.071  1.00  0.00     0.022 A 
BRANCH  43  46
ATOM     46  S   UNL A   1      48.589  27.568  22.563  1.00  0.00     0.127 S 
ATOM     47  O   UNL A   1      49.890  28.227  22.474  1.00  0.00    -0.237 OA
ATOM     48  O   UNL A   1      48.585  26.167  22.140  1.00  0.00    -0.237 OA
ATOM     49  O   UNL A   1      47.451  28.341  22.083  1.00  0.00    -0.744 OA
ENDBRANCH  43  46
ENDBRANCH  25  39
BRANCH  26  50
ATOM     50  C   UNL A   1      38.534  30.382  30.870  1.00  0.00     0.023 A 
ATOM     51  C   UNL A   1      38.339  30.189  32.250  1.00  0.00     0.012 A 
ATOM     52  C   UNL A   1      37.552  31.064  30.123  1.00  0.00     0.148 A 
ATOM     53  C   UNL A   1      37.190  30.669  32.878  1.00  0.00     0.002 A 
ATOM     54  C   UNL A   1      36.439  31.592  30.766  1.00  0.00     0.091 A 
ATOM     55  F   UNL A   1      37.757  31.229  28.808  1.00  0.00    -0.205 F 
ATOM     56  C   UNL A   1      36.249  31.386  32.141  1.00  0.00     0.022 A 
BRANCH  54  57
ATOM     57  S   UNL A   1      35.261  32.665  29.934  1.00  0.00     0.127 S 
ATOM     58  O   UNL A   1      34.724  31.778  28.906  1.00  0.00    -0.237 OA
ATOM     59  O   UNL A   1      34.333  32.987  31.019  1.00  0.00    -0.237 OA
ATOM     60  O   UNL A   1      36.035  33.799  29.447  1.00  0.00    -0.744 OA
ENDBRANCH  54  57
ENDBRANCH  26  50
BRANCH  38  61
ATOM     61  C   UNL A   1      44.597  33.656  29.656  1.00  0.00     0.023 A 
ATOM     62  C   UNL A   1      45.332  33.864  30.839  1.00  0.00     0.012 A 
ATOM     63  C   UNL A   1      44.416  34.722  28.755  1.00  0.00     0.148 A 
ATOM     64  C   UNL A   1      45.860  35.121  31.132  1.00  0.00     0.002 A 
ATOM     65  C   UNL A   1      44.980  35.962  29.034  1.00  0.00     0.091 A 
ATOM     66  F   UNL A   1      43.691  34.510  27.647  1.00  0.00    -0.205 F 
ATOM     67  C   UNL A   1      45.695  36.166  30.225  1.00  0.00     0.022 A 
BRANCH  65  68
ATOM     68  S   UNL A   1      44.883  37.329  27.873  1.00  0.00     0.127 S 
ATOM     69  O   UNL A   1      45.582  38.388  28.598  1.00  0.00    -0.237 OA
ATOM     70  O   UNL A   1      45.602  36.810  26.709  1.00  0.00    -0.237 OA
ATOM     71  O   UNL A   1      43.460  37.550  27.647  1.00  0.00    -0.744 OA
ENDBRANCH  65  68
ENDBRANCH  38  61
ENDBRANCH  12  13
ENDBRANCH   5   7
ENDBRANCH   2   3
ENDBRANCH   1   2
BRANCH   1  72
ATOM     72  C   UNL A   1      35.202  21.428  25.886  1.00  0.00     0.118 C 
BRANCH  72  73
ATOM     73  N   UNL A   1      33.948  20.702  25.719  1.00  0.00    -0.352 N 
ATOM     74  C   UNL A   1      32.779  21.077  25.108  1.00  0.00     0.251 C 
ATOM     75  H   UNL A   1      33.939  19.797  26.108  1.00  0.00     0.163 HD
ATOM     76  O   UNL A   1      31.769  20.390  25.223  1.00  0.00    -0.269 OA
BRANCH  74  77
ATOM     77  C   UNL A   1      32.713  22.331  24.329  1.00  0.00     0.042 A 
ATOM     78  C   UNL A   1      32.943  22.337  22.951  1.00  0.00     0.015 A 
ATOM     79  C   UNL A   1      32.398  23.519  24.994  1.00  0.00     0.054 A 
ATOM     80  C   UNL A   1      33.019  23.551  22.271  1.00  0.00     0.026 A 
ATOM     81  C   UNL A   1      32.421  24.725  24.296  1.00  0.00     0.144 A 
ATOM     82  C   UNL A   1      32.788  24.751  22.958  1.00  0.00     0.118 A 
ATOM     83  F   UNL A   1      32.113  25.845  24.963  1.00  0.00    -0.205 F 
BRANCH  82  84
ATOM     84  S   UNL A   1      33.059  26.250  22.072  1.00  0.00     0.243 S 
ATOM     85  O   UNL A   1      34.075  26.975  22.802  1.00  0.00    -0.207 OA
ATOM     86  O   UNL A   1      33.263  25.874  20.689  1.00  0.00    -0.207 OA
BRANCH  84  87
ATOM     87  N   UNL A   1      31.665  27.151  22.099  1.00  0.00    -0.205 NA
ATOM     88  H   UNL A   1      30.991  26.597  22.627  1.00  0.00     0.141 HD
BRANCH  87  89
ATOM     89  C   UNL A   1      31.563  28.496  22.630  1.00  0.00     0.154 C 
BRANCH  89  90
ATOM     90  C   UNL A   1      30.265  29.125  22.319  1.00  0.00     0.050 A 
ATOM     91  C   UNL A   1      28.958  28.810  22.622  1.00  0.00     0.046 A 
ATOM     92  N   UNL A   1      30.198  30.282  21.586  1.00  0.00    -0.281 N 
ATOM     93  C   UNL A   1      28.192  29.825  22.021  1.00  0.00     0.135 A 
ATOM     94  N   UNL A   1      28.951  30.734  21.408  1.00  0.00    -0.184 NA
ATOM     95  H   UNL A   1      30.993  30.738  21.227  1.00  0.00     0.190 HD
ENDBRANCH  89  90
ENDBRANCH  87  89
ENDBRANCH  84  87
ENDBRANCH  82  84
ENDBRANCH  74  77
ENDBRANCH  72  73
ENDBRANCH   1  72
TORSDOF 17
ENDMDL
MODEL 3
REMARK VINA RESULT:     -12.2      5.097      7.781
REMARK SMILES O=C(NCCCNC(=O)c1ccc(S(=O)(=O)NCc2ccn[nH]2)c(F)c1)c1ccc(-c2c3nc(c(-c4cccc(S(=O)(=O)[O-])c4F)c4ccc([nH]4)c(-c4cccc(S(=O)(=O)[O-])c4F)c4nc(c(-c5cccc(S(=O)(=O)[O-])c5F)c5ccc2[nH]5)C=C4)C=C3)cc1
REMARK SMILES IDX 5 1 4 2 3 3 1 4 2 5 27 7 28 8 89 9 29 10 88 11 30 12 31 13
REMARK SMILES IDX 32 14 82 15 33 16 87 17 81 18 83 19 34 20 86 21 80 22 79 23
REMARK SMILES IDX 35 25 67 26 47 27 66 28 48 29 51 30 65 31 84 32 49 33 50 34
REMARK SMILES IDX 64 36 85 37 52 38 36 39 37 40 45 41 38 42 40 43 46 44 39 45
REMARK SMILES IDX 41 46 42 47 43 48 44 49 68 50 69 51 77 52 70 53 72 54 78 55
REMARK SMILES IDX 71 56 73 57 74 58 75 59 76 60 53 61 54 62 62 63 55 64 57 65
REMARK SMILES IDX 63 66 56 67 58 68 59 69 60 70 61 71 6 72 7 73 8 74 9 76
REMARK SMILES IDX 10 77 11 78 26 79 12 80 24 81 13 82 25 83 14 84 15 85 16 86
REMARK SMILES IDX 17 87 18 89 19 90 20 91 23 92 21 93 22 94
REMARK H PARENT 3 6 83 24 51 35 7 75 17 88 23 95
REMARK Flexibility Score: inf
ROOT
ATOM      1  C   UNL A   1      35.106  21.899  26.443  1.00  0.00     0.042 C 
ENDROOT
BRANCH   1   2
ATOM      2  C   UNL A   1      36.208  22.046  25.404  1.00  0.00     0.118 C 
BRANCH   2   3
ATOM      3  N   UNL A   1      37.219  21.007  25.520  1.00  0.00    -0.352 N 
ATOM      4  O   UNL A   1      39.274  20.115  25.606  1.00  0.00    -0.269 OA
ATOM      5  C   UNL A   1      38.562  21.100  25.791  1.00  0.00     0.251 C 
ATOM      6  H   UNL A   1      36.889  20.090  25.381  1.00  0.00     0.163 HD
BRANCH   5   7
ATOM      7  C   UNL A   1      39.151  22.362  26.292  1.00  0.00     0.039 A 
ATOM      8  C   UNL A   1      40.275  22.354  27.122  1.00  0.00     0.014 A 
ATOM      9  C   UNL A   1      38.615  23.581  25.860  1.00  0.00     0.014 A 
ATOM     10  C   UNL A   1      40.787  23.550  27.614  1.00  0.00     0.010 A 
ATOM     11  C   UNL A   1      39.186  24.785  26.284  1.00  0.00     0.010 A 
ATOM     12  C   UNL A   1      40.269  24.777  27.172  1.00  0.00    -0.014 A 
BRANCH  12  13
ATOM     13  C   UNL A   1      40.970  26.031  27.540  1.00  0.00     0.031 A 
ATOM     14  C   UNL A   1      40.298  27.101  28.347  1.00  0.00     0.074 A 
ATOM     15  C   UNL A   1      42.244  26.185  27.130  1.00  0.00     0.049 A 
ATOM     16  N   UNL A   1      40.790  28.237  28.768  1.00  0.00    -0.248 NA
ATOM     17  C   UNL A   1      38.896  26.874  28.730  1.00  0.00     0.031 C 
ATOM     18  C   UNL A   1      42.982  25.217  26.315  1.00  0.00     0.029 A 
ATOM     19  N   UNL A   1      43.147  27.192  27.346  1.00  0.00    -0.354 N 
ATOM     20  C   UNL A   1      39.758  28.874  29.444  1.00  0.00     0.074 A 
ATOM     21  C   UNL A   1      38.605  28.000  29.368  1.00  0.00     0.031 C 
ATOM     22  C   UNL A   1      44.236  25.653  26.139  1.00  0.00     0.029 A 
ATOM     23  C   UNL A   1      44.377  26.956  26.779  1.00  0.00     0.049 A 
ATOM     24  H   UNL A   1      42.936  28.007  27.856  1.00  0.00     0.167 HD
ATOM     25  C   UNL A   1      39.779  30.068  30.085  1.00  0.00     0.034 A 
ATOM     26  C   UNL A   1      45.498  27.701  26.772  1.00  0.00     0.034 A 
ATOM     27  C   UNL A   1      40.936  30.921  30.163  1.00  0.00     0.049 A 
ATOM     28  C   UNL A   1      45.497  29.013  27.498  1.00  0.00     0.074 A 
ATOM     29  C   UNL A   1      41.059  32.150  30.788  1.00  0.00     0.029 A 
ATOM     30  N   UNL A   1      42.173  30.636  29.601  1.00  0.00    -0.354 N 
ATOM     31  N   UNL A   1      44.533  29.563  28.194  1.00  0.00    -0.248 NA
ATOM     32  C   UNL A   1      46.740  29.794  27.460  1.00  0.00     0.031 C 
ATOM     33  C   UNL A   1      42.368  32.608  30.603  1.00  0.00     0.029 A 
ATOM     34  C   UNL A   1      43.067  31.659  29.873  1.00  0.00     0.049 A 
ATOM     35  H   UNL A   1      42.385  29.824  29.085  1.00  0.00     0.167 HD
ATOM     36  C   UNL A   1      45.055  30.748  28.696  1.00  0.00     0.074 A 
ATOM     37  C   UNL A   1      46.430  30.823  28.240  1.00  0.00     0.031 C 
ATOM     38  C   UNL A   1      44.444  31.695  29.449  1.00  0.00     0.034 A 
BRANCH  25  39
ATOM     39  C   UNL A   1      38.525  30.501  30.798  1.00  0.00     0.023 A 
ATOM     40  C   UNL A   1      38.373  30.195  32.166  1.00  0.00     0.012 A 
ATOM     41  C   UNL A   1      37.534  31.261  30.148  1.00  0.00     0.148 A 
ATOM     42  C   UNL A   1      37.246  30.618  32.870  1.00  0.00     0.002 A 
ATOM     43  C   UNL A   1      36.430  31.711  30.866  1.00  0.00     0.091 A 
ATOM     44  F   UNL A   1      37.678  31.520  28.840  1.00  0.00    -0.205 F 
ATOM     45  C   UNL A   1      36.281  31.385  32.223  1.00  0.00     0.022 A 
BRANCH  43  46
ATOM     46  S   UNL A   1      35.178  32.769  30.127  1.00  0.00     0.127 S 
ATOM     47  O   UNL A   1      34.625  31.896  29.093  1.00  0.00    -0.237 OA
ATOM     48  O   UNL A   1      34.277  33.027  31.251  1.00  0.00    -0.237 OA
ATOM     49  O   UNL A   1      35.892  33.945  29.650  1.00  0.00    -0.744 OA
ENDBRANCH  43  46
ENDBRANCH  25  39
BRANCH  26  50
ATOM     50  C   UNL A   1      46.722  27.154  26.124  1.00  0.00     0.023 A 
ATOM     51  C   UNL A   1      46.960  27.435  24.766  1.00  0.00     0.012 A 
ATOM     52  C   UNL A   1      47.709  26.481  26.873  1.00  0.00     0.148 A 
ATOM     53  C   UNL A   1      48.159  27.057  24.162  1.00  0.00     0.002 A 
ATOM     54  C   UNL A   1      48.925  26.161  26.281  1.00  0.00     0.091 A 
ATOM     55  F   UNL A   1      47.457  26.218  28.163  1.00  0.00    -0.205 F 
ATOM     56  C   UNL A   1      49.149  26.437  24.923  1.00  0.00     0.022 A 
BRANCH  54  57
ATOM     57  S   UNL A   1      50.315  25.513  27.219  1.00  0.00     0.127 S 
ATOM     58  O   UNL A   1      50.480  26.532  28.251  1.00  0.00    -0.237 OA
ATOM     59  O   UNL A   1      49.784  24.234  27.693  1.00  0.00    -0.237 OA
ATOM     60  O   UNL A   1      51.412  25.394  26.268  1.00  0.00    -0.744 OA
ENDBRANCH  54  57
ENDBRANCH  26  50
BRANCH  38  61
ATOM     61  C   UNL A   1      45.259  32.897  29.844  1.00  0.00     0.023 A 
ATOM     62  C   UNL A   1      46.009  32.865  31.035  1.00  0.00     0.012 A 
ATOM     63  C   UNL A   1      45.347  34.019  28.998  1.00  0.00     0.148 A 
ATOM     64  C   UNL A   1      46.819  33.942  31.391  1.00  0.00     0.002 A 
ATOM     65  C   UNL A   1      46.188  35.072  29.340  1.00  0.00     0.091 A 
ATOM     66  F   UNL A   1      44.605  34.042  27.882  1.00  0.00    -0.205 F 
ATOM     67  C   UNL A   1      46.919  35.040  30.538  1.00  0.00     0.022 A 
BRANCH  65  68
ATOM     68  S   UNL A   1      46.434  36.479  28.249  1.00  0.00     0.127 S 
ATOM     69  O   UNL A   1      47.026  35.847  27.072  1.00  0.00    -0.237 OA
ATOM     70  O   UNL A   1      45.069  36.972  28.056  1.00  0.00    -0.237 OA
ATOM     71  O   UNL A   1      47.302  37.394  28.980  1.00  0.00    -0.744 OA
ENDBRANCH  65  68
ENDBRANCH  38  61
ENDBRANCH  12  13
ENDBRANCH   5   7
ENDBRANCH   2   3
ENDBRANCH   1   2
BRANCH   1  72
ATOM     72  C   UNL A   1      33.768  21.453  25.869  1.00  0.00     0.118 C 
BRANCH  72  73
ATOM     73  N   UNL A   1      32.643  21.803  26.728  1.00  0.00    -0.352 N 
ATOM     74  C   UNL A   1      31.817  22.898  26.708  1.00  0.00     0.251 C 
ATOM     75  H   UNL A   1      32.444  21.149  27.437  1.00  0.00     0.163 HD
ATOM     76  O   UNL A   1      31.030  23.100  27.628  1.00  0.00    -0.269 OA
BRANCH  74  77
ATOM     77  C   UNL A   1      31.885  23.864  25.593  1.00  0.00     0.042 A 
ATOM     78  C   UNL A   1      31.016  23.771  24.503  1.00  0.00     0.015 A 
ATOM     79  C   UNL A   1      32.831  24.892  25.652  1.00  0.00     0.054 A 
ATOM     80  C   UNL A   1      31.202  24.605  23.402  1.00  0.00     0.026 A 
ATOM     81  C   UNL A   1      32.974  25.758  24.570  1.00  0.00     0.144 A 
ATOM     82  C   UNL A   1      32.208  25.581  23.426  1.00  0.00     0.118 A 
ATOM     83  F   UNL A   1      33.888  26.733  24.660  1.00  0.00    -0.205 F 
BRANCH  82  84
ATOM     84  S   UNL A   1      32.488  26.486  21.941  1.00  0.00     0.243 S 
ATOM     85  O   UNL A   1      33.859  26.230  21.561  1.00  0.00    -0.207 OA
ATOM     86  O   UNL A   1      31.396  26.154  21.051  1.00  0.00    -0.207 OA
BRANCH  84  87
ATOM     87  N   UNL A   1      32.337  28.108  22.262  1.00  0.00    -0.205 NA
ATOM     88  H   UNL A   1      32.085  28.541  21.374  1.00  0.00     0.141 HD
BRANCH  87  89
ATOM     89  C   UNL A   1      31.429  28.673  23.241  1.00  0.00     0.154 C 
BRANCH  89  90
ATOM     90  C   UNL A   1      30.224  29.253  22.618  1.00  0.00     0.050 A 
ATOM     91  C   UNL A   1      28.874  29.144  22.874  1.00  0.00     0.046 A 
ATOM     92  N   UNL A   1      30.322  30.109  21.551  1.00  0.00    -0.281 N 
ATOM     93  C   UNL A   1      28.255  29.958  21.907  1.00  0.00     0.135 A 
ATOM     94  N   UNL A   1      29.140  30.563  21.114  1.00  0.00    -0.184 NA
ATOM     95  H   UNL A   1      31.181  30.368  21.147  1.00  0.00     0.190 HD
ENDBRANCH  89  90
ENDBRANCH  87  89
ENDBRANCH  84  87
ENDBRANCH  82  84
ENDBRANCH  74  77
ENDBRANCH  72  73
ENDBRANCH   1  72
TORSDOF 17
ENDMDL
