MODEL 1
REMARK VINA RESULT:     -12.7      0.000      0.000
REMARK SMILES C=Cc1cc(Cl)cc2c1O[C@H](C(F)(F)F)C(C(=O)NCCCNC(=O)c1ccc(-c3c4nc(c(-c5cccc(S(=O)(=O)[O-])c5F)c5ccc([nH]5)c(-c5cccc(S(=O)(=O)[O-])c5F)c5nc(c(-c6cccc(S(=O)(=O)[O-])c6F)c6ccc3[nH]6)C=C5)C=C4)cc1)=C2
REMARK SMILES IDX 22 1 21 2 20 3 19 4 17 5 18 6 16 8 3 9 4 10 9 11 5 12 8 13
REMARK SMILES IDX 10 14 6 15 7 16 89 17 11 18 2 19 1 20 12 21 13 22 14 23
REMARK SMILES IDX 15 24 23 25 24 26 25 28 26 29 27 30 88 31 28 32 87 33 29 34
REMARK SMILES IDX 30 35 31 36 81 37 32 38 86 39 80 40 82 41 33 42 85 43 79 44
REMARK SMILES IDX 78 45 34 47 66 48 46 49 65 50 47 51 50 52 64 53 83 54 48 55
REMARK SMILES IDX 49 56 63 58 84 59 51 60 35 61 36 62 44 63 37 64 39 65 45 66
REMARK SMILES IDX 38 67 40 68 41 69 42 70 43 71 67 72 68 73 76 74 69 75 71 76
REMARK SMILES IDX 77 77 70 78 72 79 73 80 74 81 75 82 52 83 53 84 61 85 54 86
REMARK SMILES IDX 56 87 62 88 55 89 57 90 58 91 59 92 60 93
REMARK H PARENT 19 7 23 27 82 46 50 57
REMARK Flexibility Score: inf
ROOT
ATOM      1  C   UNL A   1      32.081  31.640  26.951  1.00  0.00     0.118 C 
ENDROOT
BRANCH   1   2
ATOM      2  C   UNL A   1      31.179  31.357  25.757  1.00  0.00     0.042 C 
BRANCH   2   3
ATOM      3  C   UNL A   1      31.465  30.007  25.117  1.00  0.00     0.118 C 
BRANCH   3   4
ATOM      4  N   UNL A   1      30.797  29.855  23.834  1.00  0.00    -0.352 N 
ATOM      5  C   UNL A   1      30.500  28.847  22.982  1.00  0.00     0.251 C 
ATOM      6  O   UNL A   1      29.875  29.179  21.969  1.00  0.00    -0.270 OA
ATOM      7  H   UNL A   1      30.474  30.720  23.492  1.00  0.00     0.163 HD
BRANCH   5   8
ATOM      8  C   UNL A   1      30.860  27.413  23.187  1.00  0.00     0.067 C 
ATOM      9  C   UNL A   1      31.568  23.299  23.743  1.00  0.00     0.018 A 
ATOM     10  C   UNL A   1      31.174  22.703  24.947  1.00  0.00     0.032 A 
ATOM     11  C   UNL A   1      31.280  24.658  23.536  1.00  0.00     0.135 A 
ATOM     12  C   UNL A   1      30.481  23.447  25.904  1.00  0.00     0.042 A 
ATOM     13  C   UNL A   1      30.579  25.402  24.494  1.00  0.00     0.019 A 
ATOM     14  O   UNL A   1      31.657  25.219  22.344  1.00  0.00    -0.475 OA
ATOM     15  Cl  UNL A   1      30.004  22.699  27.380  1.00  0.00    -0.084 Cl
ATOM     16  C   UNL A   1      30.176  24.788  25.682  1.00  0.00     0.032 A 
ATOM     17  C   UNL A   1      30.255  26.798  24.220  1.00  0.00     0.025 C 
ATOM     18  C   UNL A   1      31.846  26.658  22.343  1.00  0.00     0.314 C 
BRANCH   9  19
ATOM     19  C   UNL A   1      32.330  22.542  22.739  1.00  0.00     0.004 C 
ATOM     20  C   UNL A   1      32.003  21.310  22.327  1.00  0.00     0.009 C 
ENDBRANCH   9  19
BRANCH  18  21
ATOM     21  C   UNL A   1      33.308  26.980  22.706  1.00  0.00     0.429 C 
ATOM     22  F   UNL A   1      33.870  27.775  21.762  1.00  0.00    -0.167 F 
ATOM     23  F   UNL A   1      33.421  27.640  23.884  1.00  0.00    -0.167 F 
ATOM     24  F   UNL A   1      34.077  25.871  22.810  1.00  0.00    -0.167 F 
ENDBRANCH  18  21
ENDBRANCH   5   8
ENDBRANCH   3   4
ENDBRANCH   2   3
ENDBRANCH   1   2
BRANCH   1  25
ATOM     25  N   UNL A   1      32.168  33.068  27.252  1.00  0.00    -0.352 N 
ATOM     26  C   UNL A   1      33.098  33.766  27.988  1.00  0.00     0.251 C 
ATOM     27  H   UNL A   1      31.449  33.618  26.866  1.00  0.00     0.163 HD
ATOM     28  O   UNL A   1      32.876  34.934  28.294  1.00  0.00    -0.269 OA
BRANCH  26  29
ATOM     29  C   UNL A   1      34.340  33.097  28.425  1.00  0.00     0.039 A 
ATOM     30  C   UNL A   1      34.280  31.865  29.076  1.00  0.00     0.014 A 
ATOM     31  C   UNL A   1      35.574  33.714  28.204  1.00  0.00     0.014 A 
ATOM     32  C   UNL A   1      35.417  31.356  29.685  1.00  0.00     0.010 A 
ATOM     33  C   UNL A   1      36.738  33.140  28.725  1.00  0.00     0.010 A 
ATOM     34  C   UNL A   1      36.661  31.986  29.521  1.00  0.00    -0.014 A 
BRANCH  34  35
ATOM     35  C   UNL A   1      37.853  31.409  30.193  1.00  0.00     0.031 A 
ATOM     36  C   UNL A   1      38.170  31.735  31.629  1.00  0.00     0.074 A 
ATOM     37  C   UNL A   1      38.616  30.526  29.517  1.00  0.00     0.049 A 
ATOM     38  N   UNL A   1      39.144  31.280  32.375  1.00  0.00    -0.248 NA
ATOM     39  C   UNL A   1      37.289  32.692  32.320  1.00  0.00     0.031 C 
ATOM     40  C   UNL A   1      38.418  30.144  28.117  1.00  0.00     0.029 A 
ATOM     41  N   UNL A   1      39.685  29.767  29.919  1.00  0.00    -0.354 N 
ATOM     42  C   UNL A   1      39.027  31.930  33.597  1.00  0.00     0.074 A 
ATOM     43  C   UNL A   1      37.884  32.810  33.501  1.00  0.00     0.031 C 
ATOM     44  C   UNL A   1      39.289  29.176  27.797  1.00  0.00     0.029 A 
ATOM     45  C   UNL A   1      40.148  28.914  28.945  1.00  0.00     0.049 A 
ATOM     46  H   UNL A   1      40.083  29.828  30.818  1.00  0.00     0.167 HD
ATOM     47  C   UNL A   1      39.792  31.791  34.705  1.00  0.00     0.034 A 
ATOM     48  C   UNL A   1      41.156  28.021  28.966  1.00  0.00     0.034 A 
ATOM     49  C   UNL A   1      40.884  30.865  34.823  1.00  0.00     0.049 A 
ATOM     50  C   UNL A   1      41.964  27.862  30.219  1.00  0.00     0.074 A 
ATOM     51  C   UNL A   1      41.690  30.626  35.922  1.00  0.00     0.029 A 
ATOM     52  N   UNL A   1      41.316  30.018  33.816  1.00  0.00    -0.354 N 
ATOM     53  N   UNL A   1      41.799  28.448  31.379  1.00  0.00    -0.248 NA
ATOM     54  C   UNL A   1      43.090  26.920  30.171  1.00  0.00     0.031 C 
ATOM     55  C   UNL A   1      42.609  29.630  35.580  1.00  0.00     0.029 A 
ATOM     56  C   UNL A   1      42.374  29.249  34.269  1.00  0.00     0.049 A 
ATOM     57  H   UNL A   1      40.929  29.969  32.912  1.00  0.00     0.167 HD
ATOM     58  C   UNL A   1      42.797  27.946  32.203  1.00  0.00     0.074 A 
ATOM     59  C   UNL A   1      43.546  26.986  31.416  1.00  0.00     0.031 C 
ATOM     60  C   UNL A   1      43.079  28.269  33.487  1.00  0.00     0.034 A 
BRANCH  47  61
ATOM     61  C   UNL A   1      39.450  32.621  35.911  1.00  0.00     0.023 A 
ATOM     62  C   UNL A   1      39.942  33.938  36.001  1.00  0.00     0.012 A 
ATOM     63  C   UNL A   1      38.564  32.140  36.895  1.00  0.00     0.148 A 
ATOM     64  C   UNL A   1      39.563  34.764  37.060  1.00  0.00     0.002 A 
ATOM     65  C   UNL A   1      38.170  32.977  37.932  1.00  0.00     0.091 A 
ATOM     66  F   UNL A   1      38.123  30.878  36.792  1.00  0.00    -0.205 F 
ATOM     67  C   UNL A   1      38.670  34.287  38.017  1.00  0.00     0.022 A 
BRANCH  65  68
ATOM     68  S   UNL A   1      36.985  32.482  39.188  1.00  0.00     0.127 S 
ATOM     69  O   UNL A   1      37.385  31.098  39.440  1.00  0.00    -0.237 OA
ATOM     70  O   UNL A   1      37.284  33.412  40.276  1.00  0.00    -0.237 OA
ATOM     71  O   UNL A   1      35.668  32.646  38.587  1.00  0.00    -0.744 OA
ENDBRANCH  65  68
ENDBRANCH  47  61
BRANCH  48  72
ATOM     72  C   UNL A   1      41.407  27.184  27.763  1.00  0.00     0.023 A 
ATOM     73  C   UNL A   1      42.086  27.744  26.665  1.00  0.00     0.012 A 
ATOM     74  C   UNL A   1      41.071  25.816  27.746  1.00  0.00     0.148 A 
ATOM     75  C   UNL A   1      42.427  26.953  25.567  1.00  0.00     0.002 A 
ATOM     76  C   UNL A   1      41.456  25.025  26.672  1.00  0.00     0.091 A 
ATOM     77  F   UNL A   1      40.418  25.312  28.803  1.00  0.00    -0.205 F 
ATOM     78  C   UNL A   1      42.126  25.594  25.575  1.00  0.00     0.022 A 
BRANCH  76  79
ATOM     79  S   UNL A   1      41.227  23.244  26.654  1.00  0.00     0.127 S 
ATOM     80  O   UNL A   1      42.050  22.849  25.513  1.00  0.00    -0.237 OA
ATOM     81  O   UNL A   1      41.761  22.861  27.961  1.00  0.00    -0.237 OA
ATOM     82  O   UNL A   1      39.795  23.031  26.500  1.00  0.00    -0.744 OA
ENDBRANCH  76  79
ENDBRANCH  48  72
BRANCH  60  83
ATOM     83  C   UNL A   1      44.246  27.587  34.140  1.00  0.00     0.023 A 
ATOM     84  C   UNL A   1      45.519  28.182  34.060  1.00  0.00     0.012 A 
ATOM     85  C   UNL A   1      44.061  26.435  34.928  1.00  0.00     0.148 A 
ATOM     86  C   UNL A   1      46.598  27.636  34.753  1.00  0.00     0.002 A 
ATOM     87  C   UNL A   1      45.133  25.915  35.640  1.00  0.00     0.091 A 
ATOM     88  F   UNL A   1      42.839  25.886  34.975  1.00  0.00    -0.205 F 
ATOM     89  C   UNL A   1      46.402  26.511  35.551  1.00  0.00     0.022 A 
BRANCH  87  90
ATOM     90  S   UNL A   1      44.966  24.513  36.752  1.00  0.00     0.127 S 
ATOM     91  O   UNL A   1      46.306  24.429  37.329  1.00  0.00    -0.237 OA
ATOM     92  O   UNL A   1      43.930  24.975  37.677  1.00  0.00    -0.237 OA
ATOM     93  O   UNL A   1      44.576  23.382  35.921  1.00  0.00    -0.744 OA
ENDBRANCH  87  90
ENDBRANCH  60  83
ENDBRANCH  34  35
ENDBRANCH  26  29
ENDBRANCH   1  25
TORSDOF 15
ENDMDL
MODEL 2
REMARK VINA RESULT:     -12.7      1.988      2.641
REMARK SMILES C=Cc1cc(Cl)cc2c1O[C@H](C(F)(F)F)C(C(=O)NCCCNC(=O)c1ccc(-c3c4nc(c(-c5cccc(S(=O)(=O)[O-])c5F)c5ccc([nH]5)c(-c5cccc(S(=O)(=O)[O-])c5F)c5nc(c(-c6cccc(S(=O)(=O)[O-])c6F)c6ccc3[nH]6)C=C5)C=C4)cc1)=C2
REMARK SMILES IDX 22 1 21 2 20 3 19 4 17 5 18 6 16 8 3 9 4 10 9 11 5 12 8 13
REMARK SMILES IDX 10 14 6 15 7 16 89 17 11 18 2 19 1 20 12 21 13 22 14 23
REMARK SMILES IDX 15 24 23 25 24 26 25 28 26 29 27 30 88 31 28 32 87 33 29 34
REMARK SMILES IDX 30 35 31 36 81 37 32 38 86 39 80 40 82 41 33 42 85 43 79 44
REMARK SMILES IDX 78 45 34 47 66 48 46 49 65 50 47 51 50 52 64 53 83 54 48 55
REMARK SMILES IDX 49 56 63 58 84 59 51 60 35 61 36 62 44 63 37 64 39 65 45 66
REMARK SMILES IDX 38 67 40 68 41 69 42 70 43 71 67 72 68 73 76 74 69 75 71 76
REMARK SMILES IDX 77 77 70 78 72 79 73 80 74 81 75 82 52 83 53 84 61 85 54 86
REMARK SMILES IDX 56 87 62 88 55 89 57 90 58 91 59 92 60 93
REMARK H PARENT 19 7 23 27 82 46 50 57
REMARK Flexibility Score: inf
ROOT
ATOM      1  C   UNL A   1      32.836  29.155  25.561  1.00  0.00     0.118 C 
ENDROOT
BRANCH   1   2
ATOM      2  C   UNL A   1      32.764  29.025  24.046  1.00  0.00     0.042 C 
BRANCH   2   3
ATOM      3  C   UNL A   1      34.034  28.436  23.451  1.00  0.00     0.118 C 
BRANCH   3   4
ATOM      4  N   UNL A   1      33.770  27.662  22.247  1.00  0.00    -0.352 N 
ATOM      5  C   UNL A   1      33.251  26.452  21.939  1.00  0.00     0.251 C 
ATOM      6  O   UNL A   1      33.193  26.195  20.731  1.00  0.00    -0.270 OA
ATOM      7  H   UNL A   1      34.041  28.153  21.437  1.00  0.00     0.163 HD
BRANCH   5   8
ATOM      8  C   UNL A   1      32.758  25.449  22.928  1.00  0.00     0.067 C 
ATOM      9  C   UNL A   1      31.669  22.547  25.779  1.00  0.00     0.018 A 
ATOM     10  C   UNL A   1      31.864  21.194  25.474  1.00  0.00     0.032 A 
ATOM     11  C   UNL A   1      32.085  23.515  24.850  1.00  0.00     0.135 A 
ATOM     12  C   UNL A   1      32.488  20.827  24.280  1.00  0.00     0.042 A 
ATOM     13  C   UNL A   1      32.718  23.147  23.657  1.00  0.00     0.019 A 
ATOM     14  O   UNL A   1      31.905  24.834  25.176  1.00  0.00    -0.475 OA
ATOM     15  Cl  UNL A   1      32.718  19.160  23.919  1.00  0.00    -0.084 Cl
ATOM     16  C   UNL A   1      32.922  21.794  23.375  1.00  0.00     0.032 A 
ATOM     17  C   UNL A   1      33.181  24.184  22.742  1.00  0.00     0.025 C 
ATOM     18  C   UNL A   1      31.829  25.765  24.064  1.00  0.00     0.314 C 
BRANCH   9  19
ATOM     19  C   UNL A   1      30.981  22.951  27.014  1.00  0.00     0.004 C 
ATOM     20  C   UNL A   1      29.651  22.935  27.167  1.00  0.00     0.009 C 
ENDBRANCH   9  19
BRANCH  18  21
ATOM     21  C   UNL A   1      30.363  25.901  23.612  1.00  0.00     0.429 C 
ATOM     22  F   UNL A   1      30.213  26.974  22.796  1.00  0.00    -0.167 F 
ATOM     23  F   UNL A   1      29.928  24.823  22.916  1.00  0.00    -0.167 F 
ATOM     24  F   UNL A   1      29.509  26.061  24.650  1.00  0.00    -0.167 F 
ENDBRANCH  18  21
ENDBRANCH   5   8
ENDBRANCH   3   4
ENDBRANCH   2   3
ENDBRANCH   1   2
BRANCH   1  25
ATOM     25  N   UNL A   1      32.485  30.499  26.017  1.00  0.00    -0.352 N 
ATOM     26  C   UNL A   1      33.101  31.314  26.939  1.00  0.00     0.251 C 
ATOM     27  H   UNL A   1      31.681  30.883  25.598  1.00  0.00     0.163 HD
ATOM     28  O   UNL A   1      32.528  32.326  27.332  1.00  0.00    -0.269 OA
BRANCH  26  29
ATOM     29  C   UNL A   1      34.431  30.950  27.467  1.00  0.00     0.039 A 
ATOM     30  C   UNL A   1      34.715  29.626  27.799  1.00  0.00     0.014 A 
ATOM     31  C   UNL A   1      35.399  31.942  27.651  1.00  0.00     0.014 A 
ATOM     32  C   UNL A   1      35.871  29.329  28.504  1.00  0.00     0.010 A 
ATOM     33  C   UNL A   1      36.613  31.618  28.264  1.00  0.00     0.010 A 
ATOM     34  C   UNL A   1      36.836  30.319  28.748  1.00  0.00    -0.014 A 
BRANCH  34  35
ATOM     35  C   UNL A   1      38.060  29.958  29.509  1.00  0.00     0.031 A 
ATOM     36  C   UNL A   1      38.237  30.384  30.942  1.00  0.00     0.074 A 
ATOM     37  C   UNL A   1      38.986  29.178  28.917  1.00  0.00     0.049 A 
ATOM     38  N   UNL A   1      39.223  30.114  31.759  1.00  0.00    -0.248 NA
ATOM     39  C   UNL A   1      37.182  31.221  31.540  1.00  0.00     0.031 C 
ATOM     40  C   UNL A   1      38.932  28.716  27.528  1.00  0.00     0.029 A 
ATOM     41  N   UNL A   1      40.132  28.609  29.411  1.00  0.00    -0.354 N 
ATOM     42  C   UNL A   1      38.936  30.785  32.942  1.00  0.00     0.074 A 
ATOM     43  C   UNL A   1      37.681  31.475  32.744  1.00  0.00     0.031 C 
ATOM     44  C   UNL A   1      39.957  27.882  27.301  1.00  0.00     0.029 A 
ATOM     45  C   UNL A   1      40.776  27.800  28.504  1.00  0.00     0.049 A 
ATOM     46  H   UNL A   1      40.462  28.765  30.325  1.00  0.00     0.167 HD
ATOM     47  C   UNL A   1      39.646  30.809  34.094  1.00  0.00     0.034 A 
ATOM     48  C   UNL A   1      41.904  27.074  28.620  1.00  0.00     0.034 A 
ATOM     49  C   UNL A   1      40.856  30.067  34.313  1.00  0.00     0.049 A 
ATOM     50  C   UNL A   1      42.651  27.090  29.920  1.00  0.00     0.074 A 
ATOM     51  C   UNL A   1      41.622  29.997  35.464  1.00  0.00     0.029 A 
ATOM     52  N   UNL A   1      41.471  29.258  33.372  1.00  0.00    -0.354 N 
ATOM     53  N   UNL A   1      42.330  27.688  31.041  1.00  0.00    -0.248 NA
ATOM     54  C   UNL A   1      43.907  26.331  29.977  1.00  0.00     0.031 C 
ATOM     55  C   UNL A   1      42.701  29.142  35.218  1.00  0.00     0.029 A 
ATOM     56  C   UNL A   1      42.604  28.679  33.916  1.00  0.00     0.049 A 
ATOM     57  H   UNL A   1      41.150  29.115  32.452  1.00  0.00     0.167 HD
ATOM     58  C   UNL A   1      43.342  27.377  31.939  1.00  0.00     0.074 A 
ATOM     59  C   UNL A   1      44.273  26.515  31.240  1.00  0.00     0.031 C 
ATOM     60  C   UNL A   1      43.495  27.789  33.220  1.00  0.00     0.034 A 
BRANCH  47  61
ATOM     61  C   UNL A   1      39.111  31.623  35.239  1.00  0.00     0.023 A 
ATOM     62  C   UNL A   1      38.226  31.023  36.156  1.00  0.00     0.012 A 
ATOM     63  C   UNL A   1      39.563  32.937  35.467  1.00  0.00     0.148 A 
ATOM     64  C   UNL A   1      37.791  31.723  37.281  1.00  0.00     0.002 A 
ATOM     65  C   UNL A   1      39.146  33.619  36.604  1.00  0.00     0.091 A 
ATOM     66  F   UNL A   1      40.394  33.489  34.571  1.00  0.00    -0.205 F 
ATOM     67  C   UNL A   1      38.258  33.014  37.510  1.00  0.00     0.022 A 
BRANCH  65  68
ATOM     68  S   UNL A   1      39.729  35.266  37.022  1.00  0.00     0.127 S 
ATOM     69  O   UNL A   1      41.173  35.053  37.111  1.00  0.00    -0.237 OA
ATOM     70  O   UNL A   1      39.298  36.047  35.863  1.00  0.00    -0.237 OA
ATOM     71  O   UNL A   1      39.076  35.620  38.275  1.00  0.00    -0.744 OA
ENDBRANCH  65  68
ENDBRANCH  47  61
BRANCH  48  72
ATOM     72  C   UNL A   1      42.350  26.240  27.473  1.00  0.00     0.023 A 
ATOM     73  C   UNL A   1      43.281  26.767  26.559  1.00  0.00     0.012 A 
ATOM     74  C   UNL A   1      41.938  24.898  27.345  1.00  0.00     0.148 A 
ATOM     75  C   UNL A   1      43.796  25.971  25.535  1.00  0.00     0.002 A 
ATOM     76  C   UNL A   1      42.491  24.099  26.354  1.00  0.00     0.091 A 
ATOM     77  F   UNL A   1      41.045  24.425  28.226  1.00  0.00    -0.205 F 
ATOM     78  C   UNL A   1      43.412  24.636  25.440  1.00  0.00     0.022 A 
BRANCH  76  79
ATOM     79  S   UNL A   1      42.157  22.338  26.236  1.00  0.00     0.127 S 
ATOM     80  O   UNL A   1      42.909  21.971  25.039  1.00  0.00    -0.237 OA
ATOM     81  O   UNL A   1      42.718  21.843  27.494  1.00  0.00    -0.237 OA
ATOM     82  O   UNL A   1      40.709  22.216  26.132  1.00  0.00    -0.744 OA
ENDBRANCH  76  79
ENDBRANCH  48  72
BRANCH  60  83
ATOM     83  C   UNL A   1      44.711  27.321  33.965  1.00  0.00     0.023 A 
ATOM     84  C   UNL A   1      45.852  28.144  33.999  1.00  0.00     0.012 A 
ATOM     85  C   UNL A   1      44.680  26.136  34.725  1.00  0.00     0.148 A 
ATOM     86  C   UNL A   1      46.953  27.791  34.778  1.00  0.00     0.002 A 
ATOM     87  C   UNL A   1      45.768  25.807  35.523  1.00  0.00     0.091 A 
ATOM     88  F   UNL A   1      43.583  25.368  34.663  1.00  0.00    -0.205 F 
ATOM     89  C   UNL A   1      46.905  26.631  35.548  1.00  0.00     0.022 A 
BRANCH  87  90
ATOM     90  S   UNL A   1      45.774  24.373  36.605  1.00  0.00     0.127 S 
ATOM     91  O   UNL A   1      45.714  23.274  35.643  1.00  0.00    -0.237 OA
ATOM     92  O   UNL A   1      47.057  24.512  37.295  1.00  0.00    -0.237 OA
ATOM     93  O   UNL A   1      44.606  24.510  37.464  1.00  0.00    -0.744 OA
ENDBRANCH  87  90
ENDBRANCH  60  83
ENDBRANCH  34  35
ENDBRANCH  26  29
ENDBRANCH   1  25
TORSDOF 15
ENDMDL
MODEL 3
REMARK VINA RESULT:     -12.7      5.571     10.443
REMARK SMILES C=Cc1cc(Cl)cc2c1O[C@H](C(F)(F)F)C(C(=O)NCCCNC(=O)c1ccc(-c3c4nc(c(-c5cccc(S(=O)(=O)[O-])c5F)c5ccc([nH]5)c(-c5cccc(S(=O)(=O)[O-])c5F)c5nc(c(-c6cccc(S(=O)(=O)[O-])c6F)c6ccc3[nH]6)C=C5)C=C4)cc1)=C2
REMARK SMILES IDX 22 1 21 2 20 3 19 4 17 5 18 6 16 8 3 9 4 10 9 11 5 12 8 13
REMARK SMILES IDX 10 14 6 15 7 16 89 17 11 18 2 19 1 20 12 21 13 22 14 23
REMARK SMILES IDX 15 24 23 25 24 26 25 28 26 29 27 30 88 31 28 32 87 33 29 34
REMARK SMILES IDX 30 35 31 36 81 37 32 38 86 39 80 40 82 41 33 42 85 43 79 44
REMARK SMILES IDX 78 45 34 47 66 48 46 49 65 50 47 51 50 52 64 53 83 54 48 55
REMARK SMILES IDX 49 56 63 58 84 59 51 60 35 61 36 62 44 63 37 64 39 65 45 66
REMARK SMILES IDX 38 67 40 68 41 69 42 70 43 71 67 72 68 73 76 74 69 75 71 76
REMARK SMILES IDX 77 77 70 78 72 79 73 80 74 81 75 82 52 83 53 84 61 85 54 86
REMARK SMILES IDX 56 87 62 88 55 89 57 90 58 91 59 92 60 93
REMARK H PARENT 19 7 23 27 82 46 50 57
REMARK Flexibility Score: inf
ROOT
ATOM      1  C   UNL A   1      37.337  21.793  24.478  1.00  0.00     0.118 C 
ENDROOT
BRANCH   1   2
ATOM      2  C   UNL A   1      35.825  21.620  24.553  1.00  0.00     0.042 C 
BRANCH   2   3
ATOM      3  C   UNL A   1      35.379  20.948  25.843  1.00  0.00     0.118 C 
BRANCH   3   4
ATOM      4  N   UNL A   1      34.146  20.194  25.671  1.00  0.00    -0.352 N 
ATOM      5  C   UNL A   1      32.875  20.445  25.283  1.00  0.00     0.251 C 
ATOM      6  O   UNL A   1      32.126  19.462  25.263  1.00  0.00    -0.270 OA
ATOM      7  H   UNL A   1      34.271  19.244  25.899  1.00  0.00     0.163 HD
BRANCH   5   8
ATOM      8  C   UNL A   1      32.344  21.782  24.887  1.00  0.00     0.067 C 
ATOM      9  C   UNL A   1      30.704  25.414  23.523  1.00  0.00     0.018 A 
ATOM     10  C   UNL A   1      31.205  25.980  22.344  1.00  0.00     0.032 A 
ATOM     11  C   UNL A   1      31.213  24.174  23.946  1.00  0.00     0.135 A 
ATOM     12  C   UNL A   1      32.170  25.304  21.595  1.00  0.00     0.042 A 
ATOM     13  C   UNL A   1      32.175  23.493  23.190  1.00  0.00     0.019 A 
ATOM     14  O   UNL A   1      30.696  23.627  25.091  1.00  0.00    -0.475 OA
ATOM     15  Cl  UNL A   1      32.776  26.014  20.150  1.00  0.00    -0.084 Cl
ATOM     16  C   UNL A   1      32.651  24.062  22.007  1.00  0.00     0.032 A 
ATOM     17  C   UNL A   1      32.641  22.184  23.636  1.00  0.00     0.025 C 
ATOM     18  C   UNL A   1      31.546  22.679  25.788  1.00  0.00     0.314 C 
BRANCH   9  19
ATOM     19  C   UNL A   1      29.715  26.128  24.344  1.00  0.00     0.004 C 
ATOM     20  C   UNL A   1      28.527  26.543  23.887  1.00  0.00     0.009 C 
ENDBRANCH   9  19
BRANCH  18  21
ATOM     21  C   UNL A   1      32.423  23.433  26.805  1.00  0.00     0.429 C 
ATOM     22  F   UNL A   1      33.626  23.742  26.260  1.00  0.00    -0.167 F 
ATOM     23  F   UNL A   1      31.870  24.602  27.207  1.00  0.00    -0.167 F 
ATOM     24  F   UNL A   1      32.661  22.713  27.926  1.00  0.00    -0.167 F 
ENDBRANCH  18  21
ENDBRANCH   5   8
ENDBRANCH   3   4
ENDBRANCH   2   3
ENDBRANCH   1   2
BRANCH   1  25
ATOM     25  N   UNL A   1      38.053  20.660  25.063  1.00  0.00    -0.352 N 
ATOM     26  C   UNL A   1      39.153  20.635  25.889  1.00  0.00     0.251 C 
ATOM     27  H   UNL A   1      37.689  19.775  24.831  1.00  0.00     0.163 HD
ATOM     28  O   UNL A   1      39.727  19.571  26.102  1.00  0.00    -0.269 OA
BRANCH  26  29
ATOM     29  C   UNL A   1      39.649  21.890  26.489  1.00  0.00     0.039 A 
ATOM     30  C   UNL A   1      39.085  23.112  26.122  1.00  0.00     0.014 A 
ATOM     31  C   UNL A   1      40.700  21.850  27.409  1.00  0.00     0.014 A 
ATOM     32  C   UNL A   1      39.701  24.293  26.507  1.00  0.00     0.010 A 
ATOM     33  C   UNL A   1      41.250  23.045  27.883  1.00  0.00     0.010 A 
ATOM     34  C   UNL A   1      40.793  24.277  27.390  1.00  0.00    -0.014 A 
BRANCH  34  35
ATOM     35  C   UNL A   1      41.424  25.566  27.775  1.00  0.00     0.031 A 
ATOM     36  C   UNL A   1      42.811  25.920  27.309  1.00  0.00     0.074 A 
ATOM     37  C   UNL A   1      40.706  26.452  28.494  1.00  0.00     0.049 A 
ATOM     38  N   UNL A   1      43.487  27.021  27.518  1.00  0.00    -0.248 NA
ATOM     39  C   UNL A   1      43.539  24.919  26.511  1.00  0.00     0.031 C 
ATOM     40  C   UNL A   1      39.358  26.215  29.016  1.00  0.00     0.029 A 
ATOM     41  N   UNL A   1      40.990  27.736  28.882  1.00  0.00    -0.354 N 
ATOM     42  C   UNL A   1      44.730  26.826  26.928  1.00  0.00     0.074 A 
ATOM     43  C   UNL A   1      44.719  25.503  26.345  1.00  0.00     0.031 C 
ATOM     44  C   UNL A   1      38.907  27.336  29.595  1.00  0.00     0.029 A 
ATOM     45  C   UNL A   1      39.953  28.350  29.544  1.00  0.00     0.049 A 
ATOM     46  H   UNL A   1      41.853  28.175  28.705  1.00  0.00     0.167 HD
ATOM     47  C   UNL A   1      45.778  27.680  26.861  1.00  0.00     0.034 A 
ATOM     48  C   UNL A   1      39.851  29.589  30.060  1.00  0.00     0.034 A 
ATOM     49  C   UNL A   1      45.763  29.020  27.379  1.00  0.00     0.049 A 
ATOM     50  C   UNL A   1      41.014  30.528  29.940  1.00  0.00     0.074 A 
ATOM     51  C   UNL A   1      46.765  29.973  27.320  1.00  0.00     0.029 A 
ATOM     52  N   UNL A   1      44.692  29.603  28.037  1.00  0.00    -0.354 N 
ATOM     53  N   UNL A   1      42.158  30.339  29.329  1.00  0.00    -0.248 NA
ATOM     54  C   UNL A   1      40.876  31.846  30.573  1.00  0.00     0.031 C 
ATOM     55  C   UNL A   1      46.298  31.135  27.942  1.00  0.00     0.029 A 
ATOM     56  C   UNL A   1      45.006  30.905  28.385  1.00  0.00     0.049 A 
ATOM     57  H   UNL A   1      43.835  29.158  28.229  1.00  0.00     0.167 HD
ATOM     58  C   UNL A   1      42.876  31.514  29.499  1.00  0.00     0.074 A 
ATOM     59  C   UNL A   1      42.028  32.420  30.248  1.00  0.00     0.031 C 
ATOM     60  C   UNL A   1      44.134  31.806  29.091  1.00  0.00     0.034 A 
BRANCH  47  61
ATOM     61  C   UNL A   1      47.024  27.220  26.157  1.00  0.00     0.023 A 
ATOM     62  C   UNL A   1      47.206  27.543  24.798  1.00  0.00     0.012 A 
ATOM     63  C   UNL A   1      48.054  26.566  26.861  1.00  0.00     0.148 A 
ATOM     64  C   UNL A   1      48.394  27.214  24.146  1.00  0.00     0.002 A 
ATOM     65  C   UNL A   1      49.245  26.265  26.211  1.00  0.00     0.091 A 
ATOM     66  F   UNL A   1      47.849  26.257  28.149  1.00  0.00    -0.205 F 
ATOM     67  C   UNL A   1      49.415  26.586  24.854  1.00  0.00     0.022 A 
BRANCH  65  68
ATOM     68  S   UNL A   1      50.644  25.505  27.043  1.00  0.00     0.127 S 
ATOM     69  O   UNL A   1      50.030  24.309  27.619  1.00  0.00    -0.237 OA
ATOM     70  O   UNL A   1      51.558  25.245  25.931  1.00  0.00    -0.237 OA
ATOM     71  O   UNL A   1      51.121  26.484  28.010  1.00  0.00    -0.744 OA
ENDBRANCH  65  68
ENDBRANCH  47  61
BRANCH  48  72
ATOM     72  C   UNL A   1      38.571  30.009  30.691  1.00  0.00     0.023 A 
ATOM     73  C   UNL A   1      38.378  29.790  32.067  1.00  0.00     0.012 A 
ATOM     74  C   UNL A   1      37.595  30.713  29.957  1.00  0.00     0.148 A 
ATOM     75  C   UNL A   1      37.232  30.268  32.705  1.00  0.00     0.002 A 
ATOM     76  C   UNL A   1      36.482  31.226  30.608  1.00  0.00     0.091 A 
ATOM     77  F   UNL A   1      37.803  30.900  28.646  1.00  0.00    -0.205 F 
ATOM     78  C   UNL A   1      36.292  30.996  31.980  1.00  0.00     0.022 A 
BRANCH  76  79
ATOM     79  S   UNL A   1      35.286  32.285  29.786  1.00  0.00     0.127 S 
ATOM     80  O   UNL A   1      34.346  32.569  30.867  1.00  0.00    -0.237 OA
ATOM     81  O   UNL A   1      36.120  33.418  29.380  1.00  0.00    -0.237 OA
ATOM     82  O   UNL A   1      34.756  31.500  28.680  1.00  0.00    -0.744 OA
ENDBRANCH  76  79
ENDBRANCH  48  72
BRANCH  60  83
ATOM     83  C   UNL A   1      44.686  33.158  29.437  1.00  0.00     0.023 A 
ATOM     84  C   UNL A   1      45.417  33.315  30.629  1.00  0.00     0.012 A 
ATOM     85  C   UNL A   1      44.587  34.232  28.531  1.00  0.00     0.148 A 
ATOM     86  C   UNL A   1      46.040  34.527  30.921  1.00  0.00     0.002 A 
ATOM     87  C   UNL A   1      45.237  35.426  28.813  1.00  0.00     0.091 A 
ATOM     88  F   UNL A   1      43.876  34.055  27.409  1.00  0.00    -0.205 F 
ATOM     89  C   UNL A   1      45.961  35.576  30.008  1.00  0.00     0.022 A 
BRANCH  87  90
ATOM     90  S   UNL A   1      45.254  36.810  27.669  1.00  0.00     0.127 S 
ATOM     91  O   UNL A   1      43.834  37.147  27.588  1.00  0.00    -0.237 OA
ATOM     92  O   UNL A   1      46.076  37.790  28.381  1.00  0.00    -0.237 OA
ATOM     93  O   UNL A   1      45.844  36.308  26.435  1.00  0.00    -0.744 OA
ENDBRANCH  87  90
ENDBRANCH  60  83
ENDBRANCH  34  35
ENDBRANCH  26  29
ENDBRANCH   1  25
TORSDOF 15
ENDMDL
