MODEL 1
REMARK VINA RESULT:     -12.0      0.000      0.000
REMARK SMILES C=Cc1cncc(-c2ccc([C@@H](C)C(=O)NCCCNC(=O)c3ccc(-c4c5nc(c(-c6cccc(S(=O)(=O)[O-])c6F)c6ccc([nH]6)c(-c6cccc(S(=O)(=O)[O-])c6F)c6nc(c(-c7cccc(S(=O)(=O)[O-])c7F)c7ccc4[nH]7)C=C6)C=C5)cc3)cc2)c1
REMARK SMILES IDX 18 1 17 2 16 3 14 4 15 5 12 7 13 8 11 9 8 10 9 11 87 12
REMARK SMILES IDX 10 13 86 14 7 15 3 16 4 17 88 18 5 19 6 20 2 21 1 22 19 23
REMARK SMILES IDX 20 24 21 25 22 27 23 28 24 29 85 30 25 31 84 32 26 33 27 34
REMARK SMILES IDX 28 35 78 36 29 37 83 38 77 39 79 40 30 41 82 42 76 43 75 44
REMARK SMILES IDX 31 46 63 47 43 48 62 49 44 50 47 51 61 52 80 53 45 54 46 55
REMARK SMILES IDX 60 57 81 58 48 59 32 60 33 61 41 62 34 63 36 64 42 65 35 66
REMARK SMILES IDX 37 67 38 68 39 69 40 70 64 71 65 72 73 73 66 74 68 75 74 76
REMARK SMILES IDX 67 77 69 78 70 79 71 80 72 81 49 82 50 83 58 84 51 85 53 86
REMARK SMILES IDX 59 87 52 88 54 89 55 90 56 91 57 92
REMARK H PARENT 16 6 20 26 79 45 47 56
REMARK Flexibility Score: inf
ROOT
ATOM      1  C   UNL A   1      31.413  32.327  26.462  1.00  0.00     0.042 C 
ENDROOT
BRANCH   1   2
ATOM      2  C   UNL A   1      31.306  30.813  26.310  1.00  0.00     0.117 C 
BRANCH   2   3
ATOM      3  N   UNL A   1      32.004  30.320  25.138  1.00  0.00    -0.356 N 
ATOM      4  C   UNL A   1      32.835  29.260  24.949  1.00  0.00     0.227 C 
ATOM      5  O   UNL A   1      33.300  29.130  23.808  1.00  0.00    -0.274 OA
ATOM      6  H   UNL A   1      31.846  30.854  24.326  1.00  0.00     0.163 HD
BRANCH   4   7
ATOM      7  C   UNL A   1      33.191  28.236  26.036  1.00  0.00     0.105 C 
ATOM      8  C   UNL A   1      34.447  28.581  26.837  1.00  0.00     0.023 C 
BRANCH   7   9
ATOM      9  C   UNL A   1      33.081  26.790  25.579  1.00  0.00    -0.036 A 
ATOM     10  C   UNL A   1      32.833  24.113  24.603  1.00  0.00    -0.017 A 
ATOM     11  C   UNL A   1      34.058  24.625  25.063  1.00  0.00     0.009 A 
ATOM     12  C   UNL A   1      31.728  24.974  24.653  1.00  0.00     0.009 A 
ATOM     13  C   UNL A   1      34.171  25.919  25.575  1.00  0.00     0.005 A 
ATOM     14  C   UNL A   1      31.853  26.293  25.117  1.00  0.00     0.005 A 
BRANCH  10  15
ATOM     15  C   UNL A   1      32.744  22.726  24.106  1.00  0.00     0.001 A 
ATOM     16  C   UNL A   1      33.099  20.317  24.311  1.00  0.00    -0.007 A 
ATOM     17  C   UNL A   1      32.392  20.167  23.120  1.00  0.00     0.119 A 
ATOM     18  C   UNL A   1      33.276  21.623  24.795  1.00  0.00     0.020 A 
ATOM     19  N   UNL A   1      31.920  21.201  22.387  1.00  0.00    -0.263 NA
ATOM     20  C   UNL A   1      32.095  22.433  22.904  1.00  0.00     0.119 A 
BRANCH  16  21
ATOM     21  C   UNL A   1      33.674  19.134  24.963  1.00  0.00     0.002 C 
ATOM     22  C   UNL A   1      34.175  18.070  24.322  1.00  0.00     0.009 C 
ENDBRANCH  16  21
ENDBRANCH  10  15
ENDBRANCH   7   9
ENDBRANCH   4   7
ENDBRANCH   2   3
ENDBRANCH   1   2
BRANCH   1  23
ATOM     23  C   UNL A   1      32.589  32.782  27.316  1.00  0.00     0.118 C 
BRANCH  23  24
ATOM     24  N   UNL A   1      32.480  34.181  27.708  1.00  0.00    -0.352 N 
ATOM     25  C   UNL A   1      33.122  34.885  28.698  1.00  0.00     0.251 C 
ATOM     26  H   UNL A   1      31.841  34.708  27.176  1.00  0.00     0.163 HD
ATOM     27  O   UNL A   1      32.713  36.009  28.987  1.00  0.00    -0.269 OA
BRANCH  25  28
ATOM     28  C   UNL A   1      34.283  34.316  29.421  1.00  0.00     0.039 A 
ATOM     29  C   UNL A   1      34.056  33.591  30.596  1.00  0.00     0.014 A 
ATOM     30  C   UNL A   1      35.591  34.533  28.984  1.00  0.00     0.014 A 
ATOM     31  C   UNL A   1      35.135  33.043  31.299  1.00  0.00     0.010 A 
ATOM     32  C   UNL A   1      36.656  33.915  29.636  1.00  0.00     0.010 A 
ATOM     33  C   UNL A   1      36.444  33.177  30.808  1.00  0.00    -0.014 A 
BRANCH  33  34
ATOM     34  C   UNL A   1      37.602  32.560  31.506  1.00  0.00     0.031 A 
ATOM     35  C   UNL A   1      38.353  31.421  30.868  1.00  0.00     0.074 A 
ATOM     36  C   UNL A   1      37.920  32.962  32.753  1.00  0.00     0.049 A 
ATOM     37  N   UNL A   1      39.345  30.715  31.347  1.00  0.00    -0.248 NA
ATOM     38  C   UNL A   1      37.915  31.000  29.526  1.00  0.00     0.031 C 
ATOM     39  C   UNL A   1      37.221  34.001  33.512  1.00  0.00     0.029 A 
ATOM     40  N   UNL A   1      38.895  32.524  33.615  1.00  0.00    -0.354 N 
ATOM     41  C   UNL A   1      39.615  29.740  30.393  1.00  0.00     0.074 A 
ATOM     42  C   UNL A   1      38.665  29.927  29.319  1.00  0.00     0.031 C 
ATOM     43  C   UNL A   1      37.794  34.127  34.719  1.00  0.00     0.029 A 
ATOM     44  C   UNL A   1      38.879  33.160  34.834  1.00  0.00     0.049 A 
ATOM     45  H   UNL A   1      39.545  31.822  33.381  1.00  0.00     0.167 HD
ATOM     46  C   UNL A   1      40.583  28.792  30.397  1.00  0.00     0.034 A 
ATOM     47  C   UNL A   1      39.651  32.980  35.925  1.00  0.00     0.034 A 
ATOM     48  C   UNL A   1      41.561  28.646  31.440  1.00  0.00     0.049 A 
ATOM     49  C   UNL A   1      40.752  31.955  35.881  1.00  0.00     0.074 A 
ATOM     50  C   UNL A   1      42.648  27.792  31.487  1.00  0.00     0.029 A 
ATOM     51  N   UNL A   1      41.568  29.368  32.623  1.00  0.00    -0.354 N 
ATOM     52  N   UNL A   1      41.098  31.156  34.899  1.00  0.00    -0.248 NA
ATOM     53  C   UNL A   1      41.589  31.828  37.082  1.00  0.00     0.031 C 
ATOM     54  C   UNL A   1      43.298  27.979  32.711  1.00  0.00     0.029 A 
ATOM     55  C   UNL A   1      42.632  28.970  33.414  1.00  0.00     0.049 A 
ATOM     56  H   UNL A   1      40.914  30.063  32.864  1.00  0.00     0.167 HD
ATOM     57  C   UNL A   1      42.215  30.462  35.349  1.00  0.00     0.074 A 
ATOM     58  C   UNL A   1      42.498  30.948  36.685  1.00  0.00     0.031 C 
ATOM     59  C   UNL A   1      42.934  29.500  34.720  1.00  0.00     0.034 A 
BRANCH  46  60
ATOM     60  C   UNL A   1      40.665  27.867  29.208  1.00  0.00     0.023 A 
ATOM     61  C   UNL A   1      39.826  26.735  29.145  1.00  0.00     0.012 A 
ATOM     62  C   UNL A   1      41.530  28.145  28.131  1.00  0.00     0.148 A 
ATOM     63  C   UNL A   1      39.875  25.875  28.049  1.00  0.00     0.002 A 
ATOM     64  C   UNL A   1      41.539  27.308  27.021  1.00  0.00     0.091 A 
ATOM     65  F   UNL A   1      42.336  29.214  28.216  1.00  0.00    -0.205 F 
ATOM     66  C   UNL A   1      40.722  26.166  26.985  1.00  0.00     0.022 A 
BRANCH  64  67
ATOM     67  S   UNL A   1      42.537  27.642  25.565  1.00  0.00     0.127 S 
ATOM     68  O   UNL A   1      41.943  28.886  25.079  1.00  0.00    -0.237 OA
ATOM     69  O   UNL A   1      43.876  27.789  26.135  1.00  0.00    -0.237 OA
ATOM     70  O   UNL A   1      42.373  26.487  24.694  1.00  0.00    -0.744 OA
ENDBRANCH  64  67
ENDBRANCH  46  60
BRANCH  47  71
ATOM     71  C   UNL A   1      39.465  33.849  37.122  1.00  0.00     0.023 A 
ATOM     72  C   UNL A   1      39.928  35.179  37.078  1.00  0.00     0.012 A 
ATOM     73  C   UNL A   1      38.820  33.383  38.285  1.00  0.00     0.148 A 
ATOM     74  C   UNL A   1      39.780  36.021  38.180  1.00  0.00     0.002 A 
ATOM     75  C   UNL A   1      38.636  34.241  39.363  1.00  0.00     0.091 A 
ATOM     76  F   UNL A   1      38.392  32.113  38.307  1.00  0.00    -0.205 F 
ATOM     77  C   UNL A   1      39.127  35.555  39.317  1.00  0.00     0.022 A 
BRANCH  75  78
ATOM     78  S   UNL A   1      37.717  33.771  40.834  1.00  0.00     0.127 S 
ATOM     79  O   UNL A   1      38.649  32.855  41.489  1.00  0.00    -0.237 OA
ATOM     80  O   UNL A   1      37.548  35.060  41.504  1.00  0.00    -0.237 OA
ATOM     81  O   UNL A   1      36.480  33.166  40.356  1.00  0.00    -0.744 OA
ENDBRANCH  75  78
ENDBRANCH  47  71
BRANCH  59  82
ATOM     82  C   UNL A   1      44.121  28.924  35.446  1.00  0.00     0.023 A 
ATOM     83  C   UNL A   1      45.393  29.508  35.283  1.00  0.00     0.012 A 
ATOM     84  C   UNL A   1      43.961  27.855  36.350  1.00  0.00     0.148 A 
ATOM     85  C   UNL A   1      46.493  29.017  35.986  1.00  0.00     0.002 A 
ATOM     86  C   UNL A   1      45.051  27.404  37.083  1.00  0.00     0.091 A 
ATOM     87  F   UNL A   1      42.747  27.301  36.476  1.00  0.00    -0.205 F 
ATOM     88  C   UNL A   1      46.320  27.975  36.894  1.00  0.00     0.022 A 
BRANCH  86  89
ATOM     89  S   UNL A   1      44.903  26.134  38.346  1.00  0.00     0.127 S 
ATOM     90  O   UNL A   1      46.261  26.089  38.884  1.00  0.00    -0.237 OA
ATOM     91  O   UNL A   1      43.906  26.710  39.250  1.00  0.00    -0.237 OA
ATOM     92  O   UNL A   1      44.463  24.930  37.653  1.00  0.00    -0.744 OA
ENDBRANCH  86  89
ENDBRANCH  59  82
ENDBRANCH  33  34
ENDBRANCH  25  28
ENDBRANCH  23  24
ENDBRANCH   1  23
TORSDOF 16
ENDMDL
MODEL 2
REMARK VINA RESULT:     -11.9      1.608      1.973
REMARK SMILES C=Cc1cncc(-c2ccc([C@@H](C)C(=O)NCCCNC(=O)c3ccc(-c4c5nc(c(-c6cccc(S(=O)(=O)[O-])c6F)c6ccc([nH]6)c(-c6cccc(S(=O)(=O)[O-])c6F)c6nc(c(-c7cccc(S(=O)(=O)[O-])c7F)c7ccc4[nH]7)C=C6)C=C5)cc3)cc2)c1
REMARK SMILES IDX 18 1 17 2 16 3 14 4 15 5 12 7 13 8 11 9 8 10 9 11 87 12
REMARK SMILES IDX 10 13 86 14 7 15 3 16 4 17 88 18 5 19 6 20 2 21 1 22 19 23
REMARK SMILES IDX 20 24 21 25 22 27 23 28 24 29 85 30 25 31 84 32 26 33 27 34
REMARK SMILES IDX 28 35 78 36 29 37 83 38 77 39 79 40 30 41 82 42 76 43 75 44
REMARK SMILES IDX 31 46 63 47 43 48 62 49 44 50 47 51 61 52 80 53 45 54 46 55
REMARK SMILES IDX 60 57 81 58 48 59 32 60 33 61 41 62 34 63 36 64 42 65 35 66
REMARK SMILES IDX 37 67 38 68 39 69 40 70 64 71 65 72 73 73 66 74 68 75 74 76
REMARK SMILES IDX 67 77 69 78 70 79 71 80 72 81 49 82 50 83 58 84 51 85 53 86
REMARK SMILES IDX 59 87 52 88 54 89 55 90 56 91 57 92
REMARK H PARENT 16 6 20 26 79 45 47 56
REMARK Flexibility Score: inf
ROOT
ATOM      1  C   UNL A   1      31.045  32.053  26.128  1.00  0.00     0.042 C 
ENDROOT
BRANCH   1   2
ATOM      2  C   UNL A   1      30.931  30.559  25.841  1.00  0.00     0.117 C 
BRANCH   2   3
ATOM      3  N   UNL A   1      31.923  30.097  24.889  1.00  0.00    -0.356 N 
ATOM      4  C   UNL A   1      32.963  29.227  25.004  1.00  0.00     0.227 C 
ATOM      5  O   UNL A   1      33.655  29.070  23.989  1.00  0.00    -0.274 OA
ATOM      6  H   UNL A   1      31.826  30.488  23.991  1.00  0.00     0.163 HD
BRANCH   4   7
ATOM      7  C   UNL A   1      33.291  28.435  26.278  1.00  0.00     0.105 C 
ATOM      8  C   UNL A   1      34.462  29.002  27.085  1.00  0.00     0.023 C 
BRANCH   7   9
ATOM      9  C   UNL A   1      33.299  26.928  26.082  1.00  0.00    -0.036 A 
ATOM     10  C   UNL A   1      33.213  24.106  25.630  1.00  0.00    -0.017 A 
ATOM     11  C   UNL A   1      34.361  24.866  25.355  1.00  0.00     0.009 A 
ATOM     12  C   UNL A   1      32.106  24.793  26.148  1.00  0.00     0.009 A 
ATOM     13  C   UNL A   1      34.417  26.238  25.612  1.00  0.00     0.005 A 
ATOM     14  C   UNL A   1      32.143  26.181  26.354  1.00  0.00     0.005 A 
BRANCH  10  15
ATOM     15  C   UNL A   1      33.206  22.650  25.383  1.00  0.00     0.001 A 
ATOM     16  C   UNL A   1      34.311  20.493  25.074  1.00  0.00    -0.007 A 
ATOM     17  C   UNL A   1      33.046  19.910  25.052  1.00  0.00     0.119 A 
ATOM     18  C   UNL A   1      34.375  21.887  25.234  1.00  0.00     0.020 A 
ATOM     19  N   UNL A   1      31.891  20.609  25.124  1.00  0.00    -0.263 NA
ATOM     20  C   UNL A   1      32.004  21.941  25.301  1.00  0.00     0.119 A 
BRANCH  16  21
ATOM     21  C   UNL A   1      35.496  19.652  24.865  1.00  0.00     0.002 C 
ATOM     22  C   UNL A   1      36.763  20.088  24.893  1.00  0.00     0.009 C 
ENDBRANCH  16  21
ENDBRANCH  10  15
ENDBRANCH   7   9
ENDBRANCH   4   7
ENDBRANCH   2   3
ENDBRANCH   1   2
BRANCH   1  23
ATOM     23  C   UNL A   1      32.369  32.463  26.758  1.00  0.00     0.118 C 
BRANCH  23  24
ATOM     24  N   UNL A   1      32.345  33.834  27.252  1.00  0.00    -0.352 N 
ATOM     25  C   UNL A   1      33.066  34.436  28.256  1.00  0.00     0.251 C 
ATOM     26  H   UNL A   1      31.708  34.426  26.792  1.00  0.00     0.163 HD
ATOM     27  O   UNL A   1      32.725  35.552  28.643  1.00  0.00    -0.269 OA
BRANCH  25  28
ATOM     28  C   UNL A   1      34.232  33.765  28.877  1.00  0.00     0.039 A 
ATOM     29  C   UNL A   1      35.507  34.303  28.673  1.00  0.00     0.014 A 
ATOM     30  C   UNL A   1      34.090  32.585  29.609  1.00  0.00     0.014 A 
ATOM     31  C   UNL A   1      36.626  33.689  29.247  1.00  0.00     0.010 A 
ATOM     32  C   UNL A   1      35.192  32.024  30.251  1.00  0.00     0.010 A 
ATOM     33  C   UNL A   1      36.474  32.559  30.065  1.00  0.00    -0.014 A 
BRANCH  33  34
ATOM     34  C   UNL A   1      37.638  31.918  30.730  1.00  0.00     0.031 A 
ATOM     35  C   UNL A   1      38.437  30.863  30.009  1.00  0.00     0.074 A 
ATOM     36  C   UNL A   1      37.920  32.215  32.014  1.00  0.00     0.049 A 
ATOM     37  N   UNL A   1      39.442  30.147  30.444  1.00  0.00    -0.248 NA
ATOM     38  C   UNL A   1      38.037  30.551  28.626  1.00  0.00     0.031 C 
ATOM     39  C   UNL A   1      37.174  33.161  32.848  1.00  0.00     0.029 A 
ATOM     40  N   UNL A   1      38.893  31.732  32.854  1.00  0.00    -0.354 N 
ATOM     41  C   UNL A   1      39.760  29.271  29.413  1.00  0.00     0.074 A 
ATOM     42  C   UNL A   1      38.825  29.524  28.340  1.00  0.00     0.031 C 
ATOM     43  C   UNL A   1      37.721  33.195  34.073  1.00  0.00     0.029 A 
ATOM     44  C   UNL A   1      38.834  32.254  34.124  1.00  0.00     0.049 A 
ATOM     45  H   UNL A   1      39.569  31.073  32.572  1.00  0.00     0.167 HD
ATOM     46  C   UNL A   1      40.758  28.356  29.352  1.00  0.00     0.034 A 
ATOM     47  C   UNL A   1      39.592  32.001  35.211  1.00  0.00     0.034 A 
ATOM     48  C   UNL A   1      41.721  28.147  30.399  1.00  0.00     0.049 A 
ATOM     49  C   UNL A   1      40.725  31.017  35.098  1.00  0.00     0.074 A 
ATOM     50  C   UNL A   1      42.834  27.325  30.392  1.00  0.00     0.029 A 
ATOM     51  N   UNL A   1      41.683  28.759  31.641  1.00  0.00    -0.354 N 
ATOM     52  N   UNL A   1      41.115  30.321  34.058  1.00  0.00    -0.248 NA
ATOM     53  C   UNL A   1      41.544  30.809  36.301  1.00  0.00     0.031 C 
ATOM     54  C   UNL A   1      43.455  27.421  31.642  1.00  0.00     0.029 A 
ATOM     55  C   UNL A   1      42.745  28.324  32.416  1.00  0.00     0.049 A 
ATOM     56  H   UNL A   1      41.003  29.409  31.930  1.00  0.00     0.167 HD
ATOM     57  C   UNL A   1      42.245  29.623  34.467  1.00  0.00     0.074 A 
ATOM     58  C   UNL A   1      42.487  29.996  35.847  1.00  0.00     0.031 C 
ATOM     59  C   UNL A   1      43.006  28.744  33.770  1.00  0.00     0.034 A 
BRANCH  46  60
ATOM     60  C   UNL A   1      40.892  27.545  28.088  1.00  0.00     0.023 A 
ATOM     61  C   UNL A   1      41.498  28.118  26.951  1.00  0.00     0.012 A 
ATOM     62  C   UNL A   1      40.468  26.202  28.040  1.00  0.00     0.148 A 
ATOM     63  C   UNL A   1      41.645  27.382  25.776  1.00  0.00     0.002 A 
ATOM     64  C   UNL A   1      40.660  25.460  26.880  1.00  0.00     0.091 A 
ATOM     65  F   UNL A   1      39.874  25.678  29.122  1.00  0.00    -0.205 F 
ATOM     66  C   UNL A   1      41.236  26.053  25.744  1.00  0.00     0.022 A 
BRANCH  64  67
ATOM     67  S   UNL A   1      40.240  23.717  26.765  1.00  0.00     0.127 S 
ATOM     68  O   UNL A   1      41.198  23.248  25.764  1.00  0.00    -0.237 OA
ATOM     69  O   UNL A   1      40.501  23.245  28.125  1.00  0.00    -0.237 OA
ATOM     70  O   UNL A   1      38.842  23.668  26.365  1.00  0.00    -0.744 OA
ENDBRANCH  64  67
ENDBRANCH  46  60
BRANCH  47  71
ATOM     71  C   UNL A   1      39.356  32.753  36.477  1.00  0.00     0.023 A 
ATOM     72  C   UNL A   1      40.021  33.979  36.675  1.00  0.00     0.012 A 
ATOM     73  C   UNL A   1      38.470  32.282  37.465  1.00  0.00     0.148 A 
ATOM     74  C   UNL A   1      39.834  34.708  37.850  1.00  0.00     0.002 A 
ATOM     75  C   UNL A   1      38.253  33.036  38.614  1.00  0.00     0.091 A 
ATOM     76  F   UNL A   1      37.851  31.112  37.258  1.00  0.00    -0.205 F 
ATOM     77  C   UNL A   1      38.944  34.242  38.813  1.00  0.00     0.022 A 
BRANCH  75  78
ATOM     78  S   UNL A   1      37.051  32.575  39.867  1.00  0.00     0.127 S 
ATOM     79  O   UNL A   1      37.587  31.302  40.342  1.00  0.00    -0.237 OA
ATOM     80  O   UNL A   1      37.168  33.684  40.813  1.00  0.00    -0.237 OA
ATOM     81  O   UNL A   1      35.768  32.494  39.180  1.00  0.00    -0.744 OA
ENDBRANCH  75  78
ENDBRANCH  47  71
BRANCH  59  82
ATOM     82  C   UNL A   1      44.197  28.142  34.467  1.00  0.00     0.023 A 
ATOM     83  C   UNL A   1      45.433  28.818  34.453  1.00  0.00     0.012 A 
ATOM     84  C   UNL A   1      44.071  26.946  35.201  1.00  0.00     0.148 A 
ATOM     85  C   UNL A   1      46.533  28.297  35.134  1.00  0.00     0.002 A 
ATOM     86  C   UNL A   1      45.157  26.459  35.918  1.00  0.00     0.091 A 
ATOM     87  F   UNL A   1      42.892  26.308  35.186  1.00  0.00    -0.205 F 
ATOM     88  C   UNL A   1      46.392  27.127  35.876  1.00  0.00     0.022 A 
BRANCH  86  89
ATOM     89  S   UNL A   1      45.041  25.015  36.979  1.00  0.00     0.127 S 
ATOM     90  O   UNL A   1      43.983  25.410  37.907  1.00  0.00    -0.237 OA
ATOM     91  O   UNL A   1      44.662  23.963  36.034  1.00  0.00    -0.237 OA
ATOM     92  O   UNL A   1      46.362  24.846  37.571  1.00  0.00    -0.744 OA
ENDBRANCH  86  89
ENDBRANCH  59  82
ENDBRANCH  33  34
ENDBRANCH  25  28
ENDBRANCH  23  24
ENDBRANCH   1  23
TORSDOF 16
ENDMDL
MODEL 3
REMARK VINA RESULT:     -11.9      5.891     10.649
REMARK SMILES C=Cc1cncc(-c2ccc([C@@H](C)C(=O)NCCCNC(=O)c3ccc(-c4c5nc(c(-c6cccc(S(=O)(=O)[O-])c6F)c6ccc([nH]6)c(-c6cccc(S(=O)(=O)[O-])c6F)c6nc(c(-c7cccc(S(=O)(=O)[O-])c7F)c7ccc4[nH]7)C=C6)C=C5)cc3)cc2)c1
REMARK SMILES IDX 18 1 17 2 16 3 14 4 15 5 12 7 13 8 11 9 8 10 9 11 87 12
REMARK SMILES IDX 10 13 86 14 7 15 3 16 4 17 88 18 5 19 6 20 2 21 1 22 19 23
REMARK SMILES IDX 20 24 21 25 22 27 23 28 24 29 85 30 25 31 84 32 26 33 27 34
REMARK SMILES IDX 28 35 78 36 29 37 83 38 77 39 79 40 30 41 82 42 76 43 75 44
REMARK SMILES IDX 31 46 63 47 43 48 62 49 44 50 47 51 61 52 80 53 45 54 46 55
REMARK SMILES IDX 60 57 81 58 48 59 32 60 33 61 41 62 34 63 36 64 42 65 35 66
REMARK SMILES IDX 37 67 38 68 39 69 40 70 64 71 65 72 73 73 66 74 68 75 74 76
REMARK SMILES IDX 67 77 69 78 70 79 71 80 72 81 49 82 50 83 58 84 51 85 53 86
REMARK SMILES IDX 59 87 52 88 54 89 55 90 56 91 57 92
REMARK H PARENT 16 6 20 26 79 45 47 56
REMARK Flexibility Score: inf
ROOT
ATOM      1  C   UNL A   1      41.458  20.174  26.097  1.00  0.00     0.042 C 
ENDROOT
BRANCH   1   2
ATOM      2  C   UNL A   1      42.895  20.070  26.601  1.00  0.00     0.117 C 
BRANCH   2   3
ATOM      3  N   UNL A   1      43.859  20.572  25.641  1.00  0.00    -0.356 N 
ATOM      4  C   UNL A   1      44.137  21.828  25.198  1.00  0.00     0.227 C 
ATOM      5  O   UNL A   1      45.019  21.916  24.332  1.00  0.00    -0.274 OA
ATOM      6  H   UNL A   1      44.417  19.871  25.232  1.00  0.00     0.163 HD
BRANCH   4   7
ATOM      7  C   UNL A   1      43.457  23.100  25.722  1.00  0.00     0.105 C 
ATOM      8  C   UNL A   1      43.638  24.324  24.823  1.00  0.00     0.023 C 
BRANCH   7   9
ATOM      9  C   UNL A   1      43.665  23.342  27.209  1.00  0.00    -0.036 A 
ATOM     10  C   UNL A   1      44.120  23.907  29.975  1.00  0.00    -0.017 A 
ATOM     11  C   UNL A   1      42.825  23.763  29.450  1.00  0.00     0.009 A 
ATOM     12  C   UNL A   1      45.187  23.750  29.080  1.00  0.00     0.009 A 
ATOM     13  C   UNL A   1      42.603  23.449  28.107  1.00  0.00     0.005 A 
ATOM     14  C   UNL A   1      44.964  23.489  27.719  1.00  0.00     0.005 A 
BRANCH  10  15
ATOM     15  C   UNL A   1      44.315  24.199  31.409  1.00  0.00     0.001 A 
ATOM     16  C   UNL A   1      44.424  23.554  33.763  1.00  0.00    -0.007 A 
ATOM     17  C   UNL A   1      44.838  24.854  34.043  1.00  0.00     0.119 A 
ATOM     18  C   UNL A   1      44.154  23.239  32.421  1.00  0.00     0.020 A 
ATOM     19  N   UNL A   1      44.942  25.831  33.114  1.00  0.00    -0.263 NA
ATOM     20  C   UNL A   1      44.696  25.474  31.837  1.00  0.00     0.119 A 
BRANCH  16  21
ATOM     21  C   UNL A   1      44.226  22.606  34.867  1.00  0.00     0.002 C 
ATOM     22  C   UNL A   1      45.196  21.887  35.447  1.00  0.00     0.009 C 
ENDBRANCH  16  21
ENDBRANCH  10  15
ENDBRANCH   7   9
ENDBRANCH   4   7
ENDBRANCH   2   3
ENDBRANCH   1   2
BRANCH   1  23
ATOM     23  C   UNL A   1      40.609  21.185  26.856  1.00  0.00     0.118 C 
BRANCH  23  24
ATOM     24  N   UNL A   1      39.365  21.494  26.162  1.00  0.00    -0.352 N 
ATOM     25  C   UNL A   1      38.626  22.651  26.123  1.00  0.00     0.251 C 
ATOM     26  H   UNL A   1      38.993  20.750  25.635  1.00  0.00     0.163 HD
ATOM     27  O   UNL A   1      37.493  22.616  25.643  1.00  0.00    -0.269 OA
BRANCH  25  28
ATOM     28  C   UNL A   1      39.163  23.928  26.650  1.00  0.00     0.039 A 
ATOM     29  C   UNL A   1      39.895  24.756  25.793  1.00  0.00     0.014 A 
ATOM     30  C   UNL A   1      39.000  24.290  27.989  1.00  0.00     0.014 A 
ATOM     31  C   UNL A   1      40.416  25.966  26.265  1.00  0.00     0.010 A 
ATOM     32  C   UNL A   1      39.443  25.533  28.435  1.00  0.00     0.010 A 
ATOM     33  C   UNL A   1      40.169  26.379  27.585  1.00  0.00    -0.014 A 
BRANCH  33  34
ATOM     34  C   UNL A   1      40.664  27.683  28.097  1.00  0.00     0.031 A 
ATOM     35  C   UNL A   1      42.143  27.970  28.137  1.00  0.00     0.074 A 
ATOM     36  C   UNL A   1      39.792  28.571  28.613  1.00  0.00     0.049 A 
ATOM     37  N   UNL A   1      42.767  29.019  28.606  1.00  0.00    -0.248 NA
ATOM     38  C   UNL A   1      43.040  26.930  27.605  1.00  0.00     0.031 C 
ATOM     39  C   UNL A   1      38.342  28.379  28.705  1.00  0.00     0.029 A 
ATOM     40  N   UNL A   1      39.998  29.802  29.184  1.00  0.00    -0.354 N 
ATOM     41  C   UNL A   1      44.124  28.746  28.474  1.00  0.00     0.074 A 
ATOM     42  C   UNL A   1      44.234  27.421  27.905  1.00  0.00     0.031 C 
ATOM     43  C   UNL A   1      37.791  29.455  29.288  1.00  0.00     0.029 A 
ATOM     44  C   UNL A   1      38.845  30.399  29.639  1.00  0.00     0.049 A 
ATOM     45  H   UNL A   1      40.888  30.218  29.261  1.00  0.00     0.167 HD
ATOM     46  C   UNL A   1      45.184  29.536  28.771  1.00  0.00     0.034 A 
ATOM     47  C   UNL A   1      38.661  31.576  30.271  1.00  0.00     0.034 A 
ATOM     48  C   UNL A   1      45.069  30.874  29.283  1.00  0.00     0.049 A 
ATOM     49  C   UNL A   1      39.851  32.455  30.543  1.00  0.00     0.074 A 
ATOM     50  C   UNL A   1      46.074  31.796  29.514  1.00  0.00     0.029 A 
ATOM     51  N   UNL A   1      43.879  31.481  29.649  1.00  0.00    -0.354 N 
ATOM     52  N   UNL A   1      41.113  32.249  30.254  1.00  0.00    -0.248 NA
ATOM     53  C   UNL A   1      39.587  33.745  31.198  1.00  0.00     0.031 C 
ATOM     54  C   UNL A   1      45.493  32.952  30.045  1.00  0.00     0.029 A 
ATOM     55  C   UNL A   1      44.123  32.760  30.118  1.00  0.00     0.049 A 
ATOM     56  H   UNL A   1      42.989  31.064  29.584  1.00  0.00     0.167 HD
ATOM     57  C   UNL A   1      41.788  33.396  30.655  1.00  0.00     0.074 A 
ATOM     58  C   UNL A   1      40.791  34.301  31.191  1.00  0.00     0.031 C 
ATOM     59  C   UNL A   1      43.115  33.671  30.598  1.00  0.00     0.034 A 
BRANCH  46  60
ATOM     60  C   UNL A   1      46.564  28.991  28.502  1.00  0.00     0.023 A 
ATOM     61  C   UNL A   1      47.208  29.292  27.284  1.00  0.00     0.012 A 
ATOM     62  C   UNL A   1      47.245  28.229  29.472  1.00  0.00     0.148 A 
ATOM     63  C   UNL A   1      48.490  28.812  27.020  1.00  0.00     0.002 A 
ATOM     64  C   UNL A   1      48.541  27.792  29.220  1.00  0.00     0.091 A 
ATOM     65  F   UNL A   1      46.611  27.934  30.616  1.00  0.00    -0.205 F 
ATOM     66  C   UNL A   1      49.159  28.072  27.990  1.00  0.00     0.022 A 
BRANCH  64  67
ATOM     67  S   UNL A   1      49.516  26.901  30.437  1.00  0.00     0.127 S 
ATOM     68  O   UNL A   1      48.738  25.674  30.598  1.00  0.00    -0.237 OA
ATOM     69  O   UNL A   1      50.792  26.726  29.743  1.00  0.00    -0.237 OA
ATOM     70  O   UNL A   1      49.578  27.763  31.609  1.00  0.00    -0.744 OA
ENDBRANCH  64  67
ENDBRANCH  46  60
BRANCH  47  71
ATOM     71  C   UNL A   1      37.282  32.029  30.616  1.00  0.00     0.023 A 
ATOM     72  C   UNL A   1      36.811  31.843  31.931  1.00  0.00     0.012 A 
ATOM     73  C   UNL A   1      36.449  32.657  29.668  1.00  0.00     0.148 A 
ATOM     74  C   UNL A   1      35.525  32.246  32.290  1.00  0.00     0.002 A 
ATOM     75  C   UNL A   1      35.185  33.096  30.045  1.00  0.00     0.091 A 
ATOM     76  F   UNL A   1      36.915  32.819  28.422  1.00  0.00    -0.205 F 
ATOM     77  C   UNL A   1      34.717  32.879  31.351  1.00  0.00     0.022 A 
BRANCH  75  78
ATOM     78  S   UNL A   1      34.106  34.015  28.940  1.00  0.00     0.127 S 
ATOM     79  O   UNL A   1      33.097  34.526  29.864  1.00  0.00    -0.237 OA
ATOM     80  O   UNL A   1      35.018  35.024  28.404  1.00  0.00    -0.237 OA
ATOM     81  O   UNL A   1      33.622  33.050  27.960  1.00  0.00    -0.744 OA
ENDBRANCH  75  78
ENDBRANCH  47  71
BRANCH  59  82
ATOM     82  C   UNL A   1      43.573  35.017  31.096  1.00  0.00     0.023 A 
ATOM     83  C   UNL A   1      44.036  35.154  32.419  1.00  0.00     0.012 A 
ATOM     84  C   UNL A   1      43.617  36.126  30.228  1.00  0.00     0.148 A 
ATOM     85  C   UNL A   1      44.509  36.383  32.880  1.00  0.00     0.002 A 
ATOM     86  C   UNL A   1      44.135  37.333  30.680  1.00  0.00     0.091 A 
ATOM     87  F   UNL A   1      43.154  35.979  28.979  1.00  0.00    -0.205 F 
ATOM     88  C   UNL A   1      44.570  37.467  32.009  1.00  0.00     0.022 A 
BRANCH  86  89
ATOM     89  S   UNL A   1      44.345  38.754  29.601  1.00  0.00     0.127 S 
ATOM     90  O   UNL A   1      44.932  39.736  30.511  1.00  0.00    -0.237 OA
ATOM     91  O   UNL A   1      45.263  38.240  28.583  1.00  0.00    -0.237 OA
ATOM     92  O   UNL A   1      43.015  39.079  29.102  1.00  0.00    -0.744 OA
ENDBRANCH  86  89
ENDBRANCH  59  82
ENDBRANCH  33  34
ENDBRANCH  25  28
ENDBRANCH  23  24
ENDBRANCH   1  23
TORSDOF 16
ENDMDL
