MODEL 1
REMARK VINA RESULT:     -10.4      0.000      0.000
REMARK SMILES C=CCC(=O)N[C@@](C)(CC)C(=O)NCCCNC(=O)c1ccc(-c2c3nc(c(-c4cccc(S(=O)(=O)[O-])c4F)c4ccc([nH]4)c(-c4cccc(S(=O)(=O)[O-])c4F)c4nc(c(-c5cccc(S(=O)(=O)[O-])c5F)c5ccc2[nH]5)C=C4)C=C3)cc1
REMARK SMILES IDX 15 1 14 2 13 3 11 4 12 5 7 7 8 8 6 9 4 10 5 11 3 13 2 14
REMARK SMILES IDX 1 15 9 16 10 17 16 18 17 19 18 20 19 22 20 23 21 24 82 25
REMARK SMILES IDX 22 26 81 27 23 28 24 29 25 30 75 31 26 32 80 33 74 34 76 35
REMARK SMILES IDX 27 36 79 37 73 38 72 39 28 41 60 42 40 43 59 44 41 45 44 46
REMARK SMILES IDX 58 47 77 48 42 49 43 50 57 52 78 53 45 54 29 55 30 56 38 57
REMARK SMILES IDX 31 58 33 59 39 60 32 61 34 62 35 63 36 64 37 65 61 66 62 67
REMARK SMILES IDX 70 68 63 69 65 70 71 71 64 72 66 73 67 74 68 75 69 76 46 77
REMARK SMILES IDX 47 78 55 79 48 80 50 81 56 82 49 83 51 84 52 85 53 86 54 87
REMARK H PARENT 13 6 6 12 17 21 76 40 44 51
REMARK Flexibility Score: inf
ROOT
ATOM      1  C   UNL A   1      31.433  32.141  26.666  1.00  0.00     0.042 C 
ENDROOT
BRANCH   1   2
ATOM      2  C   UNL A   1      31.499  30.626  26.498  1.00  0.00     0.117 C 
BRANCH   2   3
ATOM      3  N   UNL A   1      32.497  30.259  25.509  1.00  0.00    -0.354 N 
ATOM      4  C   UNL A   1      32.802  29.013  25.043  1.00  0.00     0.245 C 
ATOM      5  O   UNL A   1      33.998  28.715  25.049  1.00  0.00    -0.272 OA
ATOM      6  H   UNL A   1      33.018  31.002  25.127  1.00  0.00     0.163 HD
BRANCH   4   7
ATOM      7  C   UNL A   1      31.693  28.023  24.582  1.00  0.00     0.116 C 
ATOM      8  C   UNL A   1      32.243  26.907  23.671  1.00  0.00     0.045 C 
BRANCH   7   9
ATOM      9  N   UNL A   1      31.006  27.330  25.712  1.00  0.00    -0.342 N 
ATOM     10  C   UNL A   1      30.934  26.011  26.046  1.00  0.00     0.224 C 
ATOM     11  O   UNL A   1      29.855  25.605  26.495  1.00  0.00    -0.275 OA
ATOM     12  H   UNL A   1      30.520  27.930  26.323  1.00  0.00     0.164 HD
BRANCH  10  13
ATOM     13  C   UNL A   1      32.141  25.081  25.984  1.00  0.00     0.126 C 
BRANCH  13  14
ATOM     14  C   UNL A   1      31.989  23.796  26.743  1.00  0.00    -0.025 C 
ATOM     15  C   UNL A   1      31.763  22.614  26.154  1.00  0.00     0.004 C 
ENDBRANCH  13  14
ENDBRANCH  10  13
ENDBRANCH   7   9
BRANCH   7  16
ATOM     16  C   UNL A   1      30.609  28.835  23.815  1.00  0.00     0.035 C 
ATOM     17  C   UNL A   1      29.564  27.973  23.105  1.00  0.00     0.007 C 
ENDBRANCH   7  16
ENDBRANCH   4   7
ENDBRANCH   2   3
ENDBRANCH   1   2
BRANCH   1  18
ATOM     18  C   UNL A   1      32.731  32.764  27.166  1.00  0.00     0.118 C 
BRANCH  18  19
ATOM     19  N   UNL A   1      32.551  34.137  27.617  1.00  0.00    -0.352 N 
ATOM     20  C   UNL A   1      33.139  34.786  28.671  1.00  0.00     0.251 C 
ATOM     21  H   UNL A   1      31.917  34.676  27.091  1.00  0.00     0.163 HD
ATOM     22  O   UNL A   1      32.708  35.886  29.025  1.00  0.00    -0.269 OA
BRANCH  20  23
ATOM     23  C   UNL A   1      34.274  34.166  29.383  1.00  0.00     0.039 A 
ATOM     24  C   UNL A   1      35.577  34.440  28.958  1.00  0.00     0.014 A 
ATOM     25  C   UNL A   1      34.054  33.301  30.458  1.00  0.00     0.014 A 
ATOM     26  C   UNL A   1      36.658  33.875  29.638  1.00  0.00     0.010 A 
ATOM     27  C   UNL A   1      35.131  32.813  31.189  1.00  0.00     0.010 A 
ATOM     28  C   UNL A   1      36.444  33.071  30.770  1.00  0.00    -0.014 A 
BRANCH  28  29
ATOM     29  C   UNL A   1      37.577  32.445  31.498  1.00  0.00     0.031 A 
ATOM     30  C   UNL A   1      38.320  31.292  30.871  1.00  0.00     0.074 A 
ATOM     31  C   UNL A   1      37.894  32.862  32.740  1.00  0.00     0.049 A 
ATOM     32  N   UNL A   1      39.283  30.562  31.369  1.00  0.00    -0.248 NA
ATOM     33  C   UNL A   1      37.904  30.885  29.517  1.00  0.00     0.031 C 
ATOM     34  C   UNL A   1      37.202  33.916  33.484  1.00  0.00     0.029 A 
ATOM     35  N   UNL A   1      38.866  32.428  33.606  1.00  0.00    -0.354 N 
ATOM     36  C   UNL A   1      39.565  29.597  30.409  1.00  0.00     0.074 A 
ATOM     37  C   UNL A   1      38.639  29.802  29.318  1.00  0.00     0.031 C 
ATOM     38  C   UNL A   1      37.770  34.047  34.694  1.00  0.00     0.029 A 
ATOM     39  C   UNL A   1      38.848  33.071  34.823  1.00  0.00     0.049 A 
ATOM     40  H   UNL A   1      39.515  31.724  33.380  1.00  0.00     0.167 HD
ATOM     41  C   UNL A   1      40.533  28.650  30.412  1.00  0.00     0.034 A 
ATOM     42  C   UNL A   1      39.612  32.888  35.919  1.00  0.00     0.034 A 
ATOM     43  C   UNL A   1      41.486  28.483  31.475  1.00  0.00     0.049 A 
ATOM     44  C   UNL A   1      40.715  31.864  35.872  1.00  0.00     0.074 A 
ATOM     45  C   UNL A   1      42.539  27.589  31.554  1.00  0.00     0.029 A 
ATOM     46  N   UNL A   1      41.507  29.232  32.640  1.00  0.00    -0.354 N 
ATOM     47  N   UNL A   1      41.047  31.050  34.900  1.00  0.00    -0.248 NA
ATOM     48  C   UNL A   1      41.581  31.767  37.057  1.00  0.00     0.031 C 
ATOM     49  C   UNL A   1      43.195  27.796  32.773  1.00  0.00     0.029 A 
ATOM     50  C   UNL A   1      42.565  28.834  33.438  1.00  0.00     0.049 A 
ATOM     51  H   UNL A   1      40.865  29.943  32.867  1.00  0.00     0.167 HD
ATOM     52  C   UNL A   1      42.188  30.383  35.334  1.00  0.00     0.074 A 
ATOM     53  C   UNL A   1      42.499  30.902  36.650  1.00  0.00     0.031 C 
ATOM     54  C   UNL A   1      42.905  29.419  34.708  1.00  0.00     0.034 A 
BRANCH  41  55
ATOM     55  C   UNL A   1      40.661  27.772  29.195  1.00  0.00     0.023 A 
ATOM     56  C   UNL A   1      39.832  26.637  29.073  1.00  0.00     0.012 A 
ATOM     57  C   UNL A   1      41.540  28.101  28.145  1.00  0.00     0.148 A 
ATOM     58  C   UNL A   1      39.897  25.827  27.940  1.00  0.00     0.002 A 
ATOM     59  C   UNL A   1      41.566  27.316  26.999  1.00  0.00     0.091 A 
ATOM     60  F   UNL A   1      42.332  29.174  28.288  1.00  0.00    -0.205 F 
ATOM     61  C   UNL A   1      40.755  26.172  26.900  1.00  0.00     0.022 A 
BRANCH  59  62
ATOM     62  S   UNL A   1      42.572  27.716  25.565  1.00  0.00     0.127 S 
ATOM     63  O   UNL A   1      43.903  27.830  26.162  1.00  0.00    -0.237 OA
ATOM     64  O   UNL A   1      42.382  26.537  24.720  1.00  0.00    -0.237 OA
ATOM     65  O   UNL A   1      42.028  28.952  25.022  1.00  0.00    -0.744 OA
ENDBRANCH  59  62
ENDBRANCH  41  55
BRANCH  42  66
ATOM     66  C   UNL A   1      39.409  33.733  37.131  1.00  0.00     0.023 A 
ATOM     67  C   UNL A   1      39.932  35.042  37.161  1.00  0.00     0.012 A 
ATOM     68  C   UNL A   1      38.714  33.249  38.255  1.00  0.00     0.148 A 
ATOM     69  C   UNL A   1      39.813  35.831  38.305  1.00  0.00     0.002 A 
ATOM     70  C   UNL A   1      38.548  34.062  39.371  1.00  0.00     0.091 A 
ATOM     71  F   UNL A   1      38.231  31.998  38.214  1.00  0.00    -0.205 F 
ATOM     72  C   UNL A   1      39.115  35.345  39.407  1.00  0.00     0.022 A 
BRANCH  70  73
ATOM     73  S   UNL A   1      37.548  33.560  40.776  1.00  0.00     0.127 S 
ATOM     74  O   UNL A   1      38.402  32.560  41.410  1.00  0.00    -0.237 OA
ATOM     75  O   UNL A   1      37.413  34.815  41.518  1.00  0.00    -0.237 OA
ATOM     76  O   UNL A   1      36.301  33.068  40.208  1.00  0.00    -0.744 OA
ENDBRANCH  70  73
ENDBRANCH  42  66
BRANCH  54  77
ATOM     77  C   UNL A   1      44.143  28.909  35.398  1.00  0.00     0.023 A 
ATOM     78  C   UNL A   1      45.388  29.525  35.165  1.00  0.00     0.012 A 
ATOM     79  C   UNL A   1      44.053  27.857  36.332  1.00  0.00     0.148 A 
ATOM     80  C   UNL A   1      46.534  29.074  35.820  1.00  0.00     0.002 A 
ATOM     81  C   UNL A   1      45.189  27.448  37.019  1.00  0.00     0.091 A 
ATOM     82  F   UNL A   1      42.863  27.271  36.525  1.00  0.00    -0.205 F 
ATOM     83  C   UNL A   1      46.432  28.045  36.754  1.00  0.00     0.022 A 
BRANCH  81  84
ATOM     84  S   UNL A   1      45.130  26.201  38.310  1.00  0.00     0.127 S 
ATOM     85  O   UNL A   1      46.515  26.188  38.776  1.00  0.00    -0.237 OA
ATOM     86  O   UNL A   1      44.173  26.776  39.256  1.00  0.00    -0.237 OA
ATOM     87  O   UNL A   1      44.674  24.978  37.663  1.00  0.00    -0.744 OA
ENDBRANCH  81  84
ENDBRANCH  54  77
ENDBRANCH  28  29
ENDBRANCH  20  23
ENDBRANCH  18  19
ENDBRANCH   1  18
TORSDOF 17
ENDMDL
MODEL 2
REMARK VINA RESULT:     -10.3      3.875      9.019
REMARK SMILES C=CCC(=O)N[C@@](C)(CC)C(=O)NCCCNC(=O)c1ccc(-c2c3nc(c(-c4cccc(S(=O)(=O)[O-])c4F)c4ccc([nH]4)c(-c4cccc(S(=O)(=O)[O-])c4F)c4nc(c(-c5cccc(S(=O)(=O)[O-])c5F)c5ccc2[nH]5)C=C4)C=C3)cc1
REMARK SMILES IDX 15 1 14 2 13 3 11 4 12 5 7 7 8 8 6 9 4 10 5 11 3 13 2 14
REMARK SMILES IDX 1 15 9 16 10 17 16 18 17 19 18 20 19 22 20 23 21 24 82 25
REMARK SMILES IDX 22 26 81 27 23 28 24 29 25 30 75 31 26 32 80 33 74 34 76 35
REMARK SMILES IDX 27 36 79 37 73 38 72 39 28 41 60 42 40 43 59 44 41 45 44 46
REMARK SMILES IDX 58 47 77 48 42 49 43 50 57 52 78 53 45 54 29 55 30 56 38 57
REMARK SMILES IDX 31 58 33 59 39 60 32 61 34 62 35 63 36 64 37 65 61 66 62 67
REMARK SMILES IDX 70 68 63 69 65 70 71 71 64 72 66 73 67 74 68 75 69 76 46 77
REMARK SMILES IDX 47 78 55 79 48 80 50 81 56 82 49 83 51 84 52 85 53 86 54 87
REMARK H PARENT 13 6 6 12 17 21 76 40 44 51
REMARK Flexibility Score: inf
ROOT
ATOM      1  C   UNL A   1      32.788  28.233  27.104  1.00  0.00     0.042 C 
ENDROOT
BRANCH   1   2
ATOM      2  C   UNL A   1      32.063  27.340  26.101  1.00  0.00     0.117 C 
BRANCH   2   3
ATOM      3  N   UNL A   1      31.469  26.194  26.766  1.00  0.00    -0.354 N 
ATOM      4  C   UNL A   1      31.243  24.948  26.255  1.00  0.00     0.245 C 
ATOM      5  O   UNL A   1      30.107  24.498  26.418  1.00  0.00    -0.272 OA
ATOM      6  H   UNL A   1      31.196  26.332  27.702  1.00  0.00     0.163 HD
BRANCH   4   7
ATOM      7  C   UNL A   1      32.348  24.176  25.476  1.00  0.00     0.116 C 
ATOM      8  C   UNL A   1      32.025  22.675  25.332  1.00  0.00     0.045 C 
BRANCH   7   9
ATOM      9  N   UNL A   1      32.564  24.685  24.089  1.00  0.00    -0.342 N 
ATOM     10  C   UNL A   1      33.607  24.525  23.226  1.00  0.00     0.224 C 
ATOM     11  O   UNL A   1      33.910  25.500  22.529  1.00  0.00    -0.275 OA
ATOM     12  H   UNL A   1      31.825  25.230  23.735  1.00  0.00     0.164 HD
BRANCH  10  13
ATOM     13  C   UNL A   1      34.314  23.188  23.030  1.00  0.00     0.126 C 
BRANCH  13  14
ATOM     14  C   UNL A   1      35.779  23.194  23.353  1.00  0.00    -0.025 C 
ATOM     15  C   UNL A   1      36.383  22.227  24.056  1.00  0.00     0.004 C 
ENDBRANCH  13  14
ENDBRANCH  10  13
ENDBRANCH   7   9
BRANCH   7  16
ATOM     16  C   UNL A   1      33.691  24.350  26.243  1.00  0.00     0.035 C 
ATOM     17  C   UNL A   1      34.188  23.079  26.935  1.00  0.00     0.007 C 
ENDBRANCH   7  16
ENDBRANCH   4   7
ENDBRANCH   2   3
ENDBRANCH   1   2
BRANCH   1  18
ATOM     18  C   UNL A   1      33.939  29.030  26.502  1.00  0.00     0.118 C 
BRANCH  18  19
ATOM     19  N   UNL A   1      33.893  30.439  26.869  1.00  0.00    -0.352 N 
ATOM     20  C   UNL A   1      34.701  31.136  27.728  1.00  0.00     0.251 C 
ATOM     21  H   UNL A   1      33.179  30.965  26.441  1.00  0.00     0.163 HD
ATOM     22  O   UNL A   1      34.382  32.276  28.074  1.00  0.00    -0.269 OA
BRANCH  20  23
ATOM     23  C   UNL A   1      35.940  30.521  28.245  1.00  0.00     0.039 A 
ATOM     24  C   UNL A   1      37.156  30.809  27.620  1.00  0.00     0.014 A 
ATOM     25  C   UNL A   1      35.901  29.645  29.333  1.00  0.00     0.014 A 
ATOM     26  C   UNL A   1      38.335  30.249  28.112  1.00  0.00     0.010 A 
ATOM     27  C   UNL A   1      37.085  29.161  29.877  1.00  0.00     0.010 A 
ATOM     28  C   UNL A   1      38.312  29.434  29.256  1.00  0.00    -0.014 A 
BRANCH  28  29
ATOM     29  C   UNL A   1      39.552  28.813  29.788  1.00  0.00     0.031 A 
ATOM     30  C   UNL A   1      40.214  29.399  31.010  1.00  0.00     0.074 A 
ATOM     31  C   UNL A   1      40.116  27.774  29.143  1.00  0.00     0.049 A 
ATOM     32  N   UNL A   1      41.335  29.054  31.586  1.00  0.00    -0.248 NA
ATOM     33  C   UNL A   1      39.542  30.544  31.651  1.00  0.00     0.031 C 
ATOM     34  C   UNL A   1      39.614  27.166  27.908  1.00  0.00     0.029 A 
ATOM     35  N   UNL A   1      41.256  27.061  29.422  1.00  0.00    -0.354 N 
ATOM     36  C   UNL A   1      41.518  29.953  32.631  1.00  0.00     0.074 A 
ATOM     37  C   UNL A   1      40.419  30.890  32.581  1.00  0.00     0.031 C 
ATOM     38  C   UNL A   1      40.440  26.174  27.538  1.00  0.00     0.029 A 
ATOM     39  C   UNL A   1      41.543  26.091  28.490  1.00  0.00     0.049 A 
ATOM     40  H   UNL A   1      41.815  27.228  30.214  1.00  0.00     0.167 HD
ATOM     41  C   UNL A   1      42.491  29.976  33.574  1.00  0.00     0.034 A 
ATOM     42  C   UNL A   1      42.582  25.235  28.411  1.00  0.00     0.034 A 
ATOM     43  C   UNL A   1      43.553  29.012  33.651  1.00  0.00     0.049 A 
ATOM     44  C   UNL A   1      43.619  25.250  29.504  1.00  0.00     0.074 A 
ATOM     45  C   UNL A   1      44.558  28.914  34.597  1.00  0.00     0.029 A 
ATOM     46  N   UNL A   1      43.742  27.973  32.755  1.00  0.00    -0.354 N 
ATOM     47  N   UNL A   1      43.700  26.027  30.556  1.00  0.00    -0.248 NA
ATOM     48  C   UNL A   1      44.682  24.236  29.424  1.00  0.00     0.031 C 
ATOM     49  C   UNL A   1      45.361  27.816  34.267  1.00  0.00     0.029 A 
ATOM     50  C   UNL A   1      44.838  27.218  33.133  1.00  0.00     0.049 A 
ATOM     51  H   UNL A   1      43.181  27.798  31.966  1.00  0.00     0.167 HD
ATOM     52  C   UNL A   1      44.787  25.564  31.289  1.00  0.00     0.074 A 
ATOM     53  C   UNL A   1      45.323  24.428  30.568  1.00  0.00     0.031 C 
ATOM     54  C   UNL A   1      45.306  26.043  32.446  1.00  0.00     0.034 A 
BRANCH  41  55
ATOM     55  C   UNL A   1      42.406  31.032  34.645  1.00  0.00     0.023 A 
ATOM     56  C   UNL A   1      41.767  30.728  35.864  1.00  0.00     0.012 A 
ATOM     57  C   UNL A   1      43.014  32.291  34.479  1.00  0.00     0.148 A 
ATOM     58  C   UNL A   1      41.707  31.670  36.891  1.00  0.00     0.002 A 
ATOM     59  C   UNL A   1      42.992  33.208  35.523  1.00  0.00     0.091 A 
ATOM     60  F   UNL A   1      43.602  32.567  33.305  1.00  0.00    -0.205 F 
ATOM     61  C   UNL A   1      42.329  32.904  36.725  1.00  0.00     0.022 A 
BRANCH  59  62
ATOM     62  S   UNL A   1      43.831  34.794  35.446  1.00  0.00     0.127 S 
ATOM     63  O   UNL A   1      42.826  35.628  34.784  1.00  0.00    -0.237 OA
ATOM     64  O   UNL A   1      44.039  35.099  36.862  1.00  0.00    -0.237 OA
ATOM     65  O   UNL A   1      45.049  34.570  34.683  1.00  0.00    -0.744 OA
ENDBRANCH  59  62
ENDBRANCH  41  55
BRANCH  42  66
ATOM     66  C   UNL A   1      42.666  24.249  27.296  1.00  0.00     0.023 A 
ATOM     67  C   UNL A   1      43.360  24.590  26.118  1.00  0.00     0.012 A 
ATOM     68  C   UNL A   1      42.056  22.984  27.389  1.00  0.00     0.148 A 
ATOM     69  C   UNL A   1      43.399  23.712  25.034  1.00  0.00     0.002 A 
ATOM     70  C   UNL A   1      42.149  22.090  26.327  1.00  0.00     0.091 A 
ATOM     71  F   UNL A   1      41.391  22.678  28.512  1.00  0.00    -0.205 F 
ATOM     72  C   UNL A   1      42.801  22.460  25.141  1.00  0.00     0.022 A 
BRANCH  70  73
ATOM     73  S   UNL A   1      41.522  20.411  26.436  1.00  0.00     0.127 S 
ATOM     74  O   UNL A   1      41.913  20.033  27.791  1.00  0.00    -0.237 OA
ATOM     75  O   UNL A   1      40.084  20.608  26.242  1.00  0.00    -0.237 OA
ATOM     76  O   UNL A   1      42.174  19.683  25.357  1.00  0.00    -0.744 OA
ENDBRANCH  70  73
ENDBRANCH  42  66
BRANCH  54  77
ATOM     77  C   UNL A   1      46.468  25.301  33.051  1.00  0.00     0.023 A 
ATOM     78  C   UNL A   1      47.788  25.730  32.808  1.00  0.00     0.012 A 
ATOM     79  C   UNL A   1      46.241  24.215  33.920  1.00  0.00     0.148 A 
ATOM     80  C   UNL A   1      48.867  25.061  33.386  1.00  0.00     0.002 A 
ATOM     81  C   UNL A   1      47.318  23.587  34.534  1.00  0.00     0.091 A 
ATOM     82  F   UNL A   1      44.979  23.810  34.125  1.00  0.00    -0.205 F 
ATOM     83  C   UNL A   1      48.631  24.000  34.257  1.00  0.00     0.022 A 
BRANCH  81  84
ATOM     84  S   UNL A   1      47.101  22.280  35.746  1.00  0.00     0.127 S 
ATOM     85  O   UNL A   1      46.345  21.288  34.982  1.00  0.00    -0.237 OA
ATOM     86  O   UNL A   1      48.482  21.897  36.043  1.00  0.00    -0.237 OA
ATOM     87  O   UNL A   1      46.391  22.886  36.864  1.00  0.00    -0.744 OA
ENDBRANCH  81  84
ENDBRANCH  54  77
ENDBRANCH  28  29
ENDBRANCH  20  23
ENDBRANCH  18  19
ENDBRANCH   1  18
TORSDOF 17
ENDMDL
MODEL 3
REMARK VINA RESULT:     -10.3      5.637      8.870
REMARK SMILES C=CCC(=O)N[C@@](C)(CC)C(=O)NCCCNC(=O)c1ccc(-c2c3nc(c(-c4cccc(S(=O)(=O)[O-])c4F)c4ccc([nH]4)c(-c4cccc(S(=O)(=O)[O-])c4F)c4nc(c(-c5cccc(S(=O)(=O)[O-])c5F)c5ccc2[nH]5)C=C4)C=C3)cc1
REMARK SMILES IDX 15 1 14 2 13 3 11 4 12 5 7 7 8 8 6 9 4 10 5 11 3 13 2 14
REMARK SMILES IDX 1 15 9 16 10 17 16 18 17 19 18 20 19 22 20 23 21 24 82 25
REMARK SMILES IDX 22 26 81 27 23 28 24 29 25 30 75 31 26 32 80 33 74 34 76 35
REMARK SMILES IDX 27 36 79 37 73 38 72 39 28 41 60 42 40 43 59 44 41 45 44 46
REMARK SMILES IDX 58 47 77 48 42 49 43 50 57 52 78 53 45 54 29 55 30 56 38 57
REMARK SMILES IDX 31 58 33 59 39 60 32 61 34 62 35 63 36 64 37 65 61 66 62 67
REMARK SMILES IDX 70 68 63 69 65 70 71 71 64 72 66 73 67 74 68 75 69 76 46 77
REMARK SMILES IDX 47 78 55 79 48 80 50 81 56 82 49 83 51 84 52 85 53 86 54 87
REMARK H PARENT 13 6 6 12 17 21 76 40 44 51
REMARK Flexibility Score: inf
ROOT
ATOM      1  C   UNL A   1      35.200  23.260  25.936  1.00  0.00     0.042 C 
ENDROOT
BRANCH   1   2
ATOM      2  C   UNL A   1      34.150  23.526  24.862  1.00  0.00     0.117 C 
BRANCH   2   3
ATOM      3  N   UNL A   1      32.821  23.586  25.444  1.00  0.00    -0.354 N 
ATOM      4  C   UNL A   1      32.274  24.589  26.191  1.00  0.00     0.245 C 
ATOM      5  O   UNL A   1      31.745  24.243  27.250  1.00  0.00    -0.272 OA
ATOM      6  H   UNL A   1      32.242  22.807  25.279  1.00  0.00     0.163 HD
BRANCH   4   7
ATOM      7  C   UNL A   1      32.362  26.077  25.744  1.00  0.00     0.116 C 
ATOM      8  C   UNL A   1      33.741  26.700  26.045  1.00  0.00     0.045 C 
BRANCH   7   9
ATOM      9  N   UNL A   1      32.134  26.274  24.282  1.00  0.00    -0.342 N 
ATOM     10  C   UNL A   1      31.121  25.862  23.468  1.00  0.00     0.224 C 
ATOM     11  O   UNL A   1      31.432  25.505  22.325  1.00  0.00    -0.275 OA
ATOM     12  H   UNL A   1      32.836  26.791  23.826  1.00  0.00     0.164 HD
BRANCH  10  13
ATOM     13  C   UNL A   1      29.655  25.933  23.881  1.00  0.00     0.126 C 
BRANCH  13  14
ATOM     14  C   UNL A   1      28.968  27.226  23.556  1.00  0.00    -0.025 C 
ATOM     15  C   UNL A   1      29.604  28.293  23.054  1.00  0.00     0.004 C 
ENDBRANCH  13  14
ENDBRANCH  10  13
ENDBRANCH   7   9
BRANCH   7  16
ATOM     16  C   UNL A   1      31.255  26.874  26.493  1.00  0.00     0.035 C 
ATOM     17  C   UNL A   1      31.775  28.063  27.302  1.00  0.00     0.007 C 
ENDBRANCH   7  16
ENDBRANCH   4   7
ENDBRANCH   2   3
ENDBRANCH   1   2
BRANCH   1  18
ATOM     18  C   UNL A   1      36.626  23.576  25.496  1.00  0.00     0.118 C 
BRANCH  18  19
ATOM     19  N   UNL A   1      37.582  22.574  25.946  1.00  0.00    -0.352 N 
ATOM     20  C   UNL A   1      38.821  22.748  26.503  1.00  0.00     0.251 C 
ATOM     21  H   UNL A   1      37.297  21.638  25.833  1.00  0.00     0.163 HD
ATOM     22  O   UNL A   1      39.573  21.779  26.629  1.00  0.00    -0.269 OA
BRANCH  20  23
ATOM     23  C   UNL A   1      39.256  24.090  26.939  1.00  0.00     0.039 A 
ATOM     24  C   UNL A   1      38.999  24.497  28.250  1.00  0.00     0.014 A 
ATOM     25  C   UNL A   1      39.901  24.953  26.049  1.00  0.00     0.014 A 
ATOM     26  C   UNL A   1      39.424  25.756  28.678  1.00  0.00     0.010 A 
ATOM     27  C   UNL A   1      40.403  26.168  26.501  1.00  0.00     0.010 A 
ATOM     28  C   UNL A   1      40.146  26.595  27.812  1.00  0.00    -0.014 A 
BRANCH  28  29
ATOM     29  C   UNL A   1      40.593  27.945  28.239  1.00  0.00     0.031 A 
ATOM     30  C   UNL A   1      42.065  28.272  28.255  1.00  0.00     0.074 A 
ATOM     31  C   UNL A   1      39.693  28.849  28.673  1.00  0.00     0.049 A 
ATOM     32  N   UNL A   1      42.665  29.360  28.662  1.00  0.00    -0.248 NA
ATOM     33  C   UNL A   1      42.989  27.226  27.779  1.00  0.00     0.031 C 
ATOM     34  C   UNL A   1      38.249  28.626  28.778  1.00  0.00     0.029 A 
ATOM     35  N   UNL A   1      39.864  30.130  29.135  1.00  0.00    -0.354 N 
ATOM     36  C   UNL A   1      44.027  29.119  28.522  1.00  0.00     0.074 A 
ATOM     37  C   UNL A   1      44.170  27.765  28.038  1.00  0.00     0.031 C 
ATOM     38  C   UNL A   1      37.668  29.731  29.272  1.00  0.00     0.029 A 
ATOM     39  C   UNL A   1      38.696  30.731  29.544  1.00  0.00     0.049 A 
ATOM     40  H   UNL A   1      40.740  30.577  29.171  1.00  0.00     0.167 HD
ATOM     41  C   UNL A   1      45.067  29.960  28.736  1.00  0.00     0.034 A 
ATOM     42  C   UNL A   1      38.481  31.949  30.082  1.00  0.00     0.034 A 
ATOM     43  C   UNL A   1      44.918  31.323  29.167  1.00  0.00     0.049 A 
ATOM     44  C   UNL A   1      39.651  32.880  30.258  1.00  0.00     0.074 A 
ATOM     45  C   UNL A   1      45.903  32.275  29.363  1.00  0.00     0.029 A 
ATOM     46  N   UNL A   1      43.709  31.931  29.458  1.00  0.00    -0.354 N 
ATOM     47  N   UNL A   1      40.919  32.675  29.994  1.00  0.00    -0.248 NA
ATOM     48  C   UNL A   1      39.355  34.231  30.760  1.00  0.00     0.031 C 
ATOM     49  C   UNL A   1      45.285  33.460  29.780  1.00  0.00     0.029 A 
ATOM     50  C   UNL A   1      43.917  33.250  29.817  1.00  0.00     0.049 A 
ATOM     51  H   UNL A   1      42.830  31.489  29.416  1.00  0.00     0.167 HD
ATOM     52  C   UNL A   1      41.561  33.883  30.248  1.00  0.00     0.074 A 
ATOM     53  C   UNL A   1      40.539  34.818  30.669  1.00  0.00     0.031 C 
ATOM     54  C   UNL A   1      42.879  34.187  30.156  1.00  0.00     0.034 A 
BRANCH  41  55
ATOM     55  C   UNL A   1      46.454  29.455  28.432  1.00  0.00     0.023 A 
ATOM     56  C   UNL A   1      47.008  29.687  27.156  1.00  0.00     0.012 A 
ATOM     57  C   UNL A   1      47.232  28.820  29.418  1.00  0.00     0.148 A 
ATOM     58  C   UNL A   1      48.304  29.269  26.857  1.00  0.00     0.002 A 
ATOM     59  C   UNL A   1      48.539  28.447  29.127  1.00  0.00     0.091 A 
ATOM     60  F   UNL A   1      46.681  28.593  30.619  1.00  0.00    -0.205 F 
ATOM     61  C   UNL A   1      49.072  28.660  27.844  1.00  0.00     0.022 A 
BRANCH  59  62
ATOM     62  S   UNL A   1      49.644  27.731  30.349  1.00  0.00     0.127 S 
ATOM     63  O   UNL A   1      49.629  28.754  31.396  1.00  0.00    -0.237 OA
ATOM     64  O   UNL A   1      48.952  26.491  30.698  1.00  0.00    -0.237 OA
ATOM     65  O   UNL A   1      50.923  27.549  29.679  1.00  0.00    -0.744 OA
ENDBRANCH  59  62
ENDBRANCH  41  55
BRANCH  42  66
ATOM     66  C   UNL A   1      37.100  32.386  30.433  1.00  0.00     0.023 A 
ATOM     67  C   UNL A   1      36.629  32.207  31.749  1.00  0.00     0.012 A 
ATOM     68  C   UNL A   1      36.248  32.966  29.475  1.00  0.00     0.148 A 
ATOM     69  C   UNL A   1      35.319  32.548  32.091  1.00  0.00     0.002 A 
ATOM     70  C   UNL A   1      34.963  33.358  29.836  1.00  0.00     0.091 A 
ATOM     71  F   UNL A   1      36.708  33.120  28.224  1.00  0.00    -0.205 F 
ATOM     72  C   UNL A   1      34.490  33.130  31.137  1.00  0.00     0.022 A 
BRANCH  70  73
ATOM     73  S   UNL A   1      33.880  34.235  28.704  1.00  0.00     0.127 S 
ATOM     74  O   UNL A   1      34.744  35.319  28.242  1.00  0.00    -0.237 OA
ATOM     75  O   UNL A   1      33.590  33.209  27.700  1.00  0.00    -0.237 OA
ATOM     76  O   UNL A   1      32.727  34.632  29.500  1.00  0.00    -0.744 OA
ENDBRANCH  70  73
ENDBRANCH  42  66
BRANCH  54  77
ATOM     77  C   UNL A   1      43.290  35.607  30.441  1.00  0.00     0.023 A 
ATOM     78  C   UNL A   1      43.740  35.970  31.726  1.00  0.00     0.012 A 
ATOM     79  C   UNL A   1      43.292  36.567  29.409  1.00  0.00     0.148 A 
ATOM     80  C   UNL A   1      44.146  37.277  31.990  1.00  0.00     0.002 A 
ATOM     81  C   UNL A   1      43.748  37.854  29.667  1.00  0.00     0.091 A 
ATOM     82  F   UNL A   1      42.843  36.207  28.198  1.00  0.00    -0.205 F 
ATOM     83  C   UNL A   1      44.161  38.214  30.959  1.00  0.00     0.022 A 
BRANCH  81  84
ATOM     84  S   UNL A   1      43.896  39.093  28.376  1.00  0.00     0.127 S 
ATOM     85  O   UNL A   1      44.767  38.419  27.414  1.00  0.00    -0.237 OA
ATOM     86  O   UNL A   1      42.510  39.253  27.936  1.00  0.00    -0.237 OA
ATOM     87  O   UNL A   1      44.463  40.272  29.017  1.00  0.00    -0.744 OA
ENDBRANCH  81  84
ENDBRANCH  54  77
ENDBRANCH  28  29
ENDBRANCH  20  23
ENDBRANCH  18  19
ENDBRANCH   1  18
TORSDOF 17
ENDMDL
