MODEL 1
REMARK VINA RESULT:     -11.7      0.000      0.000
REMARK SMILES CC[C@](C)(NS(=O)(=O)c1cc(C)c(Br)s1)C(=O)NCCCNC(=O)c1ccc(-c2c3nc(c(-c4cccc(S(=O)(=O)[O-])c4F)c4ccc([nH]4)c(-c4cccc(S(=O)(=O)[O-])c4F)c4nc(c(-c5cccc(S(=O)(=O)[O-])c5F)c5ccc2[nH]5)C=C4)C=C3)cc1
REMARK SMILES IDX 20 1 19 2 18 3 16 4 17 5 3 7 4 8 2 9 1 10 5 11 6 13 7 14
REMARK SMILES IDX 8 15 9 16 10 17 15 18 11 19 13 20 12 21 14 22 21 23 22 24
REMARK SMILES IDX 23 25 24 27 25 28 26 29 87 30 27 31 86 32 28 33 29 34 30 35
REMARK SMILES IDX 80 36 31 37 85 38 79 39 81 40 32 41 84 42 78 43 77 44 33 46
REMARK SMILES IDX 65 47 45 48 64 49 46 50 49 51 63 52 82 53 47 54 48 55 62 57
REMARK SMILES IDX 83 58 50 59 34 60 35 61 43 62 36 63 38 64 44 65 37 66 39 67
REMARK SMILES IDX 40 68 41 69 42 70 66 71 67 72 75 73 68 74 70 75 76 76 69 77
REMARK SMILES IDX 71 78 72 79 73 80 74 81 51 82 52 83 60 84 53 85 55 86 61 87
REMARK SMILES IDX 54 88 56 89 57 90 58 91 59 92
REMARK H PARENT 18 6 5 12 22 26 81 45 49 56
REMARK Flexibility Score: inf
ROOT
ATOM      1  C   UNL A   1      32.144  29.533  26.812  1.00  0.00     0.042 C 
ENDROOT
BRANCH   1   2
ATOM      2  C   UNL A   1      31.463  28.292  26.162  1.00  0.00     0.117 C 
BRANCH   2   3
ATOM      3  N   UNL A   1      32.143  27.212  25.436  1.00  0.00    -0.354 N 
ATOM      4  C   UNL A   1      31.854  26.177  24.585  1.00  0.00     0.241 C 
ATOM      5  O   UNL A   1      32.836  25.790  23.933  1.00  0.00    -0.273 OA
ATOM      6  H   UNL A   1      33.110  27.239  25.617  1.00  0.00     0.163 HD
BRANCH   4   7
ATOM      7  C   UNL A   1      30.493  25.463  24.382  1.00  0.00     0.108 C 
ATOM      8  C   UNL A   1      30.616  24.357  23.279  1.00  0.00     0.040 C 
BRANCH   7   9
ATOM      9  C   UNL A   1      29.421  26.484  23.917  1.00  0.00     0.030 C 
ATOM     10  C   UNL A   1      29.912  27.570  22.958  1.00  0.00     0.006 C 
ENDBRANCH   7   9
BRANCH   7  11
ATOM     11  N   UNL A   1      29.963  24.708  25.533  1.00  0.00    -0.195 NA
ATOM     12  H   UNL A   1      29.314  24.041  25.116  1.00  0.00     0.142 HD
BRANCH  11  13
ATOM     13  S   UNL A   1      30.770  23.825  26.685  1.00  0.00     0.251 S 
ATOM     14  O   UNL A   1      31.568  24.785  27.405  1.00  0.00    -0.206 OA
ATOM     15  O   UNL A   1      29.728  23.104  27.397  1.00  0.00    -0.206 OA
BRANCH  13  16
ATOM     16  C   UNL A   1      31.940  22.644  26.081  1.00  0.00     0.136 A 
ATOM     17  C   UNL A   1      31.771  21.515  25.307  1.00  0.00     0.038 A 
ATOM     18  S   UNL A   1      33.603  22.926  26.303  1.00  0.00    -0.115 S 
ATOM     19  C   UNL A   1      32.941  20.762  25.051  1.00  0.00    -0.025 A 
ATOM     20  C   UNL A   1      34.020  21.542  25.398  1.00  0.00     0.074 A 
ATOM     21  C   UNL A   1      32.880  19.416  24.409  1.00  0.00     0.046 C 
ATOM     22  Br  UNL A   1      35.788  21.236  24.874  1.00  0.00    -0.039 Br
ENDBRANCH  13  16
ENDBRANCH  11  13
ENDBRANCH   7  11
ENDBRANCH   4   7
ENDBRANCH   2   3
ENDBRANCH   1   2
BRANCH   1  23
ATOM     23  C   UNL A   1      33.599  29.635  27.301  1.00  0.00     0.118 C 
BRANCH  23  24
ATOM     24  N   UNL A   1      34.277  30.905  27.056  1.00  0.00    -0.352 N 
ATOM     25  C   UNL A   1      35.193  31.595  27.843  1.00  0.00     0.251 C 
ATOM     26  H   UNL A   1      34.050  31.340  26.203  1.00  0.00     0.163 HD
ATOM     27  O   UNL A   1      35.096  32.825  27.864  1.00  0.00    -0.269 OA
BRANCH  25  28
ATOM     28  C   UNL A   1      36.380  30.966  28.497  1.00  0.00     0.039 A 
ATOM     29  C   UNL A   1      37.375  31.786  29.077  1.00  0.00     0.014 A 
ATOM     30  C   UNL A   1      36.654  29.621  28.364  1.00  0.00     0.014 A 
ATOM     31  C   UNL A   1      38.670  31.296  29.315  1.00  0.00     0.010 A 
ATOM     32  C   UNL A   1      37.937  29.155  28.541  1.00  0.00     0.010 A 
ATOM     33  C   UNL A   1      38.969  29.993  28.937  1.00  0.00    -0.014 A 
BRANCH  33  34
ATOM     34  C   UNL A   1      40.272  29.350  29.098  1.00  0.00     0.031 A 
ATOM     35  C   UNL A   1      40.615  29.156  30.536  1.00  0.00     0.074 A 
ATOM     36  C   UNL A   1      40.923  28.711  28.097  1.00  0.00     0.049 A 
ATOM     37  N   UNL A   1      41.410  29.898  31.241  1.00  0.00    -0.248 NA
ATOM     38  C   UNL A   1      39.806  28.232  31.354  1.00  0.00     0.031 C 
ATOM     39  C   UNL A   1      40.534  28.557  26.695  1.00  0.00     0.029 A 
ATOM     40  N   UNL A   1      42.026  27.912  28.175  1.00  0.00    -0.354 N 
ATOM     41  C   UNL A   1      41.367  29.342  32.516  1.00  0.00     0.074 A 
ATOM     42  C   UNL A   1      40.130  28.624  32.586  1.00  0.00     0.031 C 
ATOM     43  C   UNL A   1      41.215  27.524  26.143  1.00  0.00     0.029 A 
ATOM     44  C   UNL A   1      42.191  27.031  27.100  1.00  0.00     0.049 A 
ATOM     45  H   UNL A   1      42.658  27.951  28.928  1.00  0.00     0.167 HD
ATOM     46  C   UNL A   1      42.491  29.183  33.269  1.00  0.00     0.034 A 
ATOM     47  C   UNL A   1      43.026  25.954  27.043  1.00  0.00     0.034 A 
ATOM     48  C   UNL A   1      43.607  29.866  32.658  1.00  0.00     0.049 A 
ATOM     49  C   UNL A   1      44.045  26.161  28.107  1.00  0.00     0.074 A 
ATOM     50  C   UNL A   1      43.850  31.163  32.257  1.00  0.00     0.029 A 
ATOM     51  N   UNL A   1      44.502  29.074  31.972  1.00  0.00    -0.354 N 
ATOM     52  N   UNL A   1      44.928  27.119  28.063  1.00  0.00    -0.248 NA
ATOM     53  C   UNL A   1      43.772  25.625  29.435  1.00  0.00     0.031 C 
ATOM     54  C   UNL A   1      44.537  31.036  31.016  1.00  0.00     0.029 A 
ATOM     55  C   UNL A   1      44.769  29.680  30.775  1.00  0.00     0.049 A 
ATOM     56  H   UNL A   1      44.882  28.222  32.289  1.00  0.00     0.167 HD
ATOM     57  C   UNL A   1      44.937  27.632  29.353  1.00  0.00     0.074 A 
ATOM     58  C   UNL A   1      44.302  26.603  30.179  1.00  0.00     0.031 C 
ATOM     59  C   UNL A   1      45.151  28.964  29.576  1.00  0.00     0.034 A 
BRANCH  46  60
ATOM     60  C   UNL A   1      42.722  28.105  34.312  1.00  0.00     0.023 A 
ATOM     61  C   UNL A   1      42.936  28.552  35.635  1.00  0.00     0.012 A 
ATOM     62  C   UNL A   1      42.988  26.738  34.057  1.00  0.00     0.148 A 
ATOM     63  C   UNL A   1      43.454  27.710  36.626  1.00  0.00     0.002 A 
ATOM     64  C   UNL A   1      43.429  25.885  35.063  1.00  0.00     0.091 A 
ATOM     65  F   UNL A   1      42.953  26.257  32.816  1.00  0.00    -0.205 F 
ATOM     66  C   UNL A   1      43.697  26.375  36.341  1.00  0.00     0.022 A 
BRANCH  64  67
ATOM     67  S   UNL A   1      43.724  24.137  34.756  1.00  0.00     0.127 S 
ATOM     68  O   UNL A   1      44.602  23.789  35.868  1.00  0.00    -0.237 OA
ATOM     69  O   UNL A   1      42.371  23.588  34.837  1.00  0.00    -0.237 OA
ATOM     70  O   UNL A   1      44.318  24.064  33.427  1.00  0.00    -0.744 OA
ENDBRANCH  64  67
ENDBRANCH  46  60
BRANCH  47  71
ATOM     71  C   UNL A   1      42.920  24.652  26.315  1.00  0.00     0.023 A 
ATOM     72  C   UNL A   1      44.035  24.124  25.626  1.00  0.00     0.012 A 
ATOM     73  C   UNL A   1      41.829  23.784  26.529  1.00  0.00     0.148 A 
ATOM     74  C   UNL A   1      44.080  22.775  25.229  1.00  0.00     0.002 A 
ATOM     75  C   UNL A   1      41.898  22.434  26.187  1.00  0.00     0.091 A 
ATOM     76  F   UNL A   1      40.728  24.271  27.105  1.00  0.00    -0.205 F 
ATOM     77  C   UNL A   1      43.024  21.923  25.538  1.00  0.00     0.022 A 
BRANCH  75  78
ATOM     78  S   UNL A   1      40.600  21.270  26.641  1.00  0.00     0.127 S 
ATOM     79  O   UNL A   1      40.589  21.378  28.101  1.00  0.00    -0.237 OA
ATOM     80  O   UNL A   1      39.434  21.846  25.976  1.00  0.00    -0.237 OA
ATOM     81  O   UNL A   1      41.036  19.974  26.139  1.00  0.00    -0.744 OA
ENDBRANCH  75  78
ENDBRANCH  47  71
BRANCH  59  82
ATOM     82  C   UNL A   1      45.586  29.822  28.412  1.00  0.00     0.023 A 
ATOM     83  C   UNL A   1      44.678  30.584  27.647  1.00  0.00     0.012 A 
ATOM     84  C   UNL A   1      46.962  30.028  28.226  1.00  0.00     0.148 A 
ATOM     85  C   UNL A   1      45.129  31.519  26.711  1.00  0.00     0.002 A 
ATOM     86  C   UNL A   1      47.408  30.994  27.333  1.00  0.00     0.091 A 
ATOM     87  F   UNL A   1      47.815  29.299  28.962  1.00  0.00    -0.205 F 
ATOM     88  C   UNL A   1      46.496  31.736  26.565  1.00  0.00     0.022 A 
BRANCH  86  89
ATOM     89  S   UNL A   1      49.145  31.416  27.210  1.00  0.00     0.127 S 
ATOM     90  O   UNL A   1      49.494  31.678  28.605  1.00  0.00    -0.237 OA
ATOM     91  O   UNL A   1      49.728  30.195  26.651  1.00  0.00    -0.237 OA
ATOM     92  O   UNL A   1      49.216  32.568  26.319  1.00  0.00    -0.744 OA
ENDBRANCH  86  89
ENDBRANCH  59  82
ENDBRANCH  33  34
ENDBRANCH  25  28
ENDBRANCH  23  24
ENDBRANCH   1  23
TORSDOF 17
ENDMDL
MODEL 2
REMARK VINA RESULT:     -11.7      3.253      7.423
REMARK SMILES CC[C@](C)(NS(=O)(=O)c1cc(C)c(Br)s1)C(=O)NCCCNC(=O)c1ccc(-c2c3nc(c(-c4cccc(S(=O)(=O)[O-])c4F)c4ccc([nH]4)c(-c4cccc(S(=O)(=O)[O-])c4F)c4nc(c(-c5cccc(S(=O)(=O)[O-])c5F)c5ccc2[nH]5)C=C4)C=C3)cc1
REMARK SMILES IDX 20 1 19 2 18 3 16 4 17 5 3 7 4 8 2 9 1 10 5 11 6 13 7 14
REMARK SMILES IDX 8 15 9 16 10 17 15 18 11 19 13 20 12 21 14 22 21 23 22 24
REMARK SMILES IDX 23 25 24 27 25 28 26 29 87 30 27 31 86 32 28 33 29 34 30 35
REMARK SMILES IDX 80 36 31 37 85 38 79 39 81 40 32 41 84 42 78 43 77 44 33 46
REMARK SMILES IDX 65 47 45 48 64 49 46 50 49 51 63 52 82 53 47 54 48 55 62 57
REMARK SMILES IDX 83 58 50 59 34 60 35 61 43 62 36 63 38 64 44 65 37 66 39 67
REMARK SMILES IDX 40 68 41 69 42 70 66 71 67 72 75 73 68 74 70 75 76 76 69 77
REMARK SMILES IDX 71 78 72 79 73 80 74 81 51 82 52 83 60 84 53 85 55 86 61 87
REMARK SMILES IDX 54 88 56 89 57 90 58 91 59 92
REMARK H PARENT 18 6 5 12 22 26 81 45 49 56
REMARK Flexibility Score: inf
ROOT
ATOM      1  C   UNL A   1      37.804  22.204  25.801  1.00  0.00     0.042 C 
ENDROOT
BRANCH   1   2
ATOM      2  C   UNL A   1      36.630  23.213  25.630  1.00  0.00     0.117 C 
BRANCH   2   3
ATOM      3  N   UNL A   1      35.946  23.540  24.373  1.00  0.00    -0.354 N 
ATOM      4  C   UNL A   1      34.698  23.472  23.809  1.00  0.00     0.241 C 
ATOM      5  O   UNL A   1      34.549  24.248  22.853  1.00  0.00    -0.273 OA
ATOM      6  H   UNL A   1      36.583  23.933  23.733  1.00  0.00     0.163 HD
BRANCH   4   7
ATOM      7  C   UNL A   1      33.520  22.551  24.216  1.00  0.00     0.108 C 
ATOM      8  C   UNL A   1      34.046  21.114  24.558  1.00  0.00     0.040 C 
BRANCH   7   9
ATOM      9  C   UNL A   1      32.513  22.424  23.043  1.00  0.00     0.030 C 
ATOM     10  C   UNL A   1      32.112  20.997  22.666  1.00  0.00     0.006 C 
ENDBRANCH   7   9
BRANCH   7  11
ATOM     11  N   UNL A   1      32.782  22.919  25.439  1.00  0.00    -0.195 NA
ATOM     12  H   UNL A   1      33.276  22.432  26.186  1.00  0.00     0.142 HD
BRANCH  11  13
ATOM     13  S   UNL A   1      32.462  24.421  26.074  1.00  0.00     0.251 S 
ATOM     14  O   UNL A   1      31.684  24.171  27.261  1.00  0.00    -0.206 OA
ATOM     15  O   UNL A   1      33.764  25.051  26.207  1.00  0.00    -0.206 OA
BRANCH  13  16
ATOM     16  C   UNL A   1      31.439  25.477  25.092  1.00  0.00     0.136 A 
ATOM     17  C   UNL A   1      30.073  25.664  25.083  1.00  0.00     0.038 A 
ATOM     18  S   UNL A   1      32.164  26.610  24.050  1.00  0.00    -0.115 S 
ATOM     19  C   UNL A   1      29.579  26.567  24.111  1.00  0.00    -0.025 A 
ATOM     20  C   UNL A   1      30.652  27.272  23.618  1.00  0.00     0.074 A 
ATOM     21  C   UNL A   1      28.117  26.709  23.848  1.00  0.00     0.046 C 
ATOM     22  Br  UNL A   1      30.545  28.867  22.651  1.00  0.00    -0.039 Br
ENDBRANCH  13  16
ENDBRANCH  11  13
ENDBRANCH   7  11
ENDBRANCH   4   7
ENDBRANCH   2   3
ENDBRANCH   1   2
BRANCH   1  23
ATOM     23  C   UNL A   1      38.120  20.996  24.903  1.00  0.00     0.118 C 
BRANCH  23  24
ATOM     24  N   UNL A   1      38.864  19.904  25.524  1.00  0.00    -0.352 N 
ATOM     25  C   UNL A   1      40.219  19.798  25.816  1.00  0.00     0.251 C 
ATOM     26  H   UNL A   1      38.321  19.121  25.773  1.00  0.00     0.163 HD
ATOM     27  O   UNL A   1      40.742  18.693  25.647  1.00  0.00    -0.269 OA
BRANCH  25  28
ATOM     28  C   UNL A   1      41.018  20.865  26.490  1.00  0.00     0.039 A 
ATOM     29  C   UNL A   1      41.114  20.880  27.901  1.00  0.00     0.014 A 
ATOM     30  C   UNL A   1      41.486  21.966  25.804  1.00  0.00     0.014 A 
ATOM     31  C   UNL A   1      41.474  22.050  28.590  1.00  0.00     0.010 A 
ATOM     32  C   UNL A   1      41.781  23.128  26.478  1.00  0.00     0.010 A 
ATOM     33  C   UNL A   1      41.703  23.209  27.861  1.00  0.00    -0.014 A 
BRANCH  33  34
ATOM     34  C   UNL A   1      42.061  24.506  28.433  1.00  0.00     0.031 A 
ATOM     35  C   UNL A   1      40.953  25.494  28.291  1.00  0.00     0.074 A 
ATOM     36  C   UNL A   1      43.106  24.694  29.273  1.00  0.00     0.049 A 
ATOM     37  N   UNL A   1      40.870  26.428  27.397  1.00  0.00    -0.248 NA
ATOM     38  C   UNL A   1      39.687  25.270  29.017  1.00  0.00     0.031 C 
ATOM     39  C   UNL A   1      44.095  23.724  29.746  1.00  0.00     0.029 A 
ATOM     40  N   UNL A   1      43.411  25.796  30.018  1.00  0.00    -0.354 N 
ATOM     41  C   UNL A   1      39.647  27.045  27.650  1.00  0.00     0.074 A 
ATOM     42  C   UNL A   1      38.861  26.076  28.351  1.00  0.00     0.031 C 
ATOM     43  C   UNL A   1      44.694  24.193  30.868  1.00  0.00     0.029 A 
ATOM     44  C   UNL A   1      44.242  25.551  31.117  1.00  0.00     0.049 A 
ATOM     45  H   UNL A   1      43.073  26.694  29.800  1.00  0.00     0.167 HD
ATOM     46  C   UNL A   1      39.506  28.400  27.619  1.00  0.00     0.034 A 
ATOM     47  C   UNL A   1      44.481  26.388  32.167  1.00  0.00     0.034 A 
ATOM     48  C   UNL A   1      40.694  29.017  27.077  1.00  0.00     0.049 A 
ATOM     49  C   UNL A   1      44.093  27.750  31.710  1.00  0.00     0.074 A 
ATOM     50  C   UNL A   1      41.403  28.891  25.900  1.00  0.00     0.029 A 
ATOM     51  N   UNL A   1      41.555  29.583  27.990  1.00  0.00    -0.354 N 
ATOM     52  N   UNL A   1      44.736  28.391  30.775  1.00  0.00    -0.248 NA
ATOM     53  C   UNL A   1      42.720  28.186  31.935  1.00  0.00     0.031 C 
ATOM     54  C   UNL A   1      42.771  28.938  26.296  1.00  0.00     0.029 A 
ATOM     55  C   UNL A   1      42.826  29.194  27.668  1.00  0.00     0.049 A 
ATOM     56  H   UNL A   1      41.300  30.166  28.743  1.00  0.00     0.167 HD
ATOM     57  C   UNL A   1      43.731  28.932  29.982  1.00  0.00     0.074 A 
ATOM     58  C   UNL A   1      42.522  28.878  30.806  1.00  0.00     0.031 C 
ATOM     59  C   UNL A   1      43.899  29.063  28.632  1.00  0.00     0.034 A 
BRANCH  46  60
ATOM     60  C   UNL A   1      38.513  29.213  28.429  1.00  0.00     0.023 A 
ATOM     61  C   UNL A   1      37.755  30.166  27.712  1.00  0.00     0.012 A 
ATOM     62  C   UNL A   1      38.449  29.288  29.841  1.00  0.00     0.148 A 
ATOM     63  C   UNL A   1      37.036  31.176  28.359  1.00  0.00     0.002 A 
ATOM     64  C   UNL A   1      37.671  30.246  30.482  1.00  0.00     0.091 A 
ATOM     65  F   UNL A   1      39.236  28.528  30.601  1.00  0.00    -0.205 F 
ATOM     66  C   UNL A   1      36.990  31.215  29.745  1.00  0.00     0.022 A 
BRANCH  64  67
ATOM     67  S   UNL A   1      37.548  30.317  32.276  1.00  0.00     0.127 S 
ATOM     68  O   UNL A   1      36.546  31.361  32.459  1.00  0.00    -0.237 OA
ATOM     69  O   UNL A   1      37.101  28.962  32.597  1.00  0.00    -0.237 OA
ATOM     70  O   UNL A   1      38.890  30.630  32.752  1.00  0.00    -0.744 OA
ENDBRANCH  64  67
ENDBRANCH  46  60
BRANCH  47  71
ATOM     71  C   UNL A   1      44.804  26.116  33.601  1.00  0.00     0.023 A 
ATOM     72  C   UNL A   1      46.136  26.207  34.066  1.00  0.00     0.012 A 
ATOM     73  C   UNL A   1      43.788  26.053  34.578  1.00  0.00     0.148 A 
ATOM     74  C   UNL A   1      46.429  26.295  35.438  1.00  0.00     0.002 A 
ATOM     75  C   UNL A   1      44.075  26.199  35.934  1.00  0.00     0.091 A 
ATOM     76  F   UNL A   1      42.526  25.887  34.178  1.00  0.00    -0.205 F 
ATOM     77  C   UNL A   1      45.397  26.322  36.371  1.00  0.00     0.022 A 
BRANCH  75  78
ATOM     78  S   UNL A   1      42.775  26.329  37.174  1.00  0.00     0.127 S 
ATOM     79  O   UNL A   1      43.543  26.394  38.418  1.00  0.00    -0.237 OA
ATOM     80  O   UNL A   1      42.120  27.578  36.793  1.00  0.00    -0.237 OA
ATOM     81  O   UNL A   1      41.968  25.124  37.031  1.00  0.00    -0.744 OA
ENDBRANCH  75  78
ENDBRANCH  47  71
BRANCH  59  82
ATOM     82  C   UNL A   1      45.271  28.806  28.054  1.00  0.00     0.023 A 
ATOM     83  C   UNL A   1      46.324  29.739  28.153  1.00  0.00     0.012 A 
ATOM     84  C   UNL A   1      45.557  27.512  27.592  1.00  0.00     0.148 A 
ATOM     85  C   UNL A   1      47.629  29.395  27.790  1.00  0.00     0.002 A 
ATOM     86  C   UNL A   1      46.864  27.156  27.281  1.00  0.00     0.091 A 
ATOM     87  F   UNL A   1      44.547  26.633  27.506  1.00  0.00    -0.205 F 
ATOM     88  C   UNL A   1      47.903  28.097  27.369  1.00  0.00     0.022 A 
BRANCH  86  89
ATOM     89  S   UNL A   1      47.296  25.466  26.874  1.00  0.00     0.127 S 
ATOM     90  O   UNL A   1      46.897  24.750  28.084  1.00  0.00    -0.237 OA
ATOM     91  O   UNL A   1      46.461  25.200  25.701  1.00  0.00    -0.237 OA
ATOM     92  O   UNL A   1      48.727  25.474  26.594  1.00  0.00    -0.744 OA
ENDBRANCH  86  89
ENDBRANCH  59  82
ENDBRANCH  33  34
ENDBRANCH  25  28
ENDBRANCH  23  24
ENDBRANCH   1  23
TORSDOF 17
ENDMDL
MODEL 3
REMARK VINA RESULT:     -11.7      1.888      2.387
REMARK SMILES CC[C@](C)(NS(=O)(=O)c1cc(C)c(Br)s1)C(=O)NCCCNC(=O)c1ccc(-c2c3nc(c(-c4cccc(S(=O)(=O)[O-])c4F)c4ccc([nH]4)c(-c4cccc(S(=O)(=O)[O-])c4F)c4nc(c(-c5cccc(S(=O)(=O)[O-])c5F)c5ccc2[nH]5)C=C4)C=C3)cc1
REMARK SMILES IDX 20 1 19 2 18 3 16 4 17 5 3 7 4 8 2 9 1 10 5 11 6 13 7 14
REMARK SMILES IDX 8 15 9 16 10 17 15 18 11 19 13 20 12 21 14 22 21 23 22 24
REMARK SMILES IDX 23 25 24 27 25 28 26 29 87 30 27 31 86 32 28 33 29 34 30 35
REMARK SMILES IDX 80 36 31 37 85 38 79 39 81 40 32 41 84 42 78 43 77 44 33 46
REMARK SMILES IDX 65 47 45 48 64 49 46 50 49 51 63 52 82 53 47 54 48 55 62 57
REMARK SMILES IDX 83 58 50 59 34 60 35 61 43 62 36 63 38 64 44 65 37 66 39 67
REMARK SMILES IDX 40 68 41 69 42 70 66 71 67 72 75 73 68 74 70 75 76 76 69 77
REMARK SMILES IDX 71 78 72 79 73 80 74 81 51 82 52 83 60 84 53 85 55 86 61 87
REMARK SMILES IDX 54 88 56 89 57 90 58 91 59 92
REMARK H PARENT 18 6 5 12 22 26 81 45 49 56
REMARK Flexibility Score: inf
ROOT
ATOM      1  C   UNL A   1      32.671  30.002  25.730  1.00  0.00     0.042 C 
ENDROOT
BRANCH   1   2
ATOM      2  C   UNL A   1      31.324  29.686  25.012  1.00  0.00     0.117 C 
BRANCH   2   3
ATOM      3  N   UNL A   1      31.172  29.093  23.677  1.00  0.00    -0.354 N 
ATOM      4  C   UNL A   1      31.214  27.869  23.062  1.00  0.00     0.241 C 
ATOM      5  O   UNL A   1      30.624  27.848  21.971  1.00  0.00    -0.273 OA
ATOM      6  H   UNL A   1      30.980  29.797  23.016  1.00  0.00     0.163 HD
BRANCH   4   7
ATOM      7  C   UNL A   1      31.909  26.577  23.562  1.00  0.00     0.108 C 
ATOM      8  C   UNL A   1      33.452  26.810  23.706  1.00  0.00     0.040 C 
BRANCH   7   9
ATOM      9  C   UNL A   1      31.693  25.428  22.543  1.00  0.00     0.030 C 
ATOM     10  C   UNL A   1      32.962  24.854  21.911  1.00  0.00     0.006 C 
ENDBRANCH   7   9
BRANCH   7  11
ATOM     11  N   UNL A   1      31.532  26.099  24.906  1.00  0.00    -0.195 NA
ATOM     12  H   UNL A   1      30.537  26.312  24.977  1.00  0.00     0.142 HD
BRANCH  11  13
ATOM     13  S   UNL A   1      31.673  24.583  25.571  1.00  0.00     0.251 S 
ATOM     14  O   UNL A   1      31.465  24.771  26.985  1.00  0.00    -0.206 OA
ATOM     15  O   UNL A   1      30.734  23.763  24.827  1.00  0.00    -0.206 OA
BRANCH  13  16
ATOM     16  C   UNL A   1      33.269  23.831  25.457  1.00  0.00     0.136 A 
ATOM     17  C   UNL A   1      34.497  24.232  25.939  1.00  0.00     0.038 A 
ATOM     18  S   UNL A   1      33.413  22.272  24.792  1.00  0.00    -0.115 S 
ATOM     19  C   UNL A   1      35.593  23.397  25.613  1.00  0.00    -0.025 A 
ATOM     20  C   UNL A   1      35.082  22.209  25.144  1.00  0.00     0.074 A 
ATOM     21  C   UNL A   1      37.000  23.811  25.887  1.00  0.00     0.046 C 
ATOM     22  Br  UNL A   1      36.036  20.611  24.981  1.00  0.00    -0.039 Br
ENDBRANCH  13  16
ENDBRANCH  11  13
ENDBRANCH   7  11
ENDBRANCH   4   7
ENDBRANCH   2   3
ENDBRANCH   1   2
BRANCH   1  23
ATOM     23  C   UNL A   1      32.889  30.178  27.241  1.00  0.00     0.118 C 
BRANCH  23  24
ATOM     24  N   UNL A   1      33.340  31.494  27.682  1.00  0.00    -0.352 N 
ATOM     25  C   UNL A   1      34.428  31.848  28.473  1.00  0.00     0.251 C 
ATOM     26  H   UNL A   1      32.788  32.248  27.372  1.00  0.00     0.163 HD
ATOM     27  O   UNL A   1      34.258  32.770  29.276  1.00  0.00    -0.269 OA
BRANCH  25  28
ATOM     28  C   UNL A   1      35.812  31.323  28.280  1.00  0.00     0.039 A 
ATOM     29  C   UNL A   1      36.009  29.945  28.030  1.00  0.00     0.014 A 
ATOM     30  C   UNL A   1      36.925  32.090  28.553  1.00  0.00     0.014 A 
ATOM     31  C   UNL A   1      37.255  29.338  28.258  1.00  0.00     0.010 A 
ATOM     32  C   UNL A   1      38.130  31.488  28.833  1.00  0.00     0.010 A 
ATOM     33  C   UNL A   1      38.289  30.110  28.768  1.00  0.00    -0.014 A 
BRANCH  33  34
ATOM     34  C   UNL A   1      39.631  29.620  29.078  1.00  0.00     0.031 A 
ATOM     35  C   UNL A   1      39.929  29.723  30.536  1.00  0.00     0.074 A 
ATOM     36  C   UNL A   1      40.371  28.868  28.231  1.00  0.00     0.049 A 
ATOM     37  N   UNL A   1      40.633  30.647  31.111  1.00  0.00    -0.248 NA
ATOM     38  C   UNL A   1      39.163  28.898  31.491  1.00  0.00     0.031 C 
ATOM     39  C   UNL A   1      40.054  28.428  26.872  1.00  0.00     0.029 A 
ATOM     40  N   UNL A   1      41.530  28.193  28.484  1.00  0.00    -0.354 N 
ATOM     41  C   UNL A   1      40.582  30.331  32.467  1.00  0.00     0.074 A 
ATOM     42  C   UNL A   1      39.404  29.535  32.636  1.00  0.00     0.031 C 
ATOM     43  C   UNL A   1      40.837  27.373  26.539  1.00  0.00     0.029 A 
ATOM     44  C   UNL A   1      41.808  27.148  27.596  1.00  0.00     0.049 A 
ATOM     45  H   UNL A   1      42.125  28.423  29.233  1.00  0.00     0.167 HD
ATOM     46  C   UNL A   1      41.683  30.409  33.264  1.00  0.00     0.034 A 
ATOM     47  C   UNL A   1      42.728  26.155  27.761  1.00  0.00     0.034 A 
ATOM     48  C   UNL A   1      42.766  31.061  32.566  1.00  0.00     0.049 A 
ATOM     49  C   UNL A   1      43.682  26.638  28.794  1.00  0.00     0.074 A 
ATOM     50  C   UNL A   1      42.922  32.280  31.938  1.00  0.00     0.029 A 
ATOM     51  N   UNL A   1      43.748  30.237  32.063  1.00  0.00    -0.354 N 
ATOM     52  N   UNL A   1      44.488  27.644  28.596  1.00  0.00    -0.248 NA
ATOM     53  C   UNL A   1      43.399  26.333  30.191  1.00  0.00     0.031 C 
ATOM     54  C   UNL A   1      43.667  31.987  30.760  1.00  0.00     0.029 A 
ATOM     55  C   UNL A   1      44.015  30.634  30.781  1.00  0.00     0.049 A 
ATOM     56  H   UNL A   1      44.181  29.493  32.542  1.00  0.00     0.167 HD
ATOM     57  C   UNL A   1      44.403  28.384  29.769  1.00  0.00     0.074 A 
ATOM     58  C   UNL A   1      43.819  27.472  30.755  1.00  0.00     0.031 C 
ATOM     59  C   UNL A   1      44.501  29.746  29.746  1.00  0.00     0.034 A 
BRANCH  46  60
ATOM     60  C   UNL A   1      41.956  29.563  34.495  1.00  0.00     0.023 A 
ATOM     61  C   UNL A   1      42.619  30.210  35.562  1.00  0.00     0.012 A 
ATOM     62  C   UNL A   1      41.841  28.155  34.584  1.00  0.00     0.148 A 
ATOM     63  C   UNL A   1      43.196  29.494  36.617  1.00  0.00     0.002 A 
ATOM     64  C   UNL A   1      42.348  27.453  35.673  1.00  0.00     0.091 A 
ATOM     65  F   UNL A   1      41.361  27.444  33.565  1.00  0.00    -0.205 F 
ATOM     66  C   UNL A   1      43.057  28.115  36.674  1.00  0.00     0.022 A 
BRANCH  64  67
ATOM     67  S   UNL A   1      42.163  25.669  35.814  1.00  0.00     0.127 S 
ATOM     68  O   UNL A   1      42.956  25.203  34.682  1.00  0.00    -0.237 OA
ATOM     69  O   UNL A   1      42.746  25.413  37.131  1.00  0.00    -0.237 OA
ATOM     70  O   UNL A   1      40.729  25.413  35.737  1.00  0.00    -0.744 OA
ENDBRANCH  64  67
ENDBRANCH  46  60
BRANCH  47  71
ATOM     71  C   UNL A   1      42.755  24.737  27.285  1.00  0.00     0.023 A 
ATOM     72  C   UNL A   1      41.569  23.970  27.248  1.00  0.00     0.012 A 
ATOM     73  C   UNL A   1      43.873  24.222  26.595  1.00  0.00     0.148 A 
ATOM     74  C   UNL A   1      41.489  22.779  26.505  1.00  0.00     0.002 A 
ATOM     75  C   UNL A   1      43.775  23.073  25.811  1.00  0.00     0.091 A 
ATOM     76  F   UNL A   1      45.032  24.879  26.674  1.00  0.00    -0.205 F 
ATOM     77  C   UNL A   1      42.582  22.348  25.761  1.00  0.00     0.022 A 
BRANCH  75  78
ATOM     78  S   UNL A   1      45.130  22.520  24.761  1.00  0.00     0.127 S 
ATOM     79  O   UNL A   1      46.148  22.148  25.745  1.00  0.00    -0.237 OA
ATOM     80  O   UNL A   1      44.523  21.395  24.055  1.00  0.00    -0.237 OA
ATOM     81  O   UNL A   1      45.486  23.666  23.934  1.00  0.00    -0.744 OA
ENDBRANCH  75  78
ENDBRANCH  47  71
BRANCH  59  82
ATOM     82  C   UNL A   1      44.915  30.412  28.454  1.00  0.00     0.023 A 
ATOM     83  C   UNL A   1      43.980  30.891  27.512  1.00  0.00     0.012 A 
ATOM     84  C   UNL A   1      46.268  30.749  28.293  1.00  0.00     0.148 A 
ATOM     85  C   UNL A   1      44.385  31.676  26.429  1.00  0.00     0.002 A 
ATOM     86  C   UNL A   1      46.661  31.573  27.246  1.00  0.00     0.091 A 
ATOM     87  F   UNL A   1      47.146  30.291  29.199  1.00  0.00    -0.205 F 
ATOM     88  C   UNL A   1      45.725  32.032  26.305  1.00  0.00     0.022 A 
BRANCH  86  89
ATOM     89  S   UNL A   1      48.342  32.179  27.120  1.00  0.00     0.127 S 
ATOM     90  O   UNL A   1      49.083  30.960  26.802  1.00  0.00    -0.237 OA
ATOM     91  O   UNL A   1      48.248  33.144  26.023  1.00  0.00    -0.237 OA
ATOM     92  O   UNL A   1      48.650  32.780  28.413  1.00  0.00    -0.744 OA
ENDBRANCH  86  89
ENDBRANCH  59  82
ENDBRANCH  33  34
ENDBRANCH  25  28
ENDBRANCH  23  24
ENDBRANCH   1  23
TORSDOF 17
ENDMDL
