MODEL 1
REMARK VINA RESULT:     -11.2      0.000      0.000
REMARK SMILES CCC(CC)(C(=O)NCCCNC(=O)c1ccc(-c2c3nc(c(-c4cccc(S(=O)(=O)[O-])c4F)c4ccc([nH]4)c(-c4cccc(S(=O)(=O)[O-])c4F)c4nc(c(-c5cccc(S(=O)(=O)[O-])c5F)c5ccc2[nH]5)C=C4)C=C3)cc1)n1nnnc1CC[C@@H]1CCCO1
REMARK SMILES IDX 9 1 8 2 6 3 7 4 3 6 2 7 1 8 4 9 5 10 78 11 79 12 82 13 80 14
REMARK SMILES IDX 81 15 83 16 84 17 85 18 86 19 89 20 87 21 88 22 10 23 11 24
REMARK SMILES IDX 12 25 13 26 14 28 15 29 16 30 77 31 17 32 76 33 18 34 19 35
REMARK SMILES IDX 20 36 70 37 21 38 75 39 69 40 71 41 22 42 74 43 68 44 67 45
REMARK SMILES IDX 23 47 55 48 35 49 54 50 36 51 39 52 53 53 72 54 37 55 38 56
REMARK SMILES IDX 52 58 73 59 40 60 24 61 25 62 33 63 26 64 28 65 34 66 27 67
REMARK SMILES IDX 29 68 30 69 31 70 32 71 56 72 57 73 65 74 58 75 60 76 66 77
REMARK SMILES IDX 59 78 61 79 62 80 63 81 64 82 41 83 42 84 50 85 43 86 45 87
REMARK SMILES IDX 51 88 44 89 46 90 47 91 48 92 49 93
REMARK H PARENT 8 5 12 27 71 46 39 57
REMARK Flexibility Score: inf
ROOT
ATOM      1  C   UNL A   1      33.697  27.577  25.260  1.00  0.00     0.117 C 
ENDROOT
BRANCH   1   2
ATOM      2  N   UNL A   1      32.780  26.740  26.016  1.00  0.00    -0.354 N 
ATOM      3  C   UNL A   1      32.234  25.510  25.790  1.00  0.00     0.248 C 
ATOM      4  O   UNL A   1      31.286  25.254  26.538  1.00  0.00    -0.272 OA
ATOM      5  H   UNL A   1      32.493  27.146  26.865  1.00  0.00     0.163 HD
BRANCH   3   6
ATOM      6  C   UNL A   1      32.713  24.540  24.647  1.00  0.00     0.144 C 
BRANCH   6   7
ATOM      7  C   UNL A   1      34.164  24.127  25.034  1.00  0.00     0.037 C 
ATOM      8  C   UNL A   1      34.399  23.601  26.442  1.00  0.00     0.007 C 
ENDBRANCH   6   7
BRANCH   6   9
ATOM      9  C   UNL A   1      31.673  23.392  24.387  1.00  0.00     0.037 C 
ATOM     10  C   UNL A   1      32.034  21.920  24.478  1.00  0.00     0.007 C 
ENDBRANCH   6   9
BRANCH   6  11
ATOM     11  N   UNL A   1      32.690  25.323  23.357  1.00  0.00    -0.214 N 
ATOM     12  N   UNL A   1      33.844  25.371  22.633  1.00  0.00    -0.044 NA
ATOM     13  C   UNL A   1      31.806  26.216  22.766  1.00  0.00     0.152 A 
ATOM     14  N   UNL A   1      33.580  26.074  21.551  1.00  0.00    -0.024 NA
ATOM     15  N   UNL A   1      32.329  26.594  21.613  1.00  0.00    -0.114 NA
BRANCH  13  16
ATOM     16  C   UNL A   1      30.510  26.763  23.245  1.00  0.00     0.082 C 
BRANCH  16  17
ATOM     17  C   UNL A   1      30.076  28.028  22.501  1.00  0.00     0.040 C 
BRANCH  17  18
ATOM     18  C   UNL A   1      29.180  28.953  23.322  1.00  0.00     0.118 C 
ATOM     19  C   UNL A   1      27.969  29.505  22.588  1.00  0.00     0.034 C 
ATOM     20  O   UNL A   1      29.941  30.124  23.689  1.00  0.00    -0.378 OA
ATOM     21  C   UNL A   1      27.663  30.732  23.411  1.00  0.00     0.031 C 
ATOM     22  C   UNL A   1      29.046  31.243  23.756  1.00  0.00     0.160 C 
ENDBRANCH  17  18
ENDBRANCH  16  17
ENDBRANCH  13  16
ENDBRANCH   6  11
ENDBRANCH   3   6
ENDBRANCH   1   2
BRANCH   1  23
ATOM     23  C   UNL A   1      33.205  29.011  25.130  1.00  0.00     0.042 C 
BRANCH  23  24
ATOM     24  C   UNL A   1      32.398  29.486  26.326  1.00  0.00     0.118 C 
BRANCH  24  25
ATOM     25  N   UNL A   1      32.338  30.939  26.409  1.00  0.00    -0.352 N 
ATOM     26  C   UNL A   1      33.086  31.814  27.154  1.00  0.00     0.251 C 
ATOM     27  H   UNL A   1      31.653  31.360  25.841  1.00  0.00     0.163 HD
ATOM     28  O   UNL A   1      32.710  32.984  27.260  1.00  0.00    -0.269 OA
BRANCH  26  29
ATOM     29  C   UNL A   1      34.320  31.365  27.828  1.00  0.00     0.039 A 
ATOM     30  C   UNL A   1      35.382  32.262  27.981  1.00  0.00     0.014 A 
ATOM     31  C   UNL A   1      34.451  30.052  28.282  1.00  0.00     0.014 A 
ATOM     32  C   UNL A   1      36.549  31.849  28.627  1.00  0.00     0.010 A 
ATOM     33  C   UNL A   1      35.557  29.681  29.032  1.00  0.00     0.010 A 
ATOM     34  C   UNL A   1      36.636  30.561  29.181  1.00  0.00    -0.014 A 
BRANCH  34  35
ATOM     35  C   UNL A   1      37.862  30.094  29.876  1.00  0.00     0.031 A 
ATOM     36  C   UNL A   1      38.171  30.587  31.267  1.00  0.00     0.074 A 
ATOM     37  C   UNL A   1      38.732  29.293  29.231  1.00  0.00     0.049 A 
ATOM     38  N   UNL A   1      39.212  30.339  32.017  1.00  0.00    -0.248 NA
ATOM     39  C   UNL A   1      37.202  31.512  31.882  1.00  0.00     0.031 C 
ATOM     40  C   UNL A   1      38.592  28.827  27.850  1.00  0.00     0.029 A 
ATOM     41  N   UNL A   1      39.921  28.749  29.645  1.00  0.00    -0.354 N 
ATOM     42  C   UNL A   1      39.046  31.106  33.165  1.00  0.00     0.074 A 
ATOM     43  C   UNL A   1      37.832  31.870  32.991  1.00  0.00     0.031 C 
ATOM     44  C   UNL A   1      39.645  28.056  27.535  1.00  0.00     0.029 A 
ATOM     45  C   UNL A   1      40.548  27.995  28.680  1.00  0.00     0.049 A 
ATOM     46  H   UNL A   1      40.290  28.884  30.548  1.00  0.00     0.167 HD
ATOM     47  C   UNL A   1      39.809  31.144  34.281  1.00  0.00     0.034 A 
ATOM     48  C   UNL A   1      41.719  27.329  28.717  1.00  0.00     0.034 A 
ATOM     49  C   UNL A   1      40.983  30.338  34.472  1.00  0.00     0.049 A 
ATOM     50  C   UNL A   1      42.512  27.327  29.995  1.00  0.00     0.074 A 
ATOM     51  C   UNL A   1      41.780  30.228  35.597  1.00  0.00     0.029 A 
ATOM     52  N   UNL A   1      41.529  29.501  33.512  1.00  0.00    -0.354 N 
ATOM     53  N   UNL A   1      42.255  27.937  31.128  1.00  0.00    -0.248 NA
ATOM     54  C   UNL A   1      43.733  26.510  30.017  1.00  0.00     0.031 C 
ATOM     55  C   UNL A   1      42.820  29.338  35.309  1.00  0.00     0.029 A 
ATOM     56  C   UNL A   1      42.652  28.871  34.016  1.00  0.00     0.049 A 
ATOM     57  H   UNL A   1      41.169  29.375  32.603  1.00  0.00     0.167 HD
ATOM     58  C   UNL A   1      43.258  27.547  32.007  1.00  0.00     0.074 A 
ATOM     59  C   UNL A   1      44.115  26.632  31.281  1.00  0.00     0.031 C 
ATOM     60  C   UNL A   1      43.461  27.922  33.294  1.00  0.00     0.034 A 
BRANCH  47  61
ATOM     61  C   UNL A   1      39.360  32.042  35.407  1.00  0.00     0.023 A 
ATOM     62  C   UNL A   1      38.480  31.543  36.390  1.00  0.00     0.012 A 
ATOM     63  C   UNL A   1      39.838  33.363  35.518  1.00  0.00     0.148 A 
ATOM     64  C   UNL A   1      38.048  32.354  37.438  1.00  0.00     0.002 A 
ATOM     65  C   UNL A   1      39.442  34.148  36.594  1.00  0.00     0.091 A 
ATOM     66  F   UNL A   1      40.656  33.830  34.563  1.00  0.00    -0.205 F 
ATOM     67  C   UNL A   1      38.537  33.652  37.547  1.00  0.00     0.022 A 
BRANCH  65  68
ATOM     68  S   UNL A   1      40.080  35.805  36.871  1.00  0.00     0.127 S 
ATOM     69  O   UNL A   1      41.520  35.558  36.940  1.00  0.00    -0.237 OA
ATOM     70  O   UNL A   1      39.639  36.509  35.667  1.00  0.00    -0.237 OA
ATOM     71  O   UNL A   1      39.467  36.270  38.107  1.00  0.00    -0.744 OA
ENDBRANCH  65  68
ENDBRANCH  47  61
BRANCH  48  72
ATOM     72  C   UNL A   1      42.166  26.547  27.530  1.00  0.00     0.023 A 
ATOM     73  C   UNL A   1      42.911  27.185  26.519  1.00  0.00     0.012 A 
ATOM     74  C   UNL A   1      41.889  25.172  27.413  1.00  0.00     0.148 A 
ATOM     75  C   UNL A   1      43.340  26.476  25.396  1.00  0.00     0.002 A 
ATOM     76  C   UNL A   1      42.367  24.459  26.321  1.00  0.00     0.091 A 
ATOM     77  F   UNL A   1      41.173  24.585  28.383  1.00  0.00    -0.205 F 
ATOM     78  C   UNL A   1      43.076  25.112  25.301  1.00  0.00     0.022 A 
BRANCH  76  79
ATOM     79  S   UNL A   1      42.196  22.676  26.185  1.00  0.00     0.127 S 
ATOM     80  O   UNL A   1      40.745  22.512  26.209  1.00  0.00    -0.237 OA
ATOM     81  O   UNL A   1      42.825  22.410  24.891  1.00  0.00    -0.237 OA
ATOM     82  O   UNL A   1      42.915  22.124  27.324  1.00  0.00    -0.744 OA
ENDBRANCH  76  79
ENDBRANCH  48  72
BRANCH  60  83
ATOM     83  C   UNL A   1      44.628  27.309  34.022  1.00  0.00     0.023 A 
ATOM     84  C   UNL A   1      45.882  27.949  34.010  1.00  0.00     0.012 A 
ATOM     85  C   UNL A   1      44.458  26.130  34.775  1.00  0.00     0.148 A 
ATOM     86  C   UNL A   1      46.961  27.404  34.703  1.00  0.00     0.002 A 
ATOM     87  C   UNL A   1      45.525  25.621  35.506  1.00  0.00     0.091 A 
ATOM     88  F   UNL A   1      43.261  25.526  34.759  1.00  0.00    -0.205 F 
ATOM     89  C   UNL A   1      46.781  26.249  35.460  1.00  0.00     0.022 A 
BRANCH  87  90
ATOM     90  S   UNL A   1      45.353  24.198  36.588  1.00  0.00     0.127 S 
ATOM     91  O   UNL A   1      44.652  23.250  35.723  1.00  0.00    -0.237 OA
ATOM     92  O   UNL A   1      46.746  23.851  36.870  1.00  0.00    -0.237 OA
ATOM     93  O   UNL A   1      44.602  24.665  37.746  1.00  0.00    -0.744 OA
ENDBRANCH  87  90
ENDBRANCH  60  83
ENDBRANCH  34  35
ENDBRANCH  26  29
ENDBRANCH  24  25
ENDBRANCH  23  24
ENDBRANCH   1  23
TORSDOF 19
ENDMDL
MODEL 2
REMARK VINA RESULT:     -11.2      2.448      8.002
REMARK SMILES CCC(CC)(C(=O)NCCCNC(=O)c1ccc(-c2c3nc(c(-c4cccc(S(=O)(=O)[O-])c4F)c4ccc([nH]4)c(-c4cccc(S(=O)(=O)[O-])c4F)c4nc(c(-c5cccc(S(=O)(=O)[O-])c5F)c5ccc2[nH]5)C=C4)C=C3)cc1)n1nnnc1CC[C@@H]1CCCO1
REMARK SMILES IDX 9 1 8 2 6 3 7 4 3 6 2 7 1 8 4 9 5 10 78 11 79 12 82 13 80 14
REMARK SMILES IDX 81 15 83 16 84 17 85 18 86 19 89 20 87 21 88 22 10 23 11 24
REMARK SMILES IDX 12 25 13 26 14 28 15 29 16 30 77 31 17 32 76 33 18 34 19 35
REMARK SMILES IDX 20 36 70 37 21 38 75 39 69 40 71 41 22 42 74 43 68 44 67 45
REMARK SMILES IDX 23 47 55 48 35 49 54 50 36 51 39 52 53 53 72 54 37 55 38 56
REMARK SMILES IDX 52 58 73 59 40 60 24 61 25 62 33 63 26 64 28 65 34 66 27 67
REMARK SMILES IDX 29 68 30 69 31 70 32 71 56 72 57 73 65 74 58 75 60 76 66 77
REMARK SMILES IDX 59 78 61 79 62 80 63 81 64 82 41 83 42 84 50 85 43 86 45 87
REMARK SMILES IDX 51 88 44 89 46 90 47 91 48 92 49 93
REMARK H PARENT 8 5 12 27 71 46 39 57
REMARK Flexibility Score: inf
ROOT
ATOM      1  C   UNL A   1      31.665  30.270  25.603  1.00  0.00     0.117 C 
ENDROOT
BRANCH   1   2
ATOM      2  N   UNL A   1      32.841  29.537  26.040  1.00  0.00    -0.354 N 
ATOM      3  C   UNL A   1      33.346  28.307  25.731  1.00  0.00     0.248 C 
ATOM      4  O   UNL A   1      34.220  27.927  26.516  1.00  0.00    -0.272 OA
ATOM      5  H   UNL A   1      33.386  30.029  26.695  1.00  0.00     0.163 HD
BRANCH   3   6
ATOM      6  C   UNL A   1      32.821  27.425  24.537  1.00  0.00     0.144 C 
BRANCH   6   7
ATOM      7  C   UNL A   1      32.687  28.399  23.329  1.00  0.00     0.037 C 
ATOM      8  C   UNL A   1      33.965  28.957  22.723  1.00  0.00     0.007 C 
ENDBRANCH   6   7
BRANCH   6   9
ATOM      9  C   UNL A   1      33.698  26.136  24.340  1.00  0.00     0.037 C 
ATOM     10  C   UNL A   1      33.690  25.326  23.056  1.00  0.00     0.007 C 
ENDBRANCH   6   9
BRANCH   6  11
ATOM     11  N   UNL A   1      31.480  26.869  24.948  1.00  0.00    -0.214 N 
ATOM     12  N   UNL A   1      31.456  26.011  26.007  1.00  0.00    -0.044 NA
ATOM     13  C   UNL A   1      30.210  26.850  24.386  1.00  0.00     0.152 A 
ATOM     14  N   UNL A   1      30.194  25.683  26.197  1.00  0.00    -0.024 NA
ATOM     15  N   UNL A   1      29.414  26.197  25.215  1.00  0.00    -0.114 NA
BRANCH  13  16
ATOM     16  C   UNL A   1      29.712  27.384  23.092  1.00  0.00     0.082 C 
BRANCH  16  17
ATOM     17  C   UNL A   1      28.510  28.318  23.247  1.00  0.00     0.040 C 
BRANCH  17  18
ATOM     18  C   UNL A   1      28.792  29.764  22.842  1.00  0.00     0.118 C 
ATOM     19  C   UNL A   1      27.833  30.798  23.409  1.00  0.00     0.034 C 
ATOM     20  O   UNL A   1      28.639  29.880  21.411  1.00  0.00    -0.378 OA
ATOM     21  C   UNL A   1      28.012  31.931  22.430  1.00  0.00     0.031 C 
ATOM     22  C   UNL A   1      28.161  31.199  21.113  1.00  0.00     0.160 C 
ENDBRANCH  17  18
ENDBRANCH  16  17
ENDBRANCH  13  16
ENDBRANCH   6  11
ENDBRANCH   3   6
ENDBRANCH   1   2
BRANCH   1  23
ATOM     23  C   UNL A   1      31.437  31.540  26.410  1.00  0.00     0.042 C 
BRANCH  23  24
ATOM     24  C   UNL A   1      32.697  32.073  27.070  1.00  0.00     0.118 C 
BRANCH  24  25
ATOM     25  N   UNL A   1      32.581  33.482  27.423  1.00  0.00    -0.352 N 
ATOM     26  C   UNL A   1      33.215  34.204  28.401  1.00  0.00     0.251 C 
ATOM     27  H   UNL A   1      31.947  33.997  26.873  1.00  0.00     0.163 HD
ATOM     28  O   UNL A   1      32.793  35.327  28.687  1.00  0.00    -0.269 OA
BRANCH  26  29
ATOM     29  C   UNL A   1      34.384  33.647  29.110  1.00  0.00     0.039 A 
ATOM     30  C   UNL A   1      35.654  34.172  28.854  1.00  0.00     0.014 A 
ATOM     31  C   UNL A   1      34.240  32.584  30.004  1.00  0.00     0.014 A 
ATOM     32  C   UNL A   1      36.764  33.659  29.529  1.00  0.00     0.010 A 
ATOM     33  C   UNL A   1      35.321  32.161  30.763  1.00  0.00     0.010 A 
ATOM     34  C   UNL A   1      36.603  32.665  30.509  1.00  0.00    -0.014 A 
BRANCH  34  35
ATOM     35  C   UNL A   1      37.762  32.102  31.244  1.00  0.00     0.031 A 
ATOM     36  C   UNL A   1      38.570  30.985  30.632  1.00  0.00     0.074 A 
ATOM     37  C   UNL A   1      38.040  32.536  32.488  1.00  0.00     0.049 A 
ATOM     38  N   UNL A   1      39.580  30.327  31.135  1.00  0.00    -0.248 NA
ATOM     39  C   UNL A   1      38.165  30.520  29.293  1.00  0.00     0.031 C 
ATOM     40  C   UNL A   1      37.273  33.542  33.226  1.00  0.00     0.029 A 
ATOM     41  N   UNL A   1      39.030  32.168  33.363  1.00  0.00    -0.354 N 
ATOM     42  C   UNL A   1      39.901  29.348  30.200  1.00  0.00     0.074 A 
ATOM     43  C   UNL A   1      38.944  29.462  29.123  1.00  0.00     0.031 C 
ATOM     44  C   UNL A   1      37.829  33.723  34.435  1.00  0.00     0.029 A 
ATOM     45  C   UNL A   1      38.973  32.827  34.569  1.00  0.00     0.049 A 
ATOM     46  H   UNL A   1      39.718  31.498  33.148  1.00  0.00     0.167 HD
ATOM     47  C   UNL A   1      40.922  28.460  30.213  1.00  0.00     0.034 A 
ATOM     48  C   UNL A   1      39.756  32.719  35.661  1.00  0.00     0.034 A 
ATOM     49  C   UNL A   1      41.905  28.392  31.259  1.00  0.00     0.049 A 
ATOM     50  C   UNL A   1      40.929  31.777  35.621  1.00  0.00     0.074 A 
ATOM     51  C   UNL A   1      43.033  27.594  31.330  1.00  0.00     0.029 A 
ATOM     52  N   UNL A   1      41.877  29.151  32.418  1.00  0.00    -0.354 N 
ATOM     53  N   UNL A   1      41.307  30.970  34.660  1.00  0.00    -0.248 NA
ATOM     54  C   UNL A   1      41.809  31.764  36.798  1.00  0.00     0.031 C 
ATOM     55  C   UNL A   1      43.677  27.858  32.544  1.00  0.00     0.029 A 
ATOM     56  C   UNL A   1      42.967  28.843  33.212  1.00  0.00     0.049 A 
ATOM     57  H   UNL A   1      41.183  29.813  32.642  1.00  0.00     0.167 HD
ATOM     58  C   UNL A   1      42.488  30.382  35.097  1.00  0.00     0.074 A 
ATOM     59  C   UNL A   1      42.773  30.944  36.402  1.00  0.00     0.031 C 
ATOM     60  C   UNL A   1      43.261  29.452  34.483  1.00  0.00     0.034 A 
BRANCH  47  61
ATOM     61  C   UNL A   1      41.061  27.536  29.030  1.00  0.00     0.023 A 
ATOM     62  C   UNL A   1      40.247  26.388  28.941  1.00  0.00     0.012 A 
ATOM     63  C   UNL A   1      41.965  27.822  27.987  1.00  0.00     0.148 A 
ATOM     64  C   UNL A   1      40.359  25.516  27.859  1.00  0.00     0.002 A 
ATOM     65  C   UNL A   1      42.034  26.975  26.887  1.00  0.00     0.091 A 
ATOM     66  F   UNL A   1      42.747  28.905  28.098  1.00  0.00    -0.205 F 
ATOM     67  C   UNL A   1      41.244  25.815  26.827  1.00  0.00     0.022 A 
BRANCH  65  68
ATOM     68  S   UNL A   1      43.080  27.316  25.466  1.00  0.00     0.127 S 
ATOM     69  O   UNL A   1      44.278  27.859  26.106  1.00  0.00    -0.237 OA
ATOM     70  O   UNL A   1      43.251  25.984  24.886  1.00  0.00    -0.237 OA
ATOM     71  O   UNL A   1      42.337  28.251  24.635  1.00  0.00    -0.744 OA
ENDBRANCH  65  68
ENDBRANCH  47  61
BRANCH  48  72
ATOM     72  C   UNL A   1      39.500  33.583  36.848  1.00  0.00     0.023 A 
ATOM     73  C   UNL A   1      39.893  34.936  36.819  1.00  0.00     0.012 A 
ATOM     74  C   UNL A   1      38.842  33.084  37.988  1.00  0.00     0.148 A 
ATOM     75  C   UNL A   1      39.668  35.765  37.917  1.00  0.00     0.002 A 
ATOM     76  C   UNL A   1      38.570  33.930  39.056  1.00  0.00     0.091 A 
ATOM     77  F   UNL A   1      38.482  31.792  37.998  1.00  0.00    -0.205 F 
ATOM     78  C   UNL A   1      38.999  35.266  39.032  1.00  0.00     0.022 A 
BRANCH  76  79
ATOM     79  S   UNL A   1      37.591  33.410  40.470  1.00  0.00     0.127 S 
ATOM     80  O   UNL A   1      38.428  32.358  41.042  1.00  0.00    -0.237 OA
ATOM     81  O   UNL A   1      37.524  34.641  41.259  1.00  0.00    -0.237 OA
ATOM     82  O   UNL A   1      36.313  32.977  39.926  1.00  0.00    -0.744 OA
ENDBRANCH  76  79
ENDBRANCH  48  72
BRANCH  60  83
ATOM     83  C   UNL A   1      44.517  29.014  35.190  1.00  0.00     0.023 A 
ATOM     84  C   UNL A   1      45.739  29.661  34.923  1.00  0.00     0.012 A 
ATOM     85  C   UNL A   1      44.466  28.005  36.171  1.00  0.00     0.148 A 
ATOM     86  C   UNL A   1      46.901  29.281  35.593  1.00  0.00     0.002 A 
ATOM     87  C   UNL A   1      45.618  27.668  36.872  1.00  0.00     0.091 A 
ATOM     88  F   UNL A   1      43.297  27.388  36.398  1.00  0.00    -0.205 F 
ATOM     89  C   UNL A   1      46.839  28.296  36.574  1.00  0.00     0.022 A 
BRANCH  87  90
ATOM     90  S   UNL A   1      45.607  26.483  38.222  1.00  0.00     0.127 S 
ATOM     91  O   UNL A   1      46.987  26.566  38.700  1.00  0.00    -0.237 OA
ATOM     92  O   UNL A   1      44.612  27.054  39.130  1.00  0.00    -0.237 OA
ATOM     93  O   UNL A   1      45.223  25.208  37.631  1.00  0.00    -0.744 OA
ENDBRANCH  87  90
ENDBRANCH  60  83
ENDBRANCH  34  35
ENDBRANCH  26  29
ENDBRANCH  24  25
ENDBRANCH  23  24
ENDBRANCH   1  23
TORSDOF 19
ENDMDL
MODEL 3
REMARK VINA RESULT:     -11.1      5.270     10.410
REMARK SMILES CCC(CC)(C(=O)NCCCNC(=O)c1ccc(-c2c3nc(c(-c4cccc(S(=O)(=O)[O-])c4F)c4ccc([nH]4)c(-c4cccc(S(=O)(=O)[O-])c4F)c4nc(c(-c5cccc(S(=O)(=O)[O-])c5F)c5ccc2[nH]5)C=C4)C=C3)cc1)n1nnnc1CC[C@@H]1CCCO1
REMARK SMILES IDX 9 1 8 2 6 3 7 4 3 6 2 7 1 8 4 9 5 10 78 11 79 12 82 13 80 14
REMARK SMILES IDX 81 15 83 16 84 17 85 18 86 19 89 20 87 21 88 22 10 23 11 24
REMARK SMILES IDX 12 25 13 26 14 28 15 29 16 30 77 31 17 32 76 33 18 34 19 35
REMARK SMILES IDX 20 36 70 37 21 38 75 39 69 40 71 41 22 42 74 43 68 44 67 45
REMARK SMILES IDX 23 47 55 48 35 49 54 50 36 51 39 52 53 53 72 54 37 55 38 56
REMARK SMILES IDX 52 58 73 59 40 60 24 61 25 62 33 63 26 64 28 65 34 66 27 67
REMARK SMILES IDX 29 68 30 69 31 70 32 71 56 72 57 73 65 74 58 75 60 76 66 77
REMARK SMILES IDX 59 78 61 79 62 80 63 81 64 82 41 83 42 84 50 85 43 86 45 87
REMARK SMILES IDX 51 88 44 89 46 90 47 91 48 92 49 93
REMARK H PARENT 8 5 12 27 71 46 39 57
REMARK Flexibility Score: inf
ROOT
ATOM      1  C   UNL A   1      36.076  23.329  23.777  1.00  0.00     0.117 C 
ENDROOT
BRANCH   1   2
ATOM      2  N   UNL A   1      34.858  23.206  22.992  1.00  0.00    -0.354 N 
ATOM      3  C   UNL A   1      33.539  23.411  23.274  1.00  0.00     0.248 C 
ATOM      4  O   UNL A   1      32.780  22.937  22.423  1.00  0.00    -0.272 OA
ATOM      5  H   UNL A   1      35.020  22.915  22.066  1.00  0.00     0.163 HD
BRANCH   3   6
ATOM      6  C   UNL A   1      33.027  24.116  24.585  1.00  0.00     0.144 C 
BRANCH   6   7
ATOM      7  C   UNL A   1      33.917  25.382  24.750  1.00  0.00     0.037 C 
ATOM      8  C   UNL A   1      33.561  26.611  23.928  1.00  0.00     0.007 C 
ENDBRANCH   6   7
BRANCH   6   9
ATOM      9  C   UNL A   1      31.469  24.317  24.564  1.00  0.00     0.037 C 
ATOM     10  C   UNL A   1      30.632  24.381  25.830  1.00  0.00     0.007 C 
ENDBRANCH   6   9
BRANCH   6  11
ATOM     11  N   UNL A   1      33.232  23.147  25.724  1.00  0.00    -0.214 N 
ATOM     12  N   UNL A   1      34.012  23.559  26.763  1.00  0.00    -0.044 NA
ATOM     13  C   UNL A   1      32.976  21.796  25.923  1.00  0.00     0.152 A 
ATOM     14  N   UNL A   1      34.025  22.574  27.638  1.00  0.00    -0.024 NA
ATOM     15  N   UNL A   1      33.386  21.486  27.141  1.00  0.00    -0.114 NA
BRANCH  13  16
ATOM     16  C   UNL A   1      32.399  20.772  25.015  1.00  0.00     0.082 C 
BRANCH  16  17
ATOM     17  C   UNL A   1      33.461  19.956  24.274  1.00  0.00     0.040 C 
BRANCH  17  18
ATOM     18  C   UNL A   1      33.695  18.565  24.859  1.00  0.00     0.118 C 
ATOM     19  C   UNL A   1      33.985  17.471  23.844  1.00  0.00     0.034 C 
ATOM     20  O   UNL A   1      32.484  18.132  25.516  1.00  0.00    -0.378 OA
ATOM     21  C   UNL A   1      33.606  16.238  24.626  1.00  0.00     0.031 C 
ATOM     22  C   UNL A   1      32.390  16.706  25.397  1.00  0.00     0.160 C 
ENDBRANCH  17  18
ENDBRANCH  16  17
ENDBRANCH  13  16
ENDBRANCH   6  11
ENDBRANCH   3   6
ENDBRANCH   1   2
BRANCH   1  23
ATOM     23  C   UNL A   1      36.567  21.990  24.305  1.00  0.00     0.042 C 
BRANCH  23  24
ATOM     24  C   UNL A   1      37.040  22.043  25.747  1.00  0.00     0.118 C 
BRANCH  24  25
ATOM     25  N   UNL A   1      38.065  21.046  26.029  1.00  0.00    -0.352 N 
ATOM     26  C   UNL A   1      39.393  21.204  26.331  1.00  0.00     0.251 C 
ATOM     27  H   UNL A   1      37.755  20.112  25.997  1.00  0.00     0.163 HD
ATOM     28  O   UNL A   1      40.137  20.221  26.294  1.00  0.00    -0.269 OA
BRANCH  26  29
ATOM     29  C   UNL A   1      39.931  22.531  26.690  1.00  0.00     0.039 A 
ATOM     30  C   UNL A   1      39.440  23.668  26.042  1.00  0.00     0.014 A 
ATOM     31  C   UNL A   1      40.943  22.658  27.644  1.00  0.00     0.014 A 
ATOM     32  C   UNL A   1      39.935  24.927  26.384  1.00  0.00     0.010 A 
ATOM     33  C   UNL A   1      41.343  23.916  28.070  1.00  0.00     0.010 A 
ATOM     34  C   UNL A   1      40.873  25.064  27.420  1.00  0.00    -0.014 A 
BRANCH  34  35
ATOM     35  C   UNL A   1      41.416  26.390  27.809  1.00  0.00     0.031 A 
ATOM     36  C   UNL A   1      42.836  26.755  27.453  1.00  0.00     0.074 A 
ATOM     37  C   UNL A   1      40.664  27.230  28.546  1.00  0.00     0.049 A 
ATOM     38  N   UNL A   1      43.508  27.836  27.748  1.00  0.00    -0.248 NA
ATOM     39  C   UNL A   1      43.617  25.756  26.701  1.00  0.00     0.031 C 
ATOM     40  C   UNL A   1      39.312  26.952  29.034  1.00  0.00     0.029 A 
ATOM     41  N   UNL A   1      40.941  28.483  29.034  1.00  0.00    -0.354 N 
ATOM     42  C   UNL A   1      44.793  27.630  27.259  1.00  0.00     0.074 A 
ATOM     43  C   UNL A   1      44.824  26.300  26.696  1.00  0.00     0.031 C 
ATOM     44  C   UNL A   1      38.871  28.006  29.739  1.00  0.00     0.029 A 
ATOM     45  C   UNL A   1      39.918  29.023  29.777  1.00  0.00     0.049 A 
ATOM     46  H   UNL A   1      41.791  28.951  28.867  1.00  0.00     0.167 HD
ATOM     47  C   UNL A   1      45.843  28.484  27.240  1.00  0.00     0.034 A 
ATOM     48  C   UNL A   1      39.834  30.206  30.416  1.00  0.00     0.034 A 
ATOM     49  C   UNL A   1      45.788  29.827  27.748  1.00  0.00     0.049 A 
ATOM     50  C   UNL A   1      40.988  31.167  30.317  1.00  0.00     0.074 A 
ATOM     51  C   UNL A   1      46.763  30.807  27.699  1.00  0.00     0.029 A 
ATOM     52  N   UNL A   1      44.696  30.379  28.398  1.00  0.00    -0.354 N 
ATOM     53  N   UNL A   1      42.141  31.013  29.713  1.00  0.00    -0.248 NA
ATOM     54  C   UNL A   1      40.813  32.482  30.950  1.00  0.00     0.031 C 
ATOM     55  C   UNL A   1      46.265  31.948  28.339  1.00  0.00     0.029 A 
ATOM     56  C   UNL A   1      44.970  31.686  28.757  1.00  0.00     0.049 A 
ATOM     57  H   UNL A   1      43.850  29.909  28.579  1.00  0.00     0.167 HD
ATOM     58  C   UNL A   1      42.813  32.221  29.858  1.00  0.00     0.074 A 
ATOM     59  C   UNL A   1      41.927  33.103  30.589  1.00  0.00     0.031 C 
ATOM     60  C   UNL A   1      44.055  32.566  29.437  1.00  0.00     0.034 A 
BRANCH  47  61
ATOM     61  C   UNL A   1      47.120  28.008  26.594  1.00  0.00     0.023 A 
ATOM     62  C   UNL A   1      48.164  27.504  27.398  1.00  0.00     0.012 A 
ATOM     63  C   UNL A   1      47.275  28.021  25.194  1.00  0.00     0.148 A 
ATOM     64  C   UNL A   1      49.355  27.061  26.825  1.00  0.00     0.002 A 
ATOM     65  C   UNL A   1      48.446  27.531  24.628  1.00  0.00     0.091 A 
ATOM     66  F   UNL A   1      46.283  28.525  24.445  1.00  0.00    -0.205 F 
ATOM     67  C   UNL A   1      49.492  27.064  25.441  1.00  0.00     0.022 A 
BRANCH  65  68
ATOM     68  S   UNL A   1      48.688  27.413  22.851  1.00  0.00     0.127 S 
ATOM     69  O   UNL A   1      47.582  28.229  22.349  1.00  0.00    -0.237 OA
ATOM     70  O   UNL A   1      50.012  28.012  22.682  1.00  0.00    -0.237 OA
ATOM     71  O   UNL A   1      48.615  25.996  22.529  1.00  0.00    -0.744 OA
ENDBRANCH  65  68
ENDBRANCH  47  61
BRANCH  48  72
ATOM     72  C   UNL A   1      38.582  30.576  31.135  1.00  0.00     0.023 A 
ATOM     73  C   UNL A   1      38.451  30.270  32.504  1.00  0.00     0.012 A 
ATOM     74  C   UNL A   1      37.536  31.256  30.481  1.00  0.00     0.148 A 
ATOM     75  C   UNL A   1      37.288  30.602  33.199  1.00  0.00     0.002 A 
ATOM     76  C   UNL A   1      36.405  31.634  31.193  1.00  0.00     0.091 A 
ATOM     77  F   UNL A   1      37.677  31.532  29.176  1.00  0.00    -0.205 F 
ATOM     78  C   UNL A   1      36.270  31.292  32.547  1.00  0.00     0.022 A 
BRANCH  76  79
ATOM     79  S   UNL A   1      35.108  32.646  30.471  1.00  0.00     0.127 S 
ATOM     80  O   UNL A   1      34.171  32.771  31.585  1.00  0.00    -0.237 OA
ATOM     81  O   UNL A   1      35.833  33.872  30.135  1.00  0.00    -0.237 OA
ATOM     82  O   UNL A   1      34.624  31.902  29.318  1.00  0.00    -0.744 OA
ENDBRANCH  76  79
ENDBRANCH  48  72
BRANCH  60  83
ATOM     83  C   UNL A   1      44.517  33.972  29.713  1.00  0.00     0.023 A 
ATOM     84  C   UNL A   1      45.241  34.260  30.886  1.00  0.00     0.012 A 
ATOM     85  C   UNL A   1      44.290  34.994  28.770  1.00  0.00     0.148 A 
ATOM     86  C   UNL A   1      45.697  35.553  31.136  1.00  0.00     0.002 A 
ATOM     87  C   UNL A   1      44.793  36.268  29.002  1.00  0.00     0.091 A 
ATOM     88  F   UNL A   1      43.582  34.705  27.668  1.00  0.00    -0.205 F 
ATOM     89  C   UNL A   1      45.485  36.553  30.191  1.00  0.00     0.022 A 
BRANCH  87  90
ATOM     90  S   UNL A   1      44.654  37.589  27.792  1.00  0.00     0.127 S 
ATOM     91  O   UNL A   1      45.349  38.684  28.468  1.00  0.00    -0.237 OA
ATOM     92  O   UNL A   1      45.366  37.033  26.641  1.00  0.00    -0.237 OA
ATOM     93  O   UNL A   1      43.227  37.788  27.580  1.00  0.00    -0.744 OA
ENDBRANCH  87  90
ENDBRANCH  60  83
ENDBRANCH  34  35
ENDBRANCH  26  29
ENDBRANCH  24  25
ENDBRANCH  23  24
ENDBRANCH   1  23
TORSDOF 19
ENDMDL
