MODEL 1
REMARK VINA RESULT:     -13.5      0.000      0.000
REMARK SMILES O=C(Nc1cccc(C(=O)NCCCNC(=O)c2ccc(-c3c4nc(c(-c5cccc(S(=O)(=O)[O-])c5F)c5ccc([nH]5)c(-c5cccc(S(=O)(=O)[O-])c5F)c5nc(c(-c6cccc(S(=O)(=O)[O-])c6F)c6ccc3[nH]6)C=C5)C=C4)cc2)c1)Nc1cc(Cl)c(Cl)cc1Cl
REMARK SMILES IDX 13 1 12 2 11 3 9 4 10 5 8 7 4 8 5 9 81 10 6 11 7 12 3 13
REMARK SMILES IDX 1 14 2 15 82 16 83 19 84 20 90 21 85 22 89 23 91 24 86 25
REMARK SMILES IDX 87 26 88 27 14 28 15 29 16 30 17 32 18 33 19 34 80 35 20 36
REMARK SMILES IDX 79 37 21 38 22 39 23 40 73 41 24 42 78 43 72 44 74 45 25 46
REMARK SMILES IDX 77 47 71 48 70 49 26 51 58 52 38 53 57 54 39 55 42 56 56 57
REMARK SMILES IDX 75 58 40 59 41 60 55 62 76 63 43 64 27 65 28 66 36 67 29 68
REMARK SMILES IDX 31 69 37 70 30 71 32 72 33 73 34 74 35 75 59 76 60 77 68 78
REMARK SMILES IDX 61 79 63 80 69 81 62 82 64 83 65 84 66 85 67 86 44 87 45 88
REMARK SMILES IDX 53 89 46 90 48 91 54 92 47 93 49 94 50 95 51 96 52 97
REMARK H PARENT 11 6 3 17 82 18 15 31 74 50 42 61
REMARK Flexibility Score: inf
ROOT
ATOM      1  C   UNL A   1      31.415  32.310  26.558  1.00  0.00     0.042 C 
ENDROOT
BRANCH   1   2
ATOM      2  C   UNL A   1      31.393  30.790  26.409  1.00  0.00     0.118 C 
BRANCH   2   3
ATOM      3  N   UNL A   1      32.307  30.340  25.378  1.00  0.00    -0.352 N 
ATOM      4  C   UNL A   1      32.341  29.239  24.562  1.00  0.00     0.251 C 
ATOM      5  O   UNL A   1      33.256  29.195  23.736  1.00  0.00    -0.269 OA
ATOM      6  H   UNL A   1      33.063  30.954  25.233  1.00  0.00     0.163 HD
BRANCH   4   7
ATOM      7  C   UNL A   1      31.329  28.140  24.572  1.00  0.00     0.041 A 
ATOM      8  C   UNL A   1      30.255  26.143  25.470  1.00  0.00     0.043 A 
ATOM      9  C   UNL A   1      29.320  26.165  24.437  1.00  0.00     0.026 A 
ATOM     10  C   UNL A   1      31.295  27.082  25.483  1.00  0.00     0.040 A 
ATOM     11  C   UNL A   1      29.361  27.185  23.489  1.00  0.00     0.003 A 
ATOM     12  C   UNL A   1      30.345  28.175  23.571  1.00  0.00     0.014 A 
BRANCH   8  13
ATOM     13  N   UNL A   1      30.123  25.163  26.469  1.00  0.00    -0.308 N 
ATOM     14  O   UNL A   1      30.310  23.137  27.431  1.00  0.00    -0.248 OA
ATOM     15  C   UNL A   1      30.677  23.905  26.546  1.00  0.00     0.323 C 
ATOM     16  N   UNL A   1      31.758  23.687  25.725  1.00  0.00    -0.306 N 
ATOM     17  H   UNL A   1      29.546  25.413  27.227  1.00  0.00     0.171 HD
ATOM     18  H   UNL A   1      32.098  24.462  25.222  1.00  0.00     0.171 HD
BRANCH  16  19
ATOM     19  C   UNL A   1      32.427  22.458  25.534  1.00  0.00     0.063 A 
ATOM     20  C   UNL A   1      32.039  21.722  24.404  1.00  0.00     0.049 A 
ATOM     21  C   UNL A   1      33.399  21.916  26.393  1.00  0.00     0.066 A 
ATOM     22  C   UNL A   1      32.666  20.512  24.085  1.00  0.00     0.061 A 
ATOM     23  C   UNL A   1      34.021  20.701  26.074  1.00  0.00     0.044 A 
ATOM     24  Cl  UNL A   1      33.754  22.570  27.953  1.00  0.00    -0.082 Cl
ATOM     25  Cl  UNL A   1      32.153  19.702  22.646  1.00  0.00    -0.083 Cl
ATOM     26  C   UNL A   1      33.669  20.008  24.914  1.00  0.00     0.061 A 
ATOM     27  Cl  UNL A   1      34.492  18.528  24.573  1.00  0.00    -0.083 Cl
ENDBRANCH  16  19
ENDBRANCH   8  13
ENDBRANCH   4   7
ENDBRANCH   2   3
ENDBRANCH   1   2
BRANCH   1  28
ATOM     28  C   UNL A   1      32.688  32.824  27.227  1.00  0.00     0.118 C 
BRANCH  28  29
ATOM     29  N   UNL A   1      32.536  34.205  27.674  1.00  0.00    -0.352 N 
ATOM     30  C   UNL A   1      33.098  34.854  28.743  1.00  0.00     0.251 C 
ATOM     31  H   UNL A   1      31.934  34.756  27.122  1.00  0.00     0.163 HD
ATOM     32  O   UNL A   1      32.631  35.932  29.099  1.00  0.00    -0.269 OA
BRANCH  30  33
ATOM     33  C   UNL A   1      34.257  34.273  29.456  1.00  0.00     0.039 A 
ATOM     34  C   UNL A   1      34.029  33.499  30.599  1.00  0.00     0.014 A 
ATOM     35  C   UNL A   1      35.564  34.535  29.039  1.00  0.00     0.014 A 
ATOM     36  C   UNL A   1      35.109  32.950  31.293  1.00  0.00     0.010 A 
ATOM     37  C   UNL A   1      36.636  33.927  29.689  1.00  0.00     0.010 A 
ATOM     38  C   UNL A   1      36.421  33.139  30.828  1.00  0.00    -0.014 A 
BRANCH  38  39
ATOM     39  C   UNL A   1      37.582  32.519  31.515  1.00  0.00     0.031 A 
ATOM     40  C   UNL A   1      38.319  31.373  30.874  1.00  0.00     0.074 A 
ATOM     41  C   UNL A   1      37.915  32.931  32.754  1.00  0.00     0.049 A 
ATOM     42  N   UNL A   1      39.302  30.653  31.351  1.00  0.00    -0.248 NA
ATOM     43  C   UNL A   1      37.874  30.962  29.531  1.00  0.00     0.031 C 
ATOM     44  C   UNL A   1      37.230  33.983  33.508  1.00  0.00     0.029 A 
ATOM     45  N   UNL A   1      38.895  32.495  33.610  1.00  0.00    -0.354 N 
ATOM     46  C   UNL A   1      39.568  29.687  30.389  1.00  0.00     0.074 A 
ATOM     47  C   UNL A   1      38.621  29.888  29.314  1.00  0.00     0.031 C 
ATOM     48  C   UNL A   1      37.813  34.114  34.711  1.00  0.00     0.029 A 
ATOM     49  C   UNL A   1      38.890  33.137  34.827  1.00  0.00     0.049 A 
ATOM     50  H   UNL A   1      39.541  31.790  33.375  1.00  0.00     0.167 HD
ATOM     51  C   UNL A   1      40.535  28.737  30.384  1.00  0.00     0.034 A 
ATOM     52  C   UNL A   1      39.662  32.953  35.916  1.00  0.00     0.034 A 
ATOM     53  C   UNL A   1      41.503  28.571  31.434  1.00  0.00     0.049 A 
ATOM     54  C   UNL A   1      40.751  31.915  35.868  1.00  0.00     0.074 A 
ATOM     55  C   UNL A   1      42.569  27.692  31.492  1.00  0.00     0.029 A 
ATOM     56  N   UNL A   1      41.521  29.302  32.613  1.00  0.00    -0.354 N 
ATOM     57  N   UNL A   1      41.082  31.110  34.887  1.00  0.00    -0.248 NA
ATOM     58  C   UNL A   1      41.597  31.787  37.063  1.00  0.00     0.031 C 
ATOM     59  C   UNL A   1      43.224  27.880  32.714  1.00  0.00     0.029 A 
ATOM     60  C   UNL A   1      42.579  28.892  33.407  1.00  0.00     0.049 A 
ATOM     61  H   UNL A   1      40.878  30.007  32.851  1.00  0.00     0.167 HD
ATOM     62  C   UNL A   1      42.196  30.407  35.332  1.00  0.00     0.074 A 
ATOM     63  C   UNL A   1      42.495  30.898  36.661  1.00  0.00     0.031 C 
ATOM     64  C   UNL A   1      42.898  29.432  34.703  1.00  0.00     0.034 A 
BRANCH  51  65
ATOM     65  C   UNL A   1      40.634  27.843  29.174  1.00  0.00     0.023 A 
ATOM     66  C   UNL A   1      39.793  26.715  29.079  1.00  0.00     0.012 A 
ATOM     67  C   UNL A   1      41.505  28.145  28.110  1.00  0.00     0.148 A 
ATOM     68  C   UNL A   1      39.843  25.881  27.963  1.00  0.00     0.002 A 
ATOM     69  C   UNL A   1      41.518  27.334  26.980  1.00  0.00     0.091 A 
ATOM     70  F   UNL A   1      42.310  29.210  28.225  1.00  0.00    -0.205 F 
ATOM     71  C   UNL A   1      40.697  26.196  26.910  1.00  0.00     0.022 A 
BRANCH  69  72
ATOM     72  S   UNL A   1      42.525  27.694  25.536  1.00  0.00     0.127 S 
ATOM     73  O   UNL A   1      43.865  27.748  26.117  1.00  0.00    -0.237 OA
ATOM     74  O   UNL A   1      42.275  26.529  24.687  1.00  0.00    -0.237 OA
ATOM     75  O   UNL A   1      42.026  28.953  25.001  1.00  0.00    -0.744 OA
ENDBRANCH  69  72
ENDBRANCH  51  65
BRANCH  52  76
ATOM     76  C   UNL A   1      39.482  33.820  37.114  1.00  0.00     0.023 A 
ATOM     77  C   UNL A   1      39.931  35.154  37.071  1.00  0.00     0.012 A 
ATOM     78  C   UNL A   1      38.856  33.344  38.282  1.00  0.00     0.148 A 
ATOM     79  C   UNL A   1      39.792  35.989  38.180  1.00  0.00     0.002 A 
ATOM     80  C   UNL A   1      38.672  34.197  39.366  1.00  0.00     0.091 A 
ATOM     81  F   UNL A   1      38.447  32.068  38.310  1.00  0.00    -0.205 F 
ATOM     82  C   UNL A   1      39.154  35.515  39.322  1.00  0.00     0.022 A 
BRANCH  80  83
ATOM     83  S   UNL A   1      37.752  33.707  40.829  1.00  0.00     0.127 S 
ATOM     84  O   UNL A   1      38.694  32.807  41.487  1.00  0.00    -0.237 OA
ATOM     85  O   UNL A   1      37.548  34.990  41.504  1.00  0.00    -0.237 OA
ATOM     86  O   UNL A   1      36.527  33.093  40.332  1.00  0.00    -0.744 OA
ENDBRANCH  80  83
ENDBRANCH  52  76
BRANCH  64  87
ATOM     87  C   UNL A   1      44.088  28.855  35.423  1.00  0.00     0.023 A 
ATOM     88  C   UNL A   1      45.354  29.457  35.278  1.00  0.00     0.012 A 
ATOM     89  C   UNL A   1      43.937  27.765  36.301  1.00  0.00     0.148 A 
ATOM     90  C   UNL A   1      46.457  28.962  35.971  1.00  0.00     0.002 A 
ATOM     91  C   UNL A   1      45.030  27.308  37.027  1.00  0.00     0.091 A 
ATOM     92  F   UNL A   1      42.728  27.195  36.411  1.00  0.00    -0.205 F 
ATOM     93  C   UNL A   1      46.293  27.897  36.854  1.00  0.00     0.022 A 
BRANCH  91  94
ATOM     94  S   UNL A   1      44.893  26.007  38.258  1.00  0.00     0.127 S 
ATOM     95  O   UNL A   1      44.733  24.819  37.420  1.00  0.00    -0.237 OA
ATOM     96  O   UNL A   1      46.180  26.096  38.950  1.00  0.00    -0.237 OA
ATOM     97  O   UNL A   1      43.741  26.352  39.080  1.00  0.00    -0.744 OA
ENDBRANCH  91  94
ENDBRANCH  64  87
ENDBRANCH  38  39
ENDBRANCH  30  33
ENDBRANCH  28  29
ENDBRANCH   1  28
TORSDOF 15
ENDMDL
MODEL 2
REMARK VINA RESULT:     -13.1      0.504      7.690
REMARK SMILES O=C(Nc1cccc(C(=O)NCCCNC(=O)c2ccc(-c3c4nc(c(-c5cccc(S(=O)(=O)[O-])c5F)c5ccc([nH]5)c(-c5cccc(S(=O)(=O)[O-])c5F)c5nc(c(-c6cccc(S(=O)(=O)[O-])c6F)c6ccc3[nH]6)C=C5)C=C4)cc2)c1)Nc1cc(Cl)c(Cl)cc1Cl
REMARK SMILES IDX 13 1 12 2 11 3 9 4 10 5 8 7 4 8 5 9 81 10 6 11 7 12 3 13
REMARK SMILES IDX 1 14 2 15 82 16 83 19 84 20 90 21 85 22 89 23 91 24 86 25
REMARK SMILES IDX 87 26 88 27 14 28 15 29 16 30 17 32 18 33 19 34 80 35 20 36
REMARK SMILES IDX 79 37 21 38 22 39 23 40 73 41 24 42 78 43 72 44 74 45 25 46
REMARK SMILES IDX 77 47 71 48 70 49 26 51 58 52 38 53 57 54 39 55 42 56 56 57
REMARK SMILES IDX 75 58 40 59 41 60 55 62 76 63 43 64 27 65 28 66 36 67 29 68
REMARK SMILES IDX 31 69 37 70 30 71 32 72 33 73 34 74 35 75 59 76 60 77 68 78
REMARK SMILES IDX 61 79 63 80 69 81 62 82 64 83 65 84 66 85 67 86 44 87 45 88
REMARK SMILES IDX 53 89 46 90 48 91 54 92 47 93 49 94 50 95 51 96 52 97
REMARK H PARENT 11 6 3 17 82 18 15 31 74 50 42 61
REMARK Flexibility Score: inf
ROOT
ATOM      1  C   UNL A   1      31.421  32.253  26.747  1.00  0.00     0.042 C 
ENDROOT
BRANCH   1   2
ATOM      2  C   UNL A   1      31.445  30.734  26.581  1.00  0.00     0.118 C 
BRANCH   2   3
ATOM      3  N   UNL A   1      32.337  30.327  25.513  1.00  0.00    -0.352 N 
ATOM      4  C   UNL A   1      32.357  29.257  24.656  1.00  0.00     0.251 C 
ATOM      5  O   UNL A   1      33.252  29.248  23.808  1.00  0.00    -0.269 OA
ATOM      6  H   UNL A   1      33.086  30.950  25.373  1.00  0.00     0.163 HD
BRANCH   4   7
ATOM      7  C   UNL A   1      31.350  28.153  24.649  1.00  0.00     0.041 A 
ATOM      8  C   UNL A   1      30.288  26.136  25.515  1.00  0.00     0.043 A 
ATOM      9  C   UNL A   1      29.351  26.170  24.484  1.00  0.00     0.026 A 
ATOM     10  C   UNL A   1      31.323  27.080  25.542  1.00  0.00     0.040 A 
ATOM     11  C   UNL A   1      29.386  27.206  23.553  1.00  0.00     0.003 A 
ATOM     12  C   UNL A   1      30.364  28.200  23.650  1.00  0.00     0.014 A 
BRANCH   8  13
ATOM     13  N   UNL A   1      30.162  25.138  26.498  1.00  0.00    -0.308 N 
ATOM     14  O   UNL A   1      30.353  23.096  27.422  1.00  0.00    -0.248 OA
ATOM     15  C   UNL A   1      30.714  23.878  26.549  1.00  0.00     0.323 C 
ATOM     16  N   UNL A   1      31.788  23.673  25.715  1.00  0.00    -0.306 N 
ATOM     17  H   UNL A   1      29.592  25.376  27.265  1.00  0.00     0.171 HD
ATOM     18  H   UNL A   1      32.126  24.456  25.223  1.00  0.00     0.171 HD
BRANCH  16  19
ATOM     19  C   UNL A   1      32.454  22.446  25.496  1.00  0.00     0.063 A 
ATOM     20  C   UNL A   1      32.041  21.723  24.368  1.00  0.00     0.049 A 
ATOM     21  C   UNL A   1      33.444  21.896  26.329  1.00  0.00     0.066 A 
ATOM     22  C   UNL A   1      32.661  20.516  24.023  1.00  0.00     0.061 A 
ATOM     23  C   UNL A   1      34.059  20.685  25.983  1.00  0.00     0.044 A 
ATOM     24  Cl  UNL A   1      33.832  22.534  27.887  1.00  0.00    -0.082 Cl
ATOM     25  Cl  UNL A   1      32.118  19.721  22.587  1.00  0.00    -0.083 Cl
ATOM     26  C   UNL A   1      33.682  20.003  24.825  1.00  0.00     0.061 A 
ATOM     27  Cl  UNL A   1      34.498  18.528  24.450  1.00  0.00    -0.083 Cl
ENDBRANCH  16  19
ENDBRANCH   8  13
ENDBRANCH   4   7
ENDBRANCH   2   3
ENDBRANCH   1   2
BRANCH   1  28
ATOM     28  C   UNL A   1      32.775  32.828  27.156  1.00  0.00     0.118 C 
BRANCH  28  29
ATOM     29  N   UNL A   1      32.642  34.178  27.693  1.00  0.00    -0.352 N 
ATOM     30  C   UNL A   1      33.212  34.747  28.803  1.00  0.00     0.251 C 
ATOM     31  H   UNL A   1      32.048  34.772  27.179  1.00  0.00     0.163 HD
ATOM     32  O   UNL A   1      32.759  35.806  29.230  1.00  0.00    -0.269 OA
BRANCH  30  33
ATOM     33  C   UNL A   1      34.363  34.104  29.476  1.00  0.00     0.039 A 
ATOM     34  C   UNL A   1      34.127  33.303  30.598  1.00  0.00     0.014 A 
ATOM     35  C   UNL A   1      35.671  34.333  29.043  1.00  0.00     0.014 A 
ATOM     36  C   UNL A   1      35.199  32.696  31.255  1.00  0.00     0.010 A 
ATOM     37  C   UNL A   1      36.731  33.669  29.653  1.00  0.00     0.010 A 
ATOM     38  C   UNL A   1      36.509  32.854  30.772  1.00  0.00    -0.014 A 
BRANCH  38  39
ATOM     39  C   UNL A   1      37.660  32.173  31.418  1.00  0.00     0.031 A 
ATOM     40  C   UNL A   1      38.198  32.675  32.731  1.00  0.00     0.074 A 
ATOM     41  C   UNL A   1      38.274  31.160  30.776  1.00  0.00     0.049 A 
ATOM     42  N   UNL A   1      39.240  32.265  33.407  1.00  0.00    -0.248 NA
ATOM     43  C   UNL A   1      37.490  33.807  33.354  1.00  0.00     0.031 C 
ATOM     44  C   UNL A   1      37.890  30.632  29.465  1.00  0.00     0.029 A 
ATOM     45  N   UNL A   1      39.370  30.411  31.126  1.00  0.00    -0.354 N 
ATOM     46  C   UNL A   1      39.334  33.105  34.510  1.00  0.00     0.074 A 
ATOM     47  C   UNL A   1      38.265  34.072  34.396  1.00  0.00     0.031 C 
ATOM     48  C   UNL A   1      38.732  29.644  29.124  1.00  0.00     0.029 A 
ATOM     49  C   UNL A   1      39.733  29.487  30.173  1.00  0.00     0.049 A 
ATOM     50  H   UNL A   1      39.850  30.524  31.978  1.00  0.00     0.167 HD
ATOM     51  C   UNL A   1      40.211  33.057  35.542  1.00  0.00     0.034 A 
ATOM     52  C   UNL A   1      40.762  28.618  30.145  1.00  0.00     0.034 A 
ATOM     53  C   UNL A   1      41.244  32.066  35.673  1.00  0.00     0.049 A 
ATOM     54  C   UNL A   1      41.699  28.563  31.322  1.00  0.00     0.074 A 
ATOM     55  C   UNL A   1      42.135  31.882  36.715  1.00  0.00     0.029 A 
ATOM     56  N   UNL A   1      41.524  31.089  34.729  1.00  0.00    -0.354 N 
ATOM     57  N   UNL A   1      41.680  29.270  32.426  1.00  0.00    -0.248 NA
ATOM     58  C   UNL A   1      42.776  27.565  31.265  1.00  0.00     0.031 C 
ATOM     59  C   UNL A   1      42.965  30.803  36.394  1.00  0.00     0.029 A 
ATOM     60  C   UNL A   1      42.576  30.300  35.163  1.00  0.00     0.049 A 
ATOM     61  H   UNL A   1      41.047  30.973  33.876  1.00  0.00     0.167 HD
ATOM     62  C   UNL A   1      42.716  28.777  33.211  1.00  0.00     0.074 A 
ATOM     63  C   UNL A   1      43.329  27.698  32.464  1.00  0.00     0.031 C 
ATOM     64  C   UNL A   1      43.135  29.191  34.433  1.00  0.00     0.034 A 
BRANCH  51  65
ATOM     65  C   UNL A   1      40.051  34.072  36.645  1.00  0.00     0.023 A 
ATOM     66  C   UNL A   1      40.378  35.421  36.397  1.00  0.00     0.012 A 
ATOM     67  C   UNL A   1      39.526  33.711  37.901  1.00  0.00     0.148 A 
ATOM     68  C   UNL A   1      40.220  36.387  37.388  1.00  0.00     0.002 A 
ATOM     69  C   UNL A   1      39.328  34.688  38.872  1.00  0.00     0.091 A 
ATOM     70  F   UNL A   1      39.238  32.422  38.128  1.00  0.00    -0.205 F 
ATOM     71  C   UNL A   1      39.685  36.023  38.621  1.00  0.00     0.022 A 
BRANCH  69  72
ATOM     72  S   UNL A   1      38.576  34.337  40.465  1.00  0.00     0.127 S 
ATOM     73  O   UNL A   1      39.642  33.600  41.139  1.00  0.00    -0.237 OA
ATOM     74  O   UNL A   1      38.334  35.680  40.994  1.00  0.00    -0.237 OA
ATOM     75  O   UNL A   1      37.370  33.571  40.180  1.00  0.00    -0.744 OA
ENDBRANCH  69  72
ENDBRANCH  51  65
BRANCH  52  76
ATOM     76  C   UNL A   1      40.916  27.679  28.999  1.00  0.00     0.023 A 
ATOM     77  C   UNL A   1      40.073  26.554  28.914  1.00  0.00     0.012 A 
ATOM     78  C   UNL A   1      41.871  27.899  27.987  1.00  0.00     0.148 A 
ATOM     79  C   UNL A   1      40.200  25.646  27.862  1.00  0.00     0.002 A 
ATOM     80  C   UNL A   1      41.956  27.019  26.913  1.00  0.00     0.091 A 
ATOM     81  F   UNL A   1      42.673  28.968  28.091  1.00  0.00    -0.205 F 
ATOM     82  C   UNL A   1      41.133  25.884  26.857  1.00  0.00     0.022 A 
BRANCH  80  83
ATOM     83  S   UNL A   1      43.043  27.315  25.513  1.00  0.00     0.127 S 
ATOM     84  O   UNL A   1      44.245  27.821  26.169  1.00  0.00    -0.237 OA
ATOM     85  O   UNL A   1      43.171  25.975  24.939  1.00  0.00    -0.237 OA
ATOM     86  O   UNL A   1      42.335  28.264  24.664  1.00  0.00    -0.744 OA
ENDBRANCH  80  83
ENDBRANCH  52  76
BRANCH  64  87
ATOM     87  C   UNL A   1      44.284  28.451  35.064  1.00  0.00     0.023 A 
ATOM     88  C   UNL A   1      45.605  28.750  34.678  1.00  0.00     0.012 A 
ATOM     89  C   UNL A   1      44.058  27.515  36.092  1.00  0.00     0.148 A 
ATOM     90  C   UNL A   1      46.683  28.105  35.283  1.00  0.00     0.002 A 
ATOM     91  C   UNL A   1      45.138  26.913  36.725  1.00  0.00     0.091 A 
ATOM     92  F   UNL A   1      42.791  27.231  36.431  1.00  0.00    -0.205 F 
ATOM     93  C   UNL A   1      46.451  27.197  36.314  1.00  0.00     0.022 A 
BRANCH  91  94
ATOM     94  S   UNL A   1      44.938  25.806  38.125  1.00  0.00     0.127 S 
ATOM     95  O   UNL A   1      44.496  24.575  37.472  1.00  0.00    -0.237 OA
ATOM     96  O   UNL A   1      46.293  25.752  38.675  1.00  0.00    -0.237 OA
ATOM     97  O   UNL A   1      43.958  26.436  38.999  1.00  0.00    -0.744 OA
ENDBRANCH  91  94
ENDBRANCH  64  87
ENDBRANCH  38  39
ENDBRANCH  30  33
ENDBRANCH  28  29
ENDBRANCH   1  28
TORSDOF 15
ENDMDL
MODEL 3
REMARK VINA RESULT:     -12.9      6.068     12.063
REMARK SMILES O=C(Nc1cccc(C(=O)NCCCNC(=O)c2ccc(-c3c4nc(c(-c5cccc(S(=O)(=O)[O-])c5F)c5ccc([nH]5)c(-c5cccc(S(=O)(=O)[O-])c5F)c5nc(c(-c6cccc(S(=O)(=O)[O-])c6F)c6ccc3[nH]6)C=C5)C=C4)cc2)c1)Nc1cc(Cl)c(Cl)cc1Cl
REMARK SMILES IDX 13 1 12 2 11 3 9 4 10 5 8 7 4 8 5 9 81 10 6 11 7 12 3 13
REMARK SMILES IDX 1 14 2 15 82 16 83 19 84 20 90 21 85 22 89 23 91 24 86 25
REMARK SMILES IDX 87 26 88 27 14 28 15 29 16 30 17 32 18 33 19 34 80 35 20 36
REMARK SMILES IDX 79 37 21 38 22 39 23 40 73 41 24 42 78 43 72 44 74 45 25 46
REMARK SMILES IDX 77 47 71 48 70 49 26 51 58 52 38 53 57 54 39 55 42 56 56 57
REMARK SMILES IDX 75 58 40 59 41 60 55 62 76 63 43 64 27 65 28 66 36 67 29 68
REMARK SMILES IDX 31 69 37 70 30 71 32 72 33 73 34 74 35 75 59 76 60 77 68 78
REMARK SMILES IDX 61 79 63 80 69 81 62 82 64 83 65 84 66 85 67 86 44 87 45 88
REMARK SMILES IDX 53 89 46 90 48 91 54 92 47 93 49 94 50 95 51 96 52 97
REMARK H PARENT 11 6 3 17 82 18 15 31 74 50 42 61
REMARK Flexibility Score: inf
ROOT
ATOM      1  C   UNL A   1      38.173  19.780  24.985  1.00  0.00     0.042 C 
ENDROOT
BRANCH   1   2
ATOM      2  C   UNL A   1      37.197  20.912  24.666  1.00  0.00     0.118 C 
BRANCH   2   3
ATOM      3  N   UNL A   1      36.311  21.184  25.780  1.00  0.00    -0.352 N 
ATOM      4  C   UNL A   1      34.977  21.488  25.873  1.00  0.00     0.251 C 
ATOM      5  O   UNL A   1      34.518  21.607  27.012  1.00  0.00    -0.269 OA
ATOM      6  H   UNL A   1      36.761  21.142  26.654  1.00  0.00     0.163 HD
BRANCH   4   7
ATOM      7  C   UNL A   1      34.052  21.627  24.708  1.00  0.00     0.041 A 
ATOM      8  C   UNL A   1      33.222  22.674  22.668  1.00  0.00     0.043 A 
ATOM      9  C   UNL A   1      32.228  21.703  22.558  1.00  0.00     0.026 A 
ATOM     10  C   UNL A   1      34.072  22.672  23.781  1.00  0.00     0.040 A 
ATOM     11  C   UNL A   1      32.159  20.676  23.497  1.00  0.00     0.003 A 
ATOM     12  C   UNL A   1      33.078  20.628  24.549  1.00  0.00     0.014 A 
BRANCH   8  13
ATOM     13  N   UNL A   1      33.330  23.635  21.648  1.00  0.00    -0.308 N 
ATOM     14  O   UNL A   1      32.898  25.543  20.536  1.00  0.00    -0.248 OA
ATOM     15  C   UNL A   1      32.825  24.915  21.587  1.00  0.00     0.323 C 
ATOM     16  N   UNL A   1      32.450  25.457  22.794  1.00  0.00    -0.306 N 
ATOM     17  H   UNL A   1      33.844  23.351  20.858  1.00  0.00     0.171 HD
ATOM     18  H   UNL A   1      32.653  24.930  23.600  1.00  0.00     0.171 HD
BRANCH  16  19
ATOM     19  C   UNL A   1      31.802  26.697  22.987  1.00  0.00     0.063 A 
ATOM     20  C   UNL A   1      30.402  26.647  23.066  1.00  0.00     0.049 A 
ATOM     21  C   UNL A   1      32.440  27.948  23.064  1.00  0.00     0.066 A 
ATOM     22  C   UNL A   1      29.655  27.807  23.304  1.00  0.00     0.061 A 
ATOM     23  C   UNL A   1      31.688  29.107  23.297  1.00  0.00     0.044 A 
ATOM     24  Cl  UNL A   1      34.112  28.181  22.694  1.00  0.00    -0.082 Cl
ATOM     25  Cl  UNL A   1      27.939  27.638  23.434  1.00  0.00    -0.083 Cl
ATOM     26  C   UNL A   1      30.301  29.037  23.434  1.00  0.00     0.061 A 
ATOM     27  Cl  UNL A   1      29.441  30.503  23.741  1.00  0.00    -0.083 Cl
ENDBRANCH  16  19
ENDBRANCH   8  13
ENDBRANCH   4   7
ENDBRANCH   2   3
ENDBRANCH   1   2
BRANCH   1  28
ATOM     28  C   UNL A   1      39.210  20.168  26.037  1.00  0.00     0.118 C 
BRANCH  28  29
ATOM     29  N   UNL A   1      40.311  19.212  26.079  1.00  0.00    -0.352 N 
ATOM     30  C   UNL A   1      41.665  19.425  26.088  1.00  0.00     0.251 C 
ATOM     31  H   UNL A   1      40.038  18.266  26.103  1.00  0.00     0.163 HD
ATOM     32  O   UNL A   1      42.419  18.485  25.851  1.00  0.00    -0.269 OA
BRANCH  30  33
ATOM     33  C   UNL A   1      42.218  20.765  26.386  1.00  0.00     0.039 A 
ATOM     34  C   UNL A   1      42.516  21.625  25.324  1.00  0.00     0.014 A 
ATOM     35  C   UNL A   1      42.497  21.153  27.699  1.00  0.00     0.014 A 
ATOM     36  C   UNL A   1      43.048  22.890  25.582  1.00  0.00     0.010 A 
ATOM     37  C   UNL A   1      42.959  22.441  27.959  1.00  0.00     0.010 A 
ATOM     38  C   UNL A   1      43.250  23.318  26.905  1.00  0.00    -0.014 A 
BRANCH  38  39
ATOM     39  C   UNL A   1      43.761  24.678  27.209  1.00  0.00     0.031 A 
ATOM     40  C   UNL A   1      42.824  25.746  27.708  1.00  0.00     0.074 A 
ATOM     41  C   UNL A   1      45.050  24.974  26.951  1.00  0.00     0.049 A 
ATOM     42  N   UNL A   1      43.065  27.009  27.951  1.00  0.00    -0.248 NA
ATOM     43  C   UNL A   1      41.423  25.351  27.936  1.00  0.00     0.031 C 
ATOM     44  C   UNL A   1      46.037  24.044  26.398  1.00  0.00     0.029 A 
ATOM     45  N   UNL A   1      45.745  26.149  27.091  1.00  0.00    -0.354 N 
ATOM     46  C   UNL A   1      41.848  27.564  28.325  1.00  0.00     0.074 A 
ATOM     47  C   UNL A   1      40.860  26.511  28.242  1.00  0.00     0.031 C 
ATOM     48  C   UNL A   1      47.209  24.681  26.250  1.00  0.00     0.029 A 
ATOM     49  C   UNL A   1      47.052  26.070  26.667  1.00  0.00     0.049 A 
ATOM     50  H   UNL A   1      45.347  26.970  27.461  1.00  0.00     0.167 HD
ATOM     51  C   UNL A   1      41.581  28.830  28.731  1.00  0.00     0.034 A 
ATOM     52  C   UNL A   1      48.012  27.014  26.613  1.00  0.00     0.034 A 
ATOM     53  C   UNL A   1      42.576  29.860  28.854  1.00  0.00     0.049 A 
ATOM     54  C   UNL A   1      47.696  28.401  27.105  1.00  0.00     0.074 A 
ATOM     55  C   UNL A   1      42.425  31.151  29.328  1.00  0.00     0.029 A 
ATOM     56  N   UNL A   1      43.909  29.717  28.500  1.00  0.00    -0.354 N 
ATOM     57  N   UNL A   1      46.572  28.868  27.594  1.00  0.00    -0.248 NA
ATOM     58  C   UNL A   1      48.791  29.382  27.071  1.00  0.00     0.031 C 
ATOM     59  C   UNL A   1      43.664  31.793  29.246  1.00  0.00     0.029 A 
ATOM     60  C   UNL A   1      44.592  30.896  28.743  1.00  0.00     0.049 A 
ATOM     61  H   UNL A   1      44.311  28.898  28.130  1.00  0.00     0.167 HD
ATOM     62  C   UNL A   1      46.835  30.183  27.962  1.00  0.00     0.074 A 
ATOM     63  C   UNL A   1      48.229  30.430  27.658  1.00  0.00     0.031 C 
ATOM     64  C   UNL A   1      45.994  31.107  28.489  1.00  0.00     0.034 A 
BRANCH  51  65
ATOM     65  C   UNL A   1      40.164  29.152  29.133  1.00  0.00     0.023 A 
ATOM     66  C   UNL A   1      39.217  29.466  28.136  1.00  0.00     0.012 A 
ATOM     67  C   UNL A   1      39.752  29.089  30.478  1.00  0.00     0.148 A 
ATOM     68  C   UNL A   1      37.894  29.746  28.472  1.00  0.00     0.002 A 
ATOM     69  C   UNL A   1      38.420  29.326  30.802  1.00  0.00     0.091 A 
ATOM     70  F   UNL A   1      40.669  28.808  31.415  1.00  0.00    -0.205 F 
ATOM     71  C   UNL A   1      37.494  29.667  29.803  1.00  0.00     0.022 A 
BRANCH  69  72
ATOM     72  S   UNL A   1      37.786  29.174  32.476  1.00  0.00     0.127 S 
ATOM     73  O   UNL A   1      38.716  30.019  33.222  1.00  0.00    -0.237 OA
ATOM     74  O   UNL A   1      36.435  29.722  32.344  1.00  0.00    -0.237 OA
ATOM     75  O   UNL A   1      37.835  27.754  32.797  1.00  0.00    -0.744 OA
ENDBRANCH  69  72
ENDBRANCH  51  65
BRANCH  52  76
ATOM     76  C   UNL A   1      49.382  26.661  26.145  1.00  0.00     0.023 A 
ATOM     77  C   UNL A   1      50.207  25.872  26.970  1.00  0.00     0.012 A 
ATOM     78  C   UNL A   1      49.863  27.079  24.890  1.00  0.00     0.148 A 
ATOM     79  C   UNL A   1      51.501  25.535  26.569  1.00  0.00     0.002 A 
ATOM     80  C   UNL A   1      51.134  26.695  24.473  1.00  0.00     0.091 A 
ATOM     81  F   UNL A   1      49.068  27.839  24.124  1.00  0.00    -0.205 F 
ATOM     82  C   UNL A   1      51.960  25.937  25.318  1.00  0.00     0.022 A 
BRANCH  80  83
ATOM     83  S   UNL A   1      51.758  27.063  22.829  1.00  0.00     0.127 S 
ATOM     84  O   UNL A   1      52.923  26.187  22.749  1.00  0.00    -0.237 OA
ATOM     85  O   UNL A   1      50.631  26.671  21.981  1.00  0.00    -0.237 OA
ATOM     86  O   UNL A   1      52.036  28.493  22.829  1.00  0.00    -0.744 OA
ENDBRANCH  80  83
ENDBRANCH  52  76
BRANCH  64  87
ATOM     87  C   UNL A   1      46.563  32.463  28.812  1.00  0.00     0.023 A 
ATOM     88  C   UNL A   1      47.083  32.715  30.097  1.00  0.00     0.012 A 
ATOM     89  C   UNL A   1      46.650  33.460  27.822  1.00  0.00     0.148 A 
ATOM     90  C   UNL A   1      47.653  33.951  30.399  1.00  0.00     0.002 A 
ATOM     91  C   UNL A   1      47.264  34.672  28.116  1.00  0.00     0.091 A 
ATOM     92  F   UNL A   1      46.131  33.207  26.611  1.00  0.00    -0.205 F 
ATOM     93  C   UNL A   1      47.755  34.924  29.408  1.00  0.00     0.022 A 
BRANCH  91  94
ATOM     94  S   UNL A   1      47.526  35.944  26.875  1.00  0.00     0.127 S 
ATOM     95  O   UNL A   1      46.162  36.415  26.638  1.00  0.00    -0.237 OA
ATOM     96  O   UNL A   1      48.385  36.895  27.583  1.00  0.00    -0.237 OA
ATOM     97  O   UNL A   1      48.163  35.280  25.747  1.00  0.00    -0.744 OA
ENDBRANCH  91  94
ENDBRANCH  64  87
ENDBRANCH  38  39
ENDBRANCH  30  33
ENDBRANCH  28  29
ENDBRANCH   1  28
TORSDOF 15
ENDMDL
