MODEL 1
REMARK VINA RESULT:     -10.2      0.000      0.000
REMARK SMILES CCCCOc1ccccc1C[C@@H]([NH3+])C(=O)NCCCNC(=O)c1ccc(-c2c3nc(c(-c4cccc(S(=O)(=O)[O-])c4F)c4ccc([nH]4)c(-c4cccc(S(=O)(=O)[O-])c4F)c4nc(c(-c5cccc(S(=O)(=O)[O-])c5F)c5ccc2[nH]5)C=C4)C=C3)cc1
REMARK SMILES IDX 15 1 16 2 17 3 13 5 12 6 11 7 6 8 7 9 8 10 10 11 9 12 5 13
REMARK SMILES IDX 4 14 3 15 2 16 1 17 14 18 18 22 19 23 20 24 21 25 22 26
REMARK SMILES IDX 23 28 24 29 25 30 86 31 26 32 85 33 27 34 28 35 29 36 79 37
REMARK SMILES IDX 30 38 84 39 78 40 80 41 31 42 83 43 77 44 76 45 32 47 64 48
REMARK SMILES IDX 44 49 63 50 45 51 48 52 62 53 81 54 46 55 47 56 61 58 82 59
REMARK SMILES IDX 49 60 33 61 34 62 42 63 35 64 37 65 43 66 36 67 38 68 39 69
REMARK SMILES IDX 40 70 41 71 65 72 66 73 74 74 67 75 69 76 75 77 68 78 70 79
REMARK SMILES IDX 71 80 72 81 73 82 50 83 51 84 59 85 52 86 54 87 60 88 53 89
REMARK SMILES IDX 55 90 56 91 57 92 58 93
REMARK H PARENT 17 4 14 19 14 20 14 21 21 27 80 46 48 57
REMARK Flexibility Score: inf
ROOT
ATOM      1  C   UNL A   1      33.622  25.951  23.105  1.00  0.00     0.278 C 
ATOM      2  O   UNL A   1      33.998  26.287  21.976  1.00  0.00    -0.268 OA
ATOM      3  N   UNL A   1      33.201  26.944  23.950  1.00  0.00    -0.351 N 
ATOM      4  H   UNL A   1      33.437  27.858  23.667  1.00  0.00     0.163 HD
ENDROOT
BRANCH   1   5
ATOM      5  C   UNL A   1      33.677  24.460  23.537  1.00  0.00     0.275 C 
BRANCH   5   6
ATOM      6  C   UNL A   1      34.435  24.410  24.870  1.00  0.00     0.115 C 
BRANCH   6   7
ATOM      7  C   UNL A   1      35.469  23.355  25.213  1.00  0.00     0.001 A 
ATOM      8  C   UNL A   1      35.114  21.988  25.221  1.00  0.00     0.122 A 
ATOM      9  C   UNL A   1      36.086  20.988  25.312  1.00  0.00     0.047 A 
ATOM     10  C   UNL A   1      37.435  21.331  25.337  1.00  0.00     0.004 A 
ATOM     11  C   UNL A   1      36.835  23.676  25.244  1.00  0.00     0.008 A 
ATOM     12  C   UNL A   1      37.808  22.673  25.305  1.00  0.00     0.001 A 
BRANCH   8  13
ATOM     13  O   UNL A   1      33.787  21.646  25.151  1.00  0.00    -0.493 OA
BRANCH  13  14
ATOM     14  C   UNL A   1      33.536  20.229  25.223  1.00  0.00     0.229 C 
BRANCH  14  15
ATOM     15  C   UNL A   1      32.404  19.848  24.265  1.00  0.00     0.041 C 
BRANCH  15  16
ATOM     16  C   UNL A   1      32.430  18.368  23.882  1.00  0.00     0.000 C 
ATOM     17  C   UNL A   1      32.421  18.091  22.393  1.00  0.00     0.004 C 
ENDBRANCH  15  16
ENDBRANCH  14  15
ENDBRANCH  13  14
ENDBRANCH   8  13
ENDBRANCH   6   7
ENDBRANCH   5   6
BRANCH   5  18
ATOM     18  N   UNL A   1      32.317  23.881  23.510  1.00  0.00    -0.347 N 
ATOM     19  H   UNL A   1      32.286  23.119  22.832  1.00  0.00     0.345 HD
ATOM     20  H   UNL A   1      31.646  24.601  23.244  1.00  0.00     0.345 HD
ATOM     21  H   UNL A   1      32.082  23.522  24.436  1.00  0.00     0.345 HD
ENDBRANCH   5  18
ENDBRANCH   1   5
BRANCH   3  22
ATOM     22  C   UNL A   1      32.458  26.864  25.204  1.00  0.00     0.118 C 
BRANCH  22  23
ATOM     23  C   UNL A   1      32.989  27.784  26.307  1.00  0.00     0.042 C 
BRANCH  23  24
ATOM     24  C   UNL A   1      34.052  28.794  25.883  1.00  0.00     0.118 C 
BRANCH  24  25
ATOM     25  N   UNL A   1      33.856  30.094  26.504  1.00  0.00    -0.352 N 
ATOM     26  C   UNL A   1      34.533  30.704  27.533  1.00  0.00     0.251 C 
ATOM     27  H   UNL A   1      33.118  30.623  26.127  1.00  0.00     0.163 HD
ATOM     28  O   UNL A   1      34.045  31.714  28.040  1.00  0.00    -0.269 OA
BRANCH  26  29
ATOM     29  C   UNL A   1      35.822  30.177  28.053  1.00  0.00     0.039 A 
ATOM     30  C   UNL A   1      36.961  30.291  27.247  1.00  0.00     0.014 A 
ATOM     31  C   UNL A   1      35.915  29.508  29.276  1.00  0.00     0.014 A 
ATOM     32  C   UNL A   1      38.189  29.778  27.682  1.00  0.00     0.010 A 
ATOM     33  C   UNL A   1      37.157  29.057  29.740  1.00  0.00     0.010 A 
ATOM     34  C   UNL A   1      38.308  29.177  28.946  1.00  0.00    -0.014 A 
BRANCH  34  35
ATOM     35  C   UNL A   1      39.626  28.693  29.445  1.00  0.00     0.031 A 
ATOM     36  C   UNL A   1      40.346  29.410  30.560  1.00  0.00     0.074 A 
ATOM     37  C   UNL A   1      40.218  27.637  28.849  1.00  0.00     0.049 A 
ATOM     38  N   UNL A   1      41.510  29.143  31.098  1.00  0.00    -0.248 NA
ATOM     39  C   UNL A   1      39.683  30.593  31.133  1.00  0.00     0.031 C 
ATOM     40  C   UNL A   1      39.672  26.897  27.709  1.00  0.00     0.029 A 
ATOM     41  N   UNL A   1      41.420  27.019  29.097  1.00  0.00    -0.354 N 
ATOM     42  C   UNL A   1      41.736  30.139  32.040  1.00  0.00     0.074 A 
ATOM     43  C   UNL A   1      40.599  31.033  31.986  1.00  0.00     0.031 C 
ATOM     44  C   UNL A   1      40.534  25.930  27.358  1.00  0.00     0.029 A 
ATOM     45  C   UNL A   1      41.707  25.995  28.225  1.00  0.00     0.049 A 
ATOM     46  H   UNL A   1      42.020  27.284  29.832  1.00  0.00     0.167 HD
ATOM     47  C   UNL A   1      42.781  30.287  32.891  1.00  0.00     0.034 A 
ATOM     48  C   UNL A   1      42.793  25.203  28.121  1.00  0.00     0.034 A 
ATOM     49  C   UNL A   1      43.892  29.375  32.979  1.00  0.00     0.049 A 
ATOM     50  C   UNL A   1      43.919  25.362  29.107  1.00  0.00     0.074 A 
ATOM     51  C   UNL A   1      44.944  29.387  33.879  1.00  0.00     0.029 A 
ATOM     52  N   UNL A   1      44.104  28.298  32.134  1.00  0.00    -0.354 N 
ATOM     53  N   UNL A   1      44.030  26.206  30.104  1.00  0.00    -0.248 NA
ATOM     54  C   UNL A   1      45.052  24.433  28.980  1.00  0.00     0.031 C 
ATOM     55  C   UNL A   1      45.809  28.336  33.558  1.00  0.00     0.029 A 
ATOM     56  C   UNL A   1      45.278  27.648  32.480  1.00  0.00     0.049 A 
ATOM     57  H   UNL A   1      43.509  28.033  31.397  1.00  0.00     0.167 HD
ATOM     58  C   UNL A   1      45.225  25.891  30.740  1.00  0.00     0.074 A 
ATOM     59  C   UNL A   1      45.789  24.761  30.032  1.00  0.00     0.031 C 
ATOM     60  C   UNL A   1      45.810  26.494  31.804  1.00  0.00     0.034 A 
BRANCH  47  61
ATOM     61  C   UNL A   1      42.758  31.458  33.842  1.00  0.00     0.023 A 
ATOM     62  C   UNL A   1      43.310  32.691  33.442  1.00  0.00     0.012 A 
ATOM     63  C   UNL A   1      42.119  31.361  35.095  1.00  0.00     0.148 A 
ATOM     64  C   UNL A   1      43.255  33.801  34.283  1.00  0.00     0.002 A 
ATOM     65  C   UNL A   1      42.029  32.484  35.909  1.00  0.00     0.091 A 
ATOM     66  F   UNL A   1      41.613  30.177  35.466  1.00  0.00    -0.205 F 
ATOM     67  C   UNL A   1      42.605  33.701  35.510  1.00  0.00     0.022 A 
BRANCH  65  68
ATOM     68  S   UNL A   1      41.142  32.483  37.472  1.00  0.00     0.127 S 
ATOM     69  O   UNL A   1      39.842  31.945  37.073  1.00  0.00    -0.237 OA
ATOM     70  O   UNL A   1      41.953  31.577  38.286  1.00  0.00    -0.237 OA
ATOM     71  O   UNL A   1      41.129  33.866  37.929  1.00  0.00    -0.744 OA
ENDBRANCH  65  68
ENDBRANCH  47  61
BRANCH  48  72
ATOM     72  C   UNL A   1      42.848  24.149  27.068  1.00  0.00     0.023 A 
ATOM     73  C   UNL A   1      43.519  24.408  25.857  1.00  0.00     0.012 A 
ATOM     74  C   UNL A   1      42.256  22.885  27.268  1.00  0.00     0.148 A 
ATOM     75  C   UNL A   1      43.569  23.443  24.851  1.00  0.00     0.002 A 
ATOM     76  C   UNL A   1      42.362  21.909  26.286  1.00  0.00     0.091 A 
ATOM     77  F   UNL A   1      41.610  22.662  28.421  1.00  0.00    -0.205 F 
ATOM     78  C   UNL A   1      43.000  22.190  25.068  1.00  0.00     0.022 A 
BRANCH  76  79
ATOM     79  S   UNL A   1      41.778  20.228  26.535  1.00  0.00     0.127 S 
ATOM     80  O   UNL A   1      42.385  19.886  27.817  1.00  0.00    -0.237 OA
ATOM     81  O   UNL A   1      40.327  20.413  26.568  1.00  0.00    -0.237 OA
ATOM     82  O   UNL A   1      42.257  19.472  25.383  1.00  0.00    -0.744 OA
ENDBRANCH  76  79
ENDBRANCH  48  72
BRANCH  60  83
ATOM     83  C   UNL A   1      47.117  25.929  32.299  1.00  0.00     0.023 A 
ATOM     84  C   UNL A   1      47.129  25.045  33.397  1.00  0.00     0.012 A 
ATOM     85  C   UNL A   1      48.325  26.221  31.635  1.00  0.00     0.148 A 
ATOM     86  C   UNL A   1      48.327  24.491  33.847  1.00  0.00     0.002 A 
ATOM     87  C   UNL A   1      49.507  25.625  32.058  1.00  0.00     0.091 A 
ATOM     88  F   UNL A   1      48.298  27.078  30.603  1.00  0.00    -0.205 F 
ATOM     89  C   UNL A   1      49.512  24.770  33.173  1.00  0.00     0.022 A 
BRANCH  87  90
ATOM     90  S   UNL A   1      51.065  25.852  31.191  1.00  0.00     0.127 S 
ATOM     91  O   UNL A   1      50.688  25.540  29.814  1.00  0.00    -0.237 OA
ATOM     92  O   UNL A   1      51.355  27.265  31.439  1.00  0.00    -0.237 OA
ATOM     93  O   UNL A   1      52.005  24.926  31.808  1.00  0.00    -0.744 OA
ENDBRANCH  87  90
ENDBRANCH  60  83
ENDBRANCH  34  35
ENDBRANCH  26  29
ENDBRANCH  24  25
ENDBRANCH  23  24
ENDBRANCH  22  23
ENDBRANCH   3  22
TORSDOF 20
ENDMDL
MODEL 2
REMARK VINA RESULT:     -10.2      2.572      8.292
REMARK SMILES CCCCOc1ccccc1C[C@@H]([NH3+])C(=O)NCCCNC(=O)c1ccc(-c2c3nc(c(-c4cccc(S(=O)(=O)[O-])c4F)c4ccc([nH]4)c(-c4cccc(S(=O)(=O)[O-])c4F)c4nc(c(-c5cccc(S(=O)(=O)[O-])c5F)c5ccc2[nH]5)C=C4)C=C3)cc1
REMARK SMILES IDX 15 1 16 2 17 3 13 5 12 6 11 7 6 8 7 9 8 10 10 11 9 12 5 13
REMARK SMILES IDX 4 14 3 15 2 16 1 17 14 18 18 22 19 23 20 24 21 25 22 26
REMARK SMILES IDX 23 28 24 29 25 30 86 31 26 32 85 33 27 34 28 35 29 36 79 37
REMARK SMILES IDX 30 38 84 39 78 40 80 41 31 42 83 43 77 44 76 45 32 47 64 48
REMARK SMILES IDX 44 49 63 50 45 51 48 52 62 53 81 54 46 55 47 56 61 58 82 59
REMARK SMILES IDX 49 60 33 61 34 62 42 63 35 64 37 65 43 66 36 67 38 68 39 69
REMARK SMILES IDX 40 70 41 71 65 72 66 73 74 74 67 75 69 76 75 77 68 78 70 79
REMARK SMILES IDX 71 80 72 81 73 82 50 83 51 84 59 85 52 86 54 87 60 88 53 89
REMARK SMILES IDX 55 90 56 91 57 92 58 93
REMARK H PARENT 17 4 14 19 14 20 14 21 21 27 80 46 48 57
REMARK Flexibility Score: inf
ROOT
ATOM      1  C   UNL A   1      33.015  25.581  22.543  1.00  0.00     0.278 C 
ATOM      2  O   UNL A   1      33.640  25.539  21.477  1.00  0.00    -0.268 OA
ATOM      3  N   UNL A   1      32.726  26.818  23.057  1.00  0.00    -0.351 N 
ATOM      4  H   UNL A   1      33.227  27.563  22.651  1.00  0.00     0.163 HD
ENDROOT
BRANCH   1   5
ATOM      5  C   UNL A   1      32.622  24.267  23.273  1.00  0.00     0.275 C 
BRANCH   5   6
ATOM      6  C   UNL A   1      33.598  23.184  22.796  1.00  0.00     0.115 C 
BRANCH   6   7
ATOM      7  C   UNL A   1      34.666  22.564  23.677  1.00  0.00     0.001 A 
ATOM      8  C   UNL A   1      34.401  21.366  24.377  1.00  0.00     0.122 A 
ATOM      9  C   UNL A   1      35.426  20.658  25.013  1.00  0.00     0.047 A 
ATOM     10  C   UNL A   1      36.742  21.099  24.910  1.00  0.00     0.004 A 
ATOM     11  C   UNL A   1      35.999  22.991  23.592  1.00  0.00     0.008 A 
ATOM     12  C   UNL A   1      37.027  22.264  24.203  1.00  0.00     0.001 A 
BRANCH   8  13
ATOM     13  O   UNL A   1      33.111  20.905  24.442  1.00  0.00    -0.493 OA
BRANCH  13  14
ATOM     14  C   UNL A   1      32.999  19.486  24.666  1.00  0.00     0.229 C 
BRANCH  14  15
ATOM     15  C   UNL A   1      32.394  18.806  23.435  1.00  0.00     0.041 C 
BRANCH  15  16
ATOM     16  C   UNL A   1      33.296  17.712  22.864  1.00  0.00     0.000 C 
ATOM     17  C   UNL A   1      34.206  17.040  23.872  1.00  0.00     0.004 C 
ENDBRANCH  15  16
ENDBRANCH  14  15
ENDBRANCH  13  14
ENDBRANCH   8  13
ENDBRANCH   6   7
ENDBRANCH   5   6
BRANCH   5  18
ATOM     18  N   UNL A   1      32.538  24.508  24.729  1.00  0.00    -0.347 N 
ATOM     19  H   UNL A   1      31.919  23.816  25.152  1.00  0.00     0.345 HD
ATOM     20  H   UNL A   1      32.169  25.443  24.898  1.00  0.00     0.345 HD
ATOM     21  H   UNL A   1      33.469  24.430  25.141  1.00  0.00     0.345 HD
ENDBRANCH   5  18
ENDBRANCH   1   5
BRANCH   3  22
ATOM     22  C   UNL A   1      31.795  27.209  24.110  1.00  0.00     0.118 C 
BRANCH  22  23
ATOM     23  C   UNL A   1      32.450  27.935  25.289  1.00  0.00     0.042 C 
BRANCH  23  24
ATOM     24  C   UNL A   1      33.221  29.208  24.947  1.00  0.00     0.118 C 
BRANCH  24  25
ATOM     25  N   UNL A   1      32.613  30.394  25.528  1.00  0.00    -0.352 N 
ATOM     26  C   UNL A   1      32.928  31.091  26.670  1.00  0.00     0.251 C 
ATOM     27  H   UNL A   1      31.851  30.756  25.022  1.00  0.00     0.163 HD
ATOM     28  O   UNL A   1      32.131  31.934  27.082  1.00  0.00    -0.269 OA
BRANCH  26  29
ATOM     29  C   UNL A   1      34.189  30.852  27.419  1.00  0.00     0.039 A 
ATOM     30  C   UNL A   1      34.389  29.595  28.001  1.00  0.00     0.014 A 
ATOM     31  C   UNL A   1      35.136  31.859  27.626  1.00  0.00     0.014 A 
ATOM     32  C   UNL A   1      35.547  29.336  28.744  1.00  0.00     0.010 A 
ATOM     33  C   UNL A   1      36.325  31.579  28.310  1.00  0.00     0.010 A 
ATOM     34  C   UNL A   1      36.542  30.317  28.887  1.00  0.00    -0.014 A 
BRANCH  34  35
ATOM     35  C   UNL A   1      37.808  30.026  29.616  1.00  0.00     0.031 A 
ATOM     36  C   UNL A   1      38.837  29.086  29.042  1.00  0.00     0.074 A 
ATOM     37  C   UNL A   1      38.011  30.560  30.839  1.00  0.00     0.049 A 
ATOM     38  N   UNL A   1      39.980  28.699  29.553  1.00  0.00    -0.248 NA
ATOM     39  C   UNL A   1      38.538  28.483  27.733  1.00  0.00     0.031 C 
ATOM     40  C   UNL A   1      37.067  31.425  31.549  1.00  0.00     0.029 A 
ATOM     41  N   UNL A   1      39.064  30.432  31.714  1.00  0.00    -0.354 N 
ATOM     42  C   UNL A   1      40.514  27.785  28.652  1.00  0.00     0.074 A 
ATOM     43  C   UNL A   1      39.561  27.654  27.572  1.00  0.00     0.031 C 
ATOM     44  C   UNL A   1      37.580  31.748  32.747  1.00  0.00     0.029 A 
ATOM     45  C   UNL A   1      38.875  31.094  32.906  1.00  0.00     0.049 A 
ATOM     46  H   UNL A   1      39.877  29.917  31.507  1.00  0.00     0.167 HD
ATOM     47  C   UNL A   1      41.701  27.130  28.704  1.00  0.00     0.034 A 
ATOM     48  C   UNL A   1      39.646  31.159  34.010  1.00  0.00     0.034 A 
ATOM     49  C   UNL A   1      42.671  27.291  29.755  1.00  0.00     0.049 A 
ATOM     50  C   UNL A   1      40.978  30.457  34.022  1.00  0.00     0.074 A 
ATOM     51  C   UNL A   1      43.942  26.748  29.841  1.00  0.00     0.029 A 
ATOM     52  N   UNL A   1      42.480  28.038  30.906  1.00  0.00    -0.354 N 
ATOM     53  N   UNL A   1      41.539  29.736  33.082  1.00  0.00    -0.248 NA
ATOM     54  C   UNL A   1      41.801  30.610  35.231  1.00  0.00     0.031 C 
ATOM     55  C   UNL A   1      44.506  27.141  31.059  1.00  0.00     0.029 A 
ATOM     56  C   UNL A   1      43.601  27.957  31.716  1.00  0.00     0.049 A 
ATOM     57  H   UNL A   1      41.667  28.550  31.118  1.00  0.00     0.167 HD
ATOM     58  C   UNL A   1      42.789  29.377  33.572  1.00  0.00     0.074 A 
ATOM     59  C   UNL A   1      42.915  29.982  34.881  1.00  0.00     0.031 C 
ATOM     60  C   UNL A   1      43.741  28.602  32.996  1.00  0.00     0.034 A 
BRANCH  47  61
ATOM     61  C   UNL A   1      42.049  26.206  27.564  1.00  0.00     0.023 A 
ATOM     62  C   UNL A   1      42.825  26.686  26.490  1.00  0.00     0.012 A 
ATOM     63  C   UNL A   1      41.680  24.846  27.595  1.00  0.00     0.148 A 
ATOM     64  C   UNL A   1      43.203  25.838  25.450  1.00  0.00     0.002 A 
ATOM     65  C   UNL A   1      42.098  23.996  26.577  1.00  0.00     0.091 A 
ATOM     66  F   UNL A   1      40.929  24.410  28.616  1.00  0.00    -0.205 F 
ATOM     67  C   UNL A   1      42.849  24.493  25.499  1.00  0.00     0.022 A 
BRANCH  65  68
ATOM     68  S   UNL A   1      41.766  22.230  26.588  1.00  0.00     0.127 S 
ATOM     69  O   UNL A   1      40.307  22.204  26.501  1.00  0.00    -0.237 OA
ATOM     70  O   UNL A   1      42.457  21.780  25.379  1.00  0.00    -0.237 OA
ATOM     71  O   UNL A   1      42.325  21.723  27.834  1.00  0.00    -0.744 OA
ENDBRANCH  65  68
ENDBRANCH  47  61
BRANCH  48  72
ATOM     72  C   UNL A   1      39.201  31.963  35.183  1.00  0.00     0.023 A 
ATOM     73  C   UNL A   1      38.306  31.400  36.114  1.00  0.00     0.012 A 
ATOM     74  C   UNL A   1      39.672  33.275  35.392  1.00  0.00     0.148 A 
ATOM     75  C   UNL A   1      37.862  32.139  37.211  1.00  0.00     0.002 A 
ATOM     76  C   UNL A   1      39.272  33.983  36.518  1.00  0.00     0.091 A 
ATOM     77  F   UNL A   1      40.512  33.799  34.487  1.00  0.00    -0.205 F 
ATOM     78  C   UNL A   1      38.352  33.425  37.419  1.00  0.00     0.022 A 
BRANCH  76  79
ATOM     79  S   UNL A   1      39.957  35.590  36.935  1.00  0.00     0.127 S 
ATOM     80  O   UNL A   1      39.257  35.903  38.177  1.00  0.00    -0.237 OA
ATOM     81  O   UNL A   1      41.380  35.283  37.087  1.00  0.00    -0.237 OA
ATOM     82  O   UNL A   1      39.651  36.453  35.799  1.00  0.00    -0.744 OA
ENDBRANCH  76  79
ENDBRANCH  48  72
BRANCH  60  83
ATOM     83  C   UNL A   1      45.024  28.384  33.757  1.00  0.00     0.023 A 
ATOM     84  C   UNL A   1      46.082  29.307  33.629  1.00  0.00     0.012 A 
ATOM     85  C   UNL A   1      45.156  27.302  34.649  1.00  0.00     0.148 A 
ATOM     86  C   UNL A   1      47.263  29.136  34.349  1.00  0.00     0.002 A 
ATOM     87  C   UNL A   1      46.317  27.166  35.402  1.00  0.00     0.091 A 
ATOM     88  F   UNL A   1      44.148  26.423  34.745  1.00  0.00    -0.205 F 
ATOM     89  C   UNL A   1      47.377  28.075  35.243  1.00  0.00     0.022 A 
BRANCH  87  90
ATOM     90  S   UNL A   1      46.514  25.886  36.647  1.00  0.00     0.127 S 
ATOM     91  O   UNL A   1      46.509  24.673  35.831  1.00  0.00    -0.237 OA
ATOM     92  O   UNL A   1      47.814  26.220  37.233  1.00  0.00    -0.237 OA
ATOM     93  O   UNL A   1      45.386  26.033  37.556  1.00  0.00    -0.744 OA
ENDBRANCH  87  90
ENDBRANCH  60  83
ENDBRANCH  34  35
ENDBRANCH  26  29
ENDBRANCH  24  25
ENDBRANCH  23  24
ENDBRANCH  22  23
ENDBRANCH   3  22
TORSDOF 20
ENDMDL
MODEL 3
REMARK VINA RESULT:     -10.2      1.293      2.160
REMARK SMILES CCCCOc1ccccc1C[C@@H]([NH3+])C(=O)NCCCNC(=O)c1ccc(-c2c3nc(c(-c4cccc(S(=O)(=O)[O-])c4F)c4ccc([nH]4)c(-c4cccc(S(=O)(=O)[O-])c4F)c4nc(c(-c5cccc(S(=O)(=O)[O-])c5F)c5ccc2[nH]5)C=C4)C=C3)cc1
REMARK SMILES IDX 15 1 16 2 17 3 13 5 12 6 11 7 6 8 7 9 8 10 10 11 9 12 5 13
REMARK SMILES IDX 4 14 3 15 2 16 1 17 14 18 18 22 19 23 20 24 21 25 22 26
REMARK SMILES IDX 23 28 24 29 25 30 86 31 26 32 85 33 27 34 28 35 29 36 79 37
REMARK SMILES IDX 30 38 84 39 78 40 80 41 31 42 83 43 77 44 76 45 32 47 64 48
REMARK SMILES IDX 44 49 63 50 45 51 48 52 62 53 81 54 46 55 47 56 61 58 82 59
REMARK SMILES IDX 49 60 33 61 34 62 42 63 35 64 37 65 43 66 36 67 38 68 39 69
REMARK SMILES IDX 40 70 41 71 65 72 66 73 74 74 67 75 69 76 75 77 68 78 70 79
REMARK SMILES IDX 71 80 72 81 73 82 50 83 51 84 59 85 52 86 54 87 60 88 53 89
REMARK SMILES IDX 55 90 56 91 57 92 58 93
REMARK H PARENT 17 4 14 19 14 20 14 21 21 27 80 46 48 57
REMARK Flexibility Score: inf
ROOT
ATOM      1  C   UNL A   1      31.524  27.742  22.767  1.00  0.00     0.278 C 
ATOM      2  O   UNL A   1      30.460  27.555  22.165  1.00  0.00    -0.268 OA
ATOM      3  N   UNL A   1      31.597  28.832  23.594  1.00  0.00    -0.351 N 
ATOM      4  H   UNL A   1      30.877  29.493  23.473  1.00  0.00     0.163 HD
ENDROOT
BRANCH   1   5
ATOM      5  C   UNL A   1      32.729  26.788  22.541  1.00  0.00     0.275 C 
BRANCH   5   6
ATOM      6  C   UNL A   1      32.209  25.359  22.741  1.00  0.00     0.115 C 
BRANCH   6   7
ATOM      7  C   UNL A   1      32.074  24.693  24.097  1.00  0.00     0.001 A 
ATOM      8  C   UNL A   1      33.219  24.209  24.768  1.00  0.00     0.122 A 
ATOM      9  C   UNL A   1      33.157  23.796  26.102  1.00  0.00     0.047 A 
ATOM     10  C   UNL A   1      31.964  23.915  26.810  1.00  0.00     0.004 A 
ATOM     11  C   UNL A   1      30.883  24.798  24.830  1.00  0.00     0.008 A 
ATOM     12  C   UNL A   1      30.829  24.413  26.174  1.00  0.00     0.001 A 
BRANCH   8  13
ATOM     13  O   UNL A   1      34.407  24.134  24.085  1.00  0.00    -0.493 OA
BRANCH  13  14
ATOM     14  C   UNL A   1      35.544  23.809  24.908  1.00  0.00     0.229 C 
BRANCH  14  15
ATOM     15  C   UNL A   1      36.679  23.258  24.041  1.00  0.00     0.041 C 
BRANCH  15  16
ATOM     16  C   UNL A   1      37.000  21.796  24.351  1.00  0.00     0.000 C 
ATOM     17  C   UNL A   1      36.167  21.177  25.455  1.00  0.00     0.004 C 
ENDBRANCH  15  16
ENDBRANCH  14  15
ENDBRANCH  13  14
ENDBRANCH   8  13
ENDBRANCH   6   7
ENDBRANCH   5   6
BRANCH   5  18
ATOM     18  N   UNL A   1      33.378  27.098  21.249  1.00  0.00    -0.347 N 
ATOM     19  H   UNL A   1      32.720  26.924  20.489  1.00  0.00     0.345 HD
ATOM     20  H   UNL A   1      34.199  26.505  21.130  1.00  0.00     0.345 HD
ATOM     21  H   UNL A   1      33.661  28.078  21.237  1.00  0.00     0.345 HD
ENDBRANCH   5  18
ENDBRANCH   1   5
BRANCH   3  22
ATOM     22  C   UNL A   1      32.573  29.170  24.626  1.00  0.00     0.118 C 
BRANCH  22  23
ATOM     23  C   UNL A   1      32.554  28.233  25.837  1.00  0.00     0.042 C 
BRANCH  23  24
ATOM     24  C   UNL A   1      33.434  28.644  27.015  1.00  0.00     0.118 C 
BRANCH  24  25
ATOM     25  N   UNL A   1      33.508  30.088  27.171  1.00  0.00    -0.352 N 
ATOM     26  C   UNL A   1      34.427  30.870  27.829  1.00  0.00     0.251 C 
ATOM     27  H   UNL A   1      32.781  30.587  26.735  1.00  0.00     0.163 HD
ATOM     28  O   UNL A   1      34.161  32.057  28.016  1.00  0.00    -0.269 OA
BRANCH  26  29
ATOM     29  C   UNL A   1      35.718  30.325  28.325  1.00  0.00     0.039 A 
ATOM     30  C   UNL A   1      36.834  30.386  27.482  1.00  0.00     0.014 A 
ATOM     31  C   UNL A   1      35.831  29.688  29.563  1.00  0.00     0.014 A 
ATOM     32  C   UNL A   1      38.062  29.855  27.895  1.00  0.00     0.010 A 
ATOM     33  C   UNL A   1      37.075  29.218  30.003  1.00  0.00     0.010 A 
ATOM     34  C   UNL A   1      38.204  29.286  29.171  1.00  0.00    -0.014 A 
BRANCH  34  35
ATOM     35  C   UNL A   1      39.524  28.783  29.644  1.00  0.00     0.031 A 
ATOM     36  C   UNL A   1      40.274  29.486  30.747  1.00  0.00     0.074 A 
ATOM     37  C   UNL A   1      40.090  27.720  29.035  1.00  0.00     0.049 A 
ATOM     38  N   UNL A   1      41.444  29.201  31.263  1.00  0.00    -0.248 NA
ATOM     39  C   UNL A   1      39.640  30.676  31.336  1.00  0.00     0.031 C 
ATOM     40  C   UNL A   1      39.512  26.990  27.904  1.00  0.00     0.029 A 
ATOM     41  N   UNL A   1      41.288  27.084  29.259  1.00  0.00    -0.354 N 
ATOM     42  C   UNL A   1      41.702  30.192  32.203  1.00  0.00     0.074 A 
ATOM     43  C   UNL A   1      40.577  31.101  32.172  1.00  0.00     0.031 C 
ATOM     44  C   UNL A   1      40.354  26.012  27.534  1.00  0.00     0.029 A 
ATOM     45  C   UNL A   1      41.544  26.058  28.380  1.00  0.00     0.049 A 
ATOM     46  H   UNL A   1      41.905  27.339  29.983  1.00  0.00     0.167 HD
ATOM     47  C   UNL A   1      42.765  30.322  33.035  1.00  0.00     0.034 A 
ATOM     48  C   UNL A   1      42.616  25.252  28.253  1.00  0.00     0.034 A 
ATOM     49  C   UNL A   1      43.864  29.395  33.099  1.00  0.00     0.049 A 
ATOM     50  C   UNL A   1      43.762  25.392  29.219  1.00  0.00     0.074 A 
ATOM     51  C   UNL A   1      44.933  29.390  33.980  1.00  0.00     0.029 A 
ATOM     52  N   UNL A   1      44.046  28.318  32.249  1.00  0.00    -0.354 N 
ATOM     53  N   UNL A   1      43.904  26.232  30.215  1.00  0.00    -0.248 NA
ATOM     54  C   UNL A   1      44.880  24.448  29.068  1.00  0.00     0.031 C 
ATOM     55  C   UNL A   1      45.777  28.328  33.640  1.00  0.00     0.029 A 
ATOM     56  C   UNL A   1      45.216  27.650  32.570  1.00  0.00     0.049 A 
ATOM     57  H   UNL A   1      43.433  28.063  31.521  1.00  0.00     0.167 HD
ATOM     58  C   UNL A   1      45.106  25.898  30.828  1.00  0.00     0.074 A 
ATOM     59  C   UNL A   1      45.641  24.762  30.107  1.00  0.00     0.031 C 
ATOM     60  C   UNL A   1      45.720  26.490  31.882  1.00  0.00     0.034 A 
BRANCH  47  61
ATOM     61  C   UNL A   1      42.777  31.491  33.989  1.00  0.00     0.023 A 
ATOM     62  C   UNL A   1      43.318  32.724  33.574  1.00  0.00     0.012 A 
ATOM     63  C   UNL A   1      42.178  31.393  35.261  1.00  0.00     0.148 A 
ATOM     64  C   UNL A   1      43.294  33.832  34.419  1.00  0.00     0.002 A 
ATOM     65  C   UNL A   1      42.117  32.515  36.081  1.00  0.00     0.091 A 
ATOM     66  F   UNL A   1      41.681  30.209  35.646  1.00  0.00    -0.205 F 
ATOM     67  C   UNL A   1      42.684  33.731  35.666  1.00  0.00     0.022 A 
BRANCH  65  68
ATOM     68  S   UNL A   1      41.281  32.512  37.671  1.00  0.00     0.127 S 
ATOM     69  O   UNL A   1      41.336  33.927  38.036  1.00  0.00    -0.237 OA
ATOM     70  O   UNL A   1      39.948  32.025  37.318  1.00  0.00    -0.237 OA
ATOM     71  O   UNL A   1      42.049  31.618  38.528  1.00  0.00    -0.744 OA
ENDBRANCH  65  68
ENDBRANCH  47  61
BRANCH  48  72
ATOM     72  C   UNL A   1      42.637  24.199  27.197  1.00  0.00     0.023 A 
ATOM     73  C   UNL A   1      43.315  24.440  25.986  1.00  0.00     0.012 A 
ATOM     74  C   UNL A   1      42.004  22.955  27.393  1.00  0.00     0.148 A 
ATOM     75  C   UNL A   1      43.333  23.477  24.977  1.00  0.00     0.002 A 
ATOM     76  C   UNL A   1      42.078  21.979  26.408  1.00  0.00     0.091 A 
ATOM     77  F   UNL A   1      41.352  22.749  28.546  1.00  0.00    -0.205 F 
ATOM     78  C   UNL A   1      42.725  22.243  25.191  1.00  0.00     0.022 A 
BRANCH  76  79
ATOM     79  S   UNL A   1      41.441  20.317  26.653  1.00  0.00     0.127 S 
ATOM     80  O   UNL A   1      42.108  19.918  27.887  1.00  0.00    -0.237 OA
ATOM     81  O   UNL A   1      40.002  20.559  26.778  1.00  0.00    -0.237 OA
ATOM     82  O   UNL A   1      41.818  19.572  25.456  1.00  0.00    -0.744 OA
ENDBRANCH  76  79
ENDBRANCH  48  72
BRANCH  60  83
ATOM     83  C   UNL A   1      47.028  25.906  32.351  1.00  0.00     0.023 A 
ATOM     84  C   UNL A   1      47.053  25.052  33.473  1.00  0.00     0.012 A 
ATOM     85  C   UNL A   1      48.220  26.149  31.641  1.00  0.00     0.148 A 
ATOM     86  C   UNL A   1      48.251  24.480  33.900  1.00  0.00     0.002 A 
ATOM     87  C   UNL A   1      49.400  25.535  32.044  1.00  0.00     0.091 A 
ATOM     88  F   UNL A   1      48.181  26.978  30.588  1.00  0.00    -0.205 F 
ATOM     89  C   UNL A   1      49.420  24.710  33.181  1.00  0.00     0.022 A 
BRANCH  87  90
ATOM     90  S   UNL A   1      50.934  25.698  31.123  1.00  0.00     0.127 S 
ATOM     91  O   UNL A   1      51.832  24.830  31.882  1.00  0.00    -0.237 OA
ATOM     92  O   UNL A   1      50.561  25.183  29.804  1.00  0.00    -0.237 OA
ATOM     93  O   UNL A   1      51.267  27.116  31.145  1.00  0.00    -0.744 OA
ENDBRANCH  87  90
ENDBRANCH  60  83
ENDBRANCH  34  35
ENDBRANCH  26  29
ENDBRANCH  24  25
ENDBRANCH  23  24
ENDBRANCH  22  23
ENDBRANCH   3  22
TORSDOF 20
ENDMDL
