MODEL 1
REMARK VINA RESULT:     -11.3      0.000      0.000
REMARK SMILES CCN(C[C@@H](C)C#N)C(=O)NC[C@@H]1CC[C@H](C(=O)NCCCNC(=O)c2ccc(-c3c4nc(c(-c5cccc(S(=O)(=O)[O-])c5F)c5ccc([nH]5)c(-c5cccc(S(=O)(=O)[O-])c5F)c5nc(c(-c6cccc(S(=O)(=O)[O-])c6F)c6ccc3[nH]6)C=C5)C=C4)cc2)O1
REMARK SMILES IDX 17 1 18 2 19 3 16 5 13 6 14 7 89 8 15 9 12 10 11 11 9 12
REMARK SMILES IDX 10 13 3 15 2 16 1 17 4 18 5 19 6 20 7 21 8 22 20 23 21 24
REMARK SMILES IDX 22 25 23 26 24 27 25 29 26 30 27 31 88 32 28 33 87 34 29 35
REMARK SMILES IDX 30 36 31 37 81 38 32 39 86 40 80 41 82 42 33 43 85 44 79 45
REMARK SMILES IDX 78 46 34 48 66 49 46 50 65 51 47 52 50 53 64 54 83 55 48 56
REMARK SMILES IDX 49 57 63 59 84 60 51 61 35 62 36 63 44 64 37 65 39 66 45 67
REMARK SMILES IDX 38 68 40 69 41 70 42 71 43 72 67 73 68 74 76 75 69 76 71 77
REMARK SMILES IDX 77 78 70 79 72 80 73 81 74 82 75 83 52 84 53 85 61 86 54 87
REMARK SMILES IDX 56 88 62 89 55 90 57 91 58 92 59 93 60 94
REMARK H PARENT 19 4 11 14 23 28 82 47 50 58
REMARK Flexibility Score: inf
ROOT
ATOM      1  C   UNL A   1      33.018  22.320  23.581  1.00  0.00     0.249 C 
ATOM      2  O   UNL A   1      32.808  22.615  22.389  1.00  0.00    -0.272 OA
ATOM      3  N   UNL A   1      34.080  21.464  23.762  1.00  0.00    -0.354 N 
ATOM      4  H   UNL A   1      34.595  21.294  22.940  1.00  0.00     0.163 HD
ENDROOT
BRANCH   1   5
ATOM      5  C   UNL A   1      32.011  22.945  24.679  1.00  0.00     0.207 C 
ATOM      6  C   UNL A   1      30.640  24.505  25.767  1.00  0.00     0.138 C 
ATOM      7  C   UNL A   1      31.660  24.098  26.813  1.00  0.00     0.037 C 
ATOM      8  O   UNL A   1      31.273  24.160  24.521  1.00  0.00    -0.363 OA
ATOM      9  C   UNL A   1      32.495  22.995  26.127  1.00  0.00     0.045 C 
BRANCH   6  10
ATOM     10  C   UNL A   1      29.994  25.939  25.760  1.00  0.00     0.149 C 
BRANCH  10  11
ATOM     11  N   UNL A   1      29.815  26.713  24.514  1.00  0.00    -0.335 N 
ATOM     12  C   UNL A   1      30.476  27.615  23.738  1.00  0.00     0.317 C 
ATOM     13  O   UNL A   1      29.998  27.804  22.615  1.00  0.00    -0.249 OA
ATOM     14  H   UNL A   1      28.936  26.513  24.119  1.00  0.00     0.165 HD
BRANCH  12  15
ATOM     15  N   UNL A   1      31.525  28.367  24.195  1.00  0.00    -0.324 N 
BRANCH  15  16
ATOM     16  C   UNL A   1      31.497  28.856  25.592  1.00  0.00     0.118 C 
ATOM     17  C   UNL A   1      31.908  30.306  25.769  1.00  0.00     0.027 C 
ENDBRANCH  15  16
BRANCH  15  18
ATOM     18  C   UNL A   1      32.816  28.448  23.550  1.00  0.00     0.139 C 
BRANCH  18  19
ATOM     19  C   UNL A   1      33.589  27.126  23.634  1.00  0.00     0.109 C 
ATOM     20  C   UNL A   1      33.777  26.477  25.008  1.00  0.00     0.026 C 
BRANCH  19  21
ATOM     21  C   UNL A   1      33.432  26.378  22.321  1.00  0.00     0.067 C 
ATOM     22  N   UNL A   1      33.303  25.758  21.231  1.00  0.00    -0.198 NA
ENDBRANCH  19  21
ENDBRANCH  18  19
ENDBRANCH  15  18
ENDBRANCH  12  15
ENDBRANCH  10  11
ENDBRANCH   6  10
ENDBRANCH   1   5
BRANCH   3  23
ATOM     23  C   UNL A   1      34.588  20.767  24.922  1.00  0.00     0.117 C 
BRANCH  23  24
ATOM     24  C   UNL A   1      35.822  21.256  25.690  1.00  0.00     0.042 C 
BRANCH  24  25
ATOM     25  C   UNL A   1      37.159  21.446  24.938  1.00  0.00     0.118 C 
BRANCH  25  26
ATOM     26  N   UNL A   1      38.336  20.672  25.376  1.00  0.00    -0.352 N 
ATOM     27  C   UNL A   1      39.486  20.946  26.095  1.00  0.00     0.251 C 
ATOM     28  H   UNL A   1      38.293  19.733  25.087  1.00  0.00     0.163 HD
ATOM     29  O   UNL A   1      40.339  20.061  26.211  1.00  0.00    -0.269 OA
BRANCH  27  30
ATOM     30  C   UNL A   1      39.750  22.273  26.696  1.00  0.00     0.039 A 
ATOM     31  C   UNL A   1      40.772  22.446  27.641  1.00  0.00     0.014 A 
ATOM     32  C   UNL A   1      38.988  23.366  26.321  1.00  0.00     0.014 A 
ATOM     33  C   UNL A   1      41.148  23.740  28.037  1.00  0.00     0.010 A 
ATOM     34  C   UNL A   1      39.450  24.645  26.593  1.00  0.00     0.010 A 
ATOM     35  C   UNL A   1      40.564  24.856  27.420  1.00  0.00    -0.014 A 
BRANCH  35  36
ATOM     36  C   UNL A   1      41.111  26.243  27.515  1.00  0.00     0.031 A 
ATOM     37  C   UNL A   1      42.486  26.546  26.970  1.00  0.00     0.074 A 
ATOM     38  C   UNL A   1      40.491  27.155  28.296  1.00  0.00     0.049 A 
ATOM     39  N   UNL A   1      43.286  27.544  27.246  1.00  0.00    -0.248 NA
ATOM     40  C   UNL A   1      43.070  25.549  26.056  1.00  0.00     0.031 C 
ATOM     41  C   UNL A   1      39.207  26.967  28.977  1.00  0.00     0.029 A 
ATOM     42  N   UNL A   1      40.887  28.410  28.695  1.00  0.00    -0.354 N 
ATOM     43  C   UNL A   1      44.494  27.244  26.624  1.00  0.00     0.074 A 
ATOM     44  C   UNL A   1      44.328  25.956  25.985  1.00  0.00     0.031 C 
ATOM     45  C   UNL A   1      38.919  28.061  29.700  1.00  0.00     0.029 A 
ATOM     46  C   UNL A   1      40.018  29.010  29.581  1.00  0.00     0.049 A 
ATOM     47  H   UNL A   1      41.715  28.839  28.379  1.00  0.00     0.167 HD
ATOM     48  C   UNL A   1      45.628  27.983  26.563  1.00  0.00     0.034 A 
ATOM     49  C   UNL A   1      40.100  30.181  30.242  1.00  0.00     0.034 A 
ATOM     50  C   UNL A   1      45.743  29.314  27.093  1.00  0.00     0.049 A 
ATOM     51  C   UNL A   1      41.313  31.046  30.043  1.00  0.00     0.074 A 
ATOM     52  C   UNL A   1      46.791  30.208  26.959  1.00  0.00     0.029 A 
ATOM     53  N   UNL A   1      44.764  29.954  27.837  1.00  0.00    -0.354 N 
ATOM     54  N   UNL A   1      42.390  30.805  29.336  1.00  0.00    -0.248 NA
ATOM     55  C   UNL A   1      41.312  32.358  30.708  1.00  0.00     0.031 C 
ATOM     56  C   UNL A   1      46.444  31.390  27.620  1.00  0.00     0.029 A 
ATOM     57  C   UNL A   1      45.177  31.236  28.158  1.00  0.00     0.049 A 
ATOM     58  H   UNL A   1      43.903  29.556  28.098  1.00  0.00     0.167 HD
ATOM     59  C   UNL A   1      43.178  31.945  29.440  1.00  0.00     0.074 A 
ATOM     60  C   UNL A   1      42.445  32.886  30.261  1.00  0.00     0.031 C 
ATOM     61  C   UNL A   1      44.407  32.184  28.921  1.00  0.00     0.034 A 
BRANCH  48  62
ATOM     62  C   UNL A   1      46.807  27.403  25.822  1.00  0.00     0.023 A 
ATOM     63  C   UNL A   1      47.624  26.445  26.458  1.00  0.00     0.012 A 
ATOM     64  C   UNL A   1      47.084  27.766  24.489  1.00  0.00     0.148 A 
ATOM     65  C   UNL A   1      48.726  25.897  25.801  1.00  0.00     0.002 A 
ATOM     66  C   UNL A   1      48.155  27.177  23.822  1.00  0.00     0.091 A 
ATOM     67  F   UNL A   1      46.309  28.689  23.902  1.00  0.00    -0.205 F 
ATOM     68  C   UNL A   1      48.985  26.256  24.483  1.00  0.00     0.022 A 
BRANCH  66  69
ATOM     69  S   UNL A   1      48.523  27.505  22.095  1.00  0.00     0.127 S 
ATOM     70  O   UNL A   1      49.650  28.431  22.203  1.00  0.00    -0.237 OA
ATOM     71  O   UNL A   1      48.874  26.174  21.596  1.00  0.00    -0.237 OA
ATOM     72  O   UNL A   1      47.305  28.064  21.525  1.00  0.00    -0.744 OA
ENDBRANCH  66  69
ENDBRANCH  48  62
BRANCH  49  73
ATOM     73  C   UNL A   1      38.960  30.645  31.085  1.00  0.00     0.023 A 
ATOM     74  C   UNL A   1      38.980  30.362  32.466  1.00  0.00     0.012 A 
ATOM     75  C   UNL A   1      37.889  31.388  30.554  1.00  0.00     0.148 A 
ATOM     76  C   UNL A   1      37.939  30.781  33.296  1.00  0.00     0.002 A 
ATOM     77  C   UNL A   1      36.881  31.849  31.396  1.00  0.00     0.091 A 
ATOM     78  F   UNL A   1      37.881  31.641  29.238  1.00  0.00    -0.205 F 
ATOM     79  C   UNL A   1      36.896  31.532  32.763  1.00  0.00     0.022 A 
BRANCH  77  80
ATOM     80  S   UNL A   1      35.571  32.937  30.823  1.00  0.00     0.127 S 
ATOM     81  O   UNL A   1      34.411  32.416  31.541  1.00  0.00    -0.237 OA
ATOM     82  O   UNL A   1      36.041  34.247  31.277  1.00  0.00    -0.237 OA
ATOM     83  O   UNL A   1      35.544  32.784  29.374  1.00  0.00    -0.744 OA
ENDBRANCH  77  80
ENDBRANCH  49  73
BRANCH  61  84
ATOM     84  C   UNL A   1      45.027  33.528  29.187  1.00  0.00     0.023 A 
ATOM     85  C   UNL A   1      45.806  33.721  30.344  1.00  0.00     0.012 A 
ATOM     86  C   UNL A   1      44.908  34.572  28.249  1.00  0.00     0.148 A 
ATOM     87  C   UNL A   1      46.437  34.941  30.577  1.00  0.00     0.002 A 
ATOM     88  C   UNL A   1      45.578  35.770  28.466  1.00  0.00     0.091 A 
ATOM     89  F   UNL A   1      44.144  34.374  27.165  1.00  0.00    -0.205 F 
ATOM     90  C   UNL A   1      46.334  35.960  29.633  1.00  0.00     0.022 A 
BRANCH  88  91
ATOM     91  S   UNL A   1      45.578  37.100  27.257  1.00  0.00     0.127 S 
ATOM     92  O   UNL A   1      44.150  37.383  27.125  1.00  0.00    -0.237 OA
ATOM     93  O   UNL A   1      46.346  38.142  27.940  1.00  0.00    -0.237 OA
ATOM     94  O   UNL A   1      46.224  36.559  26.068  1.00  0.00    -0.744 OA
ENDBRANCH  88  91
ENDBRANCH  61  84
ENDBRANCH  35  36
ENDBRANCH  27  30
ENDBRANCH  25  26
ENDBRANCH  24  25
ENDBRANCH  23  24
ENDBRANCH   3  23
TORSDOF 20
ENDMDL
MODEL 2
REMARK VINA RESULT:     -10.9      1.890      2.426
REMARK SMILES CCN(C[C@@H](C)C#N)C(=O)NC[C@@H]1CC[C@H](C(=O)NCCCNC(=O)c2ccc(-c3c4nc(c(-c5cccc(S(=O)(=O)[O-])c5F)c5ccc([nH]5)c(-c5cccc(S(=O)(=O)[O-])c5F)c5nc(c(-c6cccc(S(=O)(=O)[O-])c6F)c6ccc3[nH]6)C=C5)C=C4)cc2)O1
REMARK SMILES IDX 17 1 18 2 19 3 16 5 13 6 14 7 89 8 15 9 12 10 11 11 9 12
REMARK SMILES IDX 10 13 3 15 2 16 1 17 4 18 5 19 6 20 7 21 8 22 20 23 21 24
REMARK SMILES IDX 22 25 23 26 24 27 25 29 26 30 27 31 88 32 28 33 87 34 29 35
REMARK SMILES IDX 30 36 31 37 81 38 32 39 86 40 80 41 82 42 33 43 85 44 79 45
REMARK SMILES IDX 78 46 34 48 66 49 46 50 65 51 47 52 50 53 64 54 83 55 48 56
REMARK SMILES IDX 49 57 63 59 84 60 51 61 35 62 36 63 44 64 37 65 39 66 45 67
REMARK SMILES IDX 38 68 40 69 41 70 42 71 43 72 67 73 68 74 76 75 69 76 71 77
REMARK SMILES IDX 77 78 70 79 72 80 73 81 74 82 75 83 52 84 53 85 61 86 54 87
REMARK SMILES IDX 56 88 62 89 55 90 57 91 58 92 59 93 60 94
REMARK H PARENT 19 4 11 14 23 28 82 47 50 58
REMARK Flexibility Score: inf
ROOT
ATOM      1  C   UNL A   1      33.332  19.468  24.527  1.00  0.00     0.249 C 
ATOM      2  O   UNL A   1      32.641  18.433  24.574  1.00  0.00    -0.272 OA
ATOM      3  N   UNL A   1      34.670  19.253  24.762  1.00  0.00    -0.354 N 
ATOM      4  H   UNL A   1      34.913  18.301  24.820  1.00  0.00     0.163 HD
ENDROOT
BRANCH   1   5
ATOM      5  C   UNL A   1      32.555  20.856  24.246  1.00  0.00     0.207 C 
ATOM      6  C   UNL A   1      32.215  23.133  23.796  1.00  0.00     0.138 C 
ATOM      7  C   UNL A   1      31.473  22.885  25.095  1.00  0.00     0.037 C 
ATOM      8  O   UNL A   1      33.158  22.047  23.730  1.00  0.00    -0.363 OA
ATOM      9  C   UNL A   1      31.611  21.365  25.334  1.00  0.00     0.045 C 
BRANCH   6  10
ATOM     10  C   UNL A   1      32.854  24.531  23.465  1.00  0.00     0.149 C 
BRANCH  10  11
ATOM     11  N   UNL A   1      33.604  25.310  24.473  1.00  0.00    -0.335 N 
ATOM     12  C   UNL A   1      33.456  26.395  25.279  1.00  0.00     0.317 C 
ATOM     13  O   UNL A   1      34.310  26.525  26.161  1.00  0.00    -0.249 OA
ATOM     14  H   UNL A   1      34.498  24.918  24.601  1.00  0.00     0.165 HD
BRANCH  12  15
ATOM     15  N   UNL A   1      32.506  27.360  25.068  1.00  0.00    -0.324 N 
BRANCH  15  16
ATOM     16  C   UNL A   1      31.249  27.303  25.847  1.00  0.00     0.118 C 
ATOM     17  C   UNL A   1      30.299  26.189  25.445  1.00  0.00     0.027 C 
ENDBRANCH  15  16
BRANCH  15  18
ATOM     18  C   UNL A   1      32.751  28.618  24.403  1.00  0.00     0.139 C 
BRANCH  18  19
ATOM     19  C   UNL A   1      32.628  28.502  22.878  1.00  0.00     0.109 C 
ATOM     20  C   UNL A   1      33.848  28.032  22.082  1.00  0.00     0.026 C 
BRANCH  19  21
ATOM     21  C   UNL A   1      31.179  28.214  22.521  1.00  0.00     0.067 C 
ATOM     22  N   UNL A   1      29.976  27.975  22.226  1.00  0.00    -0.198 NA
ENDBRANCH  19  21
ENDBRANCH  18  19
ENDBRANCH  15  18
ENDBRANCH  12  15
ENDBRANCH  10  11
ENDBRANCH   6  10
ENDBRANCH   1   5
BRANCH   3  23
ATOM     23  C   UNL A   1      35.790  20.151  24.937  1.00  0.00     0.117 C 
BRANCH  23  24
ATOM     24  C   UNL A   1      37.239  19.695  24.732  1.00  0.00     0.042 C 
BRANCH  24  25
ATOM     25  C   UNL A   1      38.396  20.607  25.200  1.00  0.00     0.118 C 
BRANCH  25  26
ATOM     26  N   UNL A   1      39.580  19.988  25.825  1.00  0.00    -0.352 N 
ATOM     27  C   UNL A   1      40.612  20.427  26.636  1.00  0.00     0.251 C 
ATOM     28  H   UNL A   1      39.655  19.030  25.613  1.00  0.00     0.163 HD
ATOM     29  O   UNL A   1      41.523  19.642  26.916  1.00  0.00    -0.269 OA
BRANCH  27  30
ATOM     30  C   UNL A   1      40.685  21.814  27.148  1.00  0.00     0.039 A 
ATOM     31  C   UNL A   1      41.526  22.143  28.222  1.00  0.00     0.014 A 
ATOM     32  C   UNL A   1      39.923  22.810  26.560  1.00  0.00     0.014 A 
ATOM     33  C   UNL A   1      41.744  23.491  28.552  1.00  0.00     0.010 A 
ATOM     34  C   UNL A   1      40.249  24.138  26.783  1.00  0.00     0.010 A 
ATOM     35  C   UNL A   1      41.196  24.504  27.752  1.00  0.00    -0.014 A 
BRANCH  35  36
ATOM     36  C   UNL A   1      41.627  25.933  27.805  1.00  0.00     0.031 A 
ATOM     37  C   UNL A   1      43.010  26.318  27.337  1.00  0.00     0.074 A 
ATOM     38  C   UNL A   1      40.884  26.831  28.489  1.00  0.00     0.049 A 
ATOM     39  N   UNL A   1      43.709  27.390  27.610  1.00  0.00    -0.248 NA
ATOM     40  C   UNL A   1      43.733  25.325  26.523  1.00  0.00     0.031 C 
ATOM     41  C   UNL A   1      39.572  26.575  29.092  1.00  0.00     0.029 A 
ATOM     42  N   UNL A   1      41.153  28.133  28.842  1.00  0.00    -0.354 N 
ATOM     43  C   UNL A   1      44.978  27.157  27.089  1.00  0.00     0.074 A 
ATOM     44  C   UNL A   1      44.958  25.829  26.514  1.00  0.00     0.031 C 
ATOM     45  C   UNL A   1      39.150  27.678  29.730  1.00  0.00     0.029 A 
ATOM     46  C   UNL A   1      40.179  28.705  29.631  1.00  0.00     0.049 A 
ATOM     47  H   UNL A   1      41.965  28.611  28.559  1.00  0.00     0.167 HD
ATOM     48  C   UNL A   1      46.053  27.981  27.062  1.00  0.00     0.034 A 
ATOM     49  C   UNL A   1      40.122  29.911  30.230  1.00  0.00     0.034 A 
ATOM     50  C   UNL A   1      46.027  29.342  27.523  1.00  0.00     0.049 A 
ATOM     51  C   UNL A   1      41.277  30.861  30.064  1.00  0.00     0.074 A 
ATOM     52  C   UNL A   1      47.010  30.309  27.409  1.00  0.00     0.029 A 
ATOM     53  N   UNL A   1      44.951  29.939  28.161  1.00  0.00    -0.354 N 
ATOM     54  N   UNL A   1      42.417  30.671  29.446  1.00  0.00    -0.248 NA
ATOM     55  C   UNL A   1      41.127  32.200  30.652  1.00  0.00     0.031 C 
ATOM     56  C   UNL A   1      46.527  31.492  27.977  1.00  0.00     0.029 A 
ATOM     57  C   UNL A   1      45.239  31.264  28.436  1.00  0.00     0.049 A 
ATOM     58  H   UNL A   1      44.106  29.486  28.386  1.00  0.00     0.167 HD
ATOM     59  C   UNL A   1      43.105  31.875  29.539  1.00  0.00     0.074 A 
ATOM     60  C   UNL A   1      42.245  32.794  30.253  1.00  0.00     0.031 C 
ATOM     61  C   UNL A   1      44.347  32.185  29.091  1.00  0.00     0.034 A 
BRANCH  48  62
ATOM     62  C   UNL A   1      47.324  27.460  26.437  1.00  0.00     0.023 A 
ATOM     63  C   UNL A   1      47.647  27.823  25.113  1.00  0.00     0.012 A 
ATOM     64  C   UNL A   1      48.220  26.653  27.167  1.00  0.00     0.148 A 
ATOM     65  C   UNL A   1      48.810  27.351  24.507  1.00  0.00     0.002 A 
ATOM     66  C   UNL A   1      49.405  26.229  26.572  1.00  0.00     0.091 A 
ATOM     67  F   UNL A   1      47.894  26.304  28.420  1.00  0.00    -0.205 F 
ATOM     68  C   UNL A   1      49.692  26.563  25.239  1.00  0.00     0.022 A 
BRANCH  66  69
ATOM     69  S   UNL A   1      50.650  25.282  27.456  1.00  0.00     0.127 S 
ATOM     70  O   UNL A   1      51.566  24.916  26.375  1.00  0.00    -0.237 OA
ATOM     71  O   UNL A   1      51.181  26.272  28.395  1.00  0.00    -0.237 OA
ATOM     72  O   UNL A   1      49.943  24.173  28.080  1.00  0.00    -0.744 OA
ENDBRANCH  66  69
ENDBRANCH  48  62
BRANCH  49  73
ATOM     73  C   UNL A   1      38.892  30.324  30.966  1.00  0.00     0.023 A 
ATOM     74  C   UNL A   1      38.752  29.945  32.317  1.00  0.00     0.012 A 
ATOM     75  C   UNL A   1      37.890  31.111  30.369  1.00  0.00     0.148 A 
ATOM     76  C   UNL A   1      37.623  30.313  33.048  1.00  0.00     0.002 A 
ATOM     77  C   UNL A   1      36.792  31.521  31.119  1.00  0.00     0.091 A 
ATOM     78  F   UNL A   1      38.035  31.457  29.081  1.00  0.00    -0.205 F 
ATOM     79  C   UNL A   1      36.649  31.108  32.453  1.00  0.00     0.022 A 
BRANCH  77  80
ATOM     80  S   UNL A   1      35.557  32.657  30.477  1.00  0.00     0.127 S 
ATOM     81  O   UNL A   1      36.235  33.944  30.609  1.00  0.00    -0.237 OA
ATOM     82  O   UNL A   1      35.393  32.185  29.102  1.00  0.00    -0.237 OA
ATOM     83  O   UNL A   1      34.380  32.469  31.316  1.00  0.00    -0.744 OA
ENDBRANCH  77  80
ENDBRANCH  49  73
BRANCH  61  84
ATOM     84  C   UNL A   1      44.841  33.586  29.321  1.00  0.00     0.023 A 
ATOM     85  C   UNL A   1      45.586  33.882  30.479  1.00  0.00     0.012 A 
ATOM     86  C   UNL A   1      44.639  34.588  28.351  1.00  0.00     0.148 A 
ATOM     87  C   UNL A   1      46.103  35.161  30.680  1.00  0.00     0.002 A 
ATOM     88  C   UNL A   1      45.196  35.847  28.537  1.00  0.00     0.091 A 
ATOM     89  F   UNL A   1      43.908  34.291  27.267  1.00  0.00    -0.205 F 
ATOM     90  C   UNL A   1      45.919  36.138  29.705  1.00  0.00     0.022 A 
BRANCH  88  91
ATOM     91  S   UNL A   1      45.091  37.135  27.289  1.00  0.00     0.127 S 
ATOM     92  O   UNL A   1      45.516  38.314  28.042  1.00  0.00    -0.237 OA
ATOM     93  O   UNL A   1      46.050  36.675  26.284  1.00  0.00    -0.237 OA
ATOM     94  O   UNL A   1      43.705  37.143  26.839  1.00  0.00    -0.744 OA
ENDBRANCH  88  91
ENDBRANCH  61  84
ENDBRANCH  35  36
ENDBRANCH  27  30
ENDBRANCH  25  26
ENDBRANCH  24  25
ENDBRANCH  23  24
ENDBRANCH   3  23
TORSDOF 20
ENDMDL
MODEL 3
REMARK VINA RESULT:     -10.6      1.843      7.825
REMARK SMILES CCN(C[C@@H](C)C#N)C(=O)NC[C@@H]1CC[C@H](C(=O)NCCCNC(=O)c2ccc(-c3c4nc(c(-c5cccc(S(=O)(=O)[O-])c5F)c5ccc([nH]5)c(-c5cccc(S(=O)(=O)[O-])c5F)c5nc(c(-c6cccc(S(=O)(=O)[O-])c6F)c6ccc3[nH]6)C=C5)C=C4)cc2)O1
REMARK SMILES IDX 17 1 18 2 19 3 16 5 13 6 14 7 89 8 15 9 12 10 11 11 9 12
REMARK SMILES IDX 10 13 3 15 2 16 1 17 4 18 5 19 6 20 7 21 8 22 20 23 21 24
REMARK SMILES IDX 22 25 23 26 24 27 25 29 26 30 27 31 88 32 28 33 87 34 29 35
REMARK SMILES IDX 30 36 31 37 81 38 32 39 86 40 80 41 82 42 33 43 85 44 79 45
REMARK SMILES IDX 78 46 34 48 66 49 46 50 65 51 47 52 50 53 64 54 83 55 48 56
REMARK SMILES IDX 49 57 63 59 84 60 51 61 35 62 36 63 44 64 37 65 39 66 45 67
REMARK SMILES IDX 38 68 40 69 41 70 42 71 43 72 67 73 68 74 76 75 69 76 71 77
REMARK SMILES IDX 77 78 70 79 72 80 73 81 74 82 75 83 52 84 53 85 61 86 54 87
REMARK SMILES IDX 56 88 62 89 55 90 57 91 58 92 59 93 60 94
REMARK H PARENT 19 4 11 14 23 28 82 47 50 58
REMARK Flexibility Score: inf
ROOT
ATOM      1  C   UNL A   1      33.928  20.327  24.609  1.00  0.00     0.249 C 
ATOM      2  O   UNL A   1      33.365  19.245  24.356  1.00  0.00    -0.272 OA
ATOM      3  N   UNL A   1      35.202  20.186  25.107  1.00  0.00    -0.354 N 
ATOM      4  H   UNL A   1      35.535  19.260  25.086  1.00  0.00     0.163 HD
ENDROOT
BRANCH   1   5
ATOM      5  C   UNL A   1      33.074  21.674  24.354  1.00  0.00     0.207 C 
ATOM      6  C   UNL A   1      31.549  23.415  24.733  1.00  0.00     0.138 C 
ATOM      7  C   UNL A   1      31.087  22.779  23.436  1.00  0.00     0.037 C 
ATOM      8  O   UNL A   1      32.340  22.386  25.355  1.00  0.00    -0.363 OA
ATOM      9  C   UNL A   1      32.153  21.702  23.135  1.00  0.00     0.045 C 
BRANCH   6  10
ATOM     10  C   UNL A   1      30.535  24.101  25.721  1.00  0.00     0.149 C 
BRANCH  10  11
ATOM     11  N   UNL A   1      30.883  25.320  26.480  1.00  0.00    -0.335 N 
ATOM     12  C   UNL A   1      31.235  26.618  26.273  1.00  0.00     0.317 C 
ATOM     13  O   UNL A   1      31.191  27.348  27.267  1.00  0.00    -0.249 OA
ATOM     14  H   UNL A   1      30.849  25.133  27.447  1.00  0.00     0.165 HD
BRANCH  12  15
ATOM     15  N   UNL A   1      31.730  27.077  25.081  1.00  0.00    -0.324 N 
BRANCH  15  16
ATOM     16  C   UNL A   1      30.802  27.723  24.127  1.00  0.00     0.118 C 
ATOM     17  C   UNL A   1      30.726  29.236  24.237  1.00  0.00     0.027 C 
ENDBRANCH  15  16
BRANCH  15  18
ATOM     18  C   UNL A   1      33.132  27.293  24.805  1.00  0.00     0.139 C 
BRANCH  18  19
ATOM     19  C   UNL A   1      33.426  27.342  23.300  1.00  0.00     0.109 C 
ATOM     20  C   UNL A   1      34.068  28.606  22.723  1.00  0.00     0.026 C 
BRANCH  19  21
ATOM     21  C   UNL A   1      33.659  25.927  22.797  1.00  0.00     0.067 C 
ATOM     22  N   UNL A   1      33.852  24.753  22.379  1.00  0.00    -0.198 NA
ENDBRANCH  19  21
ENDBRANCH  18  19
ENDBRANCH  15  18
ENDBRANCH  12  15
ENDBRANCH  10  11
ENDBRANCH   6  10
ENDBRANCH   1   5
BRANCH   3  23
ATOM     23  C   UNL A   1      36.150  21.132  25.651  1.00  0.00     0.117 C 
BRANCH  23  24
ATOM     24  C   UNL A   1      37.483  21.440  24.958  1.00  0.00     0.042 C 
BRANCH  24  25
ATOM     25  C   UNL A   1      38.787  21.447  25.788  1.00  0.00     0.118 C 
BRANCH  25  26
ATOM     26  N   UNL A   1      39.626  20.234  25.802  1.00  0.00    -0.352 N 
ATOM     27  C   UNL A   1      40.973  19.966  25.979  1.00  0.00     0.251 C 
ATOM     28  H   UNL A   1      39.102  19.416  25.648  1.00  0.00     0.163 HD
ATOM     29  O   UNL A   1      41.371  18.807  25.837  1.00  0.00    -0.269 OA
BRANCH  27  30
ATOM     30  C   UNL A   1      41.958  21.025  26.293  1.00  0.00     0.039 A 
ATOM     31  C   UNL A   1      42.473  21.853  25.283  1.00  0.00     0.014 A 
ATOM     32  C   UNL A   1      42.379  21.215  27.598  1.00  0.00     0.014 A 
ATOM     33  C   UNL A   1      43.235  22.982  25.625  1.00  0.00     0.010 A 
ATOM     34  C   UNL A   1      43.000  22.404  27.948  1.00  0.00     0.010 A 
ATOM     35  C   UNL A   1      43.402  23.330  26.973  1.00  0.00    -0.014 A 
BRANCH  35  36
ATOM     36  C   UNL A   1      43.895  24.663  27.435  1.00  0.00     0.031 A 
ATOM     37  C   UNL A   1      42.937  25.633  28.085  1.00  0.00     0.074 A 
ATOM     38  C   UNL A   1      45.119  25.092  27.057  1.00  0.00     0.049 A 
ATOM     39  N   UNL A   1      43.044  26.928  28.234  1.00  0.00    -0.248 NA
ATOM     40  C   UNL A   1      41.653  25.082  28.552  1.00  0.00     0.031 C 
ATOM     41  C   UNL A   1      46.116  24.301  26.328  1.00  0.00     0.029 A 
ATOM     42  N   UNL A   1      45.715  26.324  27.184  1.00  0.00    -0.354 N 
ATOM     43  C   UNL A   1      41.811  27.356  28.716  1.00  0.00     0.074 A 
ATOM     44  C   UNL A   1      40.964  26.186  28.802  1.00  0.00     0.031 C 
ATOM     45  C   UNL A   1      47.195  25.060  26.081  1.00  0.00     0.029 A 
ATOM     46  C   UNL A   1      46.953  26.406  26.583  1.00  0.00     0.049 A 
ATOM     47  H   UNL A   1      45.297  27.078  27.659  1.00  0.00     0.167 HD
ATOM     48  C   UNL A   1      41.425  28.602  29.084  1.00  0.00     0.034 A 
ATOM     49  C   UNL A   1      47.793  27.448  26.429  1.00  0.00     0.034 A 
ATOM     50  C   UNL A   1      42.310  29.735  29.114  1.00  0.00     0.049 A 
ATOM     51  C   UNL A   1      47.394  28.792  26.974  1.00  0.00     0.074 A 
ATOM     52  C   UNL A   1      42.066  31.005  29.607  1.00  0.00     0.029 A 
ATOM     53  N   UNL A   1      43.618  29.727  28.657  1.00  0.00    -0.354 N 
ATOM     54  N   UNL A   1      46.274  29.145  27.555  1.00  0.00    -0.248 NA
ATOM     55  C   UNL A   1      48.385  29.873  26.870  1.00  0.00     0.031 C 
ATOM     56  C   UNL A   1      43.230  31.765  29.449  1.00  0.00     0.029 A 
ATOM     57  C   UNL A   1      44.200  30.966  28.867  1.00  0.00     0.049 A 
ATOM     58  H   UNL A   1      44.067  28.955  28.243  1.00  0.00     0.167 HD
ATOM     59  C   UNL A   1      46.437  30.477  27.918  1.00  0.00     0.074 A 
ATOM     60  C   UNL A   1      47.772  30.860  27.511  1.00  0.00     0.031 C 
ATOM     61  C   UNL A   1      45.552  31.312  28.515  1.00  0.00     0.034 A 
BRANCH  48  62
ATOM     62  C   UNL A   1      40.008  28.787  29.566  1.00  0.00     0.023 A 
ATOM     63  C   UNL A   1      39.675  28.448  30.894  1.00  0.00     0.012 A 
ATOM     64  C   UNL A   1      39.016  29.335  28.727  1.00  0.00     0.148 A 
ATOM     65  C   UNL A   1      38.372  28.601  31.365  1.00  0.00     0.002 A 
ATOM     66  C   UNL A   1      37.729  29.532  29.220  1.00  0.00     0.091 A 
ATOM     67  F   UNL A   1      39.341  29.638  27.463  1.00  0.00    -0.205 F 
ATOM     68  C   UNL A   1      37.403  29.150  30.532  1.00  0.00     0.022 A 
BRANCH  66  69
ATOM     69  S   UNL A   1      36.430  30.314  28.257  1.00  0.00     0.127 S 
ATOM     70  O   UNL A   1      35.229  29.709  28.834  1.00  0.00    -0.237 OA
ATOM     71  O   UNL A   1      36.614  31.730  28.583  1.00  0.00    -0.237 OA
ATOM     72  O   UNL A   1      36.698  29.971  26.868  1.00  0.00    -0.744 OA
ENDBRANCH  66  69
ENDBRANCH  48  62
BRANCH  49  73
ATOM     73  C   UNL A   1      49.134  27.242  25.808  1.00  0.00     0.023 A 
ATOM     74  C   UNL A   1      50.186  26.757  26.613  1.00  0.00     0.012 A 
ATOM     75  C   UNL A   1      49.371  27.476  24.441  1.00  0.00     0.148 A 
ATOM     76  C   UNL A   1      51.455  26.543  26.076  1.00  0.00     0.002 A 
ATOM     77  C   UNL A   1      50.624  27.209  23.899  1.00  0.00     0.091 A 
ATOM     78  F   UNL A   1      48.362  27.944  23.691  1.00  0.00    -0.205 F 
ATOM     79  C   UNL A   1      51.672  26.759  24.718  1.00  0.00     0.022 A 
BRANCH  77  80
ATOM     80  S   UNL A   1      50.957  27.328  22.137  1.00  0.00     0.127 S 
ATOM     81  O   UNL A   1      50.911  28.771  21.919  1.00  0.00    -0.237 OA
ATOM     82  O   UNL A   1      52.289  26.730  22.036  1.00  0.00    -0.237 OA
ATOM     83  O   UNL A   1      49.906  26.552  21.489  1.00  0.00    -0.744 OA
ENDBRANCH  77  80
ENDBRANCH  49  73
BRANCH  61  84
ATOM     84  C   UNL A   1      46.006  32.717  28.805  1.00  0.00     0.023 A 
ATOM     85  C   UNL A   1      46.792  32.975  29.945  1.00  0.00     0.012 A 
ATOM     86  C   UNL A   1      45.725  33.763  27.905  1.00  0.00     0.148 A 
ATOM     87  C   UNL A   1      47.271  34.259  30.198  1.00  0.00     0.002 A 
ATOM     88  C   UNL A   1      46.245  35.030  28.140  1.00  0.00     0.091 A 
ATOM     89  F   UNL A   1      44.957  33.500  26.838  1.00  0.00    -0.205 F 
ATOM     90  C   UNL A   1      47.009  35.282  29.290  1.00  0.00     0.022 A 
BRANCH  88  91
ATOM     91  S   UNL A   1      46.038  36.382  26.974  1.00  0.00     0.127 S 
ATOM     92  O   UNL A   1      46.811  37.446  27.612  1.00  0.00    -0.237 OA
ATOM     93  O   UNL A   1      46.638  35.838  25.755  1.00  0.00    -0.237 OA
ATOM     94  O   UNL A   1      44.602  36.615  26.885  1.00  0.00    -0.744 OA
ENDBRANCH  88  91
ENDBRANCH  61  84
ENDBRANCH  35  36
ENDBRANCH  27  30
ENDBRANCH  25  26
ENDBRANCH  24  25
ENDBRANCH  23  24
ENDBRANCH   3  23
TORSDOF 20
ENDMDL
