MODEL 1
REMARK VINA RESULT:     -13.7      0.000      0.000
REMARK SMILES Cc1ccccc1[C@@H]1[NH2+][C@@H](C(=O)NCCCNC(=O)c2ccc(-c3c4nc(c(-c5cccc(S(=O)(=O)[O-])c5F)c5ccc([nH]5)c(-c5cccc(S(=O)(=O)[O-])c5F)c5nc(c(-c6cccc(S(=O)(=O)[O-])c6F)c6ccc3[nH]6)C=C5)C=C4)cc2)CC2=c3ccccc3=N[C@@H]21
REMARK SMILES IDX 16 1 15 2 14 3 13 4 11 5 12 6 10 8 8 9 9 10 92 11 84 14
REMARK SMILES IDX 91 15 83 16 85 17 90 18 86 19 89 20 87 21 88 22 7 23 1 24
REMARK SMILES IDX 2 25 3 26 4 27 6 28 5 29 17 30 18 31 19 33 20 34 21 35 82 36
REMARK SMILES IDX 22 37 81 38 23 39 24 40 25 41 75 42 26 43 80 44 74 45 76 46
REMARK SMILES IDX 27 47 79 48 73 49 72 50 28 52 60 53 40 54 59 55 41 56 44 57
REMARK SMILES IDX 58 58 77 59 42 60 43 61 57 63 78 64 45 65 29 66 30 67 38 68
REMARK SMILES IDX 31 69 33 70 39 71 32 72 34 73 35 74 36 75 37 76 61 77 62 78
REMARK SMILES IDX 70 79 63 80 65 81 71 82 64 83 66 84 67 85 68 86 69 87 46 88
REMARK SMILES IDX 47 89 55 90 48 91 50 92 56 93 49 94 51 95 52 96 53 97 54 98
REMARK H PARENT 13 7 9 12 9 13 17 32 76 51 44 62
REMARK Flexibility Score: inf
ROOT
ATOM      1  C   UNL A   1      33.674  30.714  27.967  1.00  0.00     0.118 C 
ENDROOT
BRANCH   1   2
ATOM      2  C   UNL A   1      32.650  31.024  26.858  1.00  0.00     0.042 C 
BRANCH   2   3
ATOM      3  C   UNL A   1      32.551  30.130  25.591  1.00  0.00     0.118 C 
BRANCH   3   4
ATOM      4  N   UNL A   1      33.669  29.646  24.743  1.00  0.00    -0.351 N 
ATOM      5  C   UNL A   1      33.746  28.563  23.835  1.00  0.00     0.278 C 
ATOM      6  O   UNL A   1      34.417  28.618  22.810  1.00  0.00    -0.268 OA
ATOM      7  H   UNL A   1      34.500  30.168  24.826  1.00  0.00     0.163 HD
BRANCH   5   8
ATOM      8  C   UNL A   1      33.071  27.305  24.368  1.00  0.00     0.277 C 
ATOM      9  C   UNL A   1      30.535  27.165  24.338  1.00  0.00     0.243 C 
ATOM     10  N   UNL A   1      31.811  27.376  23.659  1.00  0.00    -0.327 N 
ATOM     11  C   UNL A   1      30.631  25.636  24.790  1.00  0.00     0.196 C 
ATOM     12  H   UNL A   1      31.765  28.308  23.247  1.00  0.00     0.347 HD
ATOM     13  H   UNL A   1      31.863  26.567  23.040  1.00  0.00     0.347 HD
ATOM     14  C   UNL A   1      32.065  25.417  25.391  1.00  0.00    -0.024 C 
ATOM     15  N   UNL A   1      30.603  24.666  23.644  1.00  0.00    -0.270 NA
ATOM     16  C   UNL A   1      32.847  26.703  25.761  1.00  0.00     0.109 C 
ATOM     17  C   UNL A   1      32.690  24.387  24.785  1.00  0.00     0.002 A 
ATOM     18  C   UNL A   1      31.731  24.020  23.715  1.00  0.00     0.066 A 
ATOM     19  C   UNL A   1      34.101  24.112  24.610  1.00  0.00     0.010 A 
ATOM     20  C   UNL A   1      32.237  23.055  22.696  1.00  0.00     0.028 A 
ATOM     21  C   UNL A   1      34.512  23.388  23.555  1.00  0.00     0.001 A 
ATOM     22  C   UNL A   1      33.558  22.798  22.634  1.00  0.00     0.002 A 
BRANCH   9  23
ATOM     23  C   UNL A   1      29.524  27.927  23.430  1.00  0.00     0.015 A 
ATOM     24  C   UNL A   1      27.423  26.698  24.245  1.00  0.00     0.045 C 
ATOM     25  C   UNL A   1      28.123  27.790  23.497  1.00  0.00    -0.042 A 
ATOM     26  C   UNL A   1      27.282  28.822  22.989  1.00  0.00     0.004 A 
ATOM     27  C   UNL A   1      27.790  30.011  22.479  1.00  0.00     0.000 A 
ATOM     28  C   UNL A   1      29.979  29.123  22.801  1.00  0.00     0.010 A 
ATOM     29  C   UNL A   1      29.151  30.165  22.409  1.00  0.00     0.001 A 
ENDBRANCH   9  23
ENDBRANCH   5   8
ENDBRANCH   3   4
ENDBRANCH   2   3
ENDBRANCH   1   2
BRANCH   1  30
ATOM     30  N   UNL A   1      34.697  31.756  28.133  1.00  0.00    -0.352 N 
ATOM     31  C   UNL A   1      36.056  31.668  28.398  1.00  0.00     0.251 C 
ATOM     32  H   UNL A   1      34.360  32.677  28.040  1.00  0.00     0.163 HD
ATOM     33  O   UNL A   1      36.682  32.715  28.578  1.00  0.00    -0.269 OA
BRANCH  31  34
ATOM     34  C   UNL A   1      36.766  30.369  28.346  1.00  0.00     0.039 A 
ATOM     35  C   UNL A   1      36.822  29.593  29.514  1.00  0.00     0.014 A 
ATOM     36  C   UNL A   1      37.534  30.012  27.249  1.00  0.00     0.014 A 
ATOM     37  C   UNL A   1      37.898  28.735  29.717  1.00  0.00     0.010 A 
ATOM     38  C   UNL A   1      38.592  29.158  27.447  1.00  0.00     0.010 A 
ATOM     39  C   UNL A   1      38.860  28.667  28.724  1.00  0.00    -0.014 A 
BRANCH  39  40
ATOM     40  C   UNL A   1      40.226  28.216  28.909  1.00  0.00     0.031 A 
ATOM     41  C   UNL A   1      40.569  26.809  28.726  1.00  0.00     0.074 A 
ATOM     42  C   UNL A   1      41.182  29.174  28.918  1.00  0.00     0.049 A 
ATOM     43  N   UNL A   1      41.693  26.290  29.073  1.00  0.00    -0.248 NA
ATOM     44  C   UNL A   1      39.650  25.869  28.104  1.00  0.00     0.031 C 
ATOM     45  C   UNL A   1      42.595  29.041  28.584  1.00  0.00     0.029 A 
ATOM     46  N   UNL A   1      41.065  30.512  29.303  1.00  0.00    -0.354 N 
ATOM     47  C   UNL A   1      41.783  25.080  28.423  1.00  0.00     0.074 A 
ATOM     48  C   UNL A   1      40.445  24.807  27.951  1.00  0.00     0.031 C 
ATOM     49  C   UNL A   1      43.244  30.148  28.983  1.00  0.00     0.029 A 
ATOM     50  C   UNL A   1      42.317  30.892  29.813  1.00  0.00     0.049 A 
ATOM     51  H   UNL A   1      40.262  31.077  29.232  1.00  0.00     0.167 HD
ATOM     52  C   UNL A   1      43.019  24.554  28.186  1.00  0.00     0.034 A 
ATOM     53  C   UNL A   1      42.509  31.194  31.135  1.00  0.00     0.034 A 
ATOM     54  C   UNL A   1      44.078  25.448  28.713  1.00  0.00     0.049 A 
ATOM     55  C   UNL A   1      43.470  30.215  31.813  1.00  0.00     0.074 A 
ATOM     56  C   UNL A   1      44.967  26.340  28.129  1.00  0.00     0.029 A 
ATOM     57  N   UNL A   1      44.108  25.734  30.073  1.00  0.00    -0.354 N 
ATOM     58  N   UNL A   1      44.095  29.239  31.208  1.00  0.00    -0.248 NA
ATOM     59  C   UNL A   1      43.728  30.210  33.248  1.00  0.00     0.031 C 
ATOM     60  C   UNL A   1      45.515  27.170  29.156  1.00  0.00     0.029 A 
ATOM     61  C   UNL A   1      44.990  26.766  30.371  1.00  0.00     0.049 A 
ATOM     62  H   UNL A   1      43.568  25.261  30.747  1.00  0.00     0.167 HD
ATOM     63  C   UNL A   1      44.646  28.382  32.127  1.00  0.00     0.074 A 
ATOM     64  C   UNL A   1      44.424  29.068  33.393  1.00  0.00     0.031 C 
ATOM     65  C   UNL A   1      45.166  27.158  31.772  1.00  0.00     0.034 A 
BRANCH  52  66
ATOM     66  C   UNL A   1      43.293  23.409  27.217  1.00  0.00     0.023 A 
ATOM     67  C   UNL A   1      44.097  23.688  26.089  1.00  0.00     0.012 A 
ATOM     68  C   UNL A   1      42.802  22.082  27.301  1.00  0.00     0.148 A 
ATOM     69  C   UNL A   1      44.310  22.760  25.062  1.00  0.00     0.002 A 
ATOM     70  C   UNL A   1      42.950  21.177  26.243  1.00  0.00     0.091 A 
ATOM     71  F   UNL A   1      42.278  21.636  28.446  1.00  0.00    -0.205 F 
ATOM     72  C   UNL A   1      43.703  21.515  25.119  1.00  0.00     0.022 A 
BRANCH  70  73
ATOM     73  S   UNL A   1      42.127  19.571  26.215  1.00  0.00     0.127 S 
ATOM     74  O   UNL A   1      40.714  19.947  26.134  1.00  0.00    -0.237 OA
ATOM     75  O   UNL A   1      42.660  18.962  24.999  1.00  0.00    -0.237 OA
ATOM     76  O   UNL A   1      42.490  18.911  27.465  1.00  0.00    -0.744 OA
ENDBRANCH  70  73
ENDBRANCH  52  66
BRANCH  53  77
ATOM     77  C   UNL A   1      41.275  31.787  31.758  1.00  0.00     0.023 A 
ATOM     78  C   UNL A   1      40.737  32.939  31.127  1.00  0.00     0.012 A 
ATOM     79  C   UNL A   1      40.420  30.995  32.543  1.00  0.00     0.148 A 
ATOM     80  C   UNL A   1      39.356  33.145  31.079  1.00  0.00     0.002 A 
ATOM     81  C   UNL A   1      39.046  31.228  32.515  1.00  0.00     0.091 A 
ATOM     82  F   UNL A   1      40.935  29.972  33.236  1.00  0.00    -0.205 F 
ATOM     83  C   UNL A   1      38.506  32.256  31.729  1.00  0.00     0.022 A 
BRANCH  81  84
ATOM     84  S   UNL A   1      37.937  30.132  33.408  1.00  0.00     0.127 S 
ATOM     85  O   UNL A   1      38.185  30.527  34.790  1.00  0.00    -0.237 OA
ATOM     86  O   UNL A   1      36.620  30.504  32.896  1.00  0.00    -0.237 OA
ATOM     87  O   UNL A   1      38.374  28.797  33.023  1.00  0.00    -0.744 OA
ENDBRANCH  81  84
ENDBRANCH  53  77
BRANCH  65  88
ATOM     88  C   UNL A   1      45.817  26.152  32.726  1.00  0.00     0.023 A 
ATOM     89  C   UNL A   1      47.211  26.021  32.847  1.00  0.00     0.012 A 
ATOM     90  C   UNL A   1      45.046  25.238  33.501  1.00  0.00     0.148 A 
ATOM     91  C   UNL A   1      47.803  25.173  33.794  1.00  0.00     0.002 A 
ATOM     92  C   UNL A   1      45.630  24.397  34.444  1.00  0.00     0.091 A 
ATOM     93  F   UNL A   1      43.735  25.104  33.282  1.00  0.00    -0.205 F 
ATOM     94  C   UNL A   1      47.011  24.386  34.616  1.00  0.00     0.022 A 
BRANCH  92  95
ATOM     95  S   UNL A   1      44.657  23.281  35.466  1.00  0.00     0.127 S 
ATOM     96  O   UNL A   1      44.357  22.207  34.519  1.00  0.00    -0.237 OA
ATOM     97  O   UNL A   1      45.613  22.921  36.514  1.00  0.00    -0.237 OA
ATOM     98  O   UNL A   1      43.509  24.047  35.929  1.00  0.00    -0.744 OA
ENDBRANCH  92  95
ENDBRANCH  65  88
ENDBRANCH  39  40
ENDBRANCH  31  34
ENDBRANCH   1  30
TORSDOF 14
ENDMDL
MODEL 2
REMARK VINA RESULT:     -13.7      4.426      9.478
REMARK SMILES Cc1ccccc1[C@@H]1[NH2+][C@@H](C(=O)NCCCNC(=O)c2ccc(-c3c4nc(c(-c5cccc(S(=O)(=O)[O-])c5F)c5ccc([nH]5)c(-c5cccc(S(=O)(=O)[O-])c5F)c5nc(c(-c6cccc(S(=O)(=O)[O-])c6F)c6ccc3[nH]6)C=C5)C=C4)cc2)CC2=c3ccccc3=N[C@@H]21
REMARK SMILES IDX 16 1 15 2 14 3 13 4 11 5 12 6 10 8 8 9 9 10 92 11 84 14
REMARK SMILES IDX 91 15 83 16 85 17 90 18 86 19 89 20 87 21 88 22 7 23 1 24
REMARK SMILES IDX 2 25 3 26 4 27 6 28 5 29 17 30 18 31 19 33 20 34 21 35 82 36
REMARK SMILES IDX 22 37 81 38 23 39 24 40 25 41 75 42 26 43 80 44 74 45 76 46
REMARK SMILES IDX 27 47 79 48 73 49 72 50 28 52 60 53 40 54 59 55 41 56 44 57
REMARK SMILES IDX 58 58 77 59 42 60 43 61 57 63 78 64 45 65 29 66 30 67 38 68
REMARK SMILES IDX 31 69 33 70 39 71 32 72 34 73 35 74 36 75 37 76 61 77 62 78
REMARK SMILES IDX 70 79 63 80 65 81 71 82 64 83 66 84 67 85 68 86 69 87 46 88
REMARK SMILES IDX 47 89 55 90 48 91 50 92 56 93 49 94 51 95 52 96 53 97 54 98
REMARK H PARENT 13 7 9 12 9 13 17 32 76 51 44 62
REMARK Flexibility Score: inf
ROOT
ATOM      1  C   UNL A   1      40.293  21.634  27.229  1.00  0.00     0.118 C 
ENDROOT
BRANCH   1   2
ATOM      2  C   UNL A   1      39.425  22.576  26.371  1.00  0.00     0.042 C 
BRANCH   2   3
ATOM      3  C   UNL A   1      38.097  22.080  25.737  1.00  0.00     0.118 C 
BRANCH   3   4
ATOM      4  N   UNL A   1      37.676  22.202  24.319  1.00  0.00    -0.351 N 
ATOM      5  C   UNL A   1      36.407  22.449  23.743  1.00  0.00     0.278 C 
ATOM      6  O   UNL A   1      36.274  23.105  22.716  1.00  0.00    -0.268 OA
ATOM      7  H   UNL A   1      38.405  22.093  23.666  1.00  0.00     0.163 HD
BRANCH   5   8
ATOM      8  C   UNL A   1      35.293  21.665  24.426  1.00  0.00     0.277 C 
ATOM      9  C   UNL A   1      32.977  22.696  24.571  1.00  0.00     0.243 C 
ATOM     10  N   UNL A   1      34.138  22.268  23.796  1.00  0.00    -0.327 N 
ATOM     11  C   UNL A   1      32.416  21.316  25.148  1.00  0.00     0.196 C 
ATOM     12  H   UNL A   1      34.478  23.097  23.308  1.00  0.00     0.347 HD
ATOM     13  H   UNL A   1      33.760  21.496  23.248  1.00  0.00     0.347 HD
ATOM     14  C   UNL A   1      33.649  20.496  25.672  1.00  0.00    -0.024 C 
ATOM     15  N   UNL A   1      31.844  20.411  24.096  1.00  0.00    -0.270 NA
ATOM     16  C   UNL A   1      34.958  21.300  25.878  1.00  0.00     0.109 C 
ATOM     17  C   UNL A   1      33.681  19.267  25.120  1.00  0.00     0.002 A 
ATOM     18  C   UNL A   1      32.560  19.326  24.150  1.00  0.00     0.066 A 
ATOM     19  C   UNL A   1      34.792  18.370  24.880  1.00  0.00     0.010 A 
ATOM     20  C   UNL A   1      32.477  18.188  23.189  1.00  0.00     0.028 A 
ATOM     21  C   UNL A   1      34.729  17.488  23.868  1.00  0.00     0.001 A 
ATOM     22  C   UNL A   1      33.527  17.354  23.065  1.00  0.00     0.002 A 
BRANCH   9  23
ATOM     23  C   UNL A   1      32.335  23.790  23.667  1.00  0.00     0.015 A 
ATOM     24  C   UNL A   1      30.733  24.727  25.441  1.00  0.00     0.045 C 
ATOM     25  C   UNL A   1      31.425  24.769  24.113  1.00  0.00    -0.042 A 
ATOM     26  C   UNL A   1      31.254  25.975  23.372  1.00  0.00     0.004 A 
ATOM     27  C   UNL A   1      32.008  26.262  22.241  1.00  0.00     0.000 A 
ATOM     28  C   UNL A   1      32.998  24.104  22.444  1.00  0.00     0.010 A 
ATOM     29  C   UNL A   1      32.902  25.324  21.792  1.00  0.00     0.001 A 
ENDBRANCH   9  23
ENDBRANCH   5   8
ENDBRANCH   3   4
ENDBRANCH   2   3
ENDBRANCH   1   2
BRANCH   1  30
ATOM     30  N   UNL A   1      41.052  20.652  26.441  1.00  0.00    -0.352 N 
ATOM     31  C   UNL A   1      42.299  20.733  25.839  1.00  0.00     0.251 C 
ATOM     32  H   UNL A   1      40.597  19.788  26.320  1.00  0.00     0.163 HD
ATOM     33  O   UNL A   1      42.675  19.781  25.152  1.00  0.00    -0.269 OA
BRANCH  31  34
ATOM     34  C   UNL A   1      43.209  21.870  26.106  1.00  0.00     0.039 A 
ATOM     35  C   UNL A   1      43.788  21.976  27.380  1.00  0.00     0.014 A 
ATOM     36  C   UNL A   1      43.333  22.919  25.209  1.00  0.00     0.014 A 
ATOM     37  C   UNL A   1      44.129  23.229  27.878  1.00  0.00     0.010 A 
ATOM     38  C   UNL A   1      43.677  24.156  25.698  1.00  0.00     0.010 A 
ATOM     39  C   UNL A   1      43.903  24.325  27.064  1.00  0.00    -0.014 A 
BRANCH  39  40
ATOM     40  C   UNL A   1      43.757  25.694  27.520  1.00  0.00     0.031 A 
ATOM     41  C   UNL A   1      42.465  26.367  27.433  1.00  0.00     0.074 A 
ATOM     42  C   UNL A   1      44.744  26.176  28.311  1.00  0.00     0.049 A 
ATOM     43  N   UNL A   1      42.295  27.629  27.611  1.00  0.00    -0.248 NA
ATOM     44  C   UNL A   1      41.238  25.639  27.151  1.00  0.00     0.031 C 
ATOM     45  C   UNL A   1      44.670  27.248  29.295  1.00  0.00     0.029 A 
ATOM     46  N   UNL A   1      46.092  25.804  28.339  1.00  0.00    -0.354 N 
ATOM     47  C   UNL A   1      40.947  27.818  27.815  1.00  0.00     0.074 A 
ATOM     48  C   UNL A   1      40.326  26.586  27.386  1.00  0.00     0.031 C 
ATOM     49  C   UNL A   1      45.915  27.598  29.657  1.00  0.00     0.029 A 
ATOM     50  C   UNL A   1      46.813  26.946  28.722  1.00  0.00     0.049 A 
ATOM     51  H   UNL A   1      46.462  24.916  28.130  1.00  0.00     0.167 HD
ATOM     52  C   UNL A   1      40.538  28.917  28.511  1.00  0.00     0.034 A 
ATOM     53  C   UNL A   1      47.671  27.591  27.872  1.00  0.00     0.034 A 
ATOM     54  C   UNL A   1      41.701  29.735  28.929  1.00  0.00     0.049 A 
ATOM     55  C   UNL A   1      47.209  29.018  27.564  1.00  0.00     0.074 A 
ATOM     56  C   UNL A   1      42.369  29.919  30.132  1.00  0.00     0.029 A 
ATOM     57  N   UNL A   1      42.539  30.267  27.956  1.00  0.00    -0.354 N 
ATOM     58  N   UNL A   1      46.159  29.594  28.090  1.00  0.00    -0.248 NA
ATOM     59  C   UNL A   1      47.847  29.870  26.569  1.00  0.00     0.031 C 
ATOM     60  C   UNL A   1      43.621  30.555  29.862  1.00  0.00     0.029 A 
ATOM     61  C   UNL A   1      43.706  30.790  28.501  1.00  0.00     0.049 A 
ATOM     62  H   UNL A   1      42.331  30.273  26.994  1.00  0.00     0.167 HD
ATOM     63  C   UNL A   1      45.854  30.745  27.407  1.00  0.00     0.074 A 
ATOM     64  C   UNL A   1      46.977  30.893  26.491  1.00  0.00     0.031 C 
ATOM     65  C   UNL A   1      44.676  31.428  27.606  1.00  0.00     0.034 A 
BRANCH  52  66
ATOM     66  C   UNL A   1      39.136  29.096  29.085  1.00  0.00     0.023 A 
ATOM     67  C   UNL A   1      38.065  29.206  28.169  1.00  0.00     0.012 A 
ATOM     68  C   UNL A   1      38.779  29.195  30.453  1.00  0.00     0.148 A 
ATOM     69  C   UNL A   1      36.756  29.503  28.566  1.00  0.00     0.002 A 
ATOM     70  C   UNL A   1      37.488  29.566  30.849  1.00  0.00     0.091 A 
ATOM     71  F   UNL A   1      39.649  28.828  31.397  1.00  0.00    -0.205 F 
ATOM     72  C   UNL A   1      36.473  29.724  29.904  1.00  0.00     0.022 A 
BRANCH  70  73
ATOM     73  S   UNL A   1      37.067  29.942  32.563  1.00  0.00     0.127 S 
ATOM     74  O   UNL A   1      38.147  30.852  32.955  1.00  0.00    -0.237 OA
ATOM     75  O   UNL A   1      35.759  30.579  32.436  1.00  0.00    -0.237 OA
ATOM     76  O   UNL A   1      37.085  28.667  33.271  1.00  0.00    -0.744 OA
ENDBRANCH  70  73
ENDBRANCH  52  66
BRANCH  53  77
ATOM     77  C   UNL A   1      48.304  26.643  26.891  1.00  0.00     0.023 A 
ATOM     78  C   UNL A   1      47.598  26.420  25.680  1.00  0.00     0.012 A 
ATOM     79  C   UNL A   1      49.690  26.417  26.907  1.00  0.00     0.148 A 
ATOM     80  C   UNL A   1      48.287  26.227  24.479  1.00  0.00     0.002 A 
ATOM     81  C   UNL A   1      50.366  26.192  25.710  1.00  0.00     0.091 A 
ATOM     82  F   UNL A   1      50.352  26.511  28.068  1.00  0.00    -0.205 F 
ATOM     83  C   UNL A   1      49.677  26.167  24.488  1.00  0.00     0.022 A 
BRANCH  81  84
ATOM     84  S   UNL A   1      52.156  26.041  25.710  1.00  0.00     0.127 S 
ATOM     85  O   UNL A   1      52.450  26.044  24.281  1.00  0.00    -0.237 OA
ATOM     86  O   UNL A   1      52.592  27.240  26.423  1.00  0.00    -0.237 OA
ATOM     87  O   UNL A   1      52.406  24.797  26.424  1.00  0.00    -0.744 OA
ENDBRANCH  81  84
ENDBRANCH  53  77
BRANCH  65  88
ATOM     88  C   UNL A   1      44.266  32.727  26.905  1.00  0.00     0.023 A 
ATOM     89  C   UNL A   1      44.260  32.860  25.507  1.00  0.00     0.012 A 
ATOM     90  C   UNL A   1      43.929  33.905  27.634  1.00  0.00     0.148 A 
ATOM     91  C   UNL A   1      43.788  34.014  24.867  1.00  0.00     0.002 A 
ATOM     92  C   UNL A   1      43.457  35.051  27.002  1.00  0.00     0.091 A 
ATOM     93  F   UNL A   1      44.140  33.967  28.951  1.00  0.00    -0.205 F 
ATOM     94  C   UNL A   1      43.354  35.098  25.615  1.00  0.00     0.022 A 
BRANCH  92  95
ATOM     95  S   UNL A   1      42.978  36.522  27.920  1.00  0.00     0.127 S 
ATOM     96  O   UNL A   1      42.545  37.410  26.842  1.00  0.00    -0.237 OA
ATOM     97  O   UNL A   1      41.895  36.012  28.762  1.00  0.00    -0.237 OA
ATOM     98  O   UNL A   1      44.162  36.953  28.649  1.00  0.00    -0.744 OA
ENDBRANCH  92  95
ENDBRANCH  65  88
ENDBRANCH  39  40
ENDBRANCH  31  34
ENDBRANCH   1  30
TORSDOF 14
ENDMDL
MODEL 3
REMARK VINA RESULT:     -13.6      3.482      5.338
REMARK SMILES Cc1ccccc1[C@@H]1[NH2+][C@@H](C(=O)NCCCNC(=O)c2ccc(-c3c4nc(c(-c5cccc(S(=O)(=O)[O-])c5F)c5ccc([nH]5)c(-c5cccc(S(=O)(=O)[O-])c5F)c5nc(c(-c6cccc(S(=O)(=O)[O-])c6F)c6ccc3[nH]6)C=C5)C=C4)cc2)CC2=c3ccccc3=N[C@@H]21
REMARK SMILES IDX 16 1 15 2 14 3 13 4 11 5 12 6 10 8 8 9 9 10 92 11 84 14
REMARK SMILES IDX 91 15 83 16 85 17 90 18 86 19 89 20 87 21 88 22 7 23 1 24
REMARK SMILES IDX 2 25 3 26 4 27 6 28 5 29 17 30 18 31 19 33 20 34 21 35 82 36
REMARK SMILES IDX 22 37 81 38 23 39 24 40 25 41 75 42 26 43 80 44 74 45 76 46
REMARK SMILES IDX 27 47 79 48 73 49 72 50 28 52 60 53 40 54 59 55 41 56 44 57
REMARK SMILES IDX 58 58 77 59 42 60 43 61 57 63 78 64 45 65 29 66 30 67 38 68
REMARK SMILES IDX 31 69 33 70 39 71 32 72 34 73 35 74 36 75 37 76 61 77 62 78
REMARK SMILES IDX 70 79 63 80 65 81 71 82 64 83 66 84 67 85 68 86 69 87 46 88
REMARK SMILES IDX 47 89 55 90 48 91 50 92 56 93 49 94 51 95 52 96 53 97 54 98
REMARK H PARENT 13 7 9 12 9 13 17 32 76 51 44 62
REMARK Flexibility Score: inf
ROOT
ATOM      1  C   UNL A   1      34.809  32.682  27.819  1.00  0.00     0.118 C 
ENDROOT
BRANCH   1   2
ATOM      2  C   UNL A   1      34.563  31.171  27.995  1.00  0.00     0.042 C 
BRANCH   2   3
ATOM      3  C   UNL A   1      33.487  30.434  27.151  1.00  0.00     0.118 C 
BRANCH   3   4
ATOM      4  N   UNL A   1      32.333  29.649  27.654  1.00  0.00    -0.351 N 
ATOM      5  C   UNL A   1      31.655  28.535  27.103  1.00  0.00     0.278 C 
ATOM      6  O   UNL A   1      31.186  27.645  27.805  1.00  0.00    -0.268 OA
ATOM      7  H   UNL A   1      31.977  29.954  28.520  1.00  0.00     0.163 HD
BRANCH   5   8
ATOM      8  C   UNL A   1      31.422  28.675  25.604  1.00  0.00     0.277 C 
ATOM      9  C   UNL A   1      31.341  26.578  24.173  1.00  0.00     0.243 C 
ATOM     10  N   UNL A   1      30.876  27.367  25.310  1.00  0.00    -0.327 N 
ATOM     11  C   UNL A   1      30.887  27.467  22.926  1.00  0.00     0.196 C 
ATOM     12  H   UNL A   1      31.038  26.796  26.140  1.00  0.00     0.347 HD
ATOM     13  H   UNL A   1      29.917  27.586  25.044  1.00  0.00     0.347 HD
ATOM     14  C   UNL A   1      31.261  28.957  23.255  1.00  0.00    -0.024 C 
ATOM     15  N   UNL A   1      29.398  27.535  22.743  1.00  0.00    -0.270 NA
ATOM     16  C   UNL A   1      32.265  29.160  24.418  1.00  0.00     0.109 C 
ATOM     17  C   UNL A   1      30.188  29.762  23.129  1.00  0.00     0.002 A 
ATOM     18  C   UNL A   1      29.097  28.797  22.848  1.00  0.00     0.066 A 
ATOM     19  C   UNL A   1      29.880  31.029  23.761  1.00  0.00     0.010 A 
ATOM     20  C   UNL A   1      27.713  29.352  22.895  1.00  0.00     0.028 A 
ATOM     21  C   UNL A   1      28.598  31.386  23.946  1.00  0.00     0.001 A 
ATOM     22  C   UNL A   1      27.511  30.567  23.441  1.00  0.00     0.002 A 
BRANCH   9  23
ATOM     23  C   UNL A   1      31.002  25.118  24.596  1.00  0.00     0.015 A 
ATOM     24  C   UNL A   1      32.465  23.961  22.832  1.00  0.00     0.045 C 
ATOM     25  C   UNL A   1      31.614  23.965  24.064  1.00  0.00    -0.042 A 
ATOM     26  C   UNL A   1      31.598  22.745  24.802  1.00  0.00     0.004 A 
ATOM     27  C   UNL A   1      31.051  22.656  26.076  1.00  0.00     0.000 A 
ATOM     28  C   UNL A   1      30.369  24.931  25.860  1.00  0.00     0.010 A 
ATOM     29  C   UNL A   1      30.454  23.769  26.613  1.00  0.00     0.001 A 
ENDBRANCH   9  23
ENDBRANCH   5   8
ENDBRANCH   3   4
ENDBRANCH   2   3
ENDBRANCH   1   2
BRANCH   1  30
ATOM     30  N   UNL A   1      33.899  33.522  28.610  1.00  0.00    -0.352 N 
ATOM     31  C   UNL A   1      34.017  34.041  29.891  1.00  0.00     0.251 C 
ATOM     32  H   UNL A   1      33.060  33.758  28.151  1.00  0.00     0.163 HD
ATOM     33  O   UNL A   1      33.055  34.654  30.360  1.00  0.00    -0.269 OA
BRANCH  31  34
ATOM     34  C   UNL A   1      35.296  33.973  30.633  1.00  0.00     0.039 A 
ATOM     35  C   UNL A   1      36.448  34.494  30.024  1.00  0.00     0.014 A 
ATOM     36  C   UNL A   1      35.413  33.235  31.800  1.00  0.00     0.014 A 
ATOM     37  C   UNL A   1      37.695  33.964  30.344  1.00  0.00     0.010 A 
ATOM     38  C   UNL A   1      36.644  32.718  32.122  1.00  0.00     0.010 A 
ATOM     39  C   UNL A   1      37.737  32.953  31.287  1.00  0.00    -0.014 A 
BRANCH  39  40
ATOM     40  C   UNL A   1      38.809  31.986  31.433  1.00  0.00     0.031 A 
ATOM     41  C   UNL A   1      38.739  30.698  30.749  1.00  0.00     0.074 A 
ATOM     42  C   UNL A   1      39.978  32.451  31.931  1.00  0.00     0.049 A 
ATOM     43  N   UNL A   1      39.527  29.711  30.988  1.00  0.00    -0.248 NA
ATOM     44  C   UNL A   1      37.761  30.436  29.705  1.00  0.00     0.031 C 
ATOM     45  C   UNL A   1      41.319  31.913  31.737  1.00  0.00     0.029 A 
ATOM     46  N   UNL A   1      40.184  33.528  32.799  1.00  0.00    -0.354 N 
ATOM     47  C   UNL A   1      39.401  28.843  29.927  1.00  0.00     0.074 A 
ATOM     48  C   UNL A   1      38.205  29.267  29.236  1.00  0.00     0.031 C 
ATOM     49  C   UNL A   1      42.155  32.495  32.612  1.00  0.00     0.029 A 
ATOM     50  C   UNL A   1      41.324  33.215  33.557  1.00  0.00     0.049 A 
ATOM     51  H   UNL A   1      39.637  34.343  32.866  1.00  0.00     0.167 HD
ATOM     52  C   UNL A   1      40.434  27.999  29.645  1.00  0.00     0.034 A 
ATOM     53  C   UNL A   1      41.264  32.971  34.903  1.00  0.00     0.034 A 
ATOM     54  C   UNL A   1      41.550  28.200  30.601  1.00  0.00     0.049 A 
ATOM     55  C   UNL A   1      41.679  31.537  35.244  1.00  0.00     0.074 A 
ATOM     56  C   UNL A   1      42.785  28.829  30.524  1.00  0.00     0.029 A 
ATOM     57  N   UNL A   1      41.326  27.989  31.956  1.00  0.00    -0.354 N 
ATOM     58  N   UNL A   1      42.105  30.655  34.377  1.00  0.00    -0.248 NA
ATOM     59  C   UNL A   1      41.557  30.963  36.578  1.00  0.00     0.031 C 
ATOM     60  C   UNL A   1      43.287  29.003  31.851  1.00  0.00     0.029 A 
ATOM     61  C   UNL A   1      42.379  28.452  32.738  1.00  0.00     0.049 A 
ATOM     62  H   UNL A   1      40.518  27.562  32.321  1.00  0.00     0.167 HD
ATOM     63  C   UNL A   1      42.120  29.403  34.938  1.00  0.00     0.074 A 
ATOM     64  C   UNL A   1      41.811  29.664  36.337  1.00  0.00     0.031 C 
ATOM     65  C   UNL A   1      42.312  28.264  34.189  1.00  0.00     0.034 A 
BRANCH  52  66
ATOM     66  C   UNL A   1      40.576  27.224  28.340  1.00  0.00     0.023 A 
ATOM     67  C   UNL A   1      39.624  26.213  28.075  1.00  0.00     0.012 A 
ATOM     68  C   UNL A   1      41.585  27.382  27.357  1.00  0.00     0.148 A 
ATOM     69  C   UNL A   1      39.724  25.348  26.979  1.00  0.00     0.002 A 
ATOM     70  C   UNL A   1      41.732  26.472  26.303  1.00  0.00     0.091 A 
ATOM     71  F   UNL A   1      42.356  28.473  27.363  1.00  0.00    -0.205 F 
ATOM     72  C   UNL A   1      40.801  25.450  26.113  1.00  0.00     0.022 A 
BRANCH  70  73
ATOM     73  S   UNL A   1      43.147  26.499  25.184  1.00  0.00     0.127 S 
ATOM     74  O   UNL A   1      43.108  25.155  24.602  1.00  0.00    -0.237 OA
ATOM     75  O   UNL A   1      42.795  27.569  24.254  1.00  0.00    -0.237 OA
ATOM     76  O   UNL A   1      44.316  26.746  26.020  1.00  0.00    -0.744 OA
ENDBRANCH  70  73
ENDBRANCH  52  66
BRANCH  53  77
ATOM     77  C   UNL A   1      40.156  33.744  35.564  1.00  0.00     0.023 A 
ATOM     78  C   UNL A   1      38.865  33.156  35.529  1.00  0.00     0.012 A 
ATOM     79  C   UNL A   1      40.439  34.674  36.578  1.00  0.00     0.148 A 
ATOM     80  C   UNL A   1      37.987  33.301  36.606  1.00  0.00     0.002 A 
ATOM     81  C   UNL A   1      39.544  34.837  37.633  1.00  0.00     0.091 A 
ATOM     82  F   UNL A   1      41.611  35.322  36.559  1.00  0.00    -0.205 F 
ATOM     83  C   UNL A   1      38.351  34.100  37.685  1.00  0.00     0.022 A 
BRANCH  81  84
ATOM     84  S   UNL A   1      39.965  35.921  39.002  1.00  0.00     0.127 S 
ATOM     85  O   UNL A   1      39.983  37.225  38.348  1.00  0.00    -0.237 OA
ATOM     86  O   UNL A   1      38.857  35.724  39.935  1.00  0.00    -0.237 OA
ATOM     87  O   UNL A   1      41.244  35.411  39.477  1.00  0.00    -0.744 OA
ENDBRANCH  81  84
ENDBRANCH  53  77
BRANCH  65  88
ATOM     88  C   UNL A   1      42.365  26.833  34.735  1.00  0.00     0.023 A 
ATOM     89  C   UNL A   1      41.428  26.345  35.661  1.00  0.00     0.012 A 
ATOM     90  C   UNL A   1      43.410  25.929  34.387  1.00  0.00     0.148 A 
ATOM     91  C   UNL A   1      41.417  25.007  36.080  1.00  0.00     0.002 A 
ATOM     92  C   UNL A   1      43.402  24.600  34.798  1.00  0.00     0.091 A 
ATOM     93  F   UNL A   1      44.481  26.362  33.716  1.00  0.00    -0.205 F 
ATOM     94  C   UNL A   1      42.385  24.126  35.622  1.00  0.00     0.022 A 
BRANCH  92  95
ATOM     95  S   UNL A   1      44.689  23.440  34.316  1.00  0.00     0.127 S 
ATOM     96  O   UNL A   1      44.231  22.211  34.963  1.00  0.00    -0.237 OA
ATOM     97  O   UNL A   1      44.567  23.444  32.858  1.00  0.00    -0.237 OA
ATOM     98  O   UNL A   1      45.941  23.985  34.821  1.00  0.00    -0.744 OA
ENDBRANCH  92  95
ENDBRANCH  65  88
ENDBRANCH  39  40
ENDBRANCH  31  34
ENDBRANCH   1  30
TORSDOF 14
ENDMDL
