MODEL 1
REMARK VINA RESULT:     -12.2      0.000      0.000
REMARK SMILES O=C(NCCCNC(=O)[C@H]1C=C[C@H](N2C(=O)[C@H]3C[C@H]3C2=O)C1)c1ccc(-c2c3nc(c(-c4cccc(S(=O)(=O)[O-])c4F)c4ccc([nH]4)c(-c4cccc(S(=O)(=O)[O-])c4F)c4nc(c(-c5cccc(S(=O)(=O)[O-])c5F)c5ccc2[nH]5)C=C4)C=C3)cc1
REMARK SMILES IDX 4 1 3 2 1 3 2 4 23 6 24 7 85 8 25 9 84 10 26 11 27 12 28 13
REMARK SMILES IDX 78 14 29 15 83 16 77 17 79 18 30 19 82 20 76 21 75 22 31 24
REMARK SMILES IDX 63 25 43 26 62 27 44 28 47 29 61 30 80 31 45 32 46 33 60 35
REMARK SMILES IDX 81 36 48 37 32 38 33 39 41 40 34 41 36 42 42 43 35 44 37 45
REMARK SMILES IDX 38 46 39 47 40 48 64 49 65 50 73 51 66 52 68 53 74 54 67 55
REMARK SMILES IDX 69 56 70 57 71 58 72 59 49 60 50 61 58 62 51 63 53 64 59 65
REMARK SMILES IDX 52 66 54 67 55 68 56 69 57 70 5 71 6 72 7 73 8 74 9 76 10 77
REMARK SMILES IDX 11 78 22 79 12 80 13 81 14 82 15 83 20 84 16 85 17 86 19 87
REMARK SMILES IDX 21 88 18 89
REMARK H PARENT 3 5 79 23 47 34 7 75
REMARK Flexibility Score: inf
ROOT
ATOM      1  C   UNL A   1      33.074  29.302  25.281  1.00  0.00     0.118 C 
ENDROOT
BRANCH   1   2
ATOM      2  N   UNL A   1      32.549  30.544  25.839  1.00  0.00    -0.352 N 
ATOM      3  O   UNL A   1      32.279  32.217  27.316  1.00  0.00    -0.269 OA
ATOM      4  C   UNL A   1      32.990  31.310  26.894  1.00  0.00     0.251 C 
ATOM      5  H   UNL A   1      31.747  30.892  25.385  1.00  0.00     0.163 HD
BRANCH   4   6
ATOM      6  C   UNL A   1      34.291  31.019  27.535  1.00  0.00     0.039 A 
ATOM      7  C   UNL A   1      34.590  29.730  27.968  1.00  0.00     0.014 A 
ATOM      8  C   UNL A   1      35.231  32.040  27.704  1.00  0.00     0.014 A 
ATOM      9  C   UNL A   1      35.705  29.509  28.761  1.00  0.00     0.010 A 
ATOM     10  C   UNL A   1      36.430  31.779  28.379  1.00  0.00     0.010 A 
ATOM     11  C   UNL A   1      36.659  30.520  28.951  1.00  0.00    -0.014 A 
BRANCH  11  12
ATOM     12  C   UNL A   1      37.912  30.185  29.679  1.00  0.00     0.031 A 
ATOM     13  C   UNL A   1      38.175  30.682  31.074  1.00  0.00     0.074 A 
ATOM     14  C   UNL A   1      38.803  29.377  29.069  1.00  0.00     0.049 A 
ATOM     15  N   UNL A   1      39.200  30.437  31.850  1.00  0.00    -0.248 NA
ATOM     16  C   UNL A   1      37.173  31.575  31.678  1.00  0.00     0.031 C 
ATOM     17  C   UNL A   1      38.678  28.870  27.698  1.00  0.00     0.029 A 
ATOM     18  N   UNL A   1      39.976  28.824  29.514  1.00  0.00    -0.354 N 
ATOM     19  C   UNL A   1      38.989  31.168  33.014  1.00  0.00     0.074 A 
ATOM     20  C   UNL A   1      37.740  31.880  32.838  1.00  0.00     0.031 C 
ATOM     21  C   UNL A   1      39.697  28.043  27.433  1.00  0.00     0.029 A 
ATOM     22  C   UNL A   1      40.592  28.020  28.583  1.00  0.00     0.049 A 
ATOM     23  H   UNL A   1      40.343  28.987  30.414  1.00  0.00     0.167 HD
ATOM     24  C   UNL A   1      39.754  31.226  34.131  1.00  0.00     0.034 A 
ATOM     25  C   UNL A   1      41.759  27.353  28.632  1.00  0.00     0.034 A 
ATOM     26  C   UNL A   1      40.978  30.489  34.308  1.00  0.00     0.049 A 
ATOM     27  C   UNL A   1      42.570  27.418  29.891  1.00  0.00     0.074 A 
ATOM     28  C   UNL A   1      41.810  30.455  35.414  1.00  0.00     0.029 A 
ATOM     29  N   UNL A   1      41.548  29.653  33.358  1.00  0.00    -0.354 N 
ATOM     30  N   UNL A   1      42.299  28.037  31.014  1.00  0.00    -0.248 NA
ATOM     31  C   UNL A   1      43.837  26.675  29.902  1.00  0.00     0.031 C 
ATOM     32  C   UNL A   1      42.890  29.612  35.127  1.00  0.00     0.029 A 
ATOM     33  C   UNL A   1      42.718  29.101  33.850  1.00  0.00     0.049 A 
ATOM     34  H   UNL A   1      41.175  29.479  32.464  1.00  0.00     0.167 HD
ATOM     35  C   UNL A   1      43.349  27.744  31.873  1.00  0.00     0.074 A 
ATOM     36  C   UNL A   1      44.242  26.860  31.150  1.00  0.00     0.031 C 
ATOM     37  C   UNL A   1      43.569  28.185  33.135  1.00  0.00     0.034 A 
BRANCH  24  38
ATOM     38  C   UNL A   1      39.270  32.082  35.274  1.00  0.00     0.023 A 
ATOM     39  C   UNL A   1      39.430  33.481  35.208  1.00  0.00     0.012 A 
ATOM     40  C   UNL A   1      38.592  31.518  36.373  1.00  0.00     0.148 A 
ATOM     41  C   UNL A   1      38.947  34.302  36.226  1.00  0.00     0.002 A 
ATOM     42  C   UNL A   1      38.078  32.345  37.365  1.00  0.00     0.091 A 
ATOM     43  F   UNL A   1      38.463  30.184  36.429  1.00  0.00    -0.205 F 
ATOM     44  C   UNL A   1      38.262  33.736  37.299  1.00  0.00     0.022 A 
BRANCH  42  45
ATOM     45  S   UNL A   1      37.115  31.724  38.750  1.00  0.00     0.127 S 
ATOM     46  O   UNL A   1      38.038  31.928  39.866  1.00  0.00    -0.237 OA
ATOM     47  O   UNL A   1      35.957  32.617  38.746  1.00  0.00    -0.237 OA
ATOM     48  O   UNL A   1      36.811  30.334  38.436  1.00  0.00    -0.744 OA
ENDBRANCH  42  45
ENDBRANCH  24  38
BRANCH  25  49
ATOM     49  C   UNL A   1      42.207  26.553  27.458  1.00  0.00     0.023 A 
ATOM     50  C   UNL A   1      42.986  27.161  26.454  1.00  0.00     0.012 A 
ATOM     51  C   UNL A   1      41.903  25.182  27.354  1.00  0.00     0.148 A 
ATOM     52  C   UNL A   1      43.426  26.424  25.354  1.00  0.00     0.002 A 
ATOM     53  C   UNL A   1      42.401  24.440  26.291  1.00  0.00     0.091 A 
ATOM     54  F   UNL A   1      41.147  24.623  28.309  1.00  0.00    -0.205 F 
ATOM     55  C   UNL A   1      43.147  25.062  25.279  1.00  0.00     0.022 A 
BRANCH  53  56
ATOM     56  S   UNL A   1      42.215  22.655  26.214  1.00  0.00     0.127 S 
ATOM     57  O   UNL A   1      42.880  22.232  27.443  1.00  0.00    -0.237 OA
ATOM     58  O   UNL A   1      40.760  22.497  26.215  1.00  0.00    -0.237 OA
ATOM     59  O   UNL A   1      42.855  22.255  24.968  1.00  0.00    -0.744 OA
ENDBRANCH  53  56
ENDBRANCH  25  49
BRANCH  37  60
ATOM     60  C   UNL A   1      44.815  27.695  33.823  1.00  0.00     0.023 A 
ATOM     61  C   UNL A   1      46.001  28.451  33.740  1.00  0.00     0.012 A 
ATOM     62  C   UNL A   1      44.798  26.511  34.584  1.00  0.00     0.148 A 
ATOM     63  C   UNL A   1      47.163  28.015  34.374  1.00  0.00     0.002 A 
ATOM     64  C   UNL A   1      45.947  26.108  35.253  1.00  0.00     0.091 A 
ATOM     65  F   UNL A   1      43.666  25.795  34.631  1.00  0.00    -0.205 F 
ATOM     66  C   UNL A   1      47.134  26.850  35.138  1.00  0.00     0.022 A 
BRANCH  64  67
ATOM     67  S   UNL A   1      45.976  24.672  36.331  1.00  0.00     0.127 S 
ATOM     68  O   UNL A   1      45.793  23.580  35.377  1.00  0.00    -0.237 OA
ATOM     69  O   UNL A   1      47.313  24.751  36.920  1.00  0.00    -0.237 OA
ATOM     70  O   UNL A   1      44.887  24.864  37.279  1.00  0.00    -0.744 OA
ENDBRANCH  64  67
ENDBRANCH  37  60
ENDBRANCH  11  12
ENDBRANCH   4   6
ENDBRANCH   1   2
BRANCH   1  71
ATOM     71  C   UNL A   1      32.740  29.127  23.809  1.00  0.00     0.042 C 
BRANCH  71  72
ATOM     72  C   UNL A   1      31.297  28.730  23.557  1.00  0.00     0.117 C 
BRANCH  72  73
ATOM     73  N   UNL A   1      31.144  27.897  22.377  1.00  0.00    -0.356 N 
ATOM     74  C   UNL A   1      31.567  26.639  22.090  1.00  0.00     0.227 C 
ATOM     75  H   UNL A   1      30.639  28.324  21.648  1.00  0.00     0.163 HD
ATOM     76  O   UNL A   1      31.324  26.212  20.957  1.00  0.00    -0.274 OA
BRANCH  74  77
ATOM     77  C   UNL A   1      32.346  25.778  23.078  1.00  0.00     0.103 C 
ATOM     78  C   UNL A   1      31.663  24.487  23.361  1.00  0.00    -0.016 C 
ATOM     79  C   UNL A   1      33.769  25.384  22.672  1.00  0.00     0.047 C 
ATOM     80  C   UNL A   1      32.497  23.451  23.244  1.00  0.00    -0.005 C 
ATOM     81  C   UNL A   1      33.901  23.850  22.873  1.00  0.00     0.117 C 
BRANCH  81  82
ATOM     82  N   UNL A   1      34.840  23.478  23.922  1.00  0.00    -0.275 N 
ATOM     83  C   UNL A   1      36.112  23.012  23.686  1.00  0.00     0.233 C 
ATOM     84  C   UNL A   1      34.737  23.944  25.205  1.00  0.00     0.233 C 
ATOM     85  O   UNL A   1      36.719  22.892  22.643  1.00  0.00    -0.274 OA
ATOM     86  C   UNL A   1      36.752  22.719  24.997  1.00  0.00     0.092 C 
ATOM     87  C   UNL A   1      35.817  23.336  26.019  1.00  0.00     0.092 C 
ATOM     88  O   UNL A   1      33.975  24.775  25.671  1.00  0.00    -0.274 OA
ATOM     89  C   UNL A   1      37.244  23.798  25.924  1.00  0.00     0.028 C 
ENDBRANCH  81  82
ENDBRANCH  74  77
ENDBRANCH  72  73
ENDBRANCH  71  72
ENDBRANCH   1  71
TORSDOF 14
ENDMDL
MODEL 2
REMARK VINA RESULT:     -12.1      1.587      2.033
REMARK SMILES O=C(NCCCNC(=O)[C@H]1C=C[C@H](N2C(=O)[C@H]3C[C@H]3C2=O)C1)c1ccc(-c2c3nc(c(-c4cccc(S(=O)(=O)[O-])c4F)c4ccc([nH]4)c(-c4cccc(S(=O)(=O)[O-])c4F)c4nc(c(-c5cccc(S(=O)(=O)[O-])c5F)c5ccc2[nH]5)C=C4)C=C3)cc1
REMARK SMILES IDX 4 1 3 2 1 3 2 4 23 6 24 7 85 8 25 9 84 10 26 11 27 12 28 13
REMARK SMILES IDX 78 14 29 15 83 16 77 17 79 18 30 19 82 20 76 21 75 22 31 24
REMARK SMILES IDX 63 25 43 26 62 27 44 28 47 29 61 30 80 31 45 32 46 33 60 35
REMARK SMILES IDX 81 36 48 37 32 38 33 39 41 40 34 41 36 42 42 43 35 44 37 45
REMARK SMILES IDX 38 46 39 47 40 48 64 49 65 50 73 51 66 52 68 53 74 54 67 55
REMARK SMILES IDX 69 56 70 57 71 58 72 59 49 60 50 61 58 62 51 63 53 64 59 65
REMARK SMILES IDX 52 66 54 67 55 68 56 69 57 70 5 71 6 72 7 73 8 74 9 76 10 77
REMARK SMILES IDX 11 78 22 79 12 80 13 81 14 82 15 83 20 84 16 85 17 86 19 87
REMARK SMILES IDX 21 88 18 89
REMARK H PARENT 3 5 79 23 47 34 7 75
REMARK Flexibility Score: inf
ROOT
ATOM      1  C   UNL A   1      33.263  29.230  25.107  1.00  0.00     0.118 C 
ENDROOT
BRANCH   1   2
ATOM      2  N   UNL A   1      32.700  30.436  25.704  1.00  0.00    -0.352 N 
ATOM      3  O   UNL A   1      32.353  32.033  27.249  1.00  0.00    -0.269 OA
ATOM      4  C   UNL A   1      33.092  31.157  26.810  1.00  0.00     0.251 C 
ATOM      5  H   UNL A   1      31.909  30.795  25.240  1.00  0.00     0.163 HD
BRANCH   4   6
ATOM      6  C   UNL A   1      34.375  30.853  27.482  1.00  0.00     0.039 A 
ATOM      7  C   UNL A   1      34.631  29.572  27.965  1.00  0.00     0.014 A 
ATOM      8  C   UNL A   1      35.340  31.853  27.630  1.00  0.00     0.014 A 
ATOM      9  C   UNL A   1      35.727  29.349  28.783  1.00  0.00     0.010 A 
ATOM     10  C   UNL A   1      36.521  31.584  28.333  1.00  0.00     0.010 A 
ATOM     11  C   UNL A   1      36.706  30.340  28.953  1.00  0.00    -0.014 A 
BRANCH  11  12
ATOM     12  C   UNL A   1      37.938  29.997  29.713  1.00  0.00     0.031 A 
ATOM     13  C   UNL A   1      38.176  30.506  31.108  1.00  0.00     0.074 A 
ATOM     14  C   UNL A   1      38.831  29.170  29.132  1.00  0.00     0.049 A 
ATOM     15  N   UNL A   1      39.180  30.256  31.909  1.00  0.00    -0.248 NA
ATOM     16  C   UNL A   1      37.172  31.419  31.679  1.00  0.00     0.031 C 
ATOM     17  C   UNL A   1      38.730  28.650  27.763  1.00  0.00     0.029 A 
ATOM     18  N   UNL A   1      39.986  28.607  29.609  1.00  0.00    -0.354 N 
ATOM     19  C   UNL A   1      38.952  31.003  33.060  1.00  0.00     0.074 A 
ATOM     20  C   UNL A   1      37.718  31.729  32.848  1.00  0.00     0.031 C 
ATOM     21  C   UNL A   1      39.744  27.807  27.531  1.00  0.00     0.029 A 
ATOM     22  C   UNL A   1      40.612  27.785  28.700  1.00  0.00     0.049 A 
ATOM     23  H   UNL A   1      40.335  28.775  30.515  1.00  0.00     0.167 HD
ATOM     24  C   UNL A   1      39.693  31.063  34.193  1.00  0.00     0.034 A 
ATOM     25  C   UNL A   1      41.769  27.103  28.784  1.00  0.00     0.034 A 
ATOM     26  C   UNL A   1      40.903  30.312  34.406  1.00  0.00     0.049 A 
ATOM     27  C   UNL A   1      42.552  27.172  30.060  1.00  0.00     0.074 A 
ATOM     28  C   UNL A   1      41.710  30.280  35.531  1.00  0.00     0.029 A 
ATOM     29  N   UNL A   1      41.483  29.458  33.478  1.00  0.00    -0.354 N 
ATOM     30  N   UNL A   1      42.264  27.806  31.170  1.00  0.00    -0.248 NA
ATOM     31  C   UNL A   1      43.808  26.412  30.108  1.00  0.00     0.031 C 
ATOM     32  C   UNL A   1      42.784  29.419  35.277  1.00  0.00     0.029 A 
ATOM     33  C   UNL A   1      42.634  28.897  34.003  1.00  0.00     0.049 A 
ATOM     34  H   UNL A   1      41.127  29.279  32.578  1.00  0.00     0.167 HD
ATOM     35  C   UNL A   1      43.290  27.509  32.055  1.00  0.00     0.074 A 
ATOM     36  C   UNL A   1      44.188  26.605  31.362  1.00  0.00     0.031 C 
ATOM     37  C   UNL A   1      43.489  27.961  33.317  1.00  0.00     0.034 A 
BRANCH  24  38
ATOM     38  C   UNL A   1      39.196  31.938  35.316  1.00  0.00     0.023 A 
ATOM     39  C   UNL A   1      38.253  31.424  36.230  1.00  0.00     0.012 A 
ATOM     40  C   UNL A   1      39.712  33.234  35.515  1.00  0.00     0.148 A 
ATOM     41  C   UNL A   1      37.814  32.192  37.307  1.00  0.00     0.002 A 
ATOM     42  C   UNL A   1      39.299  33.980  36.614  1.00  0.00     0.091 A 
ATOM     43  F   UNL A   1      40.594  33.715  34.628  1.00  0.00    -0.205 F 
ATOM     44  C   UNL A   1      38.343  33.464  37.506  1.00  0.00     0.022 A 
BRANCH  42  45
ATOM     45  S   UNL A   1      39.976  35.599  37.003  1.00  0.00     0.127 S 
ATOM     46  O   UNL A   1      39.277  35.919  38.247  1.00  0.00    -0.237 OA
ATOM     47  O   UNL A   1      41.400  35.308  37.162  1.00  0.00    -0.237 OA
ATOM     48  O   UNL A   1      39.653  36.452  35.868  1.00  0.00    -0.744 OA
ENDBRANCH  42  45
ENDBRANCH  24  38
BRANCH  25  49
ATOM     49  C   UNL A   1      42.233  26.284  27.628  1.00  0.00     0.023 A 
ATOM     50  C   UNL A   1      43.104  26.848  26.677  1.00  0.00     0.012 A 
ATOM     51  C   UNL A   1      41.849  24.935  27.493  1.00  0.00     0.148 A 
ATOM     52  C   UNL A   1      43.560  26.092  25.596  1.00  0.00     0.002 A 
ATOM     53  C   UNL A   1      42.359  24.170  26.453  1.00  0.00     0.091 A 
ATOM     54  F   UNL A   1      41.005  24.420  28.398  1.00  0.00    -0.205 F 
ATOM     55  C   UNL A   1      43.199  24.750  25.492  1.00  0.00     0.022 A 
BRANCH  53  56
ATOM     56  S   UNL A   1      42.066  22.401  26.347  1.00  0.00     0.127 S 
ATOM     57  O   UNL A   1      40.610  22.346  26.242  1.00  0.00    -0.237 OA
ATOM     58  O   UNL A   1      42.786  22.042  25.125  1.00  0.00    -0.237 OA
ATOM     59  O   UNL A   1      42.643  21.842  27.562  1.00  0.00    -0.744 OA
ENDBRANCH  53  56
ENDBRANCH  25  49
BRANCH  37  60
ATOM     60  C   UNL A   1      44.712  27.463  34.038  1.00  0.00     0.023 A 
ATOM     61  C   UNL A   1      45.912  28.198  33.967  1.00  0.00     0.012 A 
ATOM     62  C   UNL A   1      44.659  26.292  34.819  1.00  0.00     0.148 A 
ATOM     63  C   UNL A   1      47.054  27.754  34.631  1.00  0.00     0.002 A 
ATOM     64  C   UNL A   1      45.789  25.882  35.517  1.00  0.00     0.091 A 
ATOM     65  F   UNL A   1      43.515  25.597  34.855  1.00  0.00    -0.205 F 
ATOM     66  C   UNL A   1      46.990  26.603  35.414  1.00  0.00     0.022 A 
BRANCH  64  67
ATOM     67  S   UNL A   1      45.771  24.465  36.620  1.00  0.00     0.127 S 
ATOM     68  O   UNL A   1      44.719  24.835  37.565  1.00  0.00    -0.237 OA
ATOM     69  O   UNL A   1      45.422  23.370  35.715  1.00  0.00    -0.237 OA
ATOM     70  O   UNL A   1      47.114  24.379  37.179  1.00  0.00    -0.744 OA
ENDBRANCH  64  67
ENDBRANCH  37  60
ENDBRANCH  11  12
ENDBRANCH   4   6
ENDBRANCH   1   2
BRANCH   1  71
ATOM     71  C   UNL A   1      32.799  29.006  23.678  1.00  0.00     0.042 C 
BRANCH  71  72
ATOM     72  C   UNL A   1      33.928  28.675  22.718  1.00  0.00     0.117 C 
BRANCH  72  73
ATOM     73  N   UNL A   1      33.523  27.747  21.677  1.00  0.00    -0.356 N 
ATOM     74  C   UNL A   1      33.271  26.413  21.694  1.00  0.00     0.227 C 
ATOM     75  H   UNL A   1      33.408  28.163  20.792  1.00  0.00     0.163 HD
ATOM     76  O   UNL A   1      32.992  25.882  20.613  1.00  0.00    -0.274 OA
BRANCH  74  77
ATOM     77  C   UNL A   1      33.361  25.566  22.958  1.00  0.00     0.103 C 
ATOM     78  C   UNL A   1      32.030  25.350  23.588  1.00  0.00    -0.016 C 
ATOM     79  C   UNL A   1      33.950  24.161  22.803  1.00  0.00     0.047 C 
ATOM     80  C   UNL A   1      31.820  24.062  23.867  1.00  0.00    -0.005 C 
ATOM     81  C   UNL A   1      32.973  23.169  23.491  1.00  0.00     0.117 C 
BRANCH  81  82
ATOM     82  N   UNL A   1      33.533  22.521  24.669  1.00  0.00    -0.275 N 
ATOM     83  C   UNL A   1      34.117  23.196  25.714  1.00  0.00     0.233 C 
ATOM     84  C   UNL A   1      33.166  21.262  25.065  1.00  0.00     0.233 C 
ATOM     85  O   UNL A   1      34.217  24.388  25.915  1.00  0.00    -0.274 OA
ATOM     86  C   UNL A   1      34.587  22.197  26.711  1.00  0.00     0.092 C 
ATOM     87  C   UNL A   1      33.956  20.893  26.263  1.00  0.00     0.092 C 
ATOM     88  O   UNL A   1      32.296  20.532  24.620  1.00  0.00    -0.274 OA
ATOM     89  C   UNL A   1      33.651  21.452  27.624  1.00  0.00     0.028 C 
ENDBRANCH  81  82
ENDBRANCH  74  77
ENDBRANCH  72  73
ENDBRANCH  71  72
ENDBRANCH   1  71
TORSDOF 14
ENDMDL
MODEL 3
REMARK VINA RESULT:     -12.0      5.209     10.224
REMARK SMILES O=C(NCCCNC(=O)[C@H]1C=C[C@H](N2C(=O)[C@H]3C[C@H]3C2=O)C1)c1ccc(-c2c3nc(c(-c4cccc(S(=O)(=O)[O-])c4F)c4ccc([nH]4)c(-c4cccc(S(=O)(=O)[O-])c4F)c4nc(c(-c5cccc(S(=O)(=O)[O-])c5F)c5ccc2[nH]5)C=C4)C=C3)cc1
REMARK SMILES IDX 4 1 3 2 1 3 2 4 23 6 24 7 85 8 25 9 84 10 26 11 27 12 28 13
REMARK SMILES IDX 78 14 29 15 83 16 77 17 79 18 30 19 82 20 76 21 75 22 31 24
REMARK SMILES IDX 63 25 43 26 62 27 44 28 47 29 61 30 80 31 45 32 46 33 60 35
REMARK SMILES IDX 81 36 48 37 32 38 33 39 41 40 34 41 36 42 42 43 35 44 37 45
REMARK SMILES IDX 38 46 39 47 40 48 64 49 65 50 73 51 66 52 68 53 74 54 67 55
REMARK SMILES IDX 69 56 70 57 71 58 72 59 49 60 50 61 58 62 51 63 53 64 59 65
REMARK SMILES IDX 52 66 54 67 55 68 56 69 57 70 5 71 6 72 7 73 8 74 9 76 10 77
REMARK SMILES IDX 11 78 22 79 12 80 13 81 14 82 15 83 20 84 16 85 17 86 19 87
REMARK SMILES IDX 21 88 18 89
REMARK H PARENT 3 5 79 23 47 34 7 75
REMARK Flexibility Score: inf
ROOT
ATOM      1  C   UNL A   1      35.939  22.242  26.069  1.00  0.00     0.118 C 
ENDROOT
BRANCH   1   2
ATOM      2  N   UNL A   1      36.930  21.207  25.799  1.00  0.00    -0.352 N 
ATOM      3  O   UNL A   1      38.945  20.312  25.359  1.00  0.00    -0.269 OA
ATOM      4  C   UNL A   1      38.306  21.257  25.811  1.00  0.00     0.251 C 
ATOM      5  H   UNL A   1      36.553  20.326  25.571  1.00  0.00     0.163 HD
BRANCH   4   6
ATOM      6  C   UNL A   1      39.004  22.454  26.330  1.00  0.00     0.039 A 
ATOM      7  C   UNL A   1      38.601  23.729  25.939  1.00  0.00     0.014 A 
ATOM      8  C   UNL A   1      40.070  22.309  27.222  1.00  0.00     0.014 A 
ATOM      9  C   UNL A   1      39.390  24.826  26.246  1.00  0.00     0.010 A 
ATOM     10  C   UNL A   1      40.777  23.438  27.653  1.00  0.00     0.010 A 
ATOM     11  C   UNL A   1      40.470  24.705  27.134  1.00  0.00    -0.014 A 
BRANCH  11  12
ATOM     12  C   UNL A   1      41.186  25.939  27.553  1.00  0.00     0.031 A 
ATOM     13  C   UNL A   1      42.599  26.220  27.121  1.00  0.00     0.074 A 
ATOM     14  C   UNL A   1      40.516  26.837  28.304  1.00  0.00     0.049 A 
ATOM     15  N   UNL A   1      43.337  27.272  27.371  1.00  0.00    -0.248 NA
ATOM     16  C   UNL A   1      43.282  25.192  26.318  1.00  0.00     0.031 C 
ATOM     17  C   UNL A   1      39.156  26.652  28.823  1.00  0.00     0.029 A 
ATOM     18  N   UNL A   1      40.868  28.084  28.752  1.00  0.00    -0.354 N 
ATOM     19  C   UNL A   1      44.576  27.023  26.791  1.00  0.00     0.074 A 
ATOM     20  C   UNL A   1      44.497  25.710  26.187  1.00  0.00     0.031 C 
ATOM     21  C   UNL A   1      38.771  27.760  29.468  1.00  0.00     0.029 A 
ATOM     22  C   UNL A   1      39.879  28.705  29.480  1.00  0.00     0.049 A 
ATOM     23  H   UNL A   1      41.744  28.496  28.570  1.00  0.00     0.167 HD
ATOM     24  C   UNL A   1      45.670  27.822  26.751  1.00  0.00     0.034 A 
ATOM     25  C   UNL A   1      39.867  29.893  30.110  1.00  0.00     0.034 A 
ATOM     26  C   UNL A   1      45.728  29.140  27.329  1.00  0.00     0.049 A 
ATOM     27  C   UNL A   1      41.085  30.763  30.026  1.00  0.00     0.074 A 
ATOM     28  C   UNL A   1      46.779  30.040  27.315  1.00  0.00     0.029 A 
ATOM     29  N   UNL A   1      44.692  29.750  28.022  1.00  0.00    -0.354 N 
ATOM     30  N   UNL A   1      42.208  30.547  29.387  1.00  0.00    -0.248 NA
ATOM     31  C   UNL A   1      41.028  32.052  30.728  1.00  0.00     0.031 C 
ATOM     32  C   UNL A   1      46.385  31.187  28.012  1.00  0.00     0.029 A 
ATOM     33  C   UNL A   1      45.079  31.011  28.441  1.00  0.00     0.049 A 
ATOM     34  H   UNL A   1      43.812  29.344  28.192  1.00  0.00     0.167 HD
ATOM     35  C   UNL A   1      42.986  31.677  29.593  1.00  0.00     0.074 A 
ATOM     36  C   UNL A   1      42.188  32.593  30.384  1.00  0.00     0.031 C 
ATOM     37  C   UNL A   1      44.254  31.928  29.186  1.00  0.00     0.034 A 
BRANCH  24  38
ATOM     38  C   UNL A   1      46.887  27.315  26.019  1.00  0.00     0.023 A 
ATOM     39  C   UNL A   1      47.722  26.364  26.639  1.00  0.00     0.012 A 
ATOM     40  C   UNL A   1      47.163  27.715  24.696  1.00  0.00     0.148 A 
ATOM     41  C   UNL A   1      48.826  25.839  25.967  1.00  0.00     0.002 A 
ATOM     42  C   UNL A   1      48.242  27.158  24.018  1.00  0.00     0.091 A 
ATOM     43  F   UNL A   1      46.369  28.633  24.126  1.00  0.00    -0.205 F 
ATOM     44  C   UNL A   1      49.079  26.227  24.655  1.00  0.00     0.022 A 
BRANCH  42  45
ATOM     45  S   UNL A   1      48.611  27.533  22.299  1.00  0.00     0.127 S 
ATOM     46  O   UNL A   1      47.451  28.340  21.919  1.00  0.00    -0.237 OA
ATOM     47  O   UNL A   1      49.863  28.281  22.409  1.00  0.00    -0.237 OA
ATOM     48  O   UNL A   1      48.727  26.249  21.623  1.00  0.00    -0.744 OA
ENDBRANCH  42  45
ENDBRANCH  24  38
BRANCH  25  49
ATOM     49  C   UNL A   1      38.650  30.327  30.852  1.00  0.00     0.023 A 
ATOM     50  C   UNL A   1      38.544  30.073  32.233  1.00  0.00     0.012 A 
ATOM     51  C   UNL A   1      37.616  31.031  30.204  1.00  0.00     0.148 A 
ATOM     52  C   UNL A   1      37.419  30.485  32.947  1.00  0.00     0.002 A 
ATOM     53  C   UNL A   1      36.530  31.495  30.933  1.00  0.00     0.091 A 
ATOM     54  F   UNL A   1      37.724  31.249  28.886  1.00  0.00    -0.205 F 
ATOM     55  C   UNL A   1      36.418  31.208  32.301  1.00  0.00     0.022 A 
BRANCH  53  56
ATOM     56  S   UNL A   1      35.287  32.566  30.201  1.00  0.00     0.127 S 
ATOM     57  O   UNL A   1      34.366  32.762  31.317  1.00  0.00    -0.237 OA
ATOM     58  O   UNL A   1      36.073  33.746  29.837  1.00  0.00    -0.237 OA
ATOM     59  O   UNL A   1      34.765  31.826  29.061  1.00  0.00    -0.744 OA
ENDBRANCH  53  56
ENDBRANCH  25  49
BRANCH  37  60
ATOM     60  C   UNL A   1      44.846  33.257  29.571  1.00  0.00     0.023 A 
ATOM     61  C   UNL A   1      45.577  33.375  30.769  1.00  0.00     0.012 A 
ATOM     62  C   UNL A   1      44.714  34.375  28.725  1.00  0.00     0.148 A 
ATOM     63  C   UNL A   1      46.135  34.597  31.140  1.00  0.00     0.002 A 
ATOM     64  C   UNL A   1      45.314  35.577  29.078  1.00  0.00     0.091 A 
ATOM     65  F   UNL A   1      43.996  34.247  27.601  1.00  0.00    -0.205 F 
ATOM     66  C   UNL A   1      46.013  35.694  30.291  1.00  0.00     0.022 A 
BRANCH  64  67
ATOM     67  S   UNL A   1      45.285  37.015  28.003  1.00  0.00     0.127 S 
ATOM     68  O   UNL A   1      43.885  37.424  28.091  1.00  0.00    -0.237 OA
ATOM     69  O   UNL A   1      46.227  37.919  28.665  1.00  0.00    -0.237 OA
ATOM     70  O   UNL A   1      45.720  36.544  26.695  1.00  0.00    -0.744 OA
ENDBRANCH  64  67
ENDBRANCH  37  60
ENDBRANCH  11  12
ENDBRANCH   4   6
ENDBRANCH   1   2
BRANCH   1  71
ATOM     71  C   UNL A   1      34.562  21.677  26.378  1.00  0.00     0.042 C 
BRANCH  71  72
ATOM     72  C   UNL A   1      34.038  22.071  27.747  1.00  0.00     0.117 C 
BRANCH  72  73
ATOM     73  N   UNL A   1      32.598  22.261  27.761  1.00  0.00    -0.356 N 
ATOM     74  C   UNL A   1      31.786  23.118  27.090  1.00  0.00     0.227 C 
ATOM     75  H   UNL A   1      32.120  21.653  28.370  1.00  0.00     0.163 HD
ATOM     76  O   UNL A   1      30.581  23.075  27.360  1.00  0.00    -0.274 OA
BRANCH  74  77
ATOM     77  C   UNL A   1      32.304  24.132  26.076  1.00  0.00     0.103 C 
ATOM     78  C   UNL A   1      32.108  23.675  24.673  1.00  0.00    -0.016 C 
ATOM     79  C   UNL A   1      31.679  25.529  26.121  1.00  0.00     0.047 C 
ATOM     80  C   UNL A   1      31.539  24.621  23.922  1.00  0.00    -0.005 C 
ATOM     81  C   UNL A   1      31.256  25.896  24.672  1.00  0.00     0.117 C 
BRANCH  81  82
ATOM     82  N   UNL A   1      32.009  27.007  24.109  1.00  0.00    -0.275 N 
ATOM     83  C   UNL A   1      33.327  27.269  24.398  1.00  0.00     0.233 C 
ATOM     84  C   UNL A   1      31.648  27.629  22.943  1.00  0.00     0.233 C 
ATOM     85  O   UNL A   1      34.120  26.640  25.067  1.00  0.00    -0.274 OA
ATOM     86  C   UNL A   1      33.734  28.492  23.654  1.00  0.00     0.092 C 
ATOM     87  C   UNL A   1      32.595  28.740  22.685  1.00  0.00     0.092 C 
ATOM     88  O   UNL A   1      30.767  27.341  22.150  1.00  0.00    -0.274 OA
ATOM     89  C   UNL A   1      33.986  28.499  22.170  1.00  0.00     0.028 C 
ENDBRANCH  81  82
ENDBRANCH  74  77
ENDBRANCH  72  73
ENDBRANCH  71  72
ENDBRANCH   1  71
TORSDOF 14
ENDMDL
