MODEL 1
REMARK VINA RESULT:     -12.7      0.000      0.000
REMARK SMILES O=C(CNC(=O)[C@@H](CC1=c2ccccc2=NC1)N1C(=O)N=C2C=CC=C[C@H]2C1=O)NCCCNC(=O)c1ccc(-c2c3nc(c(-c4cccc(S(=O)(=O)[O-])c4F)c4ccc([nH]4)c(-c4cccc(S(=O)(=O)[O-])c4F)c4nc(c(-c5cccc(S(=O)(=O)[O-])c5F)c5ccc2[nH]5)C=C4)C=C3)cc1
REMARK SMILES IDX 31 1 30 2 1 3 2 4 3 6 4 7 5 8 6 10 7 11 8 12 9 13 10 14
REMARK SMILES IDX 17 15 11 16 15 17 16 18 12 19 14 20 13 21 18 22 19 23 28 24
REMARK SMILES IDX 21 25 20 26 27 27 29 28 22 29 26 30 23 31 25 32 24 33 32 34
REMARK SMILES IDX 33 35 34 36 35 37 36 39 37 40 38 41 99 42 39 43 98 44 40 45
REMARK SMILES IDX 41 46 42 47 92 48 43 49 97 50 91 51 93 52 44 53 96 54 90 55
REMARK SMILES IDX 89 56 45 58 77 59 57 60 76 61 58 62 61 63 75 64 94 65 59 66
REMARK SMILES IDX 60 67 74 69 95 70 62 71 46 72 47 73 55 74 48 75 50 76 56 77
REMARK SMILES IDX 49 78 51 79 52 80 53 81 54 82 78 83 79 84 87 85 80 86 82 87
REMARK SMILES IDX 88 88 81 89 83 90 84 91 85 92 86 93 63 94 64 95 72 96 65 97
REMARK SMILES IDX 67 98 73 99 66 100 68 101 69 102 70 103 71 104
REMARK H PARENT 30 5 4 9 34 38 93 57 61 68
REMARK Flexibility Score: inf
ROOT
ATOM      1  C   UNL A   1      31.674  28.455  27.584  1.00  0.00     0.117 C 
ENDROOT
BRANCH   1   2
ATOM      2  N   UNL A   1      31.002  27.200  27.276  1.00  0.00    -0.355 N 
ATOM      3  O   UNL A   1      30.828  27.532  25.008  1.00  0.00    -0.273 OA
ATOM      4  C   UNL A   1      30.606  26.838  25.998  1.00  0.00     0.239 C 
ATOM      5  H   UNL A   1      30.819  26.576  28.015  1.00  0.00     0.163 HD
BRANCH   4   6
ATOM      6  C   UNL A   1      29.777  25.527  25.894  1.00  0.00     0.216 C 
BRANCH   6   7
ATOM      7  N   UNL A   1      30.280  24.441  26.727  1.00  0.00    -0.345 N 
ATOM      8  C   UNL A   1      31.334  23.606  26.660  1.00  0.00     0.244 C 
ATOM      9  H   UNL A   1      29.720  24.282  27.521  1.00  0.00     0.164 HD
ATOM     10  O   UNL A   1      31.752  23.318  27.800  1.00  0.00    -0.273 OA
BRANCH   8  11
ATOM     11  C   UNL A   1      32.074  22.957  25.443  1.00  0.00     0.188 C 
BRANCH  11  12
ATOM     12  C   UNL A   1      31.967  21.559  24.773  1.00  0.00     0.069 C 
BRANCH  12  13
ATOM     13  C   UNL A   1      33.130  20.643  24.691  1.00  0.00    -0.037 C 
ATOM     14  C   UNL A   1      33.241  19.424  24.170  1.00  0.00     0.001 A 
ATOM     15  C   UNL A   1      34.479  21.144  25.069  1.00  0.00     0.174 C 
ATOM     16  C   UNL A   1      32.410  18.549  23.412  1.00  0.00     0.010 A 
ATOM     17  C   UNL A   1      34.615  19.043  24.544  1.00  0.00     0.065 A 
ATOM     18  N   UNL A   1      35.354  19.959  25.091  1.00  0.00    -0.280 NA
ATOM     19  C   UNL A   1      32.880  17.329  23.100  1.00  0.00     0.001 A 
ATOM     20  C   UNL A   1      34.998  17.637  24.308  1.00  0.00     0.028 A 
ATOM     21  C   UNL A   1      34.154  16.852  23.617  1.00  0.00     0.002 A 
ENDBRANCH  12  13
ENDBRANCH  11  12
BRANCH  11  22
ATOM     22  N   UNL A   1      32.448  24.056  24.505  1.00  0.00    -0.249 N 
ATOM     23  C   UNL A   1      31.663  24.215  23.363  1.00  0.00     0.351 C 
ATOM     24  C   UNL A   1      33.502  24.892  24.818  1.00  0.00     0.244 C 
ATOM     25  N   UNL A   1      32.060  25.061  22.373  1.00  0.00    -0.197 NA
ATOM     26  O   UNL A   1      30.569  23.659  23.258  1.00  0.00    -0.246 OA
ATOM     27  C   UNL A   1      33.934  25.885  23.753  1.00  0.00     0.151 C 
ATOM     28  O   UNL A   1      34.096  24.831  25.896  1.00  0.00    -0.273 OA
ATOM     29  C   UNL A   1      33.048  25.869  22.539  1.00  0.00     0.062 C 
ATOM     30  C   UNL A   1      34.055  27.324  24.211  1.00  0.00    -0.007 C 
ATOM     31  C   UNL A   1      33.301  26.889  21.491  1.00  0.00     0.025 C 
ATOM     32  C   UNL A   1      33.959  28.340  23.333  1.00  0.00    -0.003 C 
ATOM     33  C   UNL A   1      33.731  28.080  21.926  1.00  0.00     0.002 C 
ENDBRANCH  11  22
ENDBRANCH   8  11
ENDBRANCH   6   7
ENDBRANCH   4   6
ENDBRANCH   1   2
BRANCH   1  34
ATOM     34  C   UNL A   1      33.185  28.475  27.310  1.00  0.00     0.042 C 
BRANCH  34  35
ATOM     35  C   UNL A   1      33.768  29.752  26.696  1.00  0.00     0.118 C 
BRANCH  35  36
ATOM     36  N   UNL A   1      33.682  30.932  27.537  1.00  0.00    -0.352 N 
ATOM     37  C   UNL A   1      34.566  31.431  28.468  1.00  0.00     0.251 C 
ATOM     38  H   UNL A   1      32.859  31.461  27.425  1.00  0.00     0.163 HD
ATOM     39  O   UNL A   1      34.274  32.476  29.048  1.00  0.00    -0.269 OA
BRANCH  37  40
ATOM     40  C   UNL A   1      35.823  30.724  28.827  1.00  0.00     0.039 A 
ATOM     41  C   UNL A   1      35.882  29.717  29.793  1.00  0.00     0.014 A 
ATOM     42  C   UNL A   1      36.986  31.062  28.121  1.00  0.00     0.014 A 
ATOM     43  C   UNL A   1      37.117  29.142  30.134  1.00  0.00     0.010 A 
ATOM     44  C   UNL A   1      38.210  30.459  28.435  1.00  0.00     0.010 A 
ATOM     45  C   UNL A   1      38.299  29.527  29.479  1.00  0.00    -0.014 A 
BRANCH  45  46
ATOM     46  C   UNL A   1      39.622  28.990  29.908  1.00  0.00     0.031 A 
ATOM     47  C   UNL A   1      40.317  29.554  31.123  1.00  0.00     0.074 A 
ATOM     48  C   UNL A   1      40.218  27.996  29.218  1.00  0.00     0.049 A 
ATOM     49  N   UNL A   1      41.461  29.204  31.657  1.00  0.00    -0.248 NA
ATOM     50  C   UNL A   1      39.643  30.656  31.832  1.00  0.00     0.031 C 
ATOM     51  C   UNL A   1      39.687  27.378  28.003  1.00  0.00     0.029 A 
ATOM     52  N   UNL A   1      41.405  27.339  29.437  1.00  0.00    -0.354 N 
ATOM     53  C   UNL A   1      41.658  30.055  32.738  1.00  0.00     0.074 A 
ATOM     54  C   UNL A   1      40.522  30.950  32.780  1.00  0.00     0.031 C 
ATOM     55  C   UNL A   1      40.537  26.420  27.593  1.00  0.00     0.029 A 
ATOM     56  C   UNL A   1      41.683  26.371  28.499  1.00  0.00     0.049 A 
ATOM     57  H   UNL A   1      42.001  27.540  30.194  1.00  0.00     0.167 HD
ATOM     58  C   UNL A   1      42.673  30.077  33.634  1.00  0.00     0.034 A 
ATOM     59  C   UNL A   1      42.736  25.536  28.377  1.00  0.00     0.034 A 
ATOM     60  C   UNL A   1      43.781  29.162  33.639  1.00  0.00     0.049 A 
ATOM     61  C   UNL A   1      43.846  25.570  29.392  1.00  0.00     0.074 A 
ATOM     62  C   UNL A   1      44.815  29.074  34.556  1.00  0.00     0.029 A 
ATOM     63  N   UNL A   1      44.005  28.179  32.690  1.00  0.00    -0.354 N 
ATOM     64  N   UNL A   1      43.951  26.305  30.471  1.00  0.00    -0.248 NA
ATOM     65  C   UNL A   1      44.971  24.644  29.187  1.00  0.00     0.031 C 
ATOM     66  C   UNL A   1      45.668  28.041  34.158  1.00  0.00     0.029 A 
ATOM     67  C   UNL A   1      45.162  27.484  32.996  1.00  0.00     0.049 A 
ATOM     68  H   UNL A   1      43.428  28.002  31.911  1.00  0.00     0.167 HD
ATOM     69  C   UNL A   1      45.140  25.922  31.081  1.00  0.00     0.074 A 
ATOM     70  C   UNL A   1      45.714  24.875  30.262  1.00  0.00     0.031 C 
ATOM     71  C   UNL A   1      45.707  26.410  32.209  1.00  0.00     0.034 A 
BRANCH  58  72
ATOM     72  C   UNL A   1      42.611  31.084  34.749  1.00  0.00     0.023 A 
ATOM     73  C   UNL A   1      42.017  30.713  35.972  1.00  0.00     0.012 A 
ATOM     74  C   UNL A   1      43.237  32.340  34.632  1.00  0.00     0.148 A 
ATOM     75  C   UNL A   1      42.038  31.580  37.061  1.00  0.00     0.002 A 
ATOM     76  C   UNL A   1      43.280  33.189  35.732  1.00  0.00     0.091 A 
ATOM     77  F   UNL A   1      43.788  32.672  33.456  1.00  0.00    -0.205 F 
ATOM     78  C   UNL A   1      42.677  32.812  36.945  1.00  0.00     0.022 A 
BRANCH  76  79
ATOM     79  S   UNL A   1      44.125  34.774  35.709  1.00  0.00     0.127 S 
ATOM     80  O   UNL A   1      43.290  35.540  34.785  1.00  0.00    -0.237 OA
ATOM     81  O   UNL A   1      44.028  35.192  37.108  1.00  0.00    -0.237 OA
ATOM     82  O   UNL A   1      45.477  34.504  35.243  1.00  0.00    -0.744 OA
ENDBRANCH  76  79
ENDBRANCH  58  72
BRANCH  59  83
ATOM     83  C   UNL A   1      42.751  24.542  27.270  1.00  0.00     0.023 A 
ATOM     84  C   UNL A   1      43.428  24.855  26.075  1.00  0.00     0.012 A 
ATOM     85  C   UNL A   1      42.154  23.275  27.416  1.00  0.00     0.148 A 
ATOM     86  C   UNL A   1      43.506  23.924  25.040  1.00  0.00     0.002 A 
ATOM     87  C   UNL A   1      42.271  22.338  26.397  1.00  0.00     0.091 A 
ATOM     88  F   UNL A   1      41.509  23.008  28.560  1.00  0.00    -0.205 F 
ATOM     89  C   UNL A   1      42.937  22.663  25.205  1.00  0.00     0.022 A 
BRANCH  87  90
ATOM     90  S   UNL A   1      41.662  20.655  26.551  1.00  0.00     0.127 S 
ATOM     91  O   UNL A   1      40.221  20.844  26.400  1.00  0.00    -0.237 OA
ATOM     92  O   UNL A   1      42.319  19.998  25.422  1.00  0.00    -0.237 OA
ATOM     93  O   UNL A   1      42.097  20.193  27.861  1.00  0.00    -0.744 OA
ENDBRANCH  87  90
ENDBRANCH  59  83
BRANCH  71  94
ATOM     94  C   UNL A   1      47.022  25.831  32.659  1.00  0.00     0.023 A 
ATOM     95  C   UNL A   1      47.032  24.854  33.673  1.00  0.00     0.012 A 
ATOM     96  C   UNL A   1      48.220  26.152  31.990  1.00  0.00     0.148 A 
ATOM     97  C   UNL A   1      48.217  24.206  34.018  1.00  0.00     0.002 A 
ATOM     98  C   UNL A   1      49.392  25.479  32.317  1.00  0.00     0.091 A 
ATOM     99  F   UNL A   1      48.184  27.090  31.033  1.00  0.00    -0.205 F 
ATOM    100  C   UNL A   1      49.393  24.508  33.332  1.00  0.00     0.022 A 
BRANCH  98 101
ATOM    101  S   UNL A   1      50.940  25.743  31.444  1.00  0.00     0.127 S 
ATOM    102  O   UNL A   1      50.554  25.467  30.062  1.00  0.00    -0.237 OA
ATOM    103  O   UNL A   1      51.220  27.150  31.731  1.00  0.00    -0.237 OA
ATOM    104  O   UNL A   1      51.894  24.805  32.019  1.00  0.00    -0.744 OA
ENDBRANCH  98 101
ENDBRANCH  71  94
ENDBRANCH  45  46
ENDBRANCH  37  40
ENDBRANCH  35  36
ENDBRANCH  34  35
ENDBRANCH   1  34
TORSDOF 18
ENDMDL
MODEL 2
REMARK VINA RESULT:     -12.4      4.156      8.640
REMARK SMILES O=C(CNC(=O)[C@@H](CC1=c2ccccc2=NC1)N1C(=O)N=C2C=CC=C[C@H]2C1=O)NCCCNC(=O)c1ccc(-c2c3nc(c(-c4cccc(S(=O)(=O)[O-])c4F)c4ccc([nH]4)c(-c4cccc(S(=O)(=O)[O-])c4F)c4nc(c(-c5cccc(S(=O)(=O)[O-])c5F)c5ccc2[nH]5)C=C4)C=C3)cc1
REMARK SMILES IDX 31 1 30 2 1 3 2 4 3 6 4 7 5 8 6 10 7 11 8 12 9 13 10 14
REMARK SMILES IDX 17 15 11 16 15 17 16 18 12 19 14 20 13 21 18 22 19 23 28 24
REMARK SMILES IDX 21 25 20 26 27 27 29 28 22 29 26 30 23 31 25 32 24 33 32 34
REMARK SMILES IDX 33 35 34 36 35 37 36 39 37 40 38 41 99 42 39 43 98 44 40 45
REMARK SMILES IDX 41 46 42 47 92 48 43 49 97 50 91 51 93 52 44 53 96 54 90 55
REMARK SMILES IDX 89 56 45 58 77 59 57 60 76 61 58 62 61 63 75 64 94 65 59 66
REMARK SMILES IDX 60 67 74 69 95 70 62 71 46 72 47 73 55 74 48 75 50 76 56 77
REMARK SMILES IDX 49 78 51 79 52 80 53 81 54 82 78 83 79 84 87 85 80 86 82 87
REMARK SMILES IDX 88 88 81 89 83 90 84 91 85 92 86 93 63 94 64 95 72 96 65 97
REMARK SMILES IDX 67 98 73 99 66 100 68 101 69 102 70 103 71 104
REMARK H PARENT 30 5 4 9 34 38 93 57 61 68
REMARK Flexibility Score: inf
ROOT
ATOM      1  C   UNL A   1      33.701  31.418  27.936  1.00  0.00     0.117 C 
ENDROOT
BRANCH   1   2
ATOM      2  N   UNL A   1      33.467  30.063  27.456  1.00  0.00    -0.355 N 
ATOM      3  O   UNL A   1      35.671  29.413  27.384  1.00  0.00    -0.273 OA
ATOM      4  C   UNL A   1      34.483  29.158  27.194  1.00  0.00     0.239 C 
ATOM      5  H   UNL A   1      32.537  29.775  27.311  1.00  0.00     0.163 HD
BRANCH   4   6
ATOM      6  C   UNL A   1      34.041  27.813  26.553  1.00  0.00     0.216 C 
BRANCH   6   7
ATOM      7  N   UNL A   1      32.632  27.496  26.758  1.00  0.00    -0.345 N 
ATOM      8  C   UNL A   1      31.720  26.761  26.095  1.00  0.00     0.244 C 
ATOM      9  H   UNL A   1      32.263  27.915  27.569  1.00  0.00     0.164 HD
ATOM     10  O   UNL A   1      30.908  26.235  26.882  1.00  0.00    -0.273 OA
BRANCH   8  11
ATOM     11  C   UNL A   1      31.514  26.486  24.568  1.00  0.00     0.188 C 
BRANCH  11  12
ATOM     12  C   UNL A   1      31.599  25.190  23.713  1.00  0.00     0.069 C 
BRANCH  12  13
ATOM     13  C   UNL A   1      32.865  24.433  23.570  1.00  0.00    -0.037 C 
ATOM     14  C   UNL A   1      33.700  23.955  24.489  1.00  0.00     0.001 A 
ATOM     15  C   UNL A   1      33.264  23.926  22.230  1.00  0.00     0.174 C 
ATOM     16  C   UNL A   1      33.715  23.849  25.910  1.00  0.00     0.010 A 
ATOM     17  C   UNL A   1      34.810  23.435  23.671  1.00  0.00     0.065 A 
ATOM     18  N   UNL A   1      34.642  23.426  22.384  1.00  0.00    -0.280 NA
ATOM     19  C   UNL A   1      34.802  23.325  26.503  1.00  0.00     0.001 A 
ATOM     20  C   UNL A   1      36.030  23.023  24.395  1.00  0.00     0.028 A 
ATOM     21  C   UNL A   1      35.991  22.979  25.737  1.00  0.00     0.002 A 
ENDBRANCH  12  13
ENDBRANCH  11  12
BRANCH  11  22
ATOM     22  N   UNL A   1      30.536  27.491  24.056  1.00  0.00    -0.249 N 
ATOM     23  C   UNL A   1      29.227  27.058  23.847  1.00  0.00     0.351 C 
ATOM     24  C   UNL A   1      30.938  28.797  23.863  1.00  0.00     0.244 C 
ATOM     25  N   UNL A   1      28.336  27.859  23.200  1.00  0.00    -0.197 NA
ATOM     26  O   UNL A   1      28.828  25.984  24.302  1.00  0.00    -0.246 OA
ATOM     27  C   UNL A   1      29.946  29.732  23.192  1.00  0.00     0.151 C 
ATOM     28  O   UNL A   1      32.057  29.200  24.187  1.00  0.00    -0.273 OA
ATOM     29  C   UNL A   1      28.610  29.090  22.941  1.00  0.00     0.062 C 
ATOM     30  C   UNL A   1      29.695  31.043  23.909  1.00  0.00    -0.007 C 
ATOM     31  C   UNL A   1      27.524  29.950  22.408  1.00  0.00     0.025 C 
ATOM     32  C   UNL A   1      28.551  31.728  23.717  1.00  0.00    -0.003 C 
ATOM     33  C   UNL A   1      27.529  31.223  22.823  1.00  0.00     0.002 C 
ENDBRANCH  11  22
ENDBRANCH   8  11
ENDBRANCH   6   7
ENDBRANCH   4   6
ENDBRANCH   1   2
BRANCH   1  34
ATOM     34  C   UNL A   1      32.569  32.418  27.659  1.00  0.00     0.042 C 
BRANCH  34  35
ATOM     35  C   UNL A   1      32.971  33.822  27.194  1.00  0.00     0.118 C 
BRANCH  35  36
ATOM     36  N   UNL A   1      32.646  34.892  28.121  1.00  0.00    -0.352 N 
ATOM     37  C   UNL A   1      33.206  35.221  29.335  1.00  0.00     0.251 C 
ATOM     38  H   UNL A   1      31.906  35.475  27.836  1.00  0.00     0.163 HD
ATOM     39  O   UNL A   1      32.763  36.200  29.934  1.00  0.00    -0.269 OA
BRANCH  37  40
ATOM     40  C   UNL A   1      34.280  34.406  29.961  1.00  0.00     0.039 A 
ATOM     41  C   UNL A   1      34.036  33.460  30.959  1.00  0.00     0.014 A 
ATOM     42  C   UNL A   1      35.587  34.573  29.483  1.00  0.00     0.014 A 
ATOM     43  C   UNL A   1      35.107  32.779  31.558  1.00  0.00     0.010 A 
ATOM     44  C   UNL A   1      36.650  33.863  30.055  1.00  0.00     0.010 A 
ATOM     45  C   UNL A   1      36.429  32.992  31.132  1.00  0.00    -0.014 A 
BRANCH  45  46
ATOM     46  C   UNL A   1      37.574  32.344  31.832  1.00  0.00     0.031 A 
ATOM     47  C   UNL A   1      38.328  31.213  31.175  1.00  0.00     0.074 A 
ATOM     48  C   UNL A   1      37.951  32.753  33.060  1.00  0.00     0.049 A 
ATOM     49  N   UNL A   1      39.358  30.538  31.623  1.00  0.00    -0.248 NA
ATOM     50  C   UNL A   1      37.866  30.779  29.845  1.00  0.00     0.031 C 
ATOM     51  C   UNL A   1      37.295  33.806  33.836  1.00  0.00     0.029 A 
ATOM     52  N   UNL A   1      38.973  32.326  33.874  1.00  0.00    -0.354 N 
ATOM     53  C   UNL A   1      39.648  29.588  30.650  1.00  0.00     0.074 A 
ATOM     54  C   UNL A   1      38.678  29.762  29.591  1.00  0.00     0.031 C 
ATOM     55  C   UNL A   1      37.941  33.954  35.005  1.00  0.00     0.029 A 
ATOM     56  C   UNL A   1      39.040  32.993  35.075  1.00  0.00     0.049 A 
ATOM     57  H   UNL A   1      39.599  31.610  33.621  1.00  0.00     0.167 HD
ATOM     58  C   UNL A   1      40.646  28.673  30.621  1.00  0.00     0.034 A 
ATOM     59  C   UNL A   1      39.886  32.853  36.117  1.00  0.00     0.034 A 
ATOM     60  C   UNL A   1      41.650  28.522  31.639  1.00  0.00     0.049 A 
ATOM     61  C   UNL A   1      40.995  31.837  36.056  1.00  0.00     0.074 A 
ATOM     62  C   UNL A   1      42.736  27.664  31.648  1.00  0.00     0.029 A 
ATOM     63  N   UNL A   1      41.696  29.240  32.821  1.00  0.00    -0.354 N 
ATOM     64  N   UNL A   1      41.318  31.032  35.076  1.00  0.00    -0.248 NA
ATOM     65  C   UNL A   1      41.869  31.728  37.235  1.00  0.00     0.031 C 
ATOM     66  C   UNL A   1      43.438  27.858  32.841  1.00  0.00     0.029 A 
ATOM     67  C   UNL A   1      42.790  28.841  33.570  1.00  0.00     0.049 A 
ATOM     68  H   UNL A   1      41.048  29.930  33.090  1.00  0.00     0.167 HD
ATOM     69  C   UNL A   1      42.439  30.332  35.510  1.00  0.00     0.074 A 
ATOM     70  C   UNL A   1      42.752  30.821  36.836  1.00  0.00     0.031 C 
ATOM     71  C   UNL A   1      43.131  29.362  34.868  1.00  0.00     0.034 A 
BRANCH  58  72
ATOM     72  C   UNL A   1      40.760  27.790  29.409  1.00  0.00     0.023 A 
ATOM     73  C   UNL A   1      39.928  26.657  29.310  1.00  0.00     0.012 A 
ATOM     74  C   UNL A   1      41.593  28.139  28.328  1.00  0.00     0.148 A 
ATOM     75  C   UNL A   1      39.929  25.877  28.156  1.00  0.00     0.002 A 
ATOM     76  C   UNL A   1      41.567  27.373  27.169  1.00  0.00     0.091 A 
ATOM     77  F   UNL A   1      42.380  29.217  28.451  1.00  0.00    -0.205 F 
ATOM     78  C   UNL A   1      40.739  26.240  27.083  1.00  0.00     0.022 A 
BRANCH  76  79
ATOM     79  S   UNL A   1      42.527  27.783  25.707  1.00  0.00     0.127 S 
ATOM     80  O   UNL A   1      41.931  29.060  25.312  1.00  0.00    -0.237 OA
ATOM     81  O   UNL A   1      43.882  27.886  26.249  1.00  0.00    -0.237 OA
ATOM     82  O   UNL A   1      42.323  26.689  24.769  1.00  0.00    -0.744 OA
ENDBRANCH  76  79
ENDBRANCH  58  72
BRANCH  59  83
ATOM     83  C   UNL A   1      39.751  33.758  37.290  1.00  0.00     0.023 A 
ATOM     84  C   UNL A   1      40.253  35.071  37.204  1.00  0.00     0.012 A 
ATOM     85  C   UNL A   1      39.079  33.349  38.457  1.00  0.00     0.148 A 
ATOM     86  C   UNL A   1      40.094  35.962  38.266  1.00  0.00     0.002 A 
ATOM     87  C   UNL A   1      38.888  34.253  39.495  1.00  0.00     0.091 A 
ATOM     88  F   UNL A   1      38.620  32.091  38.515  1.00  0.00    -0.205 F 
ATOM     89  C   UNL A   1      39.403  35.557  39.405  1.00  0.00     0.022 A 
BRANCH  87  90
ATOM     90  S   UNL A   1      37.926  33.862  40.960  1.00  0.00     0.127 S 
ATOM     91  O   UNL A   1      37.879  35.155  41.640  1.00  0.00    -0.237 OA
ATOM     92  O   UNL A   1      36.658  33.428  40.375  1.00  0.00    -0.237 OA
ATOM     93  O   UNL A   1      38.665  32.818  41.655  1.00  0.00    -0.744 OA
ENDBRANCH  87  90
ENDBRANCH  59  83
BRANCH  71  94
ATOM     94  C   UNL A   1      44.312  28.742  35.566  1.00  0.00     0.023 A 
ATOM     95  C   UNL A   1      45.592  29.295  35.372  1.00  0.00     0.012 A 
ATOM     96  C   UNL A   1      44.135  27.710  36.508  1.00  0.00     0.148 A 
ATOM     97  C   UNL A   1      46.682  28.828  36.104  1.00  0.00     0.002 A 
ATOM     98  C   UNL A   1      45.221  27.271  37.259  1.00  0.00     0.091 A 
ATOM     99  F   UNL A   1      42.907  27.197  36.669  1.00  0.00    -0.205 F 
ATOM    100  C   UNL A   1      46.495  27.826  37.055  1.00  0.00     0.022 A 
BRANCH  98 101
ATOM    101  S   UNL A   1      45.069  26.038  38.557  1.00  0.00     0.127 S 
ATOM    102  O   UNL A   1      44.115  26.676  39.463  1.00  0.00    -0.237 OA
ATOM    103  O   UNL A   1      44.542  24.885  37.829  1.00  0.00    -0.237 OA
ATOM    104  O   UNL A   1      46.409  25.855  39.099  1.00  0.00    -0.744 OA
ENDBRANCH  98 101
ENDBRANCH  71  94
ENDBRANCH  45  46
ENDBRANCH  37  40
ENDBRANCH  35  36
ENDBRANCH  34  35
ENDBRANCH   1  34
TORSDOF 18
ENDMDL
MODEL 3
REMARK VINA RESULT:     -12.3      3.902      6.086
REMARK SMILES O=C(CNC(=O)[C@@H](CC1=c2ccccc2=NC1)N1C(=O)N=C2C=CC=C[C@H]2C1=O)NCCCNC(=O)c1ccc(-c2c3nc(c(-c4cccc(S(=O)(=O)[O-])c4F)c4ccc([nH]4)c(-c4cccc(S(=O)(=O)[O-])c4F)c4nc(c(-c5cccc(S(=O)(=O)[O-])c5F)c5ccc2[nH]5)C=C4)C=C3)cc1
REMARK SMILES IDX 31 1 30 2 1 3 2 4 3 6 4 7 5 8 6 10 7 11 8 12 9 13 10 14
REMARK SMILES IDX 17 15 11 16 15 17 16 18 12 19 14 20 13 21 18 22 19 23 28 24
REMARK SMILES IDX 21 25 20 26 27 27 29 28 22 29 26 30 23 31 25 32 24 33 32 34
REMARK SMILES IDX 33 35 34 36 35 37 36 39 37 40 38 41 99 42 39 43 98 44 40 45
REMARK SMILES IDX 41 46 42 47 92 48 43 49 97 50 91 51 93 52 44 53 96 54 90 55
REMARK SMILES IDX 89 56 45 58 77 59 57 60 76 61 58 62 61 63 75 64 94 65 59 66
REMARK SMILES IDX 60 67 74 69 95 70 62 71 46 72 47 73 55 74 48 75 50 76 56 77
REMARK SMILES IDX 49 78 51 79 52 80 53 81 54 82 78 83 79 84 87 85 80 86 82 87
REMARK SMILES IDX 88 88 81 89 83 90 84 91 85 92 86 93 63 94 64 95 72 96 65 97
REMARK SMILES IDX 67 98 73 99 66 100 68 101 69 102 70 103 71 104
REMARK H PARENT 30 5 4 9 34 38 93 57 61 68
REMARK Flexibility Score: inf
ROOT
ATOM      1  C   UNL A   1      34.160  30.908  27.362  1.00  0.00     0.117 C 
ENDROOT
BRANCH   1   2
ATOM      2  N   UNL A   1      33.012  30.201  26.813  1.00  0.00    -0.355 N 
ATOM      3  O   UNL A   1      33.739  28.075  27.301  1.00  0.00    -0.273 OA
ATOM      4  C   UNL A   1      32.896  28.820  26.805  1.00  0.00     0.239 C 
ATOM      5  H   UNL A   1      32.279  30.732  26.426  1.00  0.00     0.163 HD
BRANCH   4   6
ATOM      6  C   UNL A   1      31.665  28.250  26.046  1.00  0.00     0.216 C 
BRANCH   6   7
ATOM      7  N   UNL A   1      31.250  26.927  26.501  1.00  0.00    -0.345 N 
ATOM      8  C   UNL A   1      31.399  25.675  26.033  1.00  0.00     0.244 C 
ATOM      9  H   UNL A   1      30.746  26.959  27.346  1.00  0.00     0.164 HD
ATOM     10  O   UNL A   1      31.491  24.853  26.967  1.00  0.00    -0.273 OA
BRANCH   8  11
ATOM     11  C   UNL A   1      31.455  25.107  24.575  1.00  0.00     0.188 C 
BRANCH  11  12
ATOM     12  C   UNL A   1      30.852  25.603  23.231  1.00  0.00     0.069 C 
BRANCH  12  13
ATOM     13  C   UNL A   1      30.541  27.034  22.998  1.00  0.00    -0.037 C 
ATOM     14  C   UNL A   1      29.400  27.707  23.126  1.00  0.00     0.001 A 
ATOM     15  C   UNL A   1      31.653  27.991  22.749  1.00  0.00     0.174 C 
ATOM     16  C   UNL A   1      28.089  27.427  23.610  1.00  0.00     0.010 A 
ATOM     17  C   UNL A   1      29.759  29.041  22.614  1.00  0.00     0.065 A 
ATOM     18  N   UNL A   1      31.011  29.254  22.345  1.00  0.00    -0.280 NA
ATOM     19  C   UNL A   1      27.156  28.391  23.525  1.00  0.00     0.001 A 
ATOM     20  C   UNL A   1      28.647  29.990  22.404  1.00  0.00     0.028 A 
ATOM     21  C   UNL A   1      27.426  29.652  22.851  1.00  0.00     0.002 A 
ENDBRANCH  12  13
ENDBRANCH  11  12
BRANCH  11  22
ATOM     22  N   UNL A   1      32.742  24.365  24.429  1.00  0.00    -0.249 N 
ATOM     23  C   UNL A   1      33.907  25.123  24.316  1.00  0.00     0.351 C 
ATOM     24  C   UNL A   1      32.742  22.985  24.464  1.00  0.00     0.244 C 
ATOM     25  N   UNL A   1      35.084  24.525  23.985  1.00  0.00    -0.197 NA
ATOM     26  O   UNL A   1      33.915  26.326  24.584  1.00  0.00    -0.246 OA
ATOM     27  C   UNL A   1      34.054  22.287  24.151  1.00  0.00     0.151 C 
ATOM     28  O   UNL A   1      31.726  22.329  24.707  1.00  0.00    -0.273 OA
ATOM     29  C   UNL A   1      35.197  23.243  23.957  1.00  0.00     0.062 C 
ATOM     30  C   UNL A   1      34.496  21.244  25.157  1.00  0.00    -0.007 C 
ATOM     31  C   UNL A   1      36.553  22.665  23.774  1.00  0.00     0.025 C 
ATOM     32  C   UNL A   1      35.794  20.904  25.276  1.00  0.00    -0.003 C 
ATOM     33  C   UNL A   1      36.801  21.533  24.446  1.00  0.00     0.002 C 
ENDBRANCH  11  22
ENDBRANCH   8  11
ENDBRANCH   6   7
ENDBRANCH   4   6
ENDBRANCH   1   2
BRANCH   1  34
ATOM     34  C   UNL A   1      33.940  32.402  27.642  1.00  0.00     0.042 C 
BRANCH  34  35
ATOM     35  C   UNL A   1      32.506  32.931  27.535  1.00  0.00     0.118 C 
BRANCH  35  36
ATOM     36  N   UNL A   1      32.319  34.293  28.004  1.00  0.00    -0.352 N 
ATOM     37  C   UNL A   1      33.093  35.061  28.845  1.00  0.00     0.251 C 
ATOM     38  H   UNL A   1      31.507  34.738  27.669  1.00  0.00     0.163 HD
ATOM     39  O   UNL A   1      32.729  36.212  29.082  1.00  0.00    -0.269 OA
BRANCH  37  40
ATOM     40  C   UNL A   1      34.311  34.528  29.509  1.00  0.00     0.039 A 
ATOM     41  C   UNL A   1      35.602  34.750  29.025  1.00  0.00     0.014 A 
ATOM     42  C   UNL A   1      34.144  33.811  30.702  1.00  0.00     0.014 A 
ATOM     43  C   UNL A   1      36.703  34.156  29.660  1.00  0.00     0.010 A 
ATOM     44  C   UNL A   1      35.247  33.252  31.357  1.00  0.00     0.010 A 
ATOM     45  C   UNL A   1      36.536  33.377  30.818  1.00  0.00    -0.014 A 
BRANCH  45  46
ATOM     46  C   UNL A   1      37.691  32.665  31.436  1.00  0.00     0.031 A 
ATOM     47  C   UNL A   1      38.226  33.102  32.779  1.00  0.00     0.074 A 
ATOM     48  C   UNL A   1      38.275  31.626  30.808  1.00  0.00     0.049 A 
ATOM     49  N   UNL A   1      39.211  32.596  33.479  1.00  0.00    -0.248 NA
ATOM     50  C   UNL A   1      37.575  34.259  33.418  1.00  0.00     0.031 C 
ATOM     51  C   UNL A   1      37.893  31.114  29.492  1.00  0.00     0.029 A 
ATOM     52  N   UNL A   1      39.320  30.818  31.190  1.00  0.00    -0.354 N 
ATOM     53  C   UNL A   1      39.316  33.384  34.620  1.00  0.00     0.074 A 
ATOM     54  C   UNL A   1      38.305  34.413  34.515  1.00  0.00     0.031 C 
ATOM     55  C   UNL A   1      38.681  30.070  29.183  1.00  0.00     0.029 A 
ATOM     56  C   UNL A   1      39.639  29.851  30.265  1.00  0.00     0.049 A 
ATOM     57  H   UNL A   1      39.795  30.921  32.046  1.00  0.00     0.167 HD
ATOM     58  C   UNL A   1      40.156  33.252  35.674  1.00  0.00     0.034 A 
ATOM     59  C   UNL A   1      40.591  28.895  30.281  1.00  0.00     0.034 A 
ATOM     60  C   UNL A   1      41.131  32.205  35.819  1.00  0.00     0.049 A 
ATOM     61  C   UNL A   1      41.504  28.760  31.469  1.00  0.00     0.074 A 
ATOM     62  C   UNL A   1      41.971  31.962  36.892  1.00  0.00     0.029 A 
ATOM     63  N   UNL A   1      41.397  31.230  34.873  1.00  0.00    -0.354 N 
ATOM     64  N   UNL A   1      41.506  29.443  32.585  1.00  0.00    -0.248 NA
ATOM     65  C   UNL A   1      42.529  27.706  31.410  1.00  0.00     0.031 C 
ATOM     66  C   UNL A   1      42.752  30.842  36.592  1.00  0.00     0.029 A 
ATOM     67  C   UNL A   1      42.393  30.387  35.335  1.00  0.00     0.049 A 
ATOM     68  H   UNL A   1      40.947  31.150  34.001  1.00  0.00     0.167 HD
ATOM     69  C   UNL A   1      42.518  28.896  33.367  1.00  0.00     0.074 A 
ATOM     70  C   UNL A   1      43.097  27.810  32.605  1.00  0.00     0.031 C 
ATOM     71  C   UNL A   1      42.934  29.276  34.598  1.00  0.00     0.034 A 
BRANCH  58  72
ATOM     72  C   UNL A   1      40.022  34.226  36.812  1.00  0.00     0.023 A 
ATOM     73  C   UNL A   1      40.372  35.574  36.600  1.00  0.00     0.012 A 
ATOM     74  C   UNL A   1      39.446  33.840  38.038  1.00  0.00     0.148 A 
ATOM     75  C   UNL A   1      40.160  36.525  37.595  1.00  0.00     0.002 A 
ATOM     76  C   UNL A   1      39.211  34.800  39.015  1.00  0.00     0.091 A 
ATOM     77  F   UNL A   1      39.130  32.550  38.216  1.00  0.00    -0.205 F 
ATOM     78  C   UNL A   1      39.570  36.141  38.797  1.00  0.00     0.022 A 
BRANCH  76  79
ATOM     79  S   UNL A   1      38.406  34.425  40.577  1.00  0.00     0.127 S 
ATOM     80  O   UNL A   1      37.259  33.632  40.134  1.00  0.00    -0.237 OA
ATOM     81  O   UNL A   1      39.439  33.663  41.279  1.00  0.00    -0.237 OA
ATOM     82  O   UNL A   1      38.074  35.708  41.179  1.00  0.00    -0.744 OA
ENDBRANCH  76  79
ENDBRANCH  58  72
BRANCH  59  83
ATOM     83  C   UNL A   1      40.679  27.939  29.144  1.00  0.00     0.023 A 
ATOM     84  C   UNL A   1      39.813  26.829  29.112  1.00  0.00     0.012 A 
ATOM     85  C   UNL A   1      41.567  28.155  28.073  1.00  0.00     0.148 A 
ATOM     86  C   UNL A   1      39.833  25.945  28.034  1.00  0.00     0.002 A 
ATOM     87  C   UNL A   1      41.554  27.293  26.983  1.00  0.00     0.091 A 
ATOM     88  F   UNL A   1      42.387  29.213  28.135  1.00  0.00    -0.205 F 
ATOM     89  C   UNL A   1      40.694  26.182  26.966  1.00  0.00     0.022 A 
BRANCH  87  90
ATOM     90  S   UNL A   1      42.551  27.568  25.515  1.00  0.00     0.127 S 
ATOM     91  O   UNL A   1      43.904  27.555  26.067  1.00  0.00    -0.237 OA
ATOM     92  O   UNL A   1      42.208  26.402  24.701  1.00  0.00    -0.237 OA
ATOM     93  O   UNL A   1      42.112  28.843  24.969  1.00  0.00    -0.744 OA
ENDBRANCH  87  90
ENDBRANCH  59  83
BRANCH  71  94
ATOM     94  C   UNL A   1      44.074  28.524  35.233  1.00  0.00     0.023 A 
ATOM     95  C   UNL A   1      45.397  28.920  34.957  1.00  0.00     0.012 A 
ATOM     96  C   UNL A   1      43.834  27.526  36.198  1.00  0.00     0.148 A 
ATOM     97  C   UNL A   1      46.466  28.330  35.630  1.00  0.00     0.002 A 
ATOM     98  C   UNL A   1      44.902  26.965  36.888  1.00  0.00     0.091 A 
ATOM     99  F   UNL A   1      42.565  27.163  36.438  1.00  0.00    -0.205 F 
ATOM    100  C   UNL A   1      46.219  27.363  36.603  1.00  0.00     0.022 A 
BRANCH  98 101
ATOM    101  S   UNL A   1      44.685  25.767  38.209  1.00  0.00     0.127 S 
ATOM    102  O   UNL A   1      43.865  26.517  39.159  1.00  0.00    -0.237 OA
ATOM    103  O   UNL A   1      43.986  24.678  37.527  1.00  0.00    -0.237 OA
ATOM    104  O   UNL A   1      46.023  25.432  38.676  1.00  0.00    -0.744 OA
ENDBRANCH  98 101
ENDBRANCH  71  94
ENDBRANCH  45  46
ENDBRANCH  37  40
ENDBRANCH  35  36
ENDBRANCH  34  35
ENDBRANCH   1  34
TORSDOF 18
ENDMDL
