MODEL 1
REMARK VINA RESULT:     -13.1      0.000      0.000
REMARK SMILES Cc1cc(C(=O)N[C@H]2C=C[C@H](C(=O)NCCCNC(=O)c3ccc(-c4c5nc(c(-c6cccc(S(=O)(=O)[O-])c6F)c6ccc([nH]6)c(-c6cccc(S(=O)(=O)[O-])c6F)c6nc(c(-c7cccc(S(=O)(=O)[O-])c7F)c7ccc4[nH]7)C=C6)C=C5)cc3)C2)ccc1F
REMARK SMILES IDX 16 1 15 2 14 3 12 4 13 5 11 7 8 8 9 9 84 10 10 11 7 12 5 13
REMARK SMILES IDX 6 14 4 16 1 17 2 18 3 19 87 20 86 21 88 22 85 23 17 24 18 25
REMARK SMILES IDX 19 26 20 28 21 29 22 30 83 31 23 32 82 33 24 34 25 35 26 36
REMARK SMILES IDX 76 37 27 38 81 39 75 40 77 41 28 42 80 43 74 44 73 45 29 47
REMARK SMILES IDX 61 48 41 49 60 50 42 51 45 52 59 53 78 54 43 55 44 56 58 58
REMARK SMILES IDX 79 59 46 60 30 61 31 62 39 63 32 64 34 65 40 66 33 67 35 68
REMARK SMILES IDX 36 69 37 70 38 71 62 72 63 73 71 74 64 75 66 76 72 77 65 78
REMARK SMILES IDX 67 79 68 80 69 81 70 82 47 83 48 84 56 85 49 86 51 87 57 88
REMARK SMILES IDX 50 89 52 90 53 91 54 92 55 93
REMARK H PARENT 14 6 7 15 18 27 77 46 45 57
REMARK Flexibility Score: inf
ROOT
ATOM      1  C   UNL A   1      34.200  28.628  26.052  1.00  0.00     0.042 C 
ENDROOT
BRANCH   1   2
ATOM      2  C   UNL A   1      33.283  29.391  25.101  1.00  0.00     0.117 C 
BRANCH   2   3
ATOM      3  N   UNL A   1      33.059  28.628  23.892  1.00  0.00    -0.356 N 
ATOM      4  C   UNL A   1      32.009  27.858  23.520  1.00  0.00     0.227 C 
ATOM      5  O   UNL A   1      32.174  27.130  22.536  1.00  0.00    -0.274 OA
ATOM      6  H   UNL A   1      33.787  28.678  23.232  1.00  0.00     0.163 HD
BRANCH   4   7
ATOM      7  C   UNL A   1      30.626  27.911  24.208  1.00  0.00     0.103 C 
ATOM      8  C   UNL A   1      30.400  25.670  25.033  1.00  0.00     0.106 C 
ATOM      9  C   UNL A   1      29.276  25.981  24.099  1.00  0.00    -0.006 C 
ATOM     10  C   UNL A   1      30.769  27.082  25.493  1.00  0.00     0.047 C 
ATOM     11  C   UNL A   1      29.418  27.229  23.623  1.00  0.00    -0.016 C 
BRANCH   8  12
ATOM     12  N   UNL A   1      29.999  24.796  26.098  1.00  0.00    -0.346 N 
ATOM     13  C   UNL A   1      30.598  23.644  26.556  1.00  0.00     0.251 C 
ATOM     14  O   UNL A   1      30.109  23.091  27.541  1.00  0.00    -0.269 OA
ATOM     15  H   UNL A   1      29.176  25.057  26.570  1.00  0.00     0.164 HD
BRANCH  13  16
ATOM     16  C   UNL A   1      31.855  23.087  25.962  1.00  0.00     0.040 A 
ATOM     17  C   UNL A   1      35.646  23.488  26.036  1.00  0.00     0.047 C 
ATOM     18  C   UNL A   1      34.280  22.979  25.681  1.00  0.00    -0.015 A 
ATOM     19  C   UNL A   1      33.129  23.646  26.128  1.00  0.00     0.020 A 
ATOM     20  C   UNL A   1      34.129  21.819  24.925  1.00  0.00     0.126 A 
ATOM     21  C   UNL A   1      32.868  21.299  24.657  1.00  0.00     0.040 A 
ATOM     22  F   UNL A   1      35.208  21.185  24.446  1.00  0.00    -0.207 F 
ATOM     23  C   UNL A   1      31.735  21.919  25.191  1.00  0.00     0.017 A 
ENDBRANCH  13  16
ENDBRANCH   8  12
ENDBRANCH   4   7
ENDBRANCH   2   3
ENDBRANCH   1   2
BRANCH   1  24
ATOM     24  C   UNL A   1      33.962  29.132  27.454  1.00  0.00     0.118 C 
BRANCH  24  25
ATOM     25  N   UNL A   1      34.296  30.557  27.554  1.00  0.00    -0.352 N 
ATOM     26  C   UNL A   1      35.324  31.146  28.257  1.00  0.00     0.251 C 
ATOM     27  H   UNL A   1      33.711  31.170  27.053  1.00  0.00     0.163 HD
ATOM     28  O   UNL A   1      35.275  32.310  28.605  1.00  0.00    -0.269 OA
BRANCH  26  29
ATOM     29  C   UNL A   1      36.490  30.307  28.559  1.00  0.00     0.039 A 
ATOM     30  C   UNL A   1      36.652  29.676  29.797  1.00  0.00     0.014 A 
ATOM     31  C   UNL A   1      37.463  30.217  27.571  1.00  0.00     0.014 A 
ATOM     32  C   UNL A   1      37.827  28.976  30.032  1.00  0.00     0.010 A 
ATOM     33  C   UNL A   1      38.453  29.311  27.687  1.00  0.00     0.010 A 
ATOM     34  C   UNL A   1      38.714  28.836  28.967  1.00  0.00    -0.014 A 
BRANCH  34  35
ATOM     35  C   UNL A   1      40.070  28.351  29.049  1.00  0.00     0.031 A 
ATOM     36  C   UNL A   1      40.300  26.939  28.779  1.00  0.00     0.074 A 
ATOM     37  C   UNL A   1      40.982  29.353  29.064  1.00  0.00     0.049 A 
ATOM     38  N   UNL A   1      41.283  26.256  29.234  1.00  0.00    -0.248 NA
ATOM     39  C   UNL A   1      39.360  26.132  27.995  1.00  0.00     0.031 C 
ATOM     40  C   UNL A   1      42.383  29.385  28.694  1.00  0.00     0.029 A 
ATOM     41  N   UNL A   1      40.737  30.655  29.506  1.00  0.00    -0.354 N 
ATOM     42  C   UNL A   1      41.359  25.139  28.433  1.00  0.00     0.074 A 
ATOM     43  C   UNL A   1      40.041  24.988  27.865  1.00  0.00     0.031 C 
ATOM     44  C   UNL A   1      42.935  30.512  29.195  1.00  0.00     0.029 A 
ATOM     45  C   UNL A   1      41.924  31.193  30.000  1.00  0.00     0.049 A 
ATOM     46  H   UNL A   1      39.869  31.117  29.475  1.00  0.00     0.167 HD
ATOM     47  C   UNL A   1      42.593  24.645  28.119  1.00  0.00     0.034 A 
ATOM     48  C   UNL A   1      41.983  31.402  31.351  1.00  0.00     0.034 A 
ATOM     49  C   UNL A   1      43.624  25.505  28.707  1.00  0.00     0.049 A 
ATOM     50  C   UNL A   1      42.837  30.324  31.983  1.00  0.00     0.074 A 
ATOM     51  C   UNL A   1      44.432  26.489  28.161  1.00  0.00     0.029 A 
ATOM     52  N   UNL A   1      43.650  25.701  30.083  1.00  0.00    -0.354 N 
ATOM     53  N   UNL A   1      42.977  29.117  31.495  1.00  0.00    -0.248 NA
ATOM     54  C   UNL A   1      43.688  30.568  33.140  1.00  0.00     0.031 C 
ATOM     55  C   UNL A   1      44.872  27.331  29.219  1.00  0.00     0.029 A 
ATOM     56  C   UNL A   1      44.322  26.865  30.400  1.00  0.00     0.049 A 
ATOM     57  H   UNL A   1      43.244  25.092  30.741  1.00  0.00     0.167 HD
ATOM     58  C   UNL A   1      43.985  28.477  32.163  1.00  0.00     0.074 A 
ATOM     59  C   UNL A   1      44.370  29.412  33.207  1.00  0.00     0.031 C 
ATOM     60  C   UNL A   1      44.480  27.258  31.795  1.00  0.00     0.034 A 
BRANCH  47  61
ATOM     61  C   UNL A   1      42.863  23.628  27.029  1.00  0.00     0.023 A 
ATOM     62  C   UNL A   1      43.623  23.922  25.875  1.00  0.00     0.012 A 
ATOM     63  C   UNL A   1      42.347  22.314  27.104  1.00  0.00     0.148 A 
ATOM     64  C   UNL A   1      43.939  22.956  24.908  1.00  0.00     0.002 A 
ATOM     65  C   UNL A   1      42.638  21.359  26.126  1.00  0.00     0.091 A 
ATOM     66  F   UNL A   1      41.553  21.957  28.121  1.00  0.00    -0.205 F 
ATOM     67  C   UNL A   1      43.447  21.667  25.034  1.00  0.00     0.022 A 
BRANCH  65  68
ATOM     68  S   UNL A   1      41.932  19.715  26.283  1.00  0.00     0.127 S 
ATOM     69  O   UNL A   1      42.365  19.304  27.614  1.00  0.00    -0.237 OA
ATOM     70  O   UNL A   1      40.504  19.949  26.095  1.00  0.00    -0.237 OA
ATOM     71  O   UNL A   1      42.564  18.976  25.188  1.00  0.00    -0.744 OA
ENDBRANCH  65  68
ENDBRANCH  47  61
BRANCH  48  72
ATOM     72  C   UNL A   1      40.681  31.954  31.879  1.00  0.00     0.023 A 
ATOM     73  C   UNL A   1      40.455  33.344  31.938  1.00  0.00     0.012 A 
ATOM     74  C   UNL A   1      39.943  31.124  32.760  1.00  0.00     0.148 A 
ATOM     75  C   UNL A   1      39.627  33.889  32.935  1.00  0.00     0.002 A 
ATOM     76  C   UNL A   1      39.159  31.677  33.777  1.00  0.00     0.091 A 
ATOM     77  F   UNL A   1      40.104  29.795  32.667  1.00  0.00    -0.205 F 
ATOM     78  C   UNL A   1      39.021  33.063  33.884  1.00  0.00     0.022 A 
BRANCH  76  79
ATOM     79  S   UNL A   1      38.518  30.613  35.083  1.00  0.00     0.127 S 
ATOM     80  O   UNL A   1      39.734  30.157  35.747  1.00  0.00    -0.237 OA
ATOM     81  O   UNL A   1      37.646  31.496  35.853  1.00  0.00    -0.237 OA
ATOM     82  O   UNL A   1      37.790  29.571  34.356  1.00  0.00    -0.744 OA
ENDBRANCH  76  79
ENDBRANCH  48  72
BRANCH  60  83
ATOM     83  C   UNL A   1      45.289  26.342  32.679  1.00  0.00     0.023 A 
ATOM     84  C   UNL A   1      46.696  26.280  32.491  1.00  0.00     0.012 A 
ATOM     85  C   UNL A   1      44.741  25.440  33.595  1.00  0.00     0.148 A 
ATOM     86  C   UNL A   1      47.503  25.360  33.157  1.00  0.00     0.002 A 
ATOM     87  C   UNL A   1      45.567  24.628  34.365  1.00  0.00     0.091 A 
ATOM     88  F   UNL A   1      43.414  25.297  33.701  1.00  0.00    -0.205 F 
ATOM     89  C   UNL A   1      46.941  24.548  34.126  1.00  0.00     0.022 A 
BRANCH  87  90
ATOM     90  S   UNL A   1      44.846  23.817  35.788  1.00  0.00     0.127 S 
ATOM     91  O   UNL A   1      43.903  22.887  35.171  1.00  0.00    -0.237 OA
ATOM     92  O   UNL A   1      45.995  23.221  36.463  1.00  0.00    -0.237 OA
ATOM     93  O   UNL A   1      44.216  24.916  36.520  1.00  0.00    -0.744 OA
ENDBRANCH  87  90
ENDBRANCH  60  83
ENDBRANCH  34  35
ENDBRANCH  26  29
ENDBRANCH  24  25
ENDBRANCH   1  24
TORSDOF 15
ENDMDL
MODEL 2
REMARK VINA RESULT:     -13.1      4.150      9.233
REMARK SMILES Cc1cc(C(=O)N[C@H]2C=C[C@H](C(=O)NCCCNC(=O)c3ccc(-c4c5nc(c(-c6cccc(S(=O)(=O)[O-])c6F)c6ccc([nH]6)c(-c6cccc(S(=O)(=O)[O-])c6F)c6nc(c(-c7cccc(S(=O)(=O)[O-])c7F)c7ccc4[nH]7)C=C6)C=C5)cc3)C2)ccc1F
REMARK SMILES IDX 16 1 15 2 14 3 12 4 13 5 11 7 8 8 9 9 84 10 10 11 7 12 5 13
REMARK SMILES IDX 6 14 4 16 1 17 2 18 3 19 87 20 86 21 88 22 85 23 17 24 18 25
REMARK SMILES IDX 19 26 20 28 21 29 22 30 83 31 23 32 82 33 24 34 25 35 26 36
REMARK SMILES IDX 76 37 27 38 81 39 75 40 77 41 28 42 80 43 74 44 73 45 29 47
REMARK SMILES IDX 61 48 41 49 60 50 42 51 45 52 59 53 78 54 43 55 44 56 58 58
REMARK SMILES IDX 79 59 46 60 30 61 31 62 39 63 32 64 34 65 40 66 33 67 35 68
REMARK SMILES IDX 36 69 37 70 38 71 62 72 63 73 71 74 64 75 66 76 72 77 65 78
REMARK SMILES IDX 67 79 68 80 69 81 70 82 47 83 48 84 56 85 49 86 51 87 57 88
REMARK SMILES IDX 50 89 52 90 53 91 54 92 55 93
REMARK H PARENT 14 6 7 15 18 27 77 46 45 57
REMARK Flexibility Score: inf
ROOT
ATOM      1  C   UNL A   1      36.242  22.828  25.628  1.00  0.00     0.042 C 
ENDROOT
BRANCH   1   2
ATOM      2  C   UNL A   1      35.910  22.266  24.249  1.00  0.00     0.117 C 
BRANCH   2   3
ATOM      3  N   UNL A   1      35.251  23.269  23.439  1.00  0.00    -0.356 N 
ATOM      4  C   UNL A   1      34.025  23.268  22.864  1.00  0.00     0.227 C 
ATOM      5  O   UNL A   1      33.802  24.151  22.030  1.00  0.00    -0.274 OA
ATOM      6  H   UNL A   1      35.780  24.083  23.280  1.00  0.00     0.163 HD
BRANCH   4   7
ATOM      7  C   UNL A   1      32.900  22.284  23.256  1.00  0.00     0.103 C 
ATOM      8  C   UNL A   1      31.882  23.412  25.111  1.00  0.00     0.106 C 
ATOM      9  C   UNL A   1      32.381  22.072  25.546  1.00  0.00    -0.006 C 
ATOM     10  C   UNL A   1      31.690  23.158  23.615  1.00  0.00     0.047 C 
ATOM     11  C   UNL A   1      32.969  21.453  24.509  1.00  0.00    -0.016 C 
BRANCH   8  12
ATOM     12  N   UNL A   1      30.682  23.797  25.797  1.00  0.00    -0.346 N 
ATOM     13  C   UNL A   1      30.227  25.053  26.127  1.00  0.00     0.251 C 
ATOM     14  O   UNL A   1      29.121  25.147  26.658  1.00  0.00    -0.269 OA
ATOM     15  H   UNL A   1      30.098  23.054  26.073  1.00  0.00     0.164 HD
BRANCH  13  16
ATOM     16  C   UNL A   1      30.979  26.305  25.793  1.00  0.00     0.040 A 
ATOM     17  C   UNL A   1      33.976  28.392  26.889  1.00  0.00     0.047 C 
ATOM     18  C   UNL A   1      32.767  27.937  26.125  1.00  0.00    -0.015 A 
ATOM     19  C   UNL A   1      31.997  26.857  26.582  1.00  0.00     0.020 A 
ATOM     20  C   UNL A   1      32.404  28.561  24.934  1.00  0.00     0.126 A 
ATOM     21  C   UNL A   1      31.331  28.096  24.182  1.00  0.00     0.040 A 
ATOM     22  F   UNL A   1      33.094  29.622  24.495  1.00  0.00    -0.207 F 
ATOM     23  C   UNL A   1      30.633  26.959  24.599  1.00  0.00     0.017 A 
ENDBRANCH  13  16
ENDBRANCH   8  12
ENDBRANCH   4   7
ENDBRANCH   2   3
ENDBRANCH   1   2
BRANCH   1  24
ATOM     24  C   UNL A   1      37.573  23.535  25.549  1.00  0.00     0.118 C 
BRANCH  24  25
ATOM     25  N   UNL A   1      38.626  22.721  26.165  1.00  0.00    -0.352 N 
ATOM     26  C   UNL A   1      39.829  23.139  26.692  1.00  0.00     0.251 C 
ATOM     27  H   UNL A   1      38.451  21.754  26.209  1.00  0.00     0.163 HD
ATOM     28  O   UNL A   1      40.777  22.385  26.798  1.00  0.00    -0.269 OA
BRANCH  26  29
ATOM     29  C   UNL A   1      39.913  24.536  27.133  1.00  0.00     0.039 A 
ATOM     30  C   UNL A   1      40.544  25.521  26.366  1.00  0.00     0.014 A 
ATOM     31  C   UNL A   1      39.386  24.825  28.386  1.00  0.00     0.014 A 
ATOM     32  C   UNL A   1      40.659  26.799  26.898  1.00  0.00     0.010 A 
ATOM     33  C   UNL A   1      39.238  26.108  28.770  1.00  0.00     0.010 A 
ATOM     34  C   UNL A   1      40.019  27.049  28.110  1.00  0.00    -0.014 A 
BRANCH  34  35
ATOM     35  C   UNL A   1      40.194  28.218  28.936  1.00  0.00     0.031 A 
ATOM     36  C   UNL A   1      39.239  29.306  28.778  1.00  0.00     0.074 A 
ATOM     37  C   UNL A   1      41.045  28.004  29.968  1.00  0.00     0.049 A 
ATOM     38  N   UNL A   1      39.477  30.534  29.049  1.00  0.00    -0.248 NA
ATOM     39  C   UNL A   1      37.903  29.095  28.212  1.00  0.00     0.031 C 
ATOM     40  C   UNL A   1      41.186  28.660  31.253  1.00  0.00     0.029 A 
ATOM     41  N   UNL A   1      42.064  27.048  29.984  1.00  0.00    -0.354 N 
ATOM     42  C   UNL A   1      38.243  31.134  29.163  1.00  0.00     0.074 A 
ATOM     43  C   UNL A   1      37.342  30.292  28.413  1.00  0.00     0.031 C 
ATOM     44  C   UNL A   1      42.377  28.314  31.786  1.00  0.00     0.029 A 
ATOM     45  C   UNL A   1      43.094  27.501  30.806  1.00  0.00     0.049 A 
ATOM     46  H   UNL A   1      42.056  26.195  29.494  1.00  0.00     0.167 HD
ATOM     47  C   UNL A   1      38.074  32.103  30.110  1.00  0.00     0.034 A 
ATOM     48  C   UNL A   1      44.264  27.843  30.184  1.00  0.00     0.034 A 
ATOM     49  C   UNL A   1      39.316  32.260  30.871  1.00  0.00     0.049 A 
ATOM     50  C   UNL A   1      44.372  29.352  30.124  1.00  0.00     0.074 A 
ATOM     51  C   UNL A   1      39.699  31.807  32.124  1.00  0.00     0.029 A 
ATOM     52  N   UNL A   1      40.489  32.601  30.206  1.00  0.00    -0.354 N 
ATOM     53  N   UNL A   1      43.343  30.161  30.086  1.00  0.00    -0.248 NA
ATOM     54  C   UNL A   1      45.642  30.057  30.227  1.00  0.00     0.031 C 
ATOM     55  C   UNL A   1      41.121  31.798  32.170  1.00  0.00     0.029 A 
ATOM     56  C   UNL A   1      41.596  32.232  30.944  1.00  0.00     0.049 A 
ATOM     57  H   UNL A   1      40.524  33.045  29.329  1.00  0.00     0.167 HD
ATOM     58  C   UNL A   1      43.776  31.446  30.274  1.00  0.00     0.074 A 
ATOM     59  C   UNL A   1      45.225  31.331  30.318  1.00  0.00     0.031 C 
ATOM     60  C   UNL A   1      42.935  32.509  30.439  1.00  0.00     0.034 A 
BRANCH  47  61
ATOM     61  C   UNL A   1      36.732  32.640  30.565  1.00  0.00     0.023 A 
ATOM     62  C   UNL A   1      36.256  32.497  31.887  1.00  0.00     0.012 A 
ATOM     63  C   UNL A   1      35.866  33.310  29.671  1.00  0.00     0.148 A 
ATOM     64  C   UNL A   1      35.050  33.066  32.324  1.00  0.00     0.002 A 
ATOM     65  C   UNL A   1      34.652  33.852  30.100  1.00  0.00     0.091 A 
ATOM     66  F   UNL A   1      36.192  33.432  28.378  1.00  0.00    -0.205 F 
ATOM     67  C   UNL A   1      34.244  33.750  31.428  1.00  0.00     0.022 A 
BRANCH  65  68
ATOM     68  S   UNL A   1      33.598  34.674  28.900  1.00  0.00     0.127 S 
ATOM     69  O   UNL A   1      33.284  33.603  27.960  1.00  0.00    -0.237 OA
ATOM     70  O   UNL A   1      32.499  35.181  29.716  1.00  0.00    -0.237 OA
ATOM     71  O   UNL A   1      34.466  35.719  28.354  1.00  0.00    -0.744 OA
ENDBRANCH  65  68
ENDBRANCH  47  61
BRANCH  48  72
ATOM     72  C   UNL A   1      44.611  26.864  29.088  1.00  0.00     0.023 A 
ATOM     73  C   UNL A   1      45.456  25.765  29.340  1.00  0.00     0.012 A 
ATOM     74  C   UNL A   1      44.514  27.335  27.755  1.00  0.00     0.148 A 
ATOM     75  C   UNL A   1      46.276  25.250  28.320  1.00  0.00     0.002 A 
ATOM     76  C   UNL A   1      45.366  26.848  26.759  1.00  0.00     0.091 A 
ATOM     77  F   UNL A   1      43.662  28.340  27.494  1.00  0.00    -0.205 F 
ATOM     78  C   UNL A   1      46.269  25.821  27.047  1.00  0.00     0.022 A 
BRANCH  76  79
ATOM     79  S   UNL A   1      45.458  27.699  25.173  1.00  0.00     0.127 S 
ATOM     80  O   UNL A   1      44.072  27.672  24.717  1.00  0.00    -0.237 OA
ATOM     81  O   UNL A   1      46.007  29.008  25.513  1.00  0.00    -0.237 OA
ATOM     82  O   UNL A   1      46.377  26.873  24.388  1.00  0.00    -0.744 OA
ENDBRANCH  76  79
ENDBRANCH  48  72
BRANCH  60  83
ATOM     83  C   UNL A   1      43.316  33.958  30.261  1.00  0.00     0.023 A 
ATOM     84  C   UNL A   1      43.514  34.757  31.420  1.00  0.00     0.012 A 
ATOM     85  C   UNL A   1      43.363  34.619  29.031  1.00  0.00     0.148 A 
ATOM     86  C   UNL A   1      43.723  36.133  31.356  1.00  0.00     0.002 A 
ATOM     87  C   UNL A   1      43.720  35.962  28.965  1.00  0.00     0.091 A 
ATOM     88  F   UNL A   1      43.006  33.990  27.904  1.00  0.00    -0.205 F 
ATOM     89  C   UNL A   1      43.860  36.737  30.119  1.00  0.00     0.022 A 
BRANCH  87  90
ATOM     90  S   UNL A   1      44.166  36.628  27.365  1.00  0.00     0.127 S 
ATOM     91  O   UNL A   1      44.546  38.000  27.694  1.00  0.00    -0.237 OA
ATOM     92  O   UNL A   1      45.240  35.748  26.915  1.00  0.00    -0.237 OA
ATOM     93  O   UNL A   1      42.927  36.515  26.595  1.00  0.00    -0.744 OA
ENDBRANCH  87  90
ENDBRANCH  60  83
ENDBRANCH  34  35
ENDBRANCH  26  29
ENDBRANCH  24  25
ENDBRANCH   1  24
TORSDOF 15
ENDMDL
MODEL 3
REMARK VINA RESULT:     -12.7      1.650      2.176
REMARK SMILES Cc1cc(C(=O)N[C@H]2C=C[C@H](C(=O)NCCCNC(=O)c3ccc(-c4c5nc(c(-c6cccc(S(=O)(=O)[O-])c6F)c6ccc([nH]6)c(-c6cccc(S(=O)(=O)[O-])c6F)c6nc(c(-c7cccc(S(=O)(=O)[O-])c7F)c7ccc4[nH]7)C=C6)C=C5)cc3)C2)ccc1F
REMARK SMILES IDX 16 1 15 2 14 3 12 4 13 5 11 7 8 8 9 9 84 10 10 11 7 12 5 13
REMARK SMILES IDX 6 14 4 16 1 17 2 18 3 19 87 20 86 21 88 22 85 23 17 24 18 25
REMARK SMILES IDX 19 26 20 28 21 29 22 30 83 31 23 32 82 33 24 34 25 35 26 36
REMARK SMILES IDX 76 37 27 38 81 39 75 40 77 41 28 42 80 43 74 44 73 45 29 47
REMARK SMILES IDX 61 48 41 49 60 50 42 51 45 52 59 53 78 54 43 55 44 56 58 58
REMARK SMILES IDX 79 59 46 60 30 61 31 62 39 63 32 64 34 65 40 66 33 67 35 68
REMARK SMILES IDX 36 69 37 70 38 71 62 72 63 73 71 74 64 75 66 76 72 77 65 78
REMARK SMILES IDX 67 79 68 80 69 81 70 82 47 83 48 84 56 85 49 86 51 87 57 88
REMARK SMILES IDX 50 89 52 90 53 91 54 92 55 93
REMARK H PARENT 14 6 7 15 18 27 77 46 45 57
REMARK Flexibility Score: inf
ROOT
ATOM      1  C   UNL A   1      33.008  28.586  27.602  1.00  0.00     0.042 C 
ENDROOT
BRANCH   1   2
ATOM      2  C   UNL A   1      31.882  28.231  26.637  1.00  0.00     0.117 C 
BRANCH   2   3
ATOM      3  N   UNL A   1      31.500  26.843  26.791  1.00  0.00    -0.356 N 
ATOM      4  C   UNL A   1      30.669  26.072  26.050  1.00  0.00     0.227 C 
ATOM      5  O   UNL A   1      30.337  24.986  26.536  1.00  0.00    -0.274 OA
ATOM      6  H   UNL A   1      31.911  26.386  27.559  1.00  0.00     0.163 HD
BRANCH   4   7
ATOM      7  C   UNL A   1      30.198  26.449  24.627  1.00  0.00     0.103 C 
ATOM      8  C   UNL A   1      31.958  25.548  23.270  1.00  0.00     0.106 C 
ATOM      9  C   UNL A   1      31.850  27.021  23.044  1.00  0.00    -0.006 C 
ATOM     10  C   UNL A   1      30.536  25.240  23.743  1.00  0.00     0.047 C 
ATOM     11  C   UNL A   1      30.877  27.525  23.822  1.00  0.00    -0.016 C 
BRANCH   8  12
ATOM     12  N   UNL A   1      32.344  24.840  22.083  1.00  0.00    -0.346 N 
ATOM     13  C   UNL A   1      33.210  23.780  21.939  1.00  0.00     0.251 C 
ATOM     14  O   UNL A   1      33.334  23.282  20.819  1.00  0.00    -0.269 OA
ATOM     15  H   UNL A   1      31.930  25.159  21.249  1.00  0.00     0.164 HD
BRANCH  13  16
ATOM     16  C   UNL A   1      33.937  23.159  23.091  1.00  0.00     0.040 A 
ATOM     17  C   UNL A   1      36.925  23.698  25.399  1.00  0.00     0.047 C 
ATOM     18  C   UNL A   1      35.710  23.080  24.772  1.00  0.00    -0.015 A 
ATOM     19  C   UNL A   1      35.169  23.606  23.588  1.00  0.00     0.020 A 
ATOM     20  C   UNL A   1      35.078  21.992  25.370  1.00  0.00     0.126 A 
ATOM     21  C   UNL A   1      33.909  21.463  24.837  1.00  0.00     0.040 A 
ATOM     22  F   UNL A   1      35.596  21.441  26.476  1.00  0.00    -0.207 F 
ATOM     23  C   UNL A   1      33.327  22.058  23.713  1.00  0.00     0.017 A 
ENDBRANCH  13  16
ENDBRANCH   8  12
ENDBRANCH   4   7
ENDBRANCH   2   3
ENDBRANCH   1   2
BRANCH   1  24
ATOM     24  C   UNL A   1      34.181  29.095  26.802  1.00  0.00     0.118 C 
BRANCH  24  25
ATOM     25  N   UNL A   1      34.452  30.500  27.121  1.00  0.00    -0.352 N 
ATOM     26  C   UNL A   1      35.383  31.012  27.999  1.00  0.00     0.251 C 
ATOM     27  H   UNL A   1      33.899  31.162  26.647  1.00  0.00     0.163 HD
ATOM     28  O   UNL A   1      35.258  32.118  28.489  1.00  0.00    -0.269 OA
BRANCH  26  29
ATOM     29  C   UNL A   1      36.542  30.167  28.309  1.00  0.00     0.039 A 
ATOM     30  C   UNL A   1      36.680  29.518  29.540  1.00  0.00     0.014 A 
ATOM     31  C   UNL A   1      37.531  30.089  27.337  1.00  0.00     0.014 A 
ATOM     32  C   UNL A   1      37.850  28.811  29.786  1.00  0.00     0.010 A 
ATOM     33  C   UNL A   1      38.517  29.178  27.457  1.00  0.00     0.010 A 
ATOM     34  C   UNL A   1      38.755  28.684  28.734  1.00  0.00    -0.014 A 
BRANCH  34  35
ATOM     35  C   UNL A   1      40.108  28.195  28.833  1.00  0.00     0.031 A 
ATOM     36  C   UNL A   1      40.330  26.773  28.610  1.00  0.00     0.074 A 
ATOM     37  C   UNL A   1      41.026  29.192  28.815  1.00  0.00     0.049 A 
ATOM     38  N   UNL A   1      41.310  26.101  29.087  1.00  0.00    -0.248 NA
ATOM     39  C   UNL A   1      39.387  25.946  27.852  1.00  0.00     0.031 C 
ATOM     40  C   UNL A   1      42.427  29.204  28.445  1.00  0.00     0.029 A 
ATOM     41  N   UNL A   1      40.788  30.509  29.214  1.00  0.00    -0.354 N 
ATOM     42  C   UNL A   1      41.380  24.957  28.325  1.00  0.00     0.074 A 
ATOM     43  C   UNL A   1      40.061  24.795  27.762  1.00  0.00     0.031 C 
ATOM     44  C   UNL A   1      42.985  30.343  28.908  1.00  0.00     0.029 A 
ATOM     45  C   UNL A   1      41.978  31.057  29.689  1.00  0.00     0.049 A 
ATOM     46  H   UNL A   1      39.922  30.975  29.167  1.00  0.00     0.167 HD
ATOM     47  C   UNL A   1      42.611  24.446  28.027  1.00  0.00     0.034 A 
ATOM     48  C   UNL A   1      42.037  31.310  31.033  1.00  0.00     0.034 A 
ATOM     49  C   UNL A   1      43.646  25.319  28.587  1.00  0.00     0.049 A 
ATOM     50  C   UNL A   1      42.885  30.248  31.701  1.00  0.00     0.074 A 
ATOM     51  C   UNL A   1      44.460  26.280  28.008  1.00  0.00     0.029 A 
ATOM     52  N   UNL A   1      43.673  25.561  29.955  1.00  0.00    -0.354 N 
ATOM     53  N   UNL A   1      43.019  29.026  31.253  1.00  0.00    -0.248 NA
ATOM     54  C   UNL A   1      43.737  30.526  32.849  1.00  0.00     0.031 C 
ATOM     55  C   UNL A   1      44.904  27.155  29.038  1.00  0.00     0.029 A 
ATOM     56  C   UNL A   1      44.351  26.731  30.234  1.00  0.00     0.049 A 
ATOM     57  H   UNL A   1      43.264  24.976  30.633  1.00  0.00     0.167 HD
ATOM     58  C   UNL A   1      44.023  28.403  31.943  1.00  0.00     0.074 A 
ATOM     59  C   UNL A   1      44.413  29.369  32.955  1.00  0.00     0.031 C 
ATOM     60  C   UNL A   1      44.512  27.170  31.615  1.00  0.00     0.034 A 
BRANCH  47  61
ATOM     61  C   UNL A   1      42.875  23.392  26.971  1.00  0.00     0.023 A 
ATOM     62  C   UNL A   1      43.605  23.654  25.791  1.00  0.00     0.012 A 
ATOM     63  C   UNL A   1      42.385  22.073  27.109  1.00  0.00     0.148 A 
ATOM     64  C   UNL A   1      43.917  22.656  24.855  1.00  0.00     0.002 A 
ATOM     65  C   UNL A   1      42.672  21.086  26.163  1.00  0.00     0.091 A 
ATOM     66  F   UNL A   1      41.618  21.744  28.156  1.00  0.00    -0.205 F 
ATOM     67  C   UNL A   1      43.452  21.365  25.042  1.00  0.00     0.022 A 
BRANCH  65  68
ATOM     68  S   UNL A   1      41.997  19.438  26.398  1.00  0.00     0.127 S 
ATOM     69  O   UNL A   1      42.366  19.134  27.777  1.00  0.00    -0.237 OA
ATOM     70  O   UNL A   1      40.577  19.618  26.117  1.00  0.00    -0.237 OA
ATOM     71  O   UNL A   1      42.708  18.642  25.395  1.00  0.00    -0.744 OA
ENDBRANCH  65  68
ENDBRANCH  47  61
BRANCH  48  72
ATOM     72  C   UNL A   1      40.738  31.887  31.542  1.00  0.00     0.023 A 
ATOM     73  C   UNL A   1      40.547  33.281  31.620  1.00  0.00     0.012 A 
ATOM     74  C   UNL A   1      39.961  31.062  32.392  1.00  0.00     0.148 A 
ATOM     75  C   UNL A   1      39.711  33.830  32.608  1.00  0.00     0.002 A 
ATOM     76  C   UNL A   1      39.169  31.617  33.402  1.00  0.00     0.091 A 
ATOM     77  F   UNL A   1      40.090  29.730  32.281  1.00  0.00    -0.205 F 
ATOM     78  C   UNL A   1      39.063  33.005  33.529  1.00  0.00     0.022 A 
BRANCH  76  79
ATOM     79  S   UNL A   1      38.472  30.549  34.675  1.00  0.00     0.127 S 
ATOM     80  O   UNL A   1      39.662  30.017  35.330  1.00  0.00    -0.237 OA
ATOM     81  O   UNL A   1      37.639  31.450  35.466  1.00  0.00    -0.237 OA
ATOM     82  O   UNL A   1      37.698  29.563  33.916  1.00  0.00    -0.744 OA
ENDBRANCH  76  79
ENDBRANCH  48  72
BRANCH  60  83
ATOM     83  C   UNL A   1      45.315  26.279  32.530  1.00  0.00     0.023 A 
ATOM     84  C   UNL A   1      44.623  25.423  33.428  1.00  0.00     0.012 A 
ATOM     85  C   UNL A   1      46.706  26.323  32.657  1.00  0.00     0.148 A 
ATOM     86  C   UNL A   1      45.275  24.675  34.407  1.00  0.00     0.002 A 
ATOM     87  C   UNL A   1      47.362  25.465  33.533  1.00  0.00     0.091 A 
ATOM     88  F   UNL A   1      47.424  27.233  31.986  1.00  0.00    -0.205 F 
ATOM     89  C   UNL A   1      46.658  24.670  34.440  1.00  0.00     0.022 A 
BRANCH  87  90
ATOM     90  S   UNL A   1      49.132  25.277  33.346  1.00  0.00     0.127 S 
ATOM     91  O   UNL A   1      49.278  25.131  31.900  1.00  0.00    -0.237 OA
ATOM     92  O   UNL A   1      49.670  26.502  33.932  1.00  0.00    -0.237 OA
ATOM     93  O   UNL A   1      49.426  24.063  34.107  1.00  0.00    -0.744 OA
ENDBRANCH  87  90
ENDBRANCH  60  83
ENDBRANCH  34  35
ENDBRANCH  26  29
ENDBRANCH  24  25
ENDBRANCH   1  24
TORSDOF 15
ENDMDL
