MODEL 1
REMARK VINA RESULT:     -12.7      0.000      0.000
REMARK SMILES CC(C)CN(C)c1cc2c(cc1Cl)C=C(C(=O)NCCCNC(=O)c1ccc(-c3c4nc(c(-c5cccc(S(=O)(=O)[O-])c5F)c5ccc([nH]5)c(-c5cccc(S(=O)(=O)[O-])c5F)c5nc(c(-c6cccc(S(=O)(=O)[O-])c6F)c6ccc3[nH]6)C=C5)C=C4)cc1)[C@@H](C(F)(F)F)O2
REMARK SMILES IDX 20 1 19 2 18 3 16 4 17 5 15 7 7 8 8 9 12 10 9 11 11 12 13 13
REMARK SMILES IDX 10 14 93 15 14 16 88 17 5 18 6 19 4 20 2 21 1 22 3 23 89 24
REMARK SMILES IDX 90 25 91 26 92 27 21 28 22 29 23 30 24 32 25 33 26 34 87 35
REMARK SMILES IDX 27 36 86 37 28 38 29 39 30 40 80 41 31 42 85 43 79 44 81 45
REMARK SMILES IDX 32 46 84 47 78 48 77 49 33 51 65 52 45 53 64 54 46 55 49 56
REMARK SMILES IDX 63 57 82 58 47 59 48 60 62 62 83 63 50 64 34 65 35 66 43 67
REMARK SMILES IDX 36 68 38 69 44 70 37 71 39 72 40 73 41 74 42 75 66 76 67 77
REMARK SMILES IDX 75 78 68 79 70 80 76 81 69 82 71 83 72 84 73 85 74 86 51 87
REMARK SMILES IDX 52 88 60 89 53 90 55 91 61 92 54 93 56 94 57 95 58 96 59 97
REMARK H PARENT 18 6 22 31 81 50 49 61
REMARK Flexibility Score: inf
ROOT
ATOM      1  C   UNL A   1      36.667  20.521  24.857  1.00  0.00     0.042 C 
ENDROOT
BRANCH   1   2
ATOM      2  C   UNL A   1      35.361  21.070  25.409  1.00  0.00     0.118 C 
BRANCH   2   3
ATOM      3  N   UNL A   1      34.215  20.572  24.666  1.00  0.00    -0.352 N 
ATOM      4  C   UNL A   1      33.077  21.086  24.150  1.00  0.00     0.251 C 
ATOM      5  O   UNL A   1      32.362  20.284  23.541  1.00  0.00    -0.270 OA
ATOM      6  H   UNL A   1      34.287  19.606  24.491  1.00  0.00     0.163 HD
BRANCH   4   7
ATOM      7  C   UNL A   1      32.655  22.506  24.269  1.00  0.00     0.067 C 
ATOM      8  C   UNL A   1      31.794  27.397  23.406  1.00  0.00     0.059 A 
ATOM      9  C   UNL A   1      31.068  26.364  24.020  1.00  0.00     0.074 A 
ATOM     10  C   UNL A   1      33.078  27.087  22.900  1.00  0.00     0.065 A 
ATOM     11  C   UNL A   1      31.585  25.073  24.074  1.00  0.00     0.130 A 
ATOM     12  C   UNL A   1      33.546  25.768  22.869  1.00  0.00     0.034 A 
ATOM     13  Cl  UNL A   1      34.149  28.309  22.303  1.00  0.00    -0.082 Cl
ATOM     14  C   UNL A   1      32.785  24.754  23.439  1.00  0.00     0.019 A 
ATOM     15  O   UNL A   1      30.868  24.132  24.767  1.00  0.00    -0.475 OA
ATOM     16  C   UNL A   1      33.195  23.357  23.377  1.00  0.00     0.025 C 
ATOM     17  C   UNL A   1      31.689  23.041  25.288  1.00  0.00     0.314 C 
BRANCH   8  18
ATOM     18  N   UNL A   1      31.223  28.674  23.262  1.00  0.00    -0.373 N 
ATOM     19  C   UNL A   1      31.055  29.420  24.507  1.00  0.00     0.143 C 
BRANCH  18  20
ATOM     20  C   UNL A   1      30.118  28.769  22.284  1.00  0.00     0.119 C 
BRANCH  20  21
ATOM     21  C   UNL A   1      28.824  29.341  22.902  1.00  0.00     0.002 C 
ATOM     22  C   UNL A   1      28.155  30.383  22.000  1.00  0.00     0.009 C 
ATOM     23  C   UNL A   1      27.814  28.225  23.189  1.00  0.00     0.009 C 
ENDBRANCH  20  21
ENDBRANCH  18  20
ENDBRANCH   8  18
BRANCH  17  24
ATOM     24  C   UNL A   1      32.409  23.467  26.591  1.00  0.00     0.429 C 
ATOM     25  F   UNL A   1      33.648  23.942  26.320  1.00  0.00    -0.167 F 
ATOM     26  F   UNL A   1      31.748  24.457  27.241  1.00  0.00    -0.167 F 
ATOM     27  F   UNL A   1      32.550  22.459  27.480  1.00  0.00    -0.167 F 
ENDBRANCH  17  24
ENDBRANCH   4   7
ENDBRANCH   2   3
ENDBRANCH   1   2
BRANCH   1  28
ATOM     28  C   UNL A   1      37.881  21.260  25.401  1.00  0.00     0.118 C 
BRANCH  28  29
ATOM     29  N   UNL A   1      38.928  20.344  25.851  1.00  0.00    -0.352 N 
ATOM     30  C   UNL A   1      40.147  20.609  26.429  1.00  0.00     0.251 C 
ATOM     31  H   UNL A   1      38.729  19.390  25.719  1.00  0.00     0.163 HD
ATOM     32  O   UNL A   1      40.983  19.715  26.521  1.00  0.00    -0.269 OA
BRANCH  30  33
ATOM     33  C   UNL A   1      40.446  21.973  26.908  1.00  0.00     0.039 A 
ATOM     34  C   UNL A   1      39.892  23.076  26.260  1.00  0.00     0.014 A 
ATOM     35  C   UNL A   1      41.314  22.155  27.988  1.00  0.00     0.014 A 
ATOM     36  C   UNL A   1      40.375  24.345  26.536  1.00  0.00     0.010 A 
ATOM     37  C   UNL A   1      41.708  23.447  28.344  1.00  0.00     0.010 A 
ATOM     38  C   UNL A   1      41.293  24.548  27.578  1.00  0.00    -0.014 A 
BRANCH  38  39
ATOM     39  C   UNL A   1      41.801  25.919  27.838  1.00  0.00     0.031 A 
ATOM     40  C   UNL A   1      40.955  26.935  28.558  1.00  0.00     0.074 A 
ATOM     41  C   UNL A   1      43.055  26.234  27.458  1.00  0.00     0.049 A 
ATOM     42  N   UNL A   1      41.250  28.170  28.870  1.00  0.00    -0.248 NA
ATOM     43  C   UNL A   1      39.607  26.519  28.978  1.00  0.00     0.031 C 
ATOM     44  C   UNL A   1      43.966  25.340  26.740  1.00  0.00     0.029 A 
ATOM     45  N   UNL A   1      43.785  27.380  27.635  1.00  0.00    -0.354 N 
ATOM     46  C   UNL A   1      40.108  28.698  29.461  1.00  0.00     0.074 A 
ATOM     47  C   UNL A   1      39.115  27.647  29.475  1.00  0.00     0.031 C 
ATOM     48  C   UNL A   1      45.147  25.951  26.581  1.00  0.00     0.029 A 
ATOM     49  C   UNL A   1      45.058  27.302  27.122  1.00  0.00     0.049 A 
ATOM     50  H   UNL A   1      43.433  28.182  28.086  1.00  0.00     0.167 HD
ATOM     51  C   UNL A   1      39.911  29.940  29.959  1.00  0.00     0.034 A 
ATOM     52  C   UNL A   1      46.043  28.217  27.072  1.00  0.00     0.034 A 
ATOM     53  C   UNL A   1      40.921  30.960  30.011  1.00  0.00     0.049 A 
ATOM     54  C   UNL A   1      45.809  29.578  27.650  1.00  0.00     0.074 A 
ATOM     55  C   UNL A   1      40.838  32.222  30.573  1.00  0.00     0.029 A 
ATOM     56  N   UNL A   1      42.197  30.839  29.482  1.00  0.00    -0.354 N 
ATOM     57  N   UNL A   1      44.750  30.029  28.278  1.00  0.00    -0.248 NA
ATOM     58  C   UNL A   1      46.897  30.556  27.519  1.00  0.00     0.031 C 
ATOM     59  C   UNL A   1      42.060  32.871  30.371  1.00  0.00     0.029 A 
ATOM     60  C   UNL A   1      42.906  32.009  29.691  1.00  0.00     0.049 A 
ATOM     61  H   UNL A   1      42.546  30.041  29.025  1.00  0.00     0.167 HD
ATOM     62  C   UNL A   1      45.042  31.343  28.618  1.00  0.00     0.074 A 
ATOM     63  C   UNL A   1      46.387  31.608  28.149  1.00  0.00     0.031 C 
ATOM     64  C   UNL A   1      44.255  32.250  29.245  1.00  0.00     0.034 A 
BRANCH  51  65
ATOM     65  C   UNL A   1      38.555  30.265  30.523  1.00  0.00     0.023 A 
ATOM     66  C   UNL A   1      38.248  29.905  31.850  1.00  0.00     0.012 A 
ATOM     67  C   UNL A   1      37.618  30.996  29.767  1.00  0.00     0.148 A 
ATOM     68  C   UNL A   1      37.019  30.252  32.411  1.00  0.00     0.002 A 
ATOM     69  C   UNL A   1      36.408  31.364  30.342  1.00  0.00     0.091 A 
ATOM     70  F   UNL A   1      37.927  31.311  28.501  1.00  0.00    -0.205 F 
ATOM     71  C   UNL A   1      36.105  30.989  31.661  1.00  0.00     0.022 A 
BRANCH  69  72
ATOM     72  S   UNL A   1      35.186  32.359  29.480  1.00  0.00     0.127 S 
ATOM     73  O   UNL A   1      34.642  31.393  28.526  1.00  0.00    -0.237 OA
ATOM     74  O   UNL A   1      34.272  32.728  30.562  1.00  0.00    -0.237 OA
ATOM     75  O   UNL A   1      35.914  33.473  28.891  1.00  0.00    -0.744 OA
ENDBRANCH  69  72
ENDBRANCH  51  65
BRANCH  52  76
ATOM     76  C   UNL A   1      47.344  27.830  26.464  1.00  0.00     0.023 A 
ATOM     77  C   UNL A   1      48.323  27.219  27.267  1.00  0.00     0.012 A 
ATOM     78  C   UNL A   1      47.550  27.934  25.074  1.00  0.00     0.148 A 
ATOM     79  C   UNL A   1      49.488  26.709  26.694  1.00  0.00     0.002 A 
ATOM     80  C   UNL A   1      48.690  27.383  24.504  1.00  0.00     0.091 A 
ATOM     81  F   UNL A   1      46.594  28.515  24.335  1.00  0.00    -0.205 F 
ATOM     82  C   UNL A   1      49.665  26.778  25.313  1.00  0.00     0.022 A 
BRANCH  80  83
ATOM     83  S   UNL A   1      48.946  27.306  22.728  1.00  0.00     0.127 S 
ATOM     84  O   UNL A   1      50.404  27.339  22.634  1.00  0.00    -0.237 OA
ATOM     85  O   UNL A   1      48.336  26.017  22.399  1.00  0.00    -0.237 OA
ATOM     86  O   UNL A   1      48.261  28.466  22.175  1.00  0.00    -0.744 OA
ENDBRANCH  80  83
ENDBRANCH  52  76
BRANCH  64  87
ATOM     87  C   UNL A   1      44.808  33.630  29.457  1.00  0.00     0.023 A 
ATOM     88  C   UNL A   1      45.541  33.902  30.628  1.00  0.00     0.012 A 
ATOM     89  C   UNL A   1      44.710  34.610  28.451  1.00  0.00     0.148 A 
ATOM     90  C   UNL A   1      46.164  35.137  30.800  1.00  0.00     0.002 A 
ATOM     91  C   UNL A   1      45.362  35.827  28.614  1.00  0.00     0.091 A 
ATOM     92  F   UNL A   1      43.999  34.326  27.351  1.00  0.00    -0.205 F 
ATOM     93  C   UNL A   1      46.084  36.093  29.789  1.00  0.00     0.022 A 
BRANCH  91  94
ATOM     94  S   UNL A   1      45.382  37.091  27.340  1.00  0.00     0.127 S 
ATOM     95  O   UNL A   1      46.145  38.156  27.989  1.00  0.00    -0.237 OA
ATOM     96  O   UNL A   1      46.083  36.416  26.246  1.00  0.00    -0.237 OA
ATOM     97  O   UNL A   1      43.987  37.409  27.062  1.00  0.00    -0.744 OA
ENDBRANCH  91  94
ENDBRANCH  64  87
ENDBRANCH  38  39
ENDBRANCH  30  33
ENDBRANCH  28  29
ENDBRANCH   1  28
TORSDOF 17
ENDMDL
MODEL 2
REMARK VINA RESULT:     -12.7      0.411      7.356
REMARK SMILES CC(C)CN(C)c1cc2c(cc1Cl)C=C(C(=O)NCCCNC(=O)c1ccc(-c3c4nc(c(-c5cccc(S(=O)(=O)[O-])c5F)c5ccc([nH]5)c(-c5cccc(S(=O)(=O)[O-])c5F)c5nc(c(-c6cccc(S(=O)(=O)[O-])c6F)c6ccc3[nH]6)C=C5)C=C4)cc1)[C@@H](C(F)(F)F)O2
REMARK SMILES IDX 20 1 19 2 18 3 16 4 17 5 15 7 7 8 8 9 12 10 9 11 11 12 13 13
REMARK SMILES IDX 10 14 93 15 14 16 88 17 5 18 6 19 4 20 2 21 1 22 3 23 89 24
REMARK SMILES IDX 90 25 91 26 92 27 21 28 22 29 23 30 24 32 25 33 26 34 87 35
REMARK SMILES IDX 27 36 86 37 28 38 29 39 30 40 80 41 31 42 85 43 79 44 81 45
REMARK SMILES IDX 32 46 84 47 78 48 77 49 33 51 65 52 45 53 64 54 46 55 49 56
REMARK SMILES IDX 63 57 82 58 47 59 48 60 62 62 83 63 50 64 34 65 35 66 43 67
REMARK SMILES IDX 36 68 38 69 44 70 37 71 39 72 40 73 41 74 42 75 66 76 67 77
REMARK SMILES IDX 75 78 68 79 70 80 76 81 69 82 71 83 72 84 73 85 74 86 51 87
REMARK SMILES IDX 52 88 60 89 53 90 55 91 61 92 54 93 56 94 57 95 58 96 59 97
REMARK H PARENT 18 6 22 31 81 50 49 61
REMARK Flexibility Score: inf
ROOT
ATOM      1  C   UNL A   1      36.454  20.493  24.978  1.00  0.00     0.042 C 
ENDROOT
BRANCH   1   2
ATOM      2  C   UNL A   1      35.238  21.386  25.163  1.00  0.00     0.118 C 
BRANCH   2   3
ATOM      3  N   UNL A   1      34.066  20.840  24.498  1.00  0.00    -0.352 N 
ATOM      4  C   UNL A   1      32.886  21.312  24.037  1.00  0.00     0.251 C 
ATOM      5  O   UNL A   1      32.161  20.477  23.488  1.00  0.00    -0.270 OA
ATOM      6  H   UNL A   1      34.155  19.873  24.342  1.00  0.00     0.163 HD
BRANCH   4   7
ATOM      7  C   UNL A   1      32.432  22.722  24.148  1.00  0.00     0.067 C 
ATOM      8  C   UNL A   1      31.562  27.616  23.313  1.00  0.00     0.059 A 
ATOM      9  C   UNL A   1      30.806  26.559  23.844  1.00  0.00     0.074 A 
ATOM     10  C   UNL A   1      32.889  27.336  22.910  1.00  0.00     0.065 A 
ATOM     11  C   UNL A   1      31.338  25.276  23.915  1.00  0.00     0.130 A 
ATOM     12  C   UNL A   1      33.380  26.026  22.892  1.00  0.00     0.034 A 
ATOM     13  Cl  UNL A   1      33.985  28.587  22.428  1.00  0.00    -0.082 Cl
ATOM     14  C   UNL A   1      32.592  24.988  23.376  1.00  0.00     0.019 A 
ATOM     15  O   UNL A   1      30.582  24.309  24.527  1.00  0.00    -0.475 OA
ATOM     16  C   UNL A   1      33.030  23.599  23.321  1.00  0.00     0.025 C 
ATOM     17  C   UNL A   1      31.375  23.221  25.094  1.00  0.00     0.314 C 
BRANCH   8  18
ATOM     18  N   UNL A   1      30.984  28.887  23.148  1.00  0.00    -0.373 N 
ATOM     19  C   UNL A   1      30.865  29.677  24.371  1.00  0.00     0.143 C 
BRANCH  18  20
ATOM     20  C   UNL A   1      29.840  28.947  22.212  1.00  0.00     0.119 C 
BRANCH  20  21
ATOM     21  C   UNL A   1      28.608  29.649  22.823  1.00  0.00     0.002 C 
ATOM     22  C   UNL A   1      28.057  30.757  21.919  1.00  0.00     0.009 C 
ATOM     23  C   UNL A   1      27.486  28.645  23.102  1.00  0.00     0.009 C 
ENDBRANCH  20  21
ENDBRANCH  18  20
ENDBRANCH   8  18
BRANCH  17  24
ATOM     24  C   UNL A   1      31.977  23.630  26.460  1.00  0.00     0.429 C 
ATOM     25  F   UNL A   1      31.815  22.640  27.371  1.00  0.00    -0.167 F 
ATOM     26  F   UNL A   1      33.310  23.869  26.382  1.00  0.00    -0.167 F 
ATOM     27  F   UNL A   1      31.422  24.748  26.979  1.00  0.00    -0.167 F 
ENDBRANCH  17  24
ENDBRANCH   4   7
ENDBRANCH   2   3
ENDBRANCH   1   2
BRANCH   1  28
ATOM     28  C   UNL A   1      37.753  21.204  25.327  1.00  0.00     0.118 C 
BRANCH  28  29
ATOM     29  N   UNL A   1      38.799  20.270  25.739  1.00  0.00    -0.352 N 
ATOM     30  C   UNL A   1      40.024  20.511  26.315  1.00  0.00     0.251 C 
ATOM     31  H   UNL A   1      38.595  19.321  25.579  1.00  0.00     0.163 HD
ATOM     32  O   UNL A   1      40.857  19.610  26.371  1.00  0.00    -0.269 OA
BRANCH  30  33
ATOM     33  C   UNL A   1      40.335  21.858  26.833  1.00  0.00     0.039 A 
ATOM     34  C   UNL A   1      39.768  22.982  26.235  1.00  0.00     0.014 A 
ATOM     35  C   UNL A   1      41.225  22.003  27.900  1.00  0.00     0.014 A 
ATOM     36  C   UNL A   1      40.257  24.241  26.544  1.00  0.00     0.010 A 
ATOM     37  C   UNL A   1      41.627  23.282  28.292  1.00  0.00     0.010 A 
ATOM     38  C   UNL A   1      41.197  24.409  27.573  1.00  0.00    -0.014 A 
BRANCH  38  39
ATOM     39  C   UNL A   1      41.711  25.769  27.868  1.00  0.00     0.031 A 
ATOM     40  C   UNL A   1      43.060  26.213  27.367  1.00  0.00     0.074 A 
ATOM     41  C   UNL A   1      40.934  26.627  28.557  1.00  0.00     0.049 A 
ATOM     42  N   UNL A   1      43.654  27.367  27.530  1.00  0.00    -0.248 NA
ATOM     43  C   UNL A   1      43.848  25.242  26.590  1.00  0.00     0.031 C 
ATOM     44  C   UNL A   1      39.615  26.309  29.108  1.00  0.00     0.029 A 
ATOM     45  N   UNL A   1      41.129  27.940  28.899  1.00  0.00    -0.354 N 
ATOM     46  C   UNL A   1      44.904  27.241  26.936  1.00  0.00     0.074 A 
ATOM     47  C   UNL A   1      44.984  25.902  26.398  1.00  0.00     0.031 C 
ATOM     48  C   UNL A   1      39.098  27.407  29.674  1.00  0.00     0.029 A 
ATOM     49  C   UNL A   1      40.074  28.488  29.589  1.00  0.00     0.049 A 
ATOM     50  H   UNL A   1      41.944  28.442  28.672  1.00  0.00     0.167 HD
ATOM     51  C   UNL A   1      45.889  28.163  26.837  1.00  0.00     0.034 A 
ATOM     52  C   UNL A   1      39.910  29.715  30.116  1.00  0.00     0.034 A 
ATOM     53  C   UNL A   1      45.780  29.516  27.306  1.00  0.00     0.049 A 
ATOM     54  C   UNL A   1      41.006  30.725  29.972  1.00  0.00     0.074 A 
ATOM     55  C   UNL A   1      46.696  30.546  27.174  1.00  0.00     0.029 A 
ATOM     56  N   UNL A   1      44.695  30.030  27.998  1.00  0.00    -0.354 N 
ATOM     57  N   UNL A   1      42.145  30.611  29.335  1.00  0.00    -0.248 NA
ATOM     58  C   UNL A   1      40.798  32.031  30.613  1.00  0.00     0.031 C 
ATOM     59  C   UNL A   1      46.170  31.680  27.800  1.00  0.00     0.029 A 
ATOM     60  C   UNL A   1      44.924  31.358  28.313  1.00  0.00     0.049 A 
ATOM     61  H   UNL A   1      43.883  29.525  28.231  1.00  0.00     0.167 HD
ATOM     62  C   UNL A   1      42.794  31.828  29.496  1.00  0.00     0.074 A 
ATOM     63  C   UNL A   1      41.909  32.675  30.271  1.00  0.00     0.031 C 
ATOM     64  C   UNL A   1      44.021  32.199  29.059  1.00  0.00     0.034 A 
BRANCH  51  65
ATOM     65  C   UNL A   1      47.170  27.754  26.162  1.00  0.00     0.023 A 
ATOM     66  C   UNL A   1      48.193  27.147  26.916  1.00  0.00     0.012 A 
ATOM     67  C   UNL A   1      47.327  27.901  24.769  1.00  0.00     0.148 A 
ATOM     68  C   UNL A   1      49.362  26.705  26.297  1.00  0.00     0.002 A 
ATOM     69  C   UNL A   1      48.481  27.432  24.155  1.00  0.00     0.091 A 
ATOM     70  F   UNL A   1      46.347  28.499  24.076  1.00  0.00    -0.205 F 
ATOM     71  C   UNL A   1      49.501  26.839  24.918  1.00  0.00     0.022 A 
BRANCH  69  72
ATOM     72  S   UNL A   1      48.736  27.507  22.379  1.00  0.00     0.127 S 
ATOM     73  O   UNL A   1      47.579  28.292  21.950  1.00  0.00    -0.237 OA
ATOM     74  O   UNL A   1      50.017  28.206  22.282  1.00  0.00    -0.237 OA
ATOM     75  O   UNL A   1      48.758  26.127  21.915  1.00  0.00    -0.744 OA
ENDBRANCH  69  72
ENDBRANCH  51  65
BRANCH  52  76
ATOM     76  C   UNL A   1      38.628  30.030  30.800  1.00  0.00     0.023 A 
ATOM     77  C   UNL A   1      38.472  29.696  32.156  1.00  0.00     0.012 A 
ATOM     78  C   UNL A   1      37.629  30.782  30.149  1.00  0.00     0.148 A 
ATOM     79  C   UNL A   1      37.343  30.114  32.861  1.00  0.00     0.002 A 
ATOM     80  C   UNL A   1      36.530  31.234  30.868  1.00  0.00     0.091 A 
ATOM     81  F   UNL A   1      37.811  31.090  28.857  1.00  0.00    -0.205 F 
ATOM     82  C   UNL A   1      36.381  30.894  32.222  1.00  0.00     0.022 A 
BRANCH  80  83
ATOM     83  S   UNL A   1      35.308  32.349  30.171  1.00  0.00     0.127 S 
ATOM     84  O   UNL A   1      34.369  32.496  31.281  1.00  0.00    -0.237 OA
ATOM     85  O   UNL A   1      36.119  33.534  29.888  1.00  0.00    -0.237 OA
ATOM     86  O   UNL A   1      34.778  31.676  28.993  1.00  0.00    -0.744 OA
ENDBRANCH  80  83
ENDBRANCH  52  76
BRANCH  64  87
ATOM     87  C   UNL A   1      44.503  33.577  29.409  1.00  0.00     0.023 A 
ATOM     88  C   UNL A   1      45.165  33.781  30.636  1.00  0.00     0.012 A 
ATOM     89  C   UNL A   1      44.413  34.632  28.481  1.00  0.00     0.148 A 
ATOM     90  C   UNL A   1      45.725  35.021  30.938  1.00  0.00     0.002 A 
ATOM     91  C   UNL A   1      45.003  35.855  28.774  1.00  0.00     0.091 A 
ATOM     92  F   UNL A   1      43.770  34.411  27.325  1.00  0.00    -0.205 F 
ATOM     93  C   UNL A   1      45.655  36.052  30.004  1.00  0.00     0.022 A 
BRANCH  91  94
ATOM     94  S   UNL A   1      45.033  37.220  27.608  1.00  0.00     0.127 S 
ATOM     95  O   UNL A   1      43.606  37.453  27.387  1.00  0.00    -0.237 OA
ATOM     96  O   UNL A   1      45.713  38.265  28.373  1.00  0.00    -0.237 OA
ATOM     97  O   UNL A   1      45.769  36.742  26.445  1.00  0.00    -0.744 OA
ENDBRANCH  91  94
ENDBRANCH  64  87
ENDBRANCH  38  39
ENDBRANCH  30  33
ENDBRANCH  28  29
ENDBRANCH   1  28
TORSDOF 17
ENDMDL
MODEL 3
REMARK VINA RESULT:     -12.7      1.404      7.501
REMARK SMILES CC(C)CN(C)c1cc2c(cc1Cl)C=C(C(=O)NCCCNC(=O)c1ccc(-c3c4nc(c(-c5cccc(S(=O)(=O)[O-])c5F)c5ccc([nH]5)c(-c5cccc(S(=O)(=O)[O-])c5F)c5nc(c(-c6cccc(S(=O)(=O)[O-])c6F)c6ccc3[nH]6)C=C5)C=C4)cc1)[C@@H](C(F)(F)F)O2
REMARK SMILES IDX 20 1 19 2 18 3 16 4 17 5 15 7 7 8 8 9 12 10 9 11 11 12 13 13
REMARK SMILES IDX 10 14 93 15 14 16 88 17 5 18 6 19 4 20 2 21 1 22 3 23 89 24
REMARK SMILES IDX 90 25 91 26 92 27 21 28 22 29 23 30 24 32 25 33 26 34 87 35
REMARK SMILES IDX 27 36 86 37 28 38 29 39 30 40 80 41 31 42 85 43 79 44 81 45
REMARK SMILES IDX 32 46 84 47 78 48 77 49 33 51 65 52 45 53 64 54 46 55 49 56
REMARK SMILES IDX 63 57 82 58 47 59 48 60 62 62 83 63 50 64 34 65 35 66 43 67
REMARK SMILES IDX 36 68 38 69 44 70 37 71 39 72 40 73 41 74 42 75 66 76 67 77
REMARK SMILES IDX 75 78 68 79 70 80 76 81 69 82 71 83 72 84 73 85 74 86 51 87
REMARK SMILES IDX 52 88 60 89 53 90 55 91 61 92 54 93 56 94 57 95 58 96 59 97
REMARK H PARENT 18 6 22 31 81 50 49 61
REMARK Flexibility Score: inf
ROOT
ATOM      1  C   UNL A   1      35.490  21.763  24.560  1.00  0.00     0.042 C 
ENDROOT
BRANCH   1   2
ATOM      2  C   UNL A   1      34.334  20.873  24.990  1.00  0.00     0.118 C 
BRANCH   2   3
ATOM      3  N   UNL A   1      33.393  20.656  23.904  1.00  0.00    -0.352 N 
ATOM      4  C   UNL A   1      32.471  21.387  23.239  1.00  0.00     0.251 C 
ATOM      5  O   UNL A   1      31.887  20.798  22.324  1.00  0.00    -0.270 OA
ATOM      6  H   UNL A   1      33.440  19.735  23.561  1.00  0.00     0.163 HD
BRANCH   4   7
ATOM      7  C   UNL A   1      32.134  22.804  23.535  1.00  0.00     0.067 C 
ATOM      8  C   UNL A   1      31.677  27.821  23.348  1.00  0.00     0.059 A 
ATOM      9  C   UNL A   1      30.832  26.770  23.742  1.00  0.00     0.074 A 
ATOM     10  C   UNL A   1      32.977  27.487  22.905  1.00  0.00     0.065 A 
ATOM     11  C   UNL A   1      31.256  25.448  23.643  1.00  0.00     0.130 A 
ATOM     12  C   UNL A   1      33.359  26.153  22.714  1.00  0.00     0.034 A 
ATOM     13  Cl  UNL A   1      34.176  28.695  22.583  1.00  0.00    -0.082 Cl
ATOM     14  C   UNL A   1      32.485  25.131  23.064  1.00  0.00     0.019 A 
ATOM     15  O   UNL A   1      30.420  24.476  24.128  1.00  0.00    -0.475 OA
ATOM     16  C   UNL A   1      32.807  23.729  22.826  1.00  0.00     0.025 C 
ATOM     17  C   UNL A   1      31.118  23.262  24.544  1.00  0.00     0.314 C 
BRANCH   8  18
ATOM     18  N   UNL A   1      31.206  29.145  23.353  1.00  0.00    -0.373 N 
ATOM     19  C   UNL A   1      31.109  29.764  24.673  1.00  0.00     0.143 C 
BRANCH  18  20
ATOM     20  C   UNL A   1      30.102  29.430  22.411  1.00  0.00     0.119 C 
BRANCH  20  21
ATOM     21  C   UNL A   1      28.859  30.021  23.112  1.00  0.00     0.002 C 
ATOM     22  C   UNL A   1      28.529  31.436  22.624  1.00  0.00     0.009 C 
ATOM     23  C   UNL A   1      27.632  29.132  22.895  1.00  0.00     0.009 C 
ENDBRANCH  20  21
ENDBRANCH  18  20
ENDBRANCH   8  18
BRANCH  17  24
ATOM     24  C   UNL A   1      31.744  23.438  25.949  1.00  0.00     0.429 C 
ATOM     25  F   UNL A   1      31.049  24.349  26.672  1.00  0.00    -0.167 F 
ATOM     26  F   UNL A   1      31.733  22.286  26.663  1.00  0.00    -0.167 F 
ATOM     27  F   UNL A   1      33.031  23.850  25.914  1.00  0.00    -0.167 F 
ENDBRANCH  17  24
ENDBRANCH   4   7
ENDBRANCH   2   3
ENDBRANCH   1   2
BRANCH   1  28
ATOM     28  C   UNL A   1      36.493  21.991  25.682  1.00  0.00     0.118 C 
BRANCH  28  29
ATOM     29  N   UNL A   1      37.546  20.978  25.692  1.00  0.00    -0.352 N 
ATOM     30  C   UNL A   1      38.889  21.100  25.964  1.00  0.00     0.251 C 
ATOM     31  H   UNL A   1      37.249  20.067  25.470  1.00  0.00     0.163 HD
ATOM     32  O   UNL A   1      39.651  20.176  25.692  1.00  0.00    -0.269 OA
BRANCH  30  33
ATOM     33  C   UNL A   1      39.403  22.352  26.554  1.00  0.00     0.039 A 
ATOM     34  C   UNL A   1      38.891  23.580  26.137  1.00  0.00     0.014 A 
ATOM     35  C   UNL A   1      40.428  22.302  27.502  1.00  0.00     0.014 A 
ATOM     36  C   UNL A   1      39.547  24.748  26.489  1.00  0.00     0.010 A 
ATOM     37  C   UNL A   1      41.009  23.491  27.949  1.00  0.00     0.010 A 
ATOM     38  C   UNL A   1      40.618  24.721  27.395  1.00  0.00    -0.014 A 
BRANCH  38  39
ATOM     39  C   UNL A   1      41.308  25.989  27.739  1.00  0.00     0.031 A 
ATOM     40  C   UNL A   1      42.712  26.260  27.268  1.00  0.00     0.074 A 
ATOM     41  C   UNL A   1      40.643  26.924  28.446  1.00  0.00     0.049 A 
ATOM     42  N   UNL A   1      43.454  27.317  27.474  1.00  0.00    -0.248 NA
ATOM     43  C   UNL A   1      43.373  25.214  26.470  1.00  0.00     0.031 C 
ATOM     44  C   UNL A   1      39.284  26.772  28.971  1.00  0.00     0.029 A 
ATOM     45  N   UNL A   1      41.009  28.188  28.831  1.00  0.00    -0.354 N 
ATOM     46  C   UNL A   1      44.684  27.040  26.891  1.00  0.00     0.074 A 
ATOM     47  C   UNL A   1      44.591  25.718  26.313  1.00  0.00     0.031 C 
ATOM     48  C   UNL A   1      38.912  27.913  29.565  1.00  0.00     0.029 A 
ATOM     49  C   UNL A   1      40.028  28.853  29.526  1.00  0.00     0.049 A 
ATOM     50  H   UNL A   1      41.889  28.581  28.629  1.00  0.00     0.167 HD
ATOM     51  C   UNL A   1      45.788  27.821  26.832  1.00  0.00     0.034 A 
ATOM     52  C   UNL A   1      40.023  30.076  30.089  1.00  0.00     0.034 A 
ATOM     53  C   UNL A   1      45.856  29.162  27.343  1.00  0.00     0.049 A 
ATOM     54  C   UNL A   1      41.248  30.931  29.990  1.00  0.00     0.074 A 
ATOM     55  C   UNL A   1      46.905  30.061  27.253  1.00  0.00     0.029 A 
ATOM     56  N   UNL A   1      44.840  29.798  28.038  1.00  0.00    -0.354 N 
ATOM     57  N   UNL A   1      42.372  30.681  29.363  1.00  0.00    -0.248 NA
ATOM     58  C   UNL A   1      41.209  32.233  30.669  1.00  0.00     0.031 C 
ATOM     59  C   UNL A   1      46.528  31.237  27.909  1.00  0.00     0.029 A 
ATOM     60  C   UNL A   1      45.241  31.073  28.397  1.00  0.00     0.049 A 
ATOM     61  H   UNL A   1      43.963  29.402  28.246  1.00  0.00     0.167 HD
ATOM     62  C   UNL A   1      43.177  31.794  29.569  1.00  0.00     0.074 A 
ATOM     63  C   UNL A   1      42.402  32.730  30.360  1.00  0.00     0.031 C 
ATOM     64  C   UNL A   1      44.449  32.006  29.158  1.00  0.00     0.034 A 
BRANCH  51  65
ATOM     65  C   UNL A   1      47.011  27.262  26.160  1.00  0.00     0.023 A 
ATOM     66  C   UNL A   1      47.211  27.479  24.783  1.00  0.00     0.012 A 
ATOM     67  C   UNL A   1      47.999  26.591  26.909  1.00  0.00     0.148 A 
ATOM     68  C   UNL A   1      48.369  27.022  24.155  1.00  0.00     0.002 A 
ATOM     69  C   UNL A   1      49.164  26.164  26.283  1.00  0.00     0.091 A 
ATOM     70  F   UNL A   1      47.776  26.380  28.214  1.00  0.00    -0.205 F 
ATOM     71  C   UNL A   1      49.348  26.374  24.906  1.00  0.00     0.022 A 
BRANCH  69  72
ATOM     72  S   UNL A   1      50.507  25.369  27.169  1.00  0.00     0.127 S 
ATOM     73  O   UNL A   1      50.917  26.427  28.092  1.00  0.00    -0.237 OA
ATOM     74  O   UNL A   1      49.830  24.236  27.802  1.00  0.00    -0.237 OA
ATOM     75  O   UNL A   1      51.494  25.003  26.164  1.00  0.00    -0.744 OA
ENDBRANCH  69  72
ENDBRANCH  51  65
BRANCH  52  76
ATOM     76  C   UNL A   1      38.785  30.542  30.767  1.00  0.00     0.023 A 
ATOM     77  C   UNL A   1      38.670  30.401  32.161  1.00  0.00     0.012 A 
ATOM     78  C   UNL A   1      37.795  31.248  30.056  1.00  0.00     0.148 A 
ATOM     79  C   UNL A   1      37.590  30.964  32.841  1.00  0.00     0.002 A 
ATOM     80  C   UNL A   1      36.747  31.845  30.743  1.00  0.00     0.091 A 
ATOM     81  F   UNL A   1      37.938  31.371  28.728  1.00  0.00    -0.205 F 
ATOM     82  C   UNL A   1      36.638  31.698  32.136  1.00  0.00     0.022 A 
BRANCH  80  83
ATOM     83  S   UNL A   1      35.548  32.916  29.944  1.00  0.00     0.127 S 
ATOM     84  O   UNL A   1      34.766  33.392  31.083  1.00  0.00    -0.237 OA
ATOM     85  O   UNL A   1      36.415  33.921  29.327  1.00  0.00    -0.237 OA
ATOM     86  O   UNL A   1      34.825  32.072  29.002  1.00  0.00    -0.744 OA
ENDBRANCH  80  83
ENDBRANCH  52  76
BRANCH  64  87
ATOM     87  C   UNL A   1      45.109  33.295  29.557  1.00  0.00     0.023 A 
ATOM     88  C   UNL A   1      45.910  33.326  30.715  1.00  0.00     0.012 A 
ATOM     89  C   UNL A   1      45.037  34.431  28.728  1.00  0.00     0.148 A 
ATOM     90  C   UNL A   1      46.626  34.474  31.047  1.00  0.00     0.002 A 
ATOM     91  C   UNL A   1      45.780  35.561  29.047  1.00  0.00     0.091 A 
ATOM     92  F   UNL A   1      44.260  34.376  27.637  1.00  0.00    -0.205 F 
ATOM     93  C   UNL A   1      46.571  35.585  30.208  1.00  0.00     0.022 A 
BRANCH  91  94
ATOM     94  S   UNL A   1      45.836  37.012  27.992  1.00  0.00     0.127 S 
ATOM     95  O   UNL A   1      46.369  36.456  26.749  1.00  0.00    -0.237 OA
ATOM     96  O   UNL A   1      44.427  37.404  27.931  1.00  0.00    -0.237 OA
ATOM     97  O   UNL A   1      46.704  37.969  28.665  1.00  0.00    -0.744 OA
ENDBRANCH  91  94
ENDBRANCH  64  87
ENDBRANCH  38  39
ENDBRANCH  30  33
ENDBRANCH  28  29
ENDBRANCH   1  28
TORSDOF 17
ENDMDL
