MODEL 1
REMARK VINA RESULT:     -13.1      0.000      0.000
REMARK SMILES NS(=O)(=O)c1ccc(-n2nc(C(F)F)cc2-c2ccc(C(=O)NCCCNC(=O)c3ccc(-c4c5nc(c(-c6cccc(S(=O)(=O)[O-])c6F)c6ccc([nH]6)c(-c6cccc(S(=O)(=O)[O-])c6F)c6nc(c(-c7cccc(S(=O)(=O)[O-])c7F)c7ccc4[nH]7)C=C6)C=C5)cc3)cc2)cc1
REMARK SMILES IDX 24 1 23 2 21 3 22 4 20 6 17 7 18 8 94 9 19 10 93 11 16 12
REMARK SMILES IDX 9 13 10 14 11 15 15 16 8 17 5 18 6 19 96 20 7 21 95 22 2 23
REMARK SMILES IDX 3 24 4 25 1 26 12 29 13 30 14 31 25 32 26 33 27 34 28 35
REMARK SMILES IDX 29 37 30 38 31 39 92 40 32 41 91 42 33 43 34 44 35 45 85 46
REMARK SMILES IDX 36 47 90 48 84 49 86 50 37 51 89 52 83 53 82 54 38 56 70 57
REMARK SMILES IDX 50 58 69 59 51 60 54 61 68 62 87 63 52 64 53 65 67 67 88 68
REMARK SMILES IDX 55 69 39 70 40 71 48 72 41 73 43 74 49 75 42 76 44 77 45 78
REMARK SMILES IDX 46 79 47 80 71 81 72 82 80 83 73 84 75 85 81 86 74 87 76 88
REMARK SMILES IDX 77 89 78 90 79 91 56 92 57 93 65 94 58 95 60 96 66 97 59 98
REMARK SMILES IDX 61 99 62 100 63 101 64 102
REMARK H PARENT 23 5 1 27 1 28 27 36 86 55 54 66
REMARK Flexibility Score: inf
ROOT
ATOM      1  C   UNL A   1      31.994  31.167  26.815  1.00  0.00     0.118 C 
ENDROOT
BRANCH   1   2
ATOM      2  N   UNL A   1      33.129  30.723  27.609  1.00  0.00    -0.352 N 
ATOM      3  C   UNL A   1      33.803  29.526  27.647  1.00  0.00     0.251 C 
ATOM      4  O   UNL A   1      34.821  29.452  28.332  1.00  0.00    -0.269 OA
ATOM      5  H   UNL A   1      33.479  31.403  28.229  1.00  0.00     0.163 HD
BRANCH   3   6
ATOM      6  C   UNL A   1      33.386  28.347  26.845  1.00  0.00     0.039 A 
ATOM      7  C   UNL A   1      32.573  26.046  25.471  1.00  0.00     0.000 A 
ATOM      8  C   UNL A   1      31.799  26.537  26.528  1.00  0.00     0.011 A 
ATOM      9  C   UNL A   1      33.729  26.713  25.087  1.00  0.00     0.011 A 
ATOM     10  C   UNL A   1      32.212  27.679  27.218  1.00  0.00     0.014 A 
ATOM     11  C   UNL A   1      34.091  27.884  25.733  1.00  0.00     0.014 A 
BRANCH   7  12
ATOM     12  C   UNL A   1      32.141  24.917  24.673  1.00  0.00     0.075 A 
ATOM     13  N   UNL A   1      31.082  24.950  23.780  1.00  0.00    -0.233 N 
ATOM     14  N   UNL A   1      30.809  23.712  23.287  1.00  0.00    -0.166 NA
ATOM     15  C   UNL A   1      31.855  22.956  23.677  1.00  0.00     0.129 A 
ATOM     16  C   UNL A   1      32.682  23.655  24.584  1.00  0.00     0.060 A 
BRANCH  13  17
ATOM     17  C   UNL A   1      30.344  26.093  23.371  1.00  0.00     0.065 A 
ATOM     18  C   UNL A   1      28.987  28.447  22.755  1.00  0.00     0.082 A 
ATOM     19  C   UNL A   1      30.274  28.252  22.256  1.00  0.00     0.024 A 
ATOM     20  C   UNL A   1      28.366  27.464  23.539  1.00  0.00     0.024 A 
ATOM     21  C   UNL A   1      30.952  27.075  22.568  1.00  0.00     0.030 A 
ATOM     22  C   UNL A   1      29.035  26.269  23.825  1.00  0.00     0.030 A 
BRANCH  18  23
ATOM     23  S   UNL A   1      28.135  29.959  22.400  1.00  0.00     0.238 S 
ATOM     24  O   UNL A   1      26.985  30.050  23.282  1.00  0.00    -0.207 OA
ATOM     25  O   UNL A   1      28.028  30.079  20.972  1.00  0.00    -0.207 OA
BRANCH  23  26
ATOM     26  N   UNL A   1      29.201  31.143  22.919  1.00  0.00    -0.225 NA
ATOM     27  H   UNL A   1      30.155  30.869  22.681  1.00  0.00     0.137 HD
ATOM     28  H   UNL A   1      29.122  31.252  23.930  1.00  0.00     0.137 HD
ENDBRANCH  23  26
ENDBRANCH  18  23
ENDBRANCH  13  17
BRANCH  15  29
ATOM     29  C   UNL A   1      32.090  21.558  23.190  1.00  0.00     0.393 C 
ATOM     30  F   UNL A   1      32.334  21.500  21.854  1.00  0.00    -0.203 F 
ATOM     31  F   UNL A   1      33.155  20.978  23.810  1.00  0.00    -0.203 F 
ENDBRANCH  15  29
ENDBRANCH   7  12
ENDBRANCH   3   6
ENDBRANCH   1   2
BRANCH   1  32
ATOM     32  C   UNL A   1      31.815  32.693  26.873  1.00  0.00     0.042 C 
BRANCH  32  33
ATOM     33  C   UNL A   1      33.062  33.383  27.376  1.00  0.00     0.118 C 
BRANCH  33  34
ATOM     34  N   UNL A   1      32.746  34.452  28.330  1.00  0.00    -0.352 N 
ATOM     35  C   UNL A   1      33.306  34.685  29.571  1.00  0.00     0.251 C 
ATOM     36  H   UNL A   1      32.045  35.083  28.050  1.00  0.00     0.163 HD
ATOM     37  O   UNL A   1      32.719  35.372  30.398  1.00  0.00    -0.269 OA
BRANCH  35  38
ATOM     38  C   UNL A   1      34.623  34.099  29.867  1.00  0.00     0.039 A 
ATOM     39  C   UNL A   1      34.790  33.071  30.797  1.00  0.00     0.014 A 
ATOM     40  C   UNL A   1      35.707  34.581  29.140  1.00  0.00     0.014 A 
ATOM     41  C   UNL A   1      36.053  32.499  30.928  1.00  0.00     0.010 A 
ATOM     42  C   UNL A   1      36.862  33.858  29.087  1.00  0.00     0.010 A 
ATOM     43  C   UNL A   1      37.079  32.890  30.050  1.00  0.00    -0.014 A 
BRANCH  43  44
ATOM     44  C   UNL A   1      38.365  32.212  30.006  1.00  0.00     0.031 A 
ATOM     45  C   UNL A   1      38.278  30.894  29.337  1.00  0.00     0.074 A 
ATOM     46  C   UNL A   1      39.529  32.816  30.344  1.00  0.00     0.049 A 
ATOM     47  N   UNL A   1      38.186  29.747  29.921  1.00  0.00    -0.248 NA
ATOM     48  C   UNL A   1      38.009  30.842  27.890  1.00  0.00     0.031 C 
ATOM     49  C   UNL A   1      39.741  34.223  30.723  1.00  0.00     0.029 A 
ATOM     50  N   UNL A   1      40.800  32.330  30.313  1.00  0.00    -0.354 N 
ATOM     51  C   UNL A   1      38.189  28.815  28.888  1.00  0.00     0.074 A 
ATOM     52  C   UNL A   1      37.795  29.535  27.710  1.00  0.00     0.031 C 
ATOM     53  C   UNL A   1      41.057  34.525  30.649  1.00  0.00     0.029 A 
ATOM     54  C   UNL A   1      41.797  33.303  30.401  1.00  0.00     0.049 A 
ATOM     55  H   UNL A   1      41.001  31.370  30.235  1.00  0.00     0.167 HD
ATOM     56  C   UNL A   1      38.864  27.641  29.038  1.00  0.00     0.034 A 
ATOM     57  C   UNL A   1      43.134  33.111  30.276  1.00  0.00     0.034 A 
ATOM     58  C   UNL A   1      39.305  27.498  30.407  1.00  0.00     0.049 A 
ATOM     59  C   UNL A   1      43.381  31.689  30.584  1.00  0.00     0.074 A 
ATOM     60  C   UNL A   1      38.720  27.280  31.633  1.00  0.00     0.029 A 
ATOM     61  N   UNL A   1      40.543  28.050  30.630  1.00  0.00    -0.354 N 
ATOM     62  N   UNL A   1      43.191  31.183  31.771  1.00  0.00    -0.248 NA
ATOM     63  C   UNL A   1      43.463  30.726  29.497  1.00  0.00     0.031 C 
ATOM     64  C   UNL A   1      39.560  27.933  32.584  1.00  0.00     0.029 A 
ATOM     65  C   UNL A   1      40.666  28.471  31.922  1.00  0.00     0.049 A 
ATOM     66  H   UNL A   1      41.249  28.131  29.947  1.00  0.00     0.167 HD
ATOM     67  C   UNL A   1      42.642  29.940  31.511  1.00  0.00     0.074 A 
ATOM     68  C   UNL A   1      43.016  29.639  30.132  1.00  0.00     0.031 C 
ATOM     69  C   UNL A   1      41.667  29.437  32.321  1.00  0.00     0.034 A 
BRANCH  56  70
ATOM     70  C   UNL A   1      39.585  26.870  27.945  1.00  0.00     0.023 A 
ATOM     71  C   UNL A   1      39.279  25.492  27.844  1.00  0.00     0.012 A 
ATOM     72  C   UNL A   1      40.721  27.321  27.236  1.00  0.00     0.148 A 
ATOM     73  C   UNL A   1      40.092  24.604  27.133  1.00  0.00     0.002 A 
ATOM     74  C   UNL A   1      41.493  26.446  26.478  1.00  0.00     0.091 A 
ATOM     75  F   UNL A   1      41.150  28.574  27.381  1.00  0.00    -0.205 F 
ATOM     76  C   UNL A   1      41.201  25.081  26.448  1.00  0.00     0.022 A 
BRANCH  74  77
ATOM     77  S   UNL A   1      42.928  27.006  25.549  1.00  0.00     0.127 S 
ATOM     78  O   UNL A   1      43.393  25.758  24.949  1.00  0.00    -0.237 OA
ATOM     79  O   UNL A   1      42.321  27.956  24.617  1.00  0.00    -0.237 OA
ATOM     80  O   UNL A   1      43.823  27.612  26.526  1.00  0.00    -0.744 OA
ENDBRANCH  74  77
ENDBRANCH  56  70
BRANCH  57  81
ATOM     81  C   UNL A   1      44.218  33.976  29.758  1.00  0.00     0.023 A 
ATOM     82  C   UNL A   1      45.137  34.572  30.649  1.00  0.00     0.012 A 
ATOM     83  C   UNL A   1      44.550  33.936  28.388  1.00  0.00     0.148 A 
ATOM     84  C   UNL A   1      46.369  35.064  30.197  1.00  0.00     0.002 A 
ATOM     85  C   UNL A   1      45.781  34.415  27.945  1.00  0.00     0.091 A 
ATOM     86  F   UNL A   1      43.698  33.340  27.544  1.00  0.00    -0.205 F 
ATOM     87  C   UNL A   1      46.698  34.970  28.849  1.00  0.00     0.022 A 
BRANCH  85  88
ATOM     88  S   UNL A   1      46.313  34.269  26.233  1.00  0.00     0.127 S 
ATOM     89  O   UNL A   1      47.556  35.040  26.239  1.00  0.00    -0.237 OA
ATOM     90  O   UNL A   1      46.487  32.825  26.095  1.00  0.00    -0.237 OA
ATOM     91  O   UNL A   1      45.242  34.849  25.433  1.00  0.00    -0.744 OA
ENDBRANCH  85  88
ENDBRANCH  57  81
BRANCH  69  92
ATOM     92  C   UNL A   1      41.531  30.044  33.689  1.00  0.00     0.023 A 
ATOM     93  C   UNL A   1      42.447  29.814  34.736  1.00  0.00     0.012 A 
ATOM     94  C   UNL A   1      40.491  30.964  33.881  1.00  0.00     0.148 A 
ATOM     95  C   UNL A   1      42.312  30.481  35.958  1.00  0.00     0.002 A 
ATOM     96  C   UNL A   1      40.387  31.657  35.077  1.00  0.00     0.091 A 
ATOM     97  F   UNL A   1      39.629  31.161  32.872  1.00  0.00    -0.205 F 
ATOM     98  C   UNL A   1      41.288  31.411  36.125  1.00  0.00     0.022 A 
BRANCH  96  99
ATOM     99  S   UNL A   1      39.163  32.946  35.301  1.00  0.00     0.127 S 
ATOM    100  O   UNL A   1      39.454  33.841  34.182  1.00  0.00    -0.237 OA
ATOM    101  O   UNL A   1      37.906  32.206  35.184  1.00  0.00    -0.237 OA
ATOM    102  O   UNL A   1      39.402  33.504  36.627  1.00  0.00    -0.744 OA
ENDBRANCH  96  99
ENDBRANCH  69  92
ENDBRANCH  43  44
ENDBRANCH  35  38
ENDBRANCH  33  34
ENDBRANCH  32  33
ENDBRANCH   1  32
TORSDOF 18
ENDMDL
MODEL 2
REMARK VINA RESULT:     -12.5      4.710      9.578
REMARK SMILES NS(=O)(=O)c1ccc(-n2nc(C(F)F)cc2-c2ccc(C(=O)NCCCNC(=O)c3ccc(-c4c5nc(c(-c6cccc(S(=O)(=O)[O-])c6F)c6ccc([nH]6)c(-c6cccc(S(=O)(=O)[O-])c6F)c6nc(c(-c7cccc(S(=O)(=O)[O-])c7F)c7ccc4[nH]7)C=C6)C=C5)cc3)cc2)cc1
REMARK SMILES IDX 24 1 23 2 21 3 22 4 20 6 17 7 18 8 94 9 19 10 93 11 16 12
REMARK SMILES IDX 9 13 10 14 11 15 15 16 8 17 5 18 6 19 96 20 7 21 95 22 2 23
REMARK SMILES IDX 3 24 4 25 1 26 12 29 13 30 14 31 25 32 26 33 27 34 28 35
REMARK SMILES IDX 29 37 30 38 31 39 92 40 32 41 91 42 33 43 34 44 35 45 85 46
REMARK SMILES IDX 36 47 90 48 84 49 86 50 37 51 89 52 83 53 82 54 38 56 70 57
REMARK SMILES IDX 50 58 69 59 51 60 54 61 68 62 87 63 52 64 53 65 67 67 88 68
REMARK SMILES IDX 55 69 39 70 40 71 48 72 41 73 43 74 49 75 42 76 44 77 45 78
REMARK SMILES IDX 46 79 47 80 71 81 72 82 80 83 73 84 75 85 81 86 74 87 76 88
REMARK SMILES IDX 77 89 78 90 79 91 56 92 57 93 65 94 58 95 60 96 66 97 59 98
REMARK SMILES IDX 61 99 62 100 63 101 64 102
REMARK H PARENT 23 5 1 27 1 28 27 36 86 55 54 66
REMARK Flexibility Score: inf
ROOT
ATOM      1  C   UNL A   1      37.780  20.794  25.411  1.00  0.00     0.118 C 
ENDROOT
BRANCH   1   2
ATOM      2  N   UNL A   1      38.465  22.068  25.565  1.00  0.00    -0.352 N 
ATOM      3  C   UNL A   1      38.001  23.361  25.545  1.00  0.00     0.251 C 
ATOM      4  O   UNL A   1      38.784  24.265  25.825  1.00  0.00    -0.269 OA
ATOM      5  H   UNL A   1      39.435  21.989  25.712  1.00  0.00     0.163 HD
BRANCH   3   6
ATOM      6  C   UNL A   1      36.581  23.698  25.261  1.00  0.00     0.039 A 
ATOM      7  C   UNL A   1      33.958  24.430  24.609  1.00  0.00     0.000 A 
ATOM      8  C   UNL A   1      34.851  24.061  23.597  1.00  0.00     0.011 A 
ATOM      9  C   UNL A   1      34.365  24.410  25.937  1.00  0.00     0.011 A 
ATOM     10  C   UNL A   1      36.161  23.705  23.924  1.00  0.00     0.014 A 
ATOM     11  C   UNL A   1      35.646  23.989  26.255  1.00  0.00     0.014 A 
BRANCH   7  12
ATOM     12  C   UNL A   1      32.568  24.724  24.328  1.00  0.00     0.075 A 
ATOM     13  N   UNL A   1      31.641  23.784  23.905  1.00  0.00    -0.233 N 
ATOM     14  N   UNL A   1      30.459  24.369  23.573  1.00  0.00    -0.166 NA
ATOM     15  C   UNL A   1      30.567  25.633  24.028  1.00  0.00     0.129 A 
ATOM     16  C   UNL A   1      31.883  25.910  24.460  1.00  0.00     0.060 A 
BRANCH  13  17
ATOM     17  C   UNL A   1      31.826  22.379  23.822  1.00  0.00     0.065 A 
ATOM     18  C   UNL A   1      32.419  19.661  23.666  1.00  0.00     0.082 A 
ATOM     19  C   UNL A   1      32.286  20.259  24.919  1.00  0.00     0.024 A 
ATOM     20  C   UNL A   1      32.234  20.407  22.493  1.00  0.00     0.024 A 
ATOM     21  C   UNL A   1      31.993  21.619  24.994  1.00  0.00     0.030 A 
ATOM     22  C   UNL A   1      31.907  21.765  22.571  1.00  0.00     0.030 A 
BRANCH  18  23
ATOM     23  S   UNL A   1      32.836  17.942  23.561  1.00  0.00     0.238 S 
ATOM     24  O   UNL A   1      34.185  17.770  24.067  1.00  0.00    -0.207 OA
ATOM     25  O   UNL A   1      32.427  17.469  22.267  1.00  0.00    -0.207 OA
BRANCH  23  26
ATOM     26  N   UNL A   1      31.830  17.224  24.692  1.00  0.00    -0.225 NA
ATOM     27  H   UNL A   1      31.868  17.752  25.565  1.00  0.00     0.137 HD
ATOM     28  H   UNL A   1      32.138  16.266  24.861  1.00  0.00     0.137 HD
ENDBRANCH  23  26
ENDBRANCH  18  23
ENDBRANCH  13  17
BRANCH  15  29
ATOM     29  C   UNL A   1      29.421  26.599  24.066  1.00  0.00     0.393 C 
ATOM     30  F   UNL A   1      29.662  27.728  23.349  1.00  0.00    -0.203 F 
ATOM     31  F   UNL A   1      28.280  26.050  23.564  1.00  0.00    -0.203 F 
ENDBRANCH  15  29
ENDBRANCH   7  12
ENDBRANCH   3   6
ENDBRANCH   1   2
BRANCH   1  32
ATOM     32  C   UNL A   1      38.737  19.677  24.963  1.00  0.00     0.042 C 
BRANCH  32  33
ATOM     33  C   UNL A   1      39.490  19.085  26.132  1.00  0.00     0.118 C 
BRANCH  33  34
ATOM     34  N   UNL A   1      40.895  18.825  25.799  1.00  0.00    -0.352 N 
ATOM     35  C   UNL A   1      41.943  19.723  25.745  1.00  0.00     0.251 C 
ATOM     36  H   UNL A   1      41.120  17.891  25.586  1.00  0.00     0.163 HD
ATOM     37  O   UNL A   1      42.962  19.453  25.120  1.00  0.00    -0.269 OA
BRANCH  35  38
ATOM     38  C   UNL A   1      41.808  21.001  26.464  1.00  0.00     0.039 A 
ATOM     39  C   UNL A   1      41.324  21.074  27.771  1.00  0.00     0.014 A 
ATOM     40  C   UNL A   1      42.231  22.148  25.799  1.00  0.00     0.014 A 
ATOM     41  C   UNL A   1      41.339  22.310  28.413  1.00  0.00     0.010 A 
ATOM     42  C   UNL A   1      42.479  23.287  26.506  1.00  0.00     0.010 A 
ATOM     43  C   UNL A   1      41.940  23.408  27.773  1.00  0.00    -0.014 A 
BRANCH  43  44
ATOM     44  C   UNL A   1      42.154  24.679  28.448  1.00  0.00     0.031 A 
ATOM     45  C   UNL A   1      41.009  25.602  28.276  1.00  0.00     0.074 A 
ATOM     46  C   UNL A   1      43.182  24.895  29.303  1.00  0.00     0.049 A 
ATOM     47  N   UNL A   1      40.929  26.568  27.424  1.00  0.00    -0.248 NA
ATOM     48  C   UNL A   1      39.727  25.280  28.924  1.00  0.00     0.031 C 
ATOM     49  C   UNL A   1      44.189  23.927  29.769  1.00  0.00     0.029 A 
ATOM     50  N   UNL A   1      43.485  26.002  30.034  1.00  0.00    -0.354 N 
ATOM     51  C   UNL A   1      39.704  27.174  27.681  1.00  0.00     0.074 A 
ATOM     52  C   UNL A   1      38.920  26.193  28.377  1.00  0.00     0.031 C 
ATOM     53  C   UNL A   1      44.824  24.414  30.860  1.00  0.00     0.029 A 
ATOM     54  C   UNL A   1      44.405  25.788  31.061  1.00  0.00     0.049 A 
ATOM     55  H   UNL A   1      43.087  26.884  29.853  1.00  0.00     0.167 HD
ATOM     56  C   UNL A   1      39.595  28.531  27.618  1.00  0.00     0.034 A 
ATOM     57  C   UNL A   1      44.790  26.680  32.007  1.00  0.00     0.034 A 
ATOM     58  C   UNL A   1      40.803  29.097  27.063  1.00  0.00     0.049 A 
ATOM     59  C   UNL A   1      44.515  28.020  31.452  1.00  0.00     0.074 A 
ATOM     60  C   UNL A   1      41.429  29.124  25.838  1.00  0.00     0.029 A 
ATOM     61  N   UNL A   1      41.748  29.380  28.019  1.00  0.00    -0.354 N 
ATOM     62  N   UNL A   1      45.152  28.498  30.420  1.00  0.00    -0.248 NA
ATOM     63  C   UNL A   1      43.267  28.688  31.785  1.00  0.00     0.031 C 
ATOM     64  C   UNL A   1      42.826  29.207  26.120  1.00  0.00     0.029 A 
ATOM     65  C   UNL A   1      43.008  29.298  27.501  1.00  0.00     0.049 A 
ATOM     66  H   UNL A   1      41.543  29.613  28.954  1.00  0.00     0.167 HD
ATOM     67  C   UNL A   1      44.168  29.159  29.708  1.00  0.00     0.074 A 
ATOM     68  C   UNL A   1      43.103  29.412  30.674  1.00  0.00     0.031 C 
ATOM     69  C   UNL A   1      44.173  29.137  28.344  1.00  0.00     0.034 A 
BRANCH  56  70
ATOM     70  C   UNL A   1      38.697  29.403  28.479  1.00  0.00     0.023 A 
ATOM     71  C   UNL A   1      38.850  29.269  29.880  1.00  0.00     0.012 A 
ATOM     72  C   UNL A   1      37.549  30.093  28.031  1.00  0.00     0.148 A 
ATOM     73  C   UNL A   1      37.886  29.738  30.778  1.00  0.00     0.002 A 
ATOM     74  C   UNL A   1      36.622  30.613  28.929  1.00  0.00     0.091 A 
ATOM     75  F   UNL A   1      37.265  30.151  26.730  1.00  0.00    -0.205 F 
ATOM     76  C   UNL A   1      36.770  30.412  30.302  1.00  0.00     0.022 A 
BRANCH  74  77
ATOM     77  S   UNL A   1      35.168  31.517  28.376  1.00  0.00     0.127 S 
ATOM     78  O   UNL A   1      34.603  31.965  29.647  1.00  0.00    -0.237 OA
ATOM     79  O   UNL A   1      35.770  32.569  27.558  1.00  0.00    -0.237 OA
ATOM     80  O   UNL A   1      34.364  30.559  27.628  1.00  0.00    -0.744 OA
ENDBRANCH  74  77
ENDBRANCH  56  70
BRANCH  57  81
ATOM     81  C   UNL A   1      45.221  26.513  33.414  1.00  0.00     0.023 A 
ATOM     82  C   UNL A   1      46.395  27.147  33.877  1.00  0.00     0.012 A 
ATOM     83  C   UNL A   1      44.308  26.023  34.371  1.00  0.00     0.148 A 
ATOM     84  C   UNL A   1      46.626  27.333  35.246  1.00  0.00     0.002 A 
ATOM     85  C   UNL A   1      44.536  26.221  35.731  1.00  0.00     0.091 A 
ATOM     86  F   UNL A   1      43.176  25.453  33.937  1.00  0.00    -0.205 F 
ATOM     87  C   UNL A   1      45.689  26.886  36.172  1.00  0.00     0.022 A 
BRANCH  85  88
ATOM     88  S   UNL A   1      43.345  25.737  36.988  1.00  0.00     0.127 S 
ATOM     89  O   UNL A   1      44.182  24.978  37.918  1.00  0.00    -0.237 OA
ATOM     90  O   UNL A   1      42.893  27.034  37.489  1.00  0.00    -0.237 OA
ATOM     91  O   UNL A   1      42.335  24.948  36.296  1.00  0.00    -0.744 OA
ENDBRANCH  85  88
ENDBRANCH  57  81
BRANCH  69  92
ATOM     92  C   UNL A   1      45.465  28.768  27.670  1.00  0.00     0.023 A 
ATOM     93  C   UNL A   1      46.592  29.615  27.633  1.00  0.00     0.012 A 
ATOM     94  C   UNL A   1      45.567  27.471  27.148  1.00  0.00     0.148 A 
ATOM     95  C   UNL A   1      47.793  29.176  27.067  1.00  0.00     0.002 A 
ATOM     96  C   UNL A   1      46.772  27.023  26.629  1.00  0.00     0.091 A 
ATOM     97  F   UNL A   1      44.480  26.686  27.191  1.00  0.00    -0.205 F 
ATOM     98  C   UNL A   1      47.886  27.875  26.575  1.00  0.00     0.022 A 
BRANCH  96  99
ATOM     99  S   UNL A   1      46.980  25.326  26.093  1.00  0.00     0.127 S 
ATOM    100  O   UNL A   1      46.336  25.340  24.780  1.00  0.00    -0.237 OA
ATOM    101  O   UNL A   1      48.436  25.187  26.060  1.00  0.00    -0.237 OA
ATOM    102  O   UNL A   1      46.327  24.501  27.102  1.00  0.00    -0.744 OA
ENDBRANCH  96  99
ENDBRANCH  69  92
ENDBRANCH  43  44
ENDBRANCH  35  38
ENDBRANCH  33  34
ENDBRANCH  32  33
ENDBRANCH   1  32
TORSDOF 18
ENDMDL
MODEL 3
REMARK VINA RESULT:     -12.0      1.861      2.228
REMARK SMILES NS(=O)(=O)c1ccc(-n2nc(C(F)F)cc2-c2ccc(C(=O)NCCCNC(=O)c3ccc(-c4c5nc(c(-c6cccc(S(=O)(=O)[O-])c6F)c6ccc([nH]6)c(-c6cccc(S(=O)(=O)[O-])c6F)c6nc(c(-c7cccc(S(=O)(=O)[O-])c7F)c7ccc4[nH]7)C=C6)C=C5)cc3)cc2)cc1
REMARK SMILES IDX 24 1 23 2 21 3 22 4 20 6 17 7 18 8 94 9 19 10 93 11 16 12
REMARK SMILES IDX 9 13 10 14 11 15 15 16 8 17 5 18 6 19 96 20 7 21 95 22 2 23
REMARK SMILES IDX 3 24 4 25 1 26 12 29 13 30 14 31 25 32 26 33 27 34 28 35
REMARK SMILES IDX 29 37 30 38 31 39 92 40 32 41 91 42 33 43 34 44 35 45 85 46
REMARK SMILES IDX 36 47 90 48 84 49 86 50 37 51 89 52 83 53 82 54 38 56 70 57
REMARK SMILES IDX 50 58 69 59 51 60 54 61 68 62 87 63 52 64 53 65 67 67 88 68
REMARK SMILES IDX 55 69 39 70 40 71 48 72 41 73 43 74 49 75 42 76 44 77 45 78
REMARK SMILES IDX 46 79 47 80 71 81 72 82 80 83 73 84 75 85 81 86 74 87 76 88
REMARK SMILES IDX 77 89 78 90 79 91 56 92 57 93 65 94 58 95 60 96 66 97 59 98
REMARK SMILES IDX 61 99 62 100 63 101 64 102
REMARK H PARENT 23 5 1 27 1 28 27 36 86 55 54 66
REMARK Flexibility Score: inf
ROOT
ATOM      1  C   UNL A   1      31.973  31.435  26.732  1.00  0.00     0.118 C 
ENDROOT
BRANCH   1   2
ATOM      2  N   UNL A   1      33.170  31.077  27.478  1.00  0.00    -0.352 N 
ATOM      3  C   UNL A   1      33.882  29.904  27.552  1.00  0.00     0.251 C 
ATOM      4  O   UNL A   1      34.942  29.904  28.173  1.00  0.00    -0.269 OA
ATOM      5  H   UNL A   1      33.537  31.807  28.027  1.00  0.00     0.163 HD
BRANCH   3   6
ATOM      6  C   UNL A   1      33.452  28.662  26.858  1.00  0.00     0.039 A 
ATOM      7  C   UNL A   1      32.609  26.257  25.697  1.00  0.00     0.000 A 
ATOM      8  C   UNL A   1      31.829  26.864  26.686  1.00  0.00     0.011 A 
ATOM      9  C   UNL A   1      33.787  26.859  25.273  1.00  0.00     0.011 A 
ATOM     10  C   UNL A   1      32.256  28.058  27.271  1.00  0.00     0.014 A 
ATOM     11  C   UNL A   1      34.165  28.079  25.811  1.00  0.00     0.014 A 
BRANCH   7  12
ATOM     12  C   UNL A   1      32.166  25.066  25.002  1.00  0.00     0.075 A 
ATOM     13  N   UNL A   1      31.102  25.028  24.115  1.00  0.00    -0.233 N 
ATOM     14  N   UNL A   1      30.818  23.753  23.734  1.00  0.00    -0.166 NA
ATOM     15  C   UNL A   1      31.862  23.027  24.183  1.00  0.00     0.129 A 
ATOM     16  C   UNL A   1      32.698  23.796  25.021  1.00  0.00     0.060 A 
BRANCH  13  17
ATOM     17  C   UNL A   1      30.369  26.136  23.612  1.00  0.00     0.065 A 
ATOM     18  C   UNL A   1      29.012  28.432  22.809  1.00  0.00     0.082 A 
ATOM     19  C   UNL A   1      30.324  28.232  22.382  1.00  0.00     0.024 A 
ATOM     20  C   UNL A   1      28.367  27.481  23.614  1.00  0.00     0.024 A 
ATOM     21  C   UNL A   1      31.002  27.084  22.788  1.00  0.00     0.030 A 
ATOM     22  C   UNL A   1      29.038  26.314  23.994  1.00  0.00     0.030 A 
BRANCH  18  23
ATOM     23  S   UNL A   1      28.156  29.909  22.335  1.00  0.00     0.238 S 
ATOM     24  O   UNL A   1      26.994  30.057  23.192  1.00  0.00    -0.207 OA
ATOM     25  O   UNL A   1      28.068  29.926  20.900  1.00  0.00    -0.207 OA
BRANCH  23  26
ATOM     26  N   UNL A   1      29.210  31.134  22.781  1.00  0.00    -0.225 NA
ATOM     27  H   UNL A   1      30.167  30.780  22.770  1.00  0.00     0.137 HD
ATOM     28  H   UNL A   1      28.978  31.456  23.721  1.00  0.00     0.137 HD
ENDBRANCH  23  26
ENDBRANCH  18  23
ENDBRANCH  13  17
BRANCH  15  29
ATOM     29  C   UNL A   1      32.084  21.590  23.819  1.00  0.00     0.393 C 
ATOM     30  F   UNL A   1      33.378  21.325  23.495  1.00  0.00    -0.203 F 
ATOM     31  F   UNL A   1      31.754  20.752  24.840  1.00  0.00    -0.203 F 
ENDBRANCH  15  29
ENDBRANCH   7  12
ENDBRANCH   3   6
ENDBRANCH   1   2
BRANCH   1  32
ATOM     32  C   UNL A   1      31.472  32.843  27.092  1.00  0.00     0.042 C 
BRANCH  32  33
ATOM     33  C   UNL A   1      32.595  33.855  27.085  1.00  0.00     0.118 C 
BRANCH  33  34
ATOM     34  N   UNL A   1      32.579  34.695  28.288  1.00  0.00    -0.352 N 
ATOM     35  C   UNL A   1      33.344  34.570  29.431  1.00  0.00     0.251 C 
ATOM     36  H   UNL A   1      31.941  35.444  28.279  1.00  0.00     0.163 HD
ATOM     37  O   UNL A   1      32.990  35.100  30.477  1.00  0.00    -0.269 OA
BRANCH  35  38
ATOM     38  C   UNL A   1      34.594  33.797  29.356  1.00  0.00     0.039 A 
ATOM     39  C   UNL A   1      35.500  33.943  28.303  1.00  0.00     0.014 A 
ATOM     40  C   UNL A   1      34.868  32.934  30.413  1.00  0.00     0.014 A 
ATOM     41  C   UNL A   1      36.709  33.257  28.373  1.00  0.00     0.010 A 
ATOM     42  C   UNL A   1      36.138  32.473  30.598  1.00  0.00     0.010 A 
ATOM     43  C   UNL A   1      37.025  32.538  29.540  1.00  0.00    -0.014 A 
BRANCH  43  44
ATOM     44  C   UNL A   1      38.337  31.949  29.759  1.00  0.00     0.031 A 
ATOM     45  C   UNL A   1      38.407  30.550  29.280  1.00  0.00     0.074 A 
ATOM     46  C   UNL A   1      39.412  32.671  30.153  1.00  0.00     0.049 A 
ATOM     47  N   UNL A   1      38.293  29.489  30.005  1.00  0.00    -0.248 NA
ATOM     48  C   UNL A   1      38.341  30.285  27.833  1.00  0.00     0.031 C 
ATOM     49  C   UNL A   1      39.501  34.127  30.351  1.00  0.00     0.029 A 
ATOM     50  N   UNL A   1      40.698  32.273  30.356  1.00  0.00    -0.354 N 
ATOM     51  C   UNL A   1      38.483  28.428  29.125  1.00  0.00     0.074 A 
ATOM     52  C   UNL A   1      38.218  28.954  27.815  1.00  0.00     0.031 C 
ATOM     53  C   UNL A   1      40.799  34.505  30.405  1.00  0.00     0.029 A 
ATOM     54  C   UNL A   1      41.625  33.315  30.431  1.00  0.00     0.049 A 
ATOM     55  H   UNL A   1      40.955  31.326  30.442  1.00  0.00     0.167 HD
ATOM     56  C   UNL A   1      39.188  27.334  29.527  1.00  0.00     0.034 A 
ATOM     57  C   UNL A   1      42.974  33.198  30.507  1.00  0.00     0.034 A 
ATOM     58  C   UNL A   1      39.444  27.408  30.947  1.00  0.00     0.049 A 
ATOM     59  C   UNL A   1      43.246  31.850  31.045  1.00  0.00     0.074 A 
ATOM     60  C   UNL A   1      38.709  27.318  32.107  1.00  0.00     0.029 A 
ATOM     61  N   UNL A   1      40.612  28.067  31.246  1.00  0.00    -0.354 N 
ATOM     62  N   UNL A   1      42.922  31.498  32.257  1.00  0.00    -0.248 NA
ATOM     63  C   UNL A   1      43.523  30.758  30.125  1.00  0.00     0.031 C 
ATOM     64  C   UNL A   1      39.378  28.149  33.054  1.00  0.00     0.029 A 
ATOM     65  C   UNL A   1      40.536  28.666  32.470  1.00  0.00     0.049 A 
ATOM     66  H   UNL A   1      41.399  28.103  30.654  1.00  0.00     0.167 HD
ATOM     67  C   UNL A   1      42.475  30.197  32.109  1.00  0.00     0.074 A 
ATOM     68  C   UNL A   1      43.048  29.738  30.847  1.00  0.00     0.031 C 
ATOM     69  C   UNL A   1      41.424  29.743  32.851  1.00  0.00     0.034 A 
BRANCH  56  70
ATOM     70  C   UNL A   1      40.088  26.473  28.656  1.00  0.00     0.023 A 
ATOM     71  C   UNL A   1      41.094  27.153  27.930  1.00  0.00     0.012 A 
ATOM     72  C   UNL A   1      39.830  25.136  28.282  1.00  0.00     0.148 A 
ATOM     73  C   UNL A   1      41.759  26.558  26.853  1.00  0.00     0.002 A 
ATOM     74  C   UNL A   1      40.537  24.525  27.250  1.00  0.00     0.091 A 
ATOM     75  F   UNL A   1      38.813  24.468  28.828  1.00  0.00    -0.205 F 
ATOM     76  C   UNL A   1      41.481  25.241  26.513  1.00  0.00     0.022 A 
BRANCH  74  77
ATOM     77  S   UNL A   1      40.240  22.815  26.776  1.00  0.00     0.127 S 
ATOM     78  O   UNL A   1      38.893  22.897  26.217  1.00  0.00    -0.237 OA
ATOM     79  O   UNL A   1      41.306  22.592  25.801  1.00  0.00    -0.237 OA
ATOM     80  O   UNL A   1      40.372  22.035  28.000  1.00  0.00    -0.744 OA
ENDBRANCH  74  77
ENDBRANCH  56  70
BRANCH  57  81
ATOM     81  C   UNL A   1      44.075  34.057  30.014  1.00  0.00     0.023 A 
ATOM     82  C   UNL A   1      44.654  33.812  28.749  1.00  0.00     0.012 A 
ATOM     83  C   UNL A   1      44.315  35.304  30.625  1.00  0.00     0.148 A 
ATOM     84  C   UNL A   1      45.404  34.796  28.093  1.00  0.00     0.002 A 
ATOM     85  C   UNL A   1      45.052  36.285  29.964  1.00  0.00     0.091 A 
ATOM     86  F   UNL A   1      43.739  35.555  31.808  1.00  0.00    -0.205 F 
ATOM     87  C   UNL A   1      45.588  36.038  28.692  1.00  0.00     0.022 A 
BRANCH  85  88
ATOM     88  S   UNL A   1      45.278  37.938  30.635  1.00  0.00     0.127 S 
ATOM     89  O   UNL A   1      43.895  38.400  30.764  1.00  0.00    -0.237 OA
ATOM     90  O   UNL A   1      45.951  37.658  31.902  1.00  0.00    -0.237 OA
ATOM     91  O   UNL A   1      46.072  38.662  29.651  1.00  0.00    -0.744 OA
ENDBRANCH  85  88
ENDBRANCH  57  81
BRANCH  69  92
ATOM     92  C   UNL A   1      41.073  30.519  34.089  1.00  0.00     0.023 A 
ATOM     93  C   UNL A   1      41.878  30.539  35.248  1.00  0.00     0.012 A 
ATOM     94  C   UNL A   1      39.938  31.339  34.031  1.00  0.00     0.148 A 
ATOM     95  C   UNL A   1      41.539  31.353  36.334  1.00  0.00     0.002 A 
ATOM     96  C   UNL A   1      39.631  32.178  35.091  1.00  0.00     0.091 A 
ATOM     97  F   UNL A   1      39.187  31.298  32.920  1.00  0.00    -0.205 F 
ATOM     98  C   UNL A   1      40.421  32.181  36.250  1.00  0.00     0.022 A 
BRANCH  96  99
ATOM     99  S   UNL A   1      38.276  33.347  34.989  1.00  0.00     0.127 S 
ATOM    100  O   UNL A   1      37.113  32.482  35.178  1.00  0.00    -0.237 OA
ATOM    101  O   UNL A   1      38.559  34.248  36.106  1.00  0.00    -0.237 OA
ATOM    102  O   UNL A   1      38.383  33.974  33.677  1.00  0.00    -0.744 OA
ENDBRANCH  96  99
ENDBRANCH  69  92
ENDBRANCH  43  44
ENDBRANCH  35  38
ENDBRANCH  33  34
ENDBRANCH  32  33
ENDBRANCH   1  32
TORSDOF 18
ENDMDL
