MODEL 1
REMARK VINA RESULT:     -11.8      0.000      0.000
REMARK SMILES O=C(NCc1ccsc1)NC[C@H]1CC[C@@H](C(=O)NCCCNC(=O)c2ccc(-c3c4nc(c(-c5cccc(S(=O)(=O)[O-])c5F)c5ccc([nH]5)c(-c5cccc(S(=O)(=O)[O-])c5F)c5nc(c(-c6cccc(S(=O)(=O)[O-])c6F)c6ccc3[nH]6)C=C5)C=C4)cc2)CC1
REMARK SMILES IDX 19 1 18 2 16 3 17 4 15 6 12 7 13 8 89 9 14 10 88 11 11 12
REMARK SMILES IDX 10 13 1 14 2 15 3 16 4 19 5 20 6 21 9 22 7 23 8 24 20 25
REMARK SMILES IDX 21 26 22 27 23 28 24 30 25 31 26 32 87 33 27 34 86 35 28 36
REMARK SMILES IDX 29 37 30 38 80 39 31 40 85 41 79 42 81 43 32 44 84 45 78 46
REMARK SMILES IDX 77 47 33 49 65 50 45 51 64 52 46 53 49 54 63 55 82 56 47 57
REMARK SMILES IDX 48 58 62 60 83 61 50 62 34 63 35 64 43 65 36 66 38 67 44 68
REMARK SMILES IDX 37 69 39 70 40 71 41 72 42 73 66 74 67 75 75 76 68 77 70 78
REMARK SMILES IDX 76 79 69 80 71 81 72 82 73 83 74 84 51 85 52 86 60 87 53 88
REMARK SMILES IDX 55 89 61 90 54 91 56 92 57 93 58 94 59 95
REMARK H PARENT 18 5 3 17 10 18 22 29 81 48 49 59
REMARK Flexibility Score: inf
ROOT
ATOM      1  C   UNL A   1      31.653  30.725  26.382  1.00  0.00     0.117 C 
ENDROOT
BRANCH   1   2
ATOM      2  N   UNL A   1      31.105  30.245  25.140  1.00  0.00    -0.356 N 
ATOM      3  C   UNL A   1      31.603  29.381  24.223  1.00  0.00     0.223 C 
ATOM      4  O   UNL A   1      30.844  29.081  23.293  1.00  0.00    -0.275 OA
ATOM      5  H   UNL A   1      30.216  30.607  24.918  1.00  0.00     0.163 HD
BRANCH   3   6
ATOM      6  C   UNL A   1      33.022  28.783  24.260  1.00  0.00     0.078 C 
ATOM      7  C   UNL A   1      33.730  25.937  23.467  1.00  0.00     0.008 C 
ATOM      8  C   UNL A   1      33.726  27.062  22.413  1.00  0.00     0.006 C 
ATOM      9  C   UNL A   1      33.063  26.277  24.808  1.00  0.00     0.006 C 
ATOM     10  C   UNL A   1      33.719  28.501  22.930  1.00  0.00     0.014 C 
ATOM     11  C   UNL A   1      33.242  27.698  25.304  1.00  0.00     0.014 C 
BRANCH   7  12
ATOM     12  C   UNL A   1      33.109  24.652  22.855  1.00  0.00     0.121 C 
BRANCH  12  13
ATOM     13  N   UNL A   1      33.327  23.477  23.678  1.00  0.00    -0.338 N 
ATOM     14  O   UNL A   1      35.453  23.067  22.965  1.00  0.00    -0.249 OA
ATOM     15  C   UNL A   1      34.475  22.744  23.627  1.00  0.00     0.315 C 
ATOM     16  N   UNL A   1      34.498  21.585  24.325  1.00  0.00    -0.334 N 
ATOM     17  H   UNL A   1      35.318  21.055  24.201  1.00  0.00     0.165 HD
ATOM     18  H   UNL A   1      32.615  23.198  24.298  1.00  0.00     0.165 HD
BRANCH  16  19
ATOM     19  C   UNL A   1      33.534  20.987  25.221  1.00  0.00     0.154 C 
BRANCH  19  20
ATOM     20  C   UNL A   1      33.592  19.499  25.102  1.00  0.00    -0.018 A 
ATOM     21  C   UNL A   1      32.619  18.618  25.676  1.00  0.00     0.017 A 
ATOM     22  C   UNL A   1      34.551  18.774  24.415  1.00  0.00     0.070 A 
ATOM     23  C   UNL A   1      32.864  17.291  25.403  1.00  0.00     0.065 A 
ATOM     24  S   UNL A   1      34.265  17.086  24.450  1.00  0.00    -0.152 S 
ENDBRANCH  19  20
ENDBRANCH  16  19
ENDBRANCH  12  13
ENDBRANCH   7  12
ENDBRANCH   3   6
ENDBRANCH   1   2
BRANCH   1  25
ATOM     25  C   UNL A   1      31.573  32.231  26.534  1.00  0.00     0.042 C 
BRANCH  25  26
ATOM     26  C   UNL A   1      32.784  32.850  27.200  1.00  0.00     0.118 C 
BRANCH  26  27
ATOM     27  N   UNL A   1      32.545  34.208  27.683  1.00  0.00    -0.352 N 
ATOM     28  C   UNL A   1      33.090  34.900  28.739  1.00  0.00     0.251 C 
ATOM     29  H   UNL A   1      31.881  34.715  27.162  1.00  0.00     0.163 HD
ATOM     30  O   UNL A   1      32.621  35.997  29.038  1.00  0.00    -0.269 OA
BRANCH  28  31
ATOM     31  C   UNL A   1      34.229  34.347  29.505  1.00  0.00     0.039 A 
ATOM     32  C   UNL A   1      33.981  33.599  30.660  1.00  0.00     0.014 A 
ATOM     33  C   UNL A   1      35.544  34.581  29.108  1.00  0.00     0.014 A 
ATOM     34  C   UNL A   1      35.049  33.042  31.370  1.00  0.00     0.010 A 
ATOM     35  C   UNL A   1      36.588  33.905  29.722  1.00  0.00     0.010 A 
ATOM     36  C   UNL A   1      36.360  33.158  30.884  1.00  0.00    -0.014 A 
BRANCH  36  37
ATOM     37  C   UNL A   1      37.520  32.546  31.581  1.00  0.00     0.031 A 
ATOM     38  C   UNL A   1      38.280  31.419  30.925  1.00  0.00     0.074 A 
ATOM     39  C   UNL A   1      37.830  32.933  32.834  1.00  0.00     0.049 A 
ATOM     40  N   UNL A   1      39.259  30.695  31.402  1.00  0.00    -0.248 NA
ATOM     41  C   UNL A   1      37.857  31.021  29.569  1.00  0.00     0.031 C 
ATOM     42  C   UNL A   1      37.113  33.949  33.610  1.00  0.00     0.029 A 
ATOM     43  N   UNL A   1      38.813  32.499  33.687  1.00  0.00    -0.354 N 
ATOM     44  C   UNL A   1      39.528  29.733  30.434  1.00  0.00     0.074 A 
ATOM     45  C   UNL A   1      38.576  29.929  29.366  1.00  0.00     0.031 C 
ATOM     46  C   UNL A   1      37.695  34.076  34.814  1.00  0.00     0.029 A 
ATOM     47  C   UNL A   1      38.796  33.124  34.912  1.00  0.00     0.049 A 
ATOM     48  H   UNL A   1      39.469  31.806  33.445  1.00  0.00     0.167 HD
ATOM     49  C   UNL A   1      40.504  28.795  30.413  1.00  0.00     0.034 A 
ATOM     50  C   UNL A   1      39.577  32.945  35.995  1.00  0.00     0.034 A 
ATOM     51  C   UNL A   1      41.484  28.646  31.452  1.00  0.00     0.049 A 
ATOM     52  C   UNL A   1      40.689  31.933  35.928  1.00  0.00     0.074 A 
ATOM     53  C   UNL A   1      42.576  27.798  31.489  1.00  0.00     0.029 A 
ATOM     54  N   UNL A   1      41.491  29.361  32.639  1.00  0.00    -0.354 N 
ATOM     55  N   UNL A   1      41.024  31.138  34.938  1.00  0.00    -0.248 NA
ATOM     56  C   UNL A   1      41.553  31.816  37.110  1.00  0.00     0.031 C 
ATOM     57  C   UNL A   1      43.226  27.979  32.714  1.00  0.00     0.029 A 
ATOM     58  C   UNL A   1      42.561  28.968  33.422  1.00  0.00     0.049 A 
ATOM     59  H   UNL A   1      40.830  30.047  32.888  1.00  0.00     0.167 HD
ATOM     60  C   UNL A   1      42.160  30.458  35.363  1.00  0.00     0.074 A 
ATOM     61  C   UNL A   1      42.466  30.949  36.692  1.00  0.00     0.031 C 
ATOM     62  C   UNL A   1      42.879  29.506  34.719  1.00  0.00     0.034 A 
BRANCH  49  63
ATOM     63  C   UNL A   1      40.590  27.896  29.206  1.00  0.00     0.023 A 
ATOM     64  C   UNL A   1      39.726  26.785  29.097  1.00  0.00     0.012 A 
ATOM     65  C   UNL A   1      41.491  28.173  28.158  1.00  0.00     0.148 A 
ATOM     66  C   UNL A   1      39.787  25.941  27.988  1.00  0.00     0.002 A 
ATOM     67  C   UNL A   1      41.509  27.358  27.032  1.00  0.00     0.091 A 
ATOM     68  F   UNL A   1      42.317  29.220  28.286  1.00  0.00    -0.205 F 
ATOM     69  C   UNL A   1      40.670  26.233  26.953  1.00  0.00     0.022 A 
BRANCH  67  70
ATOM     70  S   UNL A   1      42.547  27.695  25.606  1.00  0.00     0.127 S 
ATOM     71  O   UNL A   1      41.972  28.945  25.112  1.00  0.00    -0.237 OA
ATOM     72  O   UNL A   1      43.870  27.832  26.216  1.00  0.00    -0.237 OA
ATOM     73  O   UNL A   1      42.401  26.548  24.720  1.00  0.00    -0.744 OA
ENDBRANCH  67  70
ENDBRANCH  49  63
BRANCH  50  74
ATOM     74  C   UNL A   1      39.379  33.786  37.209  1.00  0.00     0.023 A 
ATOM     75  C   UNL A   1      39.843  35.116  37.212  1.00  0.00     0.012 A 
ATOM     76  C   UNL A   1      38.719  33.288  38.349  1.00  0.00     0.148 A 
ATOM     77  C   UNL A   1      39.692  35.922  38.342  1.00  0.00     0.002 A 
ATOM     78  C   UNL A   1      38.526  34.112  39.452  1.00  0.00     0.091 A 
ATOM     79  F   UNL A   1      38.262  32.029  38.317  1.00  0.00    -0.205 F 
ATOM     80  C   UNL A   1      39.031  35.421  39.459  1.00  0.00     0.022 A 
BRANCH  78  81
ATOM     81  S   UNL A   1      37.598  33.589  40.897  1.00  0.00     0.127 S 
ATOM     82  O   UNL A   1      37.479  34.832  41.654  1.00  0.00    -0.237 OA
ATOM     83  O   UNL A   1      36.355  33.109  40.293  1.00  0.00    -0.237 OA
ATOM     84  O   UNL A   1      38.401  32.556  41.537  1.00  0.00    -0.744 OA
ENDBRANCH  78  81
ENDBRANCH  50  74
BRANCH  62  85
ATOM     85  C   UNL A   1      44.100  28.962  35.414  1.00  0.00     0.023 A 
ATOM     86  C   UNL A   1      45.352  29.580  35.227  1.00  0.00     0.012 A 
ATOM     87  C   UNL A   1      43.984  27.885  36.314  1.00  0.00     0.148 A 
ATOM     88  C   UNL A   1      46.478  29.109  35.900  1.00  0.00     0.002 A 
ATOM     89  C   UNL A   1      45.100  27.457  37.021  1.00  0.00     0.091 A 
ATOM     90  F   UNL A   1      42.786  27.302  36.464  1.00  0.00    -0.205 F 
ATOM     91  C   UNL A   1      46.351  28.059  36.805  1.00  0.00     0.022 A 
BRANCH  89  92
ATOM     92  S   UNL A   1      45.009  26.182  38.283  1.00  0.00     0.127 S 
ATOM     93  O   UNL A   1      46.409  26.067  38.689  1.00  0.00    -0.237 OA
ATOM     94  O   UNL A   1      44.133  26.797  39.280  1.00  0.00    -0.237 OA
ATOM     95  O   UNL A   1      44.451  25.006  37.629  1.00  0.00    -0.744 OA
ENDBRANCH  89  92
ENDBRANCH  62  85
ENDBRANCH  36  37
ENDBRANCH  28  31
ENDBRANCH  26  27
ENDBRANCH  25  26
ENDBRANCH   1  25
TORSDOF 17
ENDMDL
MODEL 2
REMARK VINA RESULT:     -11.8      0.979      7.857
REMARK SMILES O=C(NCc1ccsc1)NC[C@H]1CC[C@@H](C(=O)NCCCNC(=O)c2ccc(-c3c4nc(c(-c5cccc(S(=O)(=O)[O-])c5F)c5ccc([nH]5)c(-c5cccc(S(=O)(=O)[O-])c5F)c5nc(c(-c6cccc(S(=O)(=O)[O-])c6F)c6ccc3[nH]6)C=C5)C=C4)cc2)CC1
REMARK SMILES IDX 19 1 18 2 16 3 17 4 15 6 12 7 13 8 89 9 14 10 88 11 11 12
REMARK SMILES IDX 10 13 1 14 2 15 3 16 4 19 5 20 6 21 9 22 7 23 8 24 20 25
REMARK SMILES IDX 21 26 22 27 23 28 24 30 25 31 26 32 87 33 27 34 86 35 28 36
REMARK SMILES IDX 29 37 30 38 80 39 31 40 85 41 79 42 81 43 32 44 84 45 78 46
REMARK SMILES IDX 77 47 33 49 65 50 45 51 64 52 46 53 49 54 63 55 82 56 47 57
REMARK SMILES IDX 48 58 62 60 83 61 50 62 34 63 35 64 43 65 36 66 38 67 44 68
REMARK SMILES IDX 37 69 39 70 40 71 41 72 42 73 66 74 67 75 75 76 68 77 70 78
REMARK SMILES IDX 76 79 69 80 71 81 72 82 73 83 74 84 51 85 52 86 60 87 53 88
REMARK SMILES IDX 55 89 61 90 54 91 56 92 57 93 58 94 59 95
REMARK H PARENT 18 5 3 17 10 18 22 29 81 48 49 59
REMARK Flexibility Score: inf
ROOT
ATOM      1  C   UNL A   1      31.651  30.966  26.781  1.00  0.00     0.117 C 
ENDROOT
BRANCH   1   2
ATOM      2  N   UNL A   1      31.738  30.365  25.476  1.00  0.00    -0.356 N 
ATOM      3  C   UNL A   1      32.036  29.099  25.098  1.00  0.00     0.223 C 
ATOM      4  O   UNL A   1      31.929  28.856  23.889  1.00  0.00    -0.275 OA
ATOM      5  H   UNL A   1      31.549  30.980  24.730  1.00  0.00     0.163 HD
BRANCH   3   6
ATOM      6  C   UNL A   1      32.502  27.985  26.052  1.00  0.00     0.078 C 
ATOM      7  C   UNL A   1      32.183  25.008  25.536  1.00  0.00     0.008 C 
ATOM      8  C   UNL A   1      33.439  25.754  25.043  1.00  0.00     0.006 C 
ATOM      9  C   UNL A   1      31.015  25.895  25.991  1.00  0.00     0.006 C 
ATOM     10  C   UNL A   1      33.705  27.138  25.637  1.00  0.00     0.014 C 
ATOM     11  C   UNL A   1      31.388  27.179  26.704  1.00  0.00     0.014 C 
BRANCH   7  12
ATOM     12  C   UNL A   1      31.718  24.002  24.447  1.00  0.00     0.121 C 
BRANCH  12  13
ATOM     13  N   UNL A   1      32.296  22.682  24.620  1.00  0.00    -0.338 N 
ATOM     14  O   UNL A   1      32.374  22.154  22.404  1.00  0.00    -0.249 OA
ATOM     15  C   UNL A   1      32.532  21.837  23.576  1.00  0.00     0.315 C 
ATOM     16  N   UNL A   1      32.925  20.580  23.877  1.00  0.00    -0.334 N 
ATOM     17  H   UNL A   1      33.014  19.986  23.097  1.00  0.00     0.165 HD
ATOM     18  H   UNL A   1      32.526  22.384  25.530  1.00  0.00     0.165 HD
BRANCH  16  19
ATOM     19  C   UNL A   1      33.241  19.951  25.140  1.00  0.00     0.154 C 
BRANCH  19  20
ATOM     20  C   UNL A   1      33.308  18.470  24.962  1.00  0.00    -0.018 A 
ATOM     21  C   UNL A   1      34.159  17.822  24.009  1.00  0.00     0.017 A 
ATOM     22  C   UNL A   1      32.598  17.529  25.689  1.00  0.00     0.070 A 
ATOM     23  C   UNL A   1      34.074  16.448  24.053  1.00  0.00     0.065 A 
ATOM     24  S   UNL A   1      32.972  15.918  25.243  1.00  0.00    -0.152 S 
ENDBRANCH  19  20
ENDBRANCH  16  19
ENDBRANCH  12  13
ENDBRANCH   7  12
ENDBRANCH   3   6
ENDBRANCH   1   2
BRANCH   1  25
ATOM     25  C   UNL A   1      31.590  32.481  26.745  1.00  0.00     0.042 C 
BRANCH  25  26
ATOM     26  C   UNL A   1      32.844  33.162  27.252  1.00  0.00     0.118 C 
BRANCH  26  27
ATOM     27  N   UNL A   1      32.578  34.433  27.922  1.00  0.00    -0.352 N 
ATOM     28  C   UNL A   1      33.106  34.975  29.070  1.00  0.00     0.251 C 
ATOM     29  H   UNL A   1      31.907  34.997  27.476  1.00  0.00     0.163 HD
ATOM     30  O   UNL A   1      32.616  36.010  29.520  1.00  0.00    -0.269 OA
BRANCH  28  31
ATOM     31  C   UNL A   1      34.253  34.339  29.756  1.00  0.00     0.039 A 
ATOM     32  C   UNL A   1      34.019  33.508  30.856  1.00  0.00     0.014 A 
ATOM     33  C   UNL A   1      35.562  34.574  29.339  1.00  0.00     0.014 A 
ATOM     34  C   UNL A   1      35.093  32.874  31.488  1.00  0.00     0.010 A 
ATOM     35  C   UNL A   1      36.606  33.829  29.866  1.00  0.00     0.010 A 
ATOM     36  C   UNL A   1      36.393  32.998  30.973  1.00  0.00    -0.014 A 
BRANCH  36  37
ATOM     37  C   UNL A   1      37.556  32.308  31.584  1.00  0.00     0.031 A 
ATOM     38  C   UNL A   1      38.111  32.794  32.901  1.00  0.00     0.074 A 
ATOM     39  C   UNL A   1      38.171  31.312  30.916  1.00  0.00     0.049 A 
ATOM     40  N   UNL A   1      39.170  32.388  33.553  1.00  0.00    -0.248 NA
ATOM     41  C   UNL A   1      37.410  33.916  33.553  1.00  0.00     0.031 C 
ATOM     42  C   UNL A   1      37.786  30.812  29.594  1.00  0.00     0.029 A 
ATOM     43  N   UNL A   1      39.269  30.557  31.247  1.00  0.00    -0.354 N 
ATOM     44  C   UNL A   1      39.288  33.232  34.652  1.00  0.00     0.074 A 
ATOM     45  C   UNL A   1      38.227  34.207  34.553  1.00  0.00     0.031 C 
ATOM     46  C   UNL A   1      38.618  29.821  29.237  1.00  0.00     0.029 A 
ATOM     47  C   UNL A   1      39.620  29.641  30.282  1.00  0.00     0.049 A 
ATOM     48  H   UNL A   1      39.759  30.662  32.094  1.00  0.00     0.167 HD
ATOM     49  C   UNL A   1      40.172  33.179  35.674  1.00  0.00     0.034 A 
ATOM     50  C   UNL A   1      40.639  28.761  30.243  1.00  0.00     0.034 A 
ATOM     51  C   UNL A   1      41.186  32.169  35.797  1.00  0.00     0.049 A 
ATOM     52  C   UNL A   1      41.577  28.686  31.417  1.00  0.00     0.074 A 
ATOM     53  C   UNL A   1      42.072  31.961  36.839  1.00  0.00     0.029 A 
ATOM     54  N   UNL A   1      41.453  31.200  34.843  1.00  0.00    -0.354 N 
ATOM     55  N   UNL A   1      41.577  29.394  32.522  1.00  0.00    -0.248 NA
ATOM     56  C   UNL A   1      42.636  27.669  31.357  1.00  0.00     0.031 C 
ATOM     57  C   UNL A   1      42.894  30.882  36.501  1.00  0.00     0.029 A 
ATOM     58  C   UNL A   1      42.495  30.394  35.265  1.00  0.00     0.049 A 
ATOM     59  H   UNL A   1      40.971  31.099  33.990  1.00  0.00     0.167 HD
ATOM     60  C   UNL A   1      42.606  28.881  33.304  1.00  0.00     0.074 A 
ATOM     61  C   UNL A   1      43.194  27.791  32.554  1.00  0.00     0.031 C 
ATOM     62  C   UNL A   1      43.032  29.282  34.527  1.00  0.00     0.034 A 
BRANCH  49  63
ATOM     63  C   UNL A   1      40.047  34.211  36.768  1.00  0.00     0.023 A 
ATOM     64  C   UNL A   1      40.405  35.551  36.511  1.00  0.00     0.012 A 
ATOM     65  C   UNL A   1      39.532  33.866  38.033  1.00  0.00     0.148 A 
ATOM     66  C   UNL A   1      40.295  36.521  37.506  1.00  0.00     0.002 A 
ATOM     67  C   UNL A   1      39.375  34.850  39.004  1.00  0.00     0.091 A 
ATOM     68  F   UNL A   1      39.214  32.585  38.268  1.00  0.00    -0.205 F 
ATOM     69  C   UNL A   1      39.771  36.173  38.747  1.00  0.00     0.022 A 
BRANCH  67  70
ATOM     70  S   UNL A   1      38.630  34.524  40.605  1.00  0.00     0.127 S 
ATOM     71  O   UNL A   1      38.486  35.875  41.144  1.00  0.00    -0.237 OA
ATOM     72  O   UNL A   1      37.370  33.880  40.230  1.00  0.00    -0.237 OA
ATOM     73  O   UNL A   1      39.565  33.664  41.318  1.00  0.00    -0.744 OA
ENDBRANCH  67  70
ENDBRANCH  49  63
BRANCH  50  74
ATOM     74  C   UNL A   1      40.785  27.835  29.084  1.00  0.00     0.023 A 
ATOM     75  C   UNL A   1      40.021  26.652  29.044  1.00  0.00     0.012 A 
ATOM     76  C   UNL A   1      41.655  28.126  28.016  1.00  0.00     0.148 A 
ATOM     77  C   UNL A   1      40.152  25.755  27.983  1.00  0.00     0.002 A 
ATOM     78  C   UNL A   1      41.743  27.254  26.938  1.00  0.00     0.091 A 
ATOM     79  F   UNL A   1      42.353  29.269  28.061  1.00  0.00    -0.205 F 
ATOM     80  C   UNL A   1      41.010  26.058  26.929  1.00  0.00     0.022 A 
BRANCH  78  81
ATOM     81  S   UNL A   1      42.743  27.607  25.489  1.00  0.00     0.127 S 
ATOM     82  O   UNL A   1      44.084  27.716  26.059  1.00  0.00    -0.237 OA
ATOM     83  O   UNL A   1      42.511  26.415  24.673  1.00  0.00    -0.237 OA
ATOM     84  O   UNL A   1      42.213  28.841  24.927  1.00  0.00    -0.744 OA
ENDBRANCH  78  81
ENDBRANCH  50  74
BRANCH  62  85
ATOM     85  C   UNL A   1      44.160  28.510  35.162  1.00  0.00     0.023 A 
ATOM     86  C   UNL A   1      45.497  28.847  34.872  1.00  0.00     0.012 A 
ATOM     87  C   UNL A   1      43.888  27.502  36.106  1.00  0.00     0.148 A 
ATOM     88  C   UNL A   1      46.546  28.167  35.488  1.00  0.00     0.002 A 
ATOM     89  C   UNL A   1      44.938  26.866  36.757  1.00  0.00     0.091 A 
ATOM     90  F   UNL A   1      42.608  27.186  36.355  1.00  0.00    -0.205 F 
ATOM     91  C   UNL A   1      46.267  27.188  36.438  1.00  0.00     0.022 A 
BRANCH  89  92
ATOM     92  S   UNL A   1      44.674  25.668  38.068  1.00  0.00     0.127 S 
ATOM     93  O   UNL A   1      43.904  26.451  39.034  1.00  0.00    -0.237 OA
ATOM     94  O   UNL A   1      43.911  24.624  37.383  1.00  0.00    -0.237 OA
ATOM     95  O   UNL A   1      45.998  25.257  38.512  1.00  0.00    -0.744 OA
ENDBRANCH  89  92
ENDBRANCH  62  85
ENDBRANCH  36  37
ENDBRANCH  28  31
ENDBRANCH  26  27
ENDBRANCH  25  26
ENDBRANCH   1  25
TORSDOF 17
ENDMDL
MODEL 3
REMARK VINA RESULT:     -11.7      6.032     12.234
REMARK SMILES O=C(NCc1ccsc1)NC[C@H]1CC[C@@H](C(=O)NCCCNC(=O)c2ccc(-c3c4nc(c(-c5cccc(S(=O)(=O)[O-])c5F)c5ccc([nH]5)c(-c5cccc(S(=O)(=O)[O-])c5F)c5nc(c(-c6cccc(S(=O)(=O)[O-])c6F)c6ccc3[nH]6)C=C5)C=C4)cc2)CC1
REMARK SMILES IDX 19 1 18 2 16 3 17 4 15 6 12 7 13 8 89 9 14 10 88 11 11 12
REMARK SMILES IDX 10 13 1 14 2 15 3 16 4 19 5 20 6 21 9 22 7 23 8 24 20 25
REMARK SMILES IDX 21 26 22 27 23 28 24 30 25 31 26 32 87 33 27 34 86 35 28 36
REMARK SMILES IDX 29 37 30 38 80 39 31 40 85 41 79 42 81 43 32 44 84 45 78 46
REMARK SMILES IDX 77 47 33 49 65 50 45 51 64 52 46 53 49 54 63 55 82 56 47 57
REMARK SMILES IDX 48 58 62 60 83 61 50 62 34 63 35 64 43 65 36 66 38 67 44 68
REMARK SMILES IDX 37 69 39 70 40 71 41 72 42 73 66 74 67 75 75 76 68 77 70 78
REMARK SMILES IDX 76 79 69 80 71 81 72 82 73 83 74 84 51 85 52 86 60 87 53 88
REMARK SMILES IDX 55 89 61 90 54 91 56 92 57 93 58 94 59 95
REMARK H PARENT 18 5 3 17 10 18 22 29 81 48 49 59
REMARK Flexibility Score: inf
ROOT
ATOM      1  C   UNL A   1      37.356  20.917  24.633  1.00  0.00     0.117 C 
ENDROOT
BRANCH   1   2
ATOM      2  N   UNL A   1      36.515  21.350  25.718  1.00  0.00    -0.356 N 
ATOM      3  C   UNL A   1      35.175  21.532  25.787  1.00  0.00     0.223 C 
ATOM      4  O   UNL A   1      34.724  21.818  26.903  1.00  0.00    -0.275 OA
ATOM      5  H   UNL A   1      36.997  21.549  26.554  1.00  0.00     0.163 HD
BRANCH   3   6
ATOM      6  C   UNL A   1      34.212  21.426  24.590  1.00  0.00     0.078 C 
ATOM      7  C   UNL A   1      31.565  22.899  24.353  1.00  0.00     0.008 C 
ATOM      8  C   UNL A   1      32.867  23.550  23.846  1.00  0.00     0.006 C 
ATOM      9  C   UNL A   1      31.740  21.658  25.241  1.00  0.00     0.006 C 
ATOM     10  C   UNL A   1      34.079  22.634  23.664  1.00  0.00     0.014 C 
ATOM     11  C   UNL A   1      32.888  20.735  24.881  1.00  0.00     0.014 C 
BRANCH   7  12
ATOM     12  C   UNL A   1      30.697  23.969  25.070  1.00  0.00     0.121 C 
BRANCH  12  13
ATOM     13  N   UNL A   1      30.892  25.302  24.531  1.00  0.00    -0.338 N 
ATOM     14  O   UNL A   1      30.899  26.381  26.539  1.00  0.00    -0.249 OA
ATOM     15  C   UNL A   1      30.927  26.417  25.316  1.00  0.00     0.315 C 
ATOM     16  N   UNL A   1      30.957  27.613  24.686  1.00  0.00    -0.334 N 
ATOM     17  H   UNL A   1      30.909  28.389  25.289  1.00  0.00     0.165 HD
ATOM     18  H   UNL A   1      31.003  25.405  23.558  1.00  0.00     0.165 HD
BRANCH  16  19
ATOM     19  C   UNL A   1      31.050  27.956  23.284  1.00  0.00     0.154 C 
BRANCH  19  20
ATOM     20  C   UNL A   1      29.806  28.662  22.856  1.00  0.00    -0.018 A 
ATOM     21  C   UNL A   1      28.492  28.289  23.289  1.00  0.00     0.017 A 
ATOM     22  C   UNL A   1      29.741  29.766  22.023  1.00  0.00     0.070 A 
ATOM     23  C   UNL A   1      27.504  29.109  22.790  1.00  0.00     0.065 A 
ATOM     24  S   UNL A   1      28.144  30.341  21.796  1.00  0.00    -0.152 S 
ENDBRANCH  19  20
ENDBRANCH  16  19
ENDBRANCH  12  13
ENDBRANCH   7  12
ENDBRANCH   3   6
ENDBRANCH   1   2
BRANCH   1  25
ATOM     25  C   UNL A   1      38.227  19.726  24.983  1.00  0.00     0.042 C 
BRANCH  25  26
ATOM     26  C   UNL A   1      39.244  20.002  26.070  1.00  0.00     0.118 C 
BRANCH  26  27
ATOM     27  N   UNL A   1      40.436  19.163  25.971  1.00  0.00    -0.352 N 
ATOM     28  C   UNL A   1      41.772  19.485  26.006  1.00  0.00     0.251 C 
ATOM     29  H   UNL A   1      40.250  18.203  25.861  1.00  0.00     0.163 HD
ATOM     30  O   UNL A   1      42.602  18.612  25.757  1.00  0.00    -0.269 OA
BRANCH  28  31
ATOM     31  C   UNL A   1      42.217  20.855  26.347  1.00  0.00     0.039 A 
ATOM     32  C   UNL A   1      42.522  21.166  27.675  1.00  0.00     0.014 A 
ATOM     33  C   UNL A   1      42.313  21.844  25.370  1.00  0.00     0.014 A 
ATOM     34  C   UNL A   1      42.978  22.447  28.002  1.00  0.00     0.010 A 
ATOM     35  C   UNL A   1      42.908  23.062  25.668  1.00  0.00     0.010 A 
ATOM     36  C   UNL A   1      43.212  23.394  26.993  1.00  0.00    -0.014 A 
BRANCH  36  37
ATOM     37  C   UNL A   1      43.738  24.752  27.288  1.00  0.00     0.031 A 
ATOM     38  C   UNL A   1      42.808  25.819  27.812  1.00  0.00     0.074 A 
ATOM     39  C   UNL A   1      45.019  25.052  26.996  1.00  0.00     0.049 A 
ATOM     40  N   UNL A   1      43.049  27.083  28.045  1.00  0.00    -0.248 NA
ATOM     41  C   UNL A   1      41.410  25.427  28.068  1.00  0.00     0.031 C 
ATOM     42  C   UNL A   1      45.992  24.132  26.401  1.00  0.00     0.029 A 
ATOM     43  N   UNL A   1      45.717  26.225  27.137  1.00  0.00    -0.354 N 
ATOM     44  C   UNL A   1      41.832  27.640  28.420  1.00  0.00     0.074 A 
ATOM     45  C   UNL A   1      40.841  26.592  28.333  1.00  0.00     0.031 C 
ATOM     46  C   UNL A   1      47.164  24.768  26.249  1.00  0.00     0.029 A 
ATOM     47  C   UNL A   1      47.018  26.149  26.696  1.00  0.00     0.049 A 
ATOM     48  H   UNL A   1      45.324  27.043  27.518  1.00  0.00     0.167 HD
ATOM     49  C   UNL A   1      41.564  28.899  28.839  1.00  0.00     0.034 A 
ATOM     50  C   UNL A   1      47.981  27.091  26.651  1.00  0.00     0.034 A 
ATOM     51  C   UNL A   1      42.565  29.919  28.982  1.00  0.00     0.049 A 
ATOM     52  C   UNL A   1      47.673  28.468  27.172  1.00  0.00     0.074 A 
ATOM     53  C   UNL A   1      42.425  31.197  29.491  1.00  0.00     0.029 A 
ATOM     54  N   UNL A   1      43.893  29.777  28.611  1.00  0.00    -0.354 N 
ATOM     55  N   UNL A   1      46.550  28.932  27.669  1.00  0.00    -0.248 NA
ATOM     56  C   UNL A   1      48.772  29.443  27.161  1.00  0.00     0.031 C 
ATOM     57  C   UNL A   1      43.664  31.839  29.400  1.00  0.00     0.029 A 
ATOM     58  C   UNL A   1      44.584  30.947  28.871  1.00  0.00     0.049 A 
ATOM     59  H   UNL A   1      44.286  28.963  28.221  1.00  0.00     0.167 HD
ATOM     60  C   UNL A   1      46.820  30.237  28.066  1.00  0.00     0.074 A 
ATOM     61  C   UNL A   1      48.216  30.482  27.769  1.00  0.00     0.031 C 
ATOM     62  C   UNL A   1      45.986  31.154  28.616  1.00  0.00     0.034 A 
BRANCH  49  63
ATOM     63  C   UNL A   1      40.143  29.225  29.225  1.00  0.00     0.023 A 
ATOM     64  C   UNL A   1      39.206  29.563  28.225  1.00  0.00     0.012 A 
ATOM     65  C   UNL A   1      39.721  29.154  30.567  1.00  0.00     0.148 A 
ATOM     66  C   UNL A   1      37.887  29.867  28.558  1.00  0.00     0.002 A 
ATOM     67  C   UNL A   1      38.391  29.406  30.886  1.00  0.00     0.091 A 
ATOM     68  F   UNL A   1      40.627  28.850  31.507  1.00  0.00    -0.205 F 
ATOM     69  C   UNL A   1      37.478  29.778  29.885  1.00  0.00     0.022 A 
BRANCH  67  70
ATOM     70  S   UNL A   1      37.742  29.235  32.551  1.00  0.00     0.127 S 
ATOM     71  O   UNL A   1      38.669  30.068  33.316  1.00  0.00    -0.237 OA
ATOM     72  O   UNL A   1      36.395  29.790  32.413  1.00  0.00    -0.237 OA
ATOM     73  O   UNL A   1      37.786  27.812  32.857  1.00  0.00    -0.744 OA
ENDBRANCH  67  70
ENDBRANCH  49  63
BRANCH  50  74
ATOM     74  C   UNL A   1      49.343  26.745  26.156  1.00  0.00     0.023 A 
ATOM     75  C   UNL A   1      50.206  25.992  26.976  1.00  0.00     0.012 A 
ATOM     76  C   UNL A   1      49.781  27.136  24.876  1.00  0.00     0.148 A 
ATOM     77  C   UNL A   1      51.496  25.672  26.549  1.00  0.00     0.002 A 
ATOM     78  C   UNL A   1      51.048  26.769  24.436  1.00  0.00     0.091 A 
ATOM     79  F   UNL A   1      48.935  27.828  24.101  1.00  0.00    -0.205 F 
ATOM     80  C   UNL A   1      51.915  26.057  25.278  1.00  0.00     0.022 A 
BRANCH  78  81
ATOM     81  S   UNL A   1      51.637  27.132  22.780  1.00  0.00     0.127 S 
ATOM     82  O   UNL A   1      51.897  28.568  22.851  1.00  0.00    -0.237 OA
ATOM     83  O   UNL A   1      52.831  26.290  22.699  1.00  0.00    -0.237 OA
ATOM     84  O   UNL A   1      50.560  26.748  21.877  1.00  0.00    -0.744 OA
ENDBRANCH  78  81
ENDBRANCH  50  74
BRANCH  62  85
ATOM     85  C   UNL A   1      46.565  32.495  28.983  1.00  0.00     0.023 A 
ATOM     86  C   UNL A   1      47.178  32.679  30.238  1.00  0.00     0.012 A 
ATOM     87  C   UNL A   1      46.568  33.548  28.048  1.00  0.00     0.148 A 
ATOM     88  C   UNL A   1      47.755  33.905  30.568  1.00  0.00     0.002 A 
ATOM     89  C   UNL A   1      47.193  34.747  28.363  1.00  0.00     0.091 A 
ATOM     90  F   UNL A   1      45.965  33.355  26.865  1.00  0.00    -0.205 F 
ATOM     91  C   UNL A   1      47.775  34.932  29.628  1.00  0.00     0.022 A 
BRANCH  89  92
ATOM     92  S   UNL A   1      47.357  36.088  27.180  1.00  0.00     0.127 S 
ATOM     93  O   UNL A   1      47.859  37.170  28.026  1.00  0.00    -0.237 OA
ATOM     94  O   UNL A   1      48.337  35.548  26.236  1.00  0.00    -0.237 OA
ATOM     95  O   UNL A   1      46.029  36.297  26.620  1.00  0.00    -0.744 OA
ENDBRANCH  89  92
ENDBRANCH  62  85
ENDBRANCH  36  37
ENDBRANCH  28  31
ENDBRANCH  26  27
ENDBRANCH  25  26
ENDBRANCH   1  25
TORSDOF 17
ENDMDL
