MODEL 1
REMARK VINA RESULT:     -12.5      0.000      0.000
REMARK SMILES CC[C@@H]1CCCN(S(=O)(=O)c2cc(C(=O)NCCCNC(=O)c3ccc(-c4c5nc(c(-c6cccc(S(=O)(=O)[O-])c6F)c6ccc([nH]6)c(-c6cccc(S(=O)(=O)[O-])c6F)c6nc(c(-c7cccc(S(=O)(=O)[O-])c7F)c7ccc4[nH]7)C=C6)C=C5)cc3)ccc2F)C1
REMARK SMILES IDX 18 1 17 2 16 3 14 4 15 5 13 7 11 8 12 9 88 10 87 11 89 12
REMARK SMILES IDX 86 13 8 14 9 15 10 16 7 17 3 18 4 19 90 20 5 21 6 22 2 23
REMARK SMILES IDX 1 24 19 25 20 26 21 27 22 29 23 30 24 31 85 32 25 33 84 34
REMARK SMILES IDX 26 35 27 36 28 37 78 38 29 39 83 40 77 41 79 42 30 43 82 44
REMARK SMILES IDX 76 45 75 46 31 48 63 49 43 50 62 51 44 52 47 53 61 54 80 55
REMARK SMILES IDX 45 56 46 57 60 59 81 60 48 61 32 62 33 63 41 64 34 65 36 66
REMARK SMILES IDX 42 67 35 68 37 69 38 70 39 71 40 72 64 73 65 74 73 75 66 76
REMARK SMILES IDX 68 77 74 78 67 79 69 80 70 81 71 82 72 83 49 84 50 85 58 86
REMARK SMILES IDX 51 87 53 88 59 89 52 90 54 91 55 92 56 93 57 94
REMARK H PARENT 16 6 20 28 79 47 47 58
REMARK Flexibility Score: inf
ROOT
ATOM      1  C   UNL A   1      31.775  29.932  25.731  1.00  0.00     0.042 C 
ENDROOT
BRANCH   1   2
ATOM      2  C   UNL A   1      32.496  29.330  24.524  1.00  0.00     0.118 C 
BRANCH   2   3
ATOM      3  N   UNL A   1      31.618  29.185  23.378  1.00  0.00    -0.352 N 
ATOM      4  C   UNL A   1      30.808  28.165  22.950  1.00  0.00     0.251 C 
ATOM      5  O   UNL A   1      30.056  28.404  22.004  1.00  0.00    -0.269 OA
ATOM      6  H   UNL A   1      31.601  29.975  22.793  1.00  0.00     0.163 HD
BRANCH   4   7
ATOM      7  C   UNL A   1      30.776  26.802  23.560  1.00  0.00     0.041 A 
ATOM      8  C   UNL A   1      31.614  24.509  23.473  1.00  0.00     0.119 A 
ATOM      9  C   UNL A   1      31.505  25.788  22.907  1.00  0.00     0.038 A 
ATOM     10  C   UNL A   1      31.005  24.243  24.694  1.00  0.00     0.143 A 
ATOM     11  C   UNL A   1      30.263  25.225  25.338  1.00  0.00     0.041 A 
ATOM     12  F   UNL A   1      31.100  23.044  25.282  1.00  0.00    -0.206 F 
ATOM     13  C   UNL A   1      30.170  26.504  24.784  1.00  0.00     0.017 A 
BRANCH   8  14
ATOM     14  S   UNL A   1      32.709  23.312  22.777  1.00  0.00     0.246 S 
ATOM     15  O   UNL A   1      33.303  23.878  21.585  1.00  0.00    -0.207 OA
ATOM     16  O   UNL A   1      31.990  22.056  22.696  1.00  0.00    -0.207 OA
BRANCH  14  17
ATOM     17  N   UNL A   1      33.987  23.067  23.933  1.00  0.00    -0.197 NA
ATOM     18  C   UNL A   1      35.113  21.294  25.361  1.00  0.00     0.004 C 
ATOM     19  C   UNL A   1      36.468  21.812  24.868  1.00  0.00     0.006 C 
ATOM     20  C   UNL A   1      34.019  21.610  24.328  1.00  0.00     0.106 C 
ATOM     21  C   UNL A   1      36.394  23.288  24.518  1.00  0.00     0.017 C 
ATOM     22  C   UNL A   1      35.323  23.538  23.467  1.00  0.00     0.102 C 
BRANCH  18  23
ATOM     23  C   UNL A   1      34.774  21.835  26.765  1.00  0.00     0.001 C 
ATOM     24  C   UNL A   1      33.292  21.701  27.088  1.00  0.00     0.004 C 
ENDBRANCH  18  23
ENDBRANCH  14  17
ENDBRANCH   8  14
ENDBRANCH   4   7
ENDBRANCH   2   3
ENDBRANCH   1   2
BRANCH   1  25
ATOM     25  C   UNL A   1      32.699  30.319  26.884  1.00  0.00     0.118 C 
BRANCH  25  26
ATOM     26  N   UNL A   1      32.865  31.761  26.986  1.00  0.00    -0.352 N 
ATOM     27  C   UNL A   1      33.819  32.503  27.632  1.00  0.00     0.251 C 
ATOM     28  H   UNL A   1      32.182  32.289  26.514  1.00  0.00     0.163 HD
ATOM     29  O   UNL A   1      33.624  33.710  27.774  1.00  0.00    -0.269 OA
BRANCH  27  30
ATOM     30  C   UNL A   1      35.067  31.894  28.151  1.00  0.00     0.039 A 
ATOM     31  C   UNL A   1      35.013  30.585  28.641  1.00  0.00     0.014 A 
ATOM     32  C   UNL A   1      36.257  32.621  28.256  1.00  0.00     0.014 A 
ATOM     33  C   UNL A   1      36.143  30.006  29.227  1.00  0.00     0.010 A 
ATOM     34  C   UNL A   1      37.404  32.018  28.775  1.00  0.00     0.010 A 
ATOM     35  C   UNL A   1      37.350  30.718  29.297  1.00  0.00    -0.014 A 
BRANCH  35  36
ATOM     36  C   UNL A   1      38.545  30.136  29.960  1.00  0.00     0.031 A 
ATOM     37  C   UNL A   1      38.927  30.577  31.349  1.00  0.00     0.074 A 
ATOM     38  C   UNL A   1      39.315  29.249  29.300  1.00  0.00     0.049 A 
ATOM     39  N   UNL A   1      39.944  30.202  32.081  1.00  0.00    -0.248 NA
ATOM     40  C   UNL A   1      38.072  31.589  31.992  1.00  0.00     0.031 C 
ATOM     41  C   UNL A   1      39.090  28.797  27.926  1.00  0.00     0.029 A 
ATOM     42  N   UNL A   1      40.451  28.584  29.687  1.00  0.00    -0.354 N 
ATOM     43  C   UNL A   1      39.874  30.957  33.246  1.00  0.00     0.074 A 
ATOM     44  C   UNL A   1      38.734  31.835  33.114  1.00  0.00     0.031 C 
ATOM     45  C   UNL A   1      40.051  27.924  27.587  1.00  0.00     0.029 A 
ATOM     46  C   UNL A   1      40.974  27.769  28.710  1.00  0.00     0.049 A 
ATOM     47  H   UNL A   1      40.856  28.682  30.580  1.00  0.00     0.167 HD
ATOM     48  C   UNL A   1      40.664  30.898  34.344  1.00  0.00     0.034 A 
ATOM     49  C   UNL A   1      42.070  26.983  28.716  1.00  0.00     0.034 A 
ATOM     50  C   UNL A   1      41.748  29.969  34.503  1.00  0.00     0.049 A 
ATOM     51  C   UNL A   1      42.900  26.893  29.968  1.00  0.00     0.074 A 
ATOM     52  C   UNL A   1      42.532  29.749  35.622  1.00  0.00     0.029 A 
ATOM     53  N   UNL A   1      42.202  29.105  33.519  1.00  0.00    -0.354 N 
ATOM     54  N   UNL A   1      42.717  27.493  31.121  1.00  0.00    -0.248 NA
ATOM     55  C   UNL A   1      44.067  25.998  29.937  1.00  0.00     0.031 C 
ATOM     56  C   UNL A   1      43.471  28.763  35.308  1.00  0.00     0.029 A 
ATOM     57  C   UNL A   1      43.263  28.359  33.999  1.00  0.00     0.049 A 
ATOM     58  H   UNL A   1      41.823  29.033  32.613  1.00  0.00     0.167 HD
ATOM     59  C   UNL A   1      43.729  27.034  31.955  1.00  0.00     0.074 A 
ATOM     60  C   UNL A   1      44.509  26.087  31.186  1.00  0.00     0.031 C 
ATOM     61  C   UNL A   1      43.999  27.383  33.238  1.00  0.00     0.034 A 
BRANCH  48  62
ATOM     62  C   UNL A   1      40.342  31.808  35.500  1.00  0.00     0.023 A 
ATOM     63  C   UNL A   1      41.131  32.956  35.716  1.00  0.00     0.012 A 
ATOM     64  C   UNL A   1      39.213  31.582  36.312  1.00  0.00     0.148 A 
ATOM     65  C   UNL A   1      40.818  33.852  36.736  1.00  0.00     0.002 A 
ATOM     66  C   UNL A   1      38.884  32.502  37.301  1.00  0.00     0.091 A 
ATOM     67  F   UNL A   1      38.486  30.475  36.103  1.00  0.00    -0.205 F 
ATOM     68  C   UNL A   1      39.690  33.632  37.520  1.00  0.00     0.022 A 
BRANCH  66  69
ATOM     69  S   UNL A   1      37.407  32.354  38.315  1.00  0.00     0.127 S 
ATOM     70  O   UNL A   1      36.420  33.066  37.503  1.00  0.00    -0.237 OA
ATOM     71  O   UNL A   1      37.217  30.904  38.371  1.00  0.00    -0.237 OA
ATOM     72  O   UNL A   1      37.730  32.976  39.590  1.00  0.00    -0.744 OA
ENDBRANCH  66  69
ENDBRANCH  48  62
BRANCH  49  73
ATOM     73  C   UNL A   1      42.386  26.158  27.516  1.00  0.00     0.023 A 
ATOM     74  C   UNL A   1      43.180  26.710  26.492  1.00  0.00     0.012 A 
ATOM     75  C   UNL A   1      41.970  24.816  27.414  1.00  0.00     0.148 A 
ATOM     76  C   UNL A   1      43.545  25.946  25.384  1.00  0.00     0.002 A 
ATOM     77  C   UNL A   1      42.383  24.043  26.334  1.00  0.00     0.091 A 
ATOM     78  F   UNL A   1      41.202  24.313  28.391  1.00  0.00    -0.205 F 
ATOM     79  C   UNL A   1      43.158  24.610  25.311  1.00  0.00     0.022 A 
BRANCH  77  80
ATOM     80  S   UNL A   1      42.054  22.279  26.229  1.00  0.00     0.127 S 
ATOM     81  O   UNL A   1      40.598  22.250  26.140  1.00  0.00    -0.237 OA
ATOM     82  O   UNL A   1      42.756  21.915  24.997  1.00  0.00    -0.237 OA
ATOM     83  O   UNL A   1      42.627  21.700  27.436  1.00  0.00    -0.744 OA
ENDBRANCH  77  80
ENDBRANCH  49  73
BRANCH  61  84
ATOM     84  C   UNL A   1      45.187  26.750  33.912  1.00  0.00     0.023 A 
ATOM     85  C   UNL A   1      46.433  27.406  33.866  1.00  0.00     0.012 A 
ATOM     86  C   UNL A   1      45.039  25.597  34.708  1.00  0.00     0.148 A 
ATOM     87  C   UNL A   1      47.516  26.919  34.595  1.00  0.00     0.002 A 
ATOM     88  C   UNL A   1      46.110  25.143  35.467  1.00  0.00     0.091 A 
ATOM     89  F   UNL A   1      43.846  24.984  34.727  1.00  0.00    -0.205 F 
ATOM     90  C   UNL A   1      47.351  25.799  35.406  1.00  0.00     0.022 A 
BRANCH  88  91
ATOM     91  S   UNL A   1      45.969  23.770  36.618  1.00  0.00     0.127 S 
ATOM     92  O   UNL A   1      45.703  22.651  35.716  1.00  0.00    -0.237 OA
ATOM     93  O   UNL A   1      47.293  23.751  37.240  1.00  0.00    -0.237 OA
ATOM     94  O   UNL A   1      44.879  24.113  37.523  1.00  0.00    -0.744 OA
ENDBRANCH  88  91
ENDBRANCH  61  84
ENDBRANCH  35  36
ENDBRANCH  27  30
ENDBRANCH  25  26
ENDBRANCH   1  25
TORSDOF 16
ENDMDL
MODEL 2
REMARK VINA RESULT:     -12.5      5.378      8.624
REMARK SMILES CC[C@@H]1CCCN(S(=O)(=O)c2cc(C(=O)NCCCNC(=O)c3ccc(-c4c5nc(c(-c6cccc(S(=O)(=O)[O-])c6F)c6ccc([nH]6)c(-c6cccc(S(=O)(=O)[O-])c6F)c6nc(c(-c7cccc(S(=O)(=O)[O-])c7F)c7ccc4[nH]7)C=C6)C=C5)cc3)ccc2F)C1
REMARK SMILES IDX 18 1 17 2 16 3 14 4 15 5 13 7 11 8 12 9 88 10 87 11 89 12
REMARK SMILES IDX 86 13 8 14 9 15 10 16 7 17 3 18 4 19 90 20 5 21 6 22 2 23
REMARK SMILES IDX 1 24 19 25 20 26 21 27 22 29 23 30 24 31 85 32 25 33 84 34
REMARK SMILES IDX 26 35 27 36 28 37 78 38 29 39 83 40 77 41 79 42 30 43 82 44
REMARK SMILES IDX 76 45 75 46 31 48 63 49 43 50 62 51 44 52 47 53 61 54 80 55
REMARK SMILES IDX 45 56 46 57 60 59 81 60 48 61 32 62 33 63 41 64 34 65 36 66
REMARK SMILES IDX 42 67 35 68 37 69 38 70 39 71 40 72 64 73 65 74 73 75 66 76
REMARK SMILES IDX 68 77 74 78 67 79 69 80 70 81 71 82 72 83 49 84 50 85 58 86
REMARK SMILES IDX 51 87 53 88 59 89 52 90 54 91 55 92 56 93 57 94
REMARK H PARENT 16 6 20 28 79 47 47 58
REMARK Flexibility Score: inf
ROOT
ATOM      1  C   UNL A   1      36.969  19.542  24.905  1.00  0.00     0.042 C 
ENDROOT
BRANCH   1   2
ATOM      2  C   UNL A   1      35.650  20.313  24.969  1.00  0.00     0.118 C 
BRANCH   2   3
ATOM      3  N   UNL A   1      34.530  19.455  25.306  1.00  0.00    -0.352 N 
ATOM      4  C   UNL A   1      33.177  19.576  25.119  1.00  0.00     0.251 C 
ATOM      5  O   UNL A   1      32.482  18.593  25.383  1.00  0.00    -0.269 OA
ATOM      6  H   UNL A   1      34.793  18.622  25.757  1.00  0.00     0.163 HD
BRANCH   4   7
ATOM      7  C   UNL A   1      32.503  20.809  24.612  1.00  0.00     0.041 A 
ATOM      8  C   UNL A   1      31.545  22.986  25.170  1.00  0.00     0.119 A 
ATOM      9  C   UNL A   1      32.088  21.756  25.570  1.00  0.00     0.038 A 
ATOM     10  C   UNL A   1      31.427  23.278  23.817  1.00  0.00     0.143 A 
ATOM     11  C   UNL A   1      31.810  22.347  22.861  1.00  0.00     0.041 A 
ATOM     12  F   UNL A   1      30.936  24.448  23.389  1.00  0.00    -0.206 F 
ATOM     13  C   UNL A   1      32.367  21.129  23.257  1.00  0.00     0.017 A 
BRANCH   8  14
ATOM     14  S   UNL A   1      31.239  24.257  26.357  1.00  0.00     0.246 S 
ATOM     15  O   UNL A   1      31.971  23.938  27.564  1.00  0.00    -0.207 OA
ATOM     16  O   UNL A   1      29.805  24.462  26.418  1.00  0.00    -0.207 OA
BRANCH  14  17
ATOM     17  N   UNL A   1      31.913  25.725  25.708  1.00  0.00    -0.197 NA
ATOM     18  C   UNL A   1      31.479  28.215  25.459  1.00  0.00     0.004 C 
ATOM     19  C   UNL A   1      32.912  28.473  25.937  1.00  0.00     0.006 C 
ATOM     20  C   UNL A   1      30.974  26.869  26.007  1.00  0.00     0.106 C 
ATOM     21  C   UNL A   1      33.823  27.311  25.583  1.00  0.00     0.017 C 
ATOM     22  C   UNL A   1      33.298  26.014  26.179  1.00  0.00     0.102 C 
BRANCH  18  23
ATOM     23  C   UNL A   1      31.366  28.308  23.924  1.00  0.00     0.001 C 
ATOM     24  C   UNL A   1      29.917  28.322  23.456  1.00  0.00     0.004 C 
ENDBRANCH  18  23
ENDBRANCH  14  17
ENDBRANCH   8  14
ENDBRANCH   4   7
ENDBRANCH   2   3
ENDBRANCH   1   2
BRANCH   1  25
ATOM     25  C   UNL A   1      38.178  20.324  25.413  1.00  0.00     0.118 C 
BRANCH  25  26
ATOM     26  N   UNL A   1      39.280  19.447  25.776  1.00  0.00    -0.352 N 
ATOM     27  C   UNL A   1      40.562  19.741  26.163  1.00  0.00     0.251 C 
ATOM     28  H   UNL A   1      39.071  18.485  25.740  1.00  0.00     0.163 HD
ATOM     29  O   UNL A   1      41.386  18.828  26.196  1.00  0.00    -0.269 OA
BRANCH  27  30
ATOM     30  C   UNL A   1      40.970  21.114  26.543  1.00  0.00     0.039 A 
ATOM     31  C   UNL A   1      40.484  22.185  25.785  1.00  0.00     0.014 A 
ATOM     32  C   UNL A   1      41.897  21.355  27.561  1.00  0.00     0.014 A 
ATOM     33  C   UNL A   1      40.918  23.488  26.048  1.00  0.00     0.010 A 
ATOM     34  C   UNL A   1      42.275  22.663  27.871  1.00  0.00     0.010 A 
ATOM     35  C   UNL A   1      41.816  23.738  27.096  1.00  0.00    -0.014 A 
BRANCH  35  36
ATOM     36  C   UNL A   1      42.326  25.109  27.357  1.00  0.00     0.031 A 
ATOM     37  C   UNL A   1      41.445  26.126  28.035  1.00  0.00     0.074 A 
ATOM     38  C   UNL A   1      43.560  25.457  26.944  1.00  0.00     0.049 A 
ATOM     39  N   UNL A   1      41.703  27.375  28.327  1.00  0.00    -0.248 NA
ATOM     40  C   UNL A   1      40.088  25.694  28.412  1.00  0.00     0.031 C 
ATOM     41  C   UNL A   1      44.481  24.584  26.215  1.00  0.00     0.029 A 
ATOM     42  N   UNL A   1      44.245  26.640  27.060  1.00  0.00    -0.354 N 
ATOM     43  C   UNL A   1      40.535  27.885  28.881  1.00  0.00     0.074 A 
ATOM     44  C   UNL A   1      39.554  26.823  28.858  1.00  0.00     0.031 C 
ATOM     45  C   UNL A   1      45.613  25.258  25.956  1.00  0.00     0.029 A 
ATOM     46  C   UNL A   1      45.492  26.617  26.480  1.00  0.00     0.049 A 
ATOM     47  H   UNL A   1      43.879  27.433  27.516  1.00  0.00     0.167 HD
ATOM     48  C   UNL A   1      40.309  29.116  29.399  1.00  0.00     0.034 A 
ATOM     49  C   UNL A   1      46.433  27.577  26.383  1.00  0.00     0.034 A 
ATOM     50  C   UNL A   1      41.309  30.142  29.491  1.00  0.00     0.049 A 
ATOM     51  C   UNL A   1      46.179  28.919  27.015  1.00  0.00     0.074 A 
ATOM     52  C   UNL A   1      41.214  31.379  30.105  1.00  0.00     0.029 A 
ATOM     53  N   UNL A   1      42.586  30.055  28.959  1.00  0.00    -0.354 N 
ATOM     54  N   UNL A   1      45.127  29.327  27.684  1.00  0.00    -0.248 NA
ATOM     55  C   UNL A   1      47.249  29.923  26.911  1.00  0.00     0.031 C 
ATOM     56  C   UNL A   1      42.430  32.046  29.930  1.00  0.00     0.029 A 
ATOM     57  C   UNL A   1      43.285  31.220  29.219  1.00  0.00     0.049 A 
ATOM     58  H   UNL A   1      42.941  29.278  28.471  1.00  0.00     0.167 HD
ATOM     59  C   UNL A   1      45.414  30.622  28.096  1.00  0.00     0.074 A 
ATOM     60  C   UNL A   1      46.750  30.925  27.625  1.00  0.00     0.031 C 
ATOM     61  C   UNL A   1      44.632  31.489  28.786  1.00  0.00     0.034 A 
BRANCH  48  62
ATOM     62  C   UNL A   1      38.950  29.402  29.982  1.00  0.00     0.023 A 
ATOM     63  C   UNL A   1      38.658  28.976  31.293  1.00  0.00     0.012 A 
ATOM     64  C   UNL A   1      38.001  30.168  29.276  1.00  0.00     0.148 A 
ATOM     65  C   UNL A   1      37.434  29.283  31.885  1.00  0.00     0.002 A 
ATOM     66  C   UNL A   1      36.800  30.506  29.888  1.00  0.00     0.091 A 
ATOM     67  F   UNL A   1      38.291  30.549  28.024  1.00  0.00    -0.205 F 
ATOM     68  C   UNL A   1      36.511  30.057  31.187  1.00  0.00     0.022 A 
BRANCH  66  69
ATOM     69  S   UNL A   1      35.574  31.565  29.108  1.00  0.00     0.127 S 
ATOM     70  O   UNL A   1      36.412  32.632  28.562  1.00  0.00    -0.237 OA
ATOM     71  O   UNL A   1      34.992  30.673  28.104  1.00  0.00    -0.237 OA
ATOM     72  O   UNL A   1      34.660  31.970  30.166  1.00  0.00    -0.744 OA
ENDBRANCH  66  69
ENDBRANCH  48  62
BRANCH  49  73
ATOM     73  C   UNL A   1      47.735  27.262  25.728  1.00  0.00     0.023 A 
ATOM     74  C   UNL A   1      48.740  26.615  26.473  1.00  0.00     0.012 A 
ATOM     75  C   UNL A   1      47.957  27.531  24.363  1.00  0.00     0.148 A 
ATOM     76  C   UNL A   1      49.947  26.251  25.875  1.00  0.00     0.002 A 
ATOM     77  C   UNL A   1      49.140  27.117  23.760  1.00  0.00     0.091 A 
ATOM     78  F   UNL A   1      46.995  28.160  23.675  1.00  0.00    -0.205 F 
ATOM     79  C   UNL A   1      50.142  26.490  24.517  1.00  0.00     0.022 A 
BRANCH  77  80
ATOM     80  S   UNL A   1      49.418  27.251  21.989  1.00  0.00     0.127 S 
ATOM     81  O   UNL A   1      48.384  26.370  21.455  1.00  0.00    -0.237 OA
ATOM     82  O   UNL A   1      49.193  28.678  21.756  1.00  0.00    -0.237 OA
ATOM     83  O   UNL A   1      50.793  26.820  21.774  1.00  0.00    -0.744 OA
ENDBRANCH  77  80
ENDBRANCH  49  73
BRANCH  61  84
ATOM     84  C   UNL A   1      45.180  32.860  29.083  1.00  0.00     0.023 A 
ATOM     85  C   UNL A   1      45.957  33.052  30.242  1.00  0.00     0.012 A 
ATOM     86  C   UNL A   1      45.055  33.908  28.150  1.00  0.00     0.148 A 
ATOM     87  C   UNL A   1      46.592  34.270  30.474  1.00  0.00     0.002 A 
ATOM     88  C   UNL A   1      45.728  35.104  28.366  1.00  0.00     0.091 A 
ATOM     89  F   UNL A   1      44.301  33.705  27.059  1.00  0.00    -0.205 F 
ATOM     90  C   UNL A   1      46.491  35.289  29.530  1.00  0.00     0.022 A 
BRANCH  88  91
ATOM     91  S   UNL A   1      45.741  36.439  27.161  1.00  0.00     0.127 S 
ATOM     92  O   UNL A   1      46.627  37.409  27.802  1.00  0.00    -0.237 OA
ATOM     93  O   UNL A   1      46.305  35.784  25.981  1.00  0.00    -0.237 OA
ATOM     94  O   UNL A   1      44.355  36.864  27.015  1.00  0.00    -0.744 OA
ENDBRANCH  88  91
ENDBRANCH  61  84
ENDBRANCH  35  36
ENDBRANCH  27  30
ENDBRANCH  25  26
ENDBRANCH   1  25
TORSDOF 16
ENDMDL
MODEL 3
REMARK VINA RESULT:     -12.3      2.259      2.743
REMARK SMILES CC[C@@H]1CCCN(S(=O)(=O)c2cc(C(=O)NCCCNC(=O)c3ccc(-c4c5nc(c(-c6cccc(S(=O)(=O)[O-])c6F)c6ccc([nH]6)c(-c6cccc(S(=O)(=O)[O-])c6F)c6nc(c(-c7cccc(S(=O)(=O)[O-])c7F)c7ccc4[nH]7)C=C6)C=C5)cc3)ccc2F)C1
REMARK SMILES IDX 18 1 17 2 16 3 14 4 15 5 13 7 11 8 12 9 88 10 87 11 89 12
REMARK SMILES IDX 86 13 8 14 9 15 10 16 7 17 3 18 4 19 90 20 5 21 6 22 2 23
REMARK SMILES IDX 1 24 19 25 20 26 21 27 22 29 23 30 24 31 85 32 25 33 84 34
REMARK SMILES IDX 26 35 27 36 28 37 78 38 29 39 83 40 77 41 79 42 30 43 82 44
REMARK SMILES IDX 76 45 75 46 31 48 63 49 43 50 62 51 44 52 47 53 61 54 80 55
REMARK SMILES IDX 45 56 46 57 60 59 81 60 48 61 32 62 33 63 41 64 34 65 36 66
REMARK SMILES IDX 42 67 35 68 37 69 38 70 39 71 40 72 64 73 65 74 73 75 66 76
REMARK SMILES IDX 68 77 74 78 67 79 69 80 70 81 71 82 72 83 49 84 50 85 58 86
REMARK SMILES IDX 51 87 53 88 59 89 52 90 54 91 55 92 56 93 57 94
REMARK H PARENT 16 6 20 28 79 47 47 58
REMARK Flexibility Score: inf
ROOT
ATOM      1  C   UNL A   1      32.564  29.286  25.352  1.00  0.00     0.042 C 
ENDROOT
BRANCH   1   2
ATOM      2  C   UNL A   1      33.014  28.900  23.943  1.00  0.00     0.118 C 
BRANCH   2   3
ATOM      3  N   UNL A   1      31.907  28.855  23.006  1.00  0.00    -0.352 N 
ATOM      4  C   UNL A   1      30.937  27.918  22.757  1.00  0.00     0.251 C 
ATOM      5  O   UNL A   1      30.028  28.241  21.990  1.00  0.00    -0.269 OA
ATOM      6  H   UNL A   1      31.838  29.655  22.438  1.00  0.00     0.163 HD
BRANCH   4   7
ATOM      7  C   UNL A   1      30.912  26.552  23.358  1.00  0.00     0.041 A 
ATOM      8  C   UNL A   1      31.753  24.260  23.253  1.00  0.00     0.119 A 
ATOM      9  C   UNL A   1      31.639  25.543  22.696  1.00  0.00     0.038 A 
ATOM     10  C   UNL A   1      31.153  23.986  24.476  1.00  0.00     0.143 A 
ATOM     11  C   UNL A   1      30.413  24.962  25.130  1.00  0.00     0.041 A 
ATOM     12  F   UNL A   1      31.254  22.784  25.056  1.00  0.00    -0.206 F 
ATOM     13  C   UNL A   1      30.313  26.244  24.585  1.00  0.00     0.017 A 
BRANCH   8  14
ATOM     14  S   UNL A   1      32.847  23.071  22.543  1.00  0.00     0.246 S 
ATOM     15  O   UNL A   1      33.484  23.668  21.390  1.00  0.00    -0.207 OA
ATOM     16  O   UNL A   1      32.110  21.831  22.396  1.00  0.00    -0.207 OA
BRANCH  14  17
ATOM     17  N   UNL A   1      34.088  22.761  23.724  1.00  0.00    -0.197 NA
ATOM     18  C   UNL A   1      35.368  23.823  25.644  1.00  0.00     0.004 C 
ATOM     19  C   UNL A   1      35.099  22.561  26.470  1.00  0.00     0.006 C 
ATOM     20  C   UNL A   1      34.277  23.995  24.574  1.00  0.00     0.106 C 
ATOM     21  C   UNL A   1      34.952  21.343  25.575  1.00  0.00     0.017 C 
ATOM     22  C   UNL A   1      33.838  21.552  24.561  1.00  0.00     0.102 C 
BRANCH  18  23
ATOM     23  C   UNL A   1      36.788  23.819  25.045  1.00  0.00     0.001 C 
ATOM     24  C   UNL A   1      37.864  23.725  26.119  1.00  0.00     0.004 C 
ENDBRANCH  18  23
ENDBRANCH  14  17
ENDBRANCH   8  14
ENDBRANCH   4   7
ENDBRANCH   2   3
ENDBRANCH   1   2
BRANCH   1  25
ATOM     25  C   UNL A   1      33.702  29.421  26.360  1.00  0.00     0.118 C 
BRANCH  25  26
ATOM     26  N   UNL A   1      33.780  30.763  26.916  1.00  0.00    -0.352 N 
ATOM     27  C   UNL A   1      34.642  31.295  27.840  1.00  0.00     0.251 C 
ATOM     28  H   UNL A   1      33.105  31.391  26.572  1.00  0.00     0.163 HD
ATOM     29  O   UNL A   1      34.371  32.391  28.329  1.00  0.00    -0.269 OA
BRANCH  27  30
ATOM     30  C   UNL A   1      35.881  30.593  28.252  1.00  0.00     0.039 A 
ATOM     31  C   UNL A   1      35.840  29.791  29.398  1.00  0.00     0.014 A 
ATOM     32  C   UNL A   1      37.097  30.790  27.592  1.00  0.00     0.014 A 
ATOM     33  C   UNL A   1      37.006  29.187  29.876  1.00  0.00     0.010 A 
ATOM     34  C   UNL A   1      38.247  30.129  28.028  1.00  0.00     0.010 A 
ATOM     35  C   UNL A   1      38.221  29.349  29.193  1.00  0.00    -0.014 A 
BRANCH  35  36
ATOM     36  C   UNL A   1      39.479  28.756  29.716  1.00  0.00     0.031 A 
ATOM     37  C   UNL A   1      40.127  29.327  30.950  1.00  0.00     0.074 A 
ATOM     38  C   UNL A   1      40.065  27.738  29.057  1.00  0.00     0.049 A 
ATOM     39  N   UNL A   1      41.235  28.961  31.542  1.00  0.00    -0.248 NA
ATOM     40  C   UNL A   1      39.461  30.474  31.590  1.00  0.00     0.031 C 
ATOM     41  C   UNL A   1      39.573  27.145  27.813  1.00  0.00     0.029 A 
ATOM     42  N   UNL A   1      41.211  27.034  29.330  1.00  0.00    -0.354 N 
ATOM     43  C   UNL A   1      41.417  29.852  32.593  1.00  0.00     0.074 A 
ATOM     44  C   UNL A   1      40.326  30.798  32.541  1.00  0.00     0.031 C 
ATOM     45  C   UNL A   1      40.406  26.163  27.434  1.00  0.00     0.029 A 
ATOM     46  C   UNL A   1      41.503  26.069  28.395  1.00  0.00     0.049 A 
ATOM     47  H   UNL A   1      41.773  27.204  30.121  1.00  0.00     0.167 HD
ATOM     48  C   UNL A   1      42.386  29.861  33.540  1.00  0.00     0.034 A 
ATOM     49  C   UNL A   1      42.534  25.203  28.319  1.00  0.00     0.034 A 
ATOM     50  C   UNL A   1      43.423  28.873  33.633  1.00  0.00     0.049 A 
ATOM     51  C   UNL A   1      43.567  25.196  29.413  1.00  0.00     0.074 A 
ATOM     52  C   UNL A   1      44.380  28.725  34.623  1.00  0.00     0.029 A 
ATOM     53  N   UNL A   1      43.643  27.864  32.709  1.00  0.00    -0.354 N 
ATOM     54  N   UNL A   1      43.628  25.941  30.491  1.00  0.00    -0.248 NA
ATOM     55  C   UNL A   1      44.655  24.212  29.303  1.00  0.00     0.031 C 
ATOM     56  C   UNL A   1      45.188  27.636  34.287  1.00  0.00     0.029 A 
ATOM     57  C   UNL A   1      44.727  27.097  33.097  1.00  0.00     0.049 A 
ATOM     58  H   UNL A   1      43.106  27.715  31.898  1.00  0.00     0.167 HD
ATOM     59  C   UNL A   1      44.743  25.505  31.195  1.00  0.00     0.074 A 
ATOM     60  C   UNL A   1      45.317  24.413  30.437  1.00  0.00     0.031 C 
ATOM     61  C   UNL A   1      45.257  25.981  32.356  1.00  0.00     0.034 A 
BRANCH  48  62
ATOM     62  C   UNL A   1      42.329  30.925  34.604  1.00  0.00     0.023 A 
ATOM     63  C   UNL A   1      41.699  30.640  35.832  1.00  0.00     0.012 A 
ATOM     64  C   UNL A   1      42.973  32.166  34.428  1.00  0.00     0.148 A 
ATOM     65  C   UNL A   1      41.687  31.581  36.860  1.00  0.00     0.002 A 
ATOM     66  C   UNL A   1      42.993  33.082  35.473  1.00  0.00     0.091 A 
ATOM     67  F   UNL A   1      43.550  32.425  33.247  1.00  0.00    -0.205 F 
ATOM     68  C   UNL A   1      42.344  32.795  36.685  1.00  0.00     0.022 A 
BRANCH  66  69
ATOM     69  S   UNL A   1      43.877  34.645  35.380  1.00  0.00     0.127 S 
ATOM     70  O   UNL A   1      45.249  34.193  35.149  1.00  0.00    -0.237 OA
ATOM     71  O   UNL A   1      43.246  35.287  34.227  1.00  0.00    -0.237 OA
ATOM     72  O   UNL A   1      43.647  35.314  36.652  1.00  0.00    -0.744 OA
ENDBRANCH  66  69
ENDBRANCH  48  62
BRANCH  49  73
ATOM     73  C   UNL A   1      42.582  24.218  27.201  1.00  0.00     0.023 A 
ATOM     74  C   UNL A   1      43.317  24.530  26.041  1.00  0.00     0.012 A 
ATOM     75  C   UNL A   1      41.970  22.953  27.307  1.00  0.00     0.148 A 
ATOM     76  C   UNL A   1      43.433  23.607  25.002  1.00  0.00     0.002 A 
ATOM     77  C   UNL A   1      42.136  22.017  26.292  1.00  0.00     0.091 A 
ATOM     78  F   UNL A   1      41.263  22.680  28.412  1.00  0.00    -0.205 F 
ATOM     79  C   UNL A   1      42.854  22.347  25.133  1.00  0.00     0.022 A 
BRANCH  77  80
ATOM     80  S   UNL A   1      41.550  20.324  26.436  1.00  0.00     0.127 S 
ATOM     81  O   UNL A   1      40.108  20.491  26.280  1.00  0.00    -0.237 OA
ATOM     82  O   UNL A   1      42.222  19.675  25.310  1.00  0.00    -0.237 OA
ATOM     83  O   UNL A   1      41.996  19.864  27.744  1.00  0.00    -0.744 OA
ENDBRANCH  77  80
ENDBRANCH  49  73
BRANCH  61  84
ATOM     84  C   UNL A   1      46.507  25.339  32.897  1.00  0.00     0.023 A 
ATOM     85  C   UNL A   1      47.760  25.888  32.565  1.00  0.00     0.012 A 
ATOM     86  C   UNL A   1      46.435  24.298  33.844  1.00  0.00     0.148 A 
ATOM     87  C   UNL A   1      48.925  25.404  33.158  1.00  0.00     0.002 A 
ATOM     88  C   UNL A   1      47.595  23.851  34.464  1.00  0.00     0.091 A 
ATOM     89  F   UNL A   1      45.231  23.784  34.136  1.00  0.00    -0.205 F 
ATOM     90  C   UNL A   1      48.841  24.399  34.117  1.00  0.00     0.022 A 
BRANCH  88  91
ATOM     91  S   UNL A   1      47.579  22.632  35.785  1.00  0.00     0.127 S 
ATOM     92  O   UNL A   1      46.800  23.318  36.814  1.00  0.00    -0.237 OA
ATOM     93  O   UNL A   1      46.895  21.503  35.154  1.00  0.00    -0.237 OA
ATOM     94  O   UNL A   1      48.974  22.384  36.123  1.00  0.00    -0.744 OA
ENDBRANCH  88  91
ENDBRANCH  61  84
ENDBRANCH  35  36
ENDBRANCH  27  30
ENDBRANCH  25  26
ENDBRANCH   1  25
TORSDOF 16
ENDMDL
