MODEL 1
REMARK VINA RESULT:     -10.8      0.000      0.000
REMARK SMILES CC(C)(C)C(=O)N1CCCC[C@@H]1C(=O)NCCCNC(=O)c1ccc(-c2c3nc(c(-c4cccc(S(=O)(=O)[O-])c4F)c4ccc([nH]4)c(-c4cccc(S(=O)(=O)[O-])c4F)c4nc(c(-c5cccc(S(=O)(=O)[O-])c5F)c5ccc2[nH]5)C=C4)C=C3)cc1
REMARK SMILES IDX 17 1 16 2 15 3 13 4 14 5 12 7 7 8 8 9 9 10 11 11 10 12 5 13
REMARK SMILES IDX 6 14 2 15 1 16 3 17 4 18 18 19 19 20 20 21 21 23 22 24 23 25
REMARK SMILES IDX 84 26 24 27 83 28 25 29 26 30 27 31 77 32 28 33 82 34 76 35
REMARK SMILES IDX 78 36 29 37 81 38 75 39 74 40 30 42 62 43 42 44 61 45 43 46
REMARK SMILES IDX 46 47 60 48 79 49 44 50 45 51 59 53 80 54 47 55 31 56 32 57
REMARK SMILES IDX 40 58 33 59 35 60 41 61 34 62 36 63 37 64 38 65 39 66 63 67
REMARK SMILES IDX 64 68 72 69 65 70 67 71 73 72 66 73 68 74 69 75 70 76 71 77
REMARK SMILES IDX 48 78 49 79 57 80 50 81 52 82 58 83 51 84 53 85 54 86 55 87
REMARK SMILES IDX 56 88
REMARK H PARENT 15 6 19 22 78 41 46 52
REMARK Flexibility Score: inf
ROOT
ATOM      1  C   UNL A   1      33.213  27.631  26.036  1.00  0.00     0.042 C 
ENDROOT
BRANCH   1   2
ATOM      2  C   UNL A   1      33.657  26.206  25.772  1.00  0.00     0.117 C 
BRANCH   2   3
ATOM      3  N   UNL A   1      33.959  25.983  24.368  1.00  0.00    -0.354 N 
ATOM      4  C   UNL A   1      33.688  24.905  23.582  1.00  0.00     0.242 C 
ATOM      5  O   UNL A   1      34.103  24.926  22.420  1.00  0.00    -0.273 OA
ATOM      6  H   UNL A   1      34.429  26.722  23.917  1.00  0.00     0.163 HD
BRANCH   4   7
ATOM      7  C   UNL A   1      33.055  23.624  24.157  1.00  0.00     0.174 C 
ATOM      8  N   UNL A   1      33.942  22.609  24.780  1.00  0.00    -0.330 N 
ATOM      9  C   UNL A   1      33.368  21.264  24.888  1.00  0.00     0.120 C 
ATOM     10  C   UNL A   1      32.895  20.721  23.555  1.00  0.00     0.022 C 
ATOM     11  C   UNL A   1      32.318  23.057  22.897  1.00  0.00     0.035 C 
ATOM     12  C   UNL A   1      31.811  21.629  23.004  1.00  0.00     0.004 C 
BRANCH   8  13
ATOM     13  C   UNL A   1      35.125  22.780  25.486  1.00  0.00     0.228 C 
ATOM     14  O   UNL A   1      35.024  23.175  26.659  1.00  0.00    -0.274 OA
BRANCH  13  15
ATOM     15  C   UNL A   1      36.551  22.676  24.868  1.00  0.00     0.041 C 
ATOM     16  C   UNL A   1      37.080  21.250  25.194  1.00  0.00     0.021 C 
ATOM     17  C   UNL A   1      37.456  23.696  25.572  1.00  0.00     0.021 C 
ATOM     18  C   UNL A   1      36.708  22.830  23.358  1.00  0.00     0.021 C 
ENDBRANCH  13  15
ENDBRANCH   8  13
ENDBRANCH   4   7
ENDBRANCH   2   3
ENDBRANCH   1   2
BRANCH   1  19
ATOM     19  C   UNL A   1      34.351  28.561  26.415  1.00  0.00     0.118 C 
BRANCH  19  20
ATOM     20  N   UNL A   1      33.906  29.912  26.733  1.00  0.00    -0.352 N 
ATOM     21  C   UNL A   1      34.478  30.820  27.599  1.00  0.00     0.251 C 
ATOM     22  H   UNL A   1      33.092  30.215  26.270  1.00  0.00     0.163 HD
ATOM     23  O   UNL A   1      33.917  31.870  27.861  1.00  0.00    -0.269 OA
BRANCH  21  24
ATOM     24  C   UNL A   1      35.771  30.477  28.231  1.00  0.00     0.039 A 
ATOM     25  C   UNL A   1      35.770  29.760  29.427  1.00  0.00     0.014 A 
ATOM     26  C   UNL A   1      36.973  30.801  27.596  1.00  0.00     0.014 A 
ATOM     27  C   UNL A   1      36.980  29.303  29.952  1.00  0.00     0.010 A 
ATOM     28  C   UNL A   1      38.163  30.266  28.070  1.00  0.00     0.010 A 
ATOM     29  C   UNL A   1      38.182  29.517  29.257  1.00  0.00    -0.014 A 
BRANCH  29  30
ATOM     30  C   UNL A   1      39.468  28.957  29.743  1.00  0.00     0.031 A 
ATOM     31  C   UNL A   1      40.208  29.633  30.865  1.00  0.00     0.074 A 
ATOM     32  C   UNL A   1      40.021  27.906  29.105  1.00  0.00     0.049 A 
ATOM     33  N   UNL A   1      41.367  29.330  31.386  1.00  0.00    -0.248 NA
ATOM     34  C   UNL A   1      39.579  30.827  31.456  1.00  0.00     0.031 C 
ATOM     35  C   UNL A   1      39.453  27.229  27.938  1.00  0.00     0.029 A 
ATOM     36  N   UNL A   1      41.202  27.243  29.331  1.00  0.00    -0.354 N 
ATOM     37  C   UNL A   1      41.627  30.316  32.330  1.00  0.00     0.074 A 
ATOM     38  C   UNL A   1      40.523  31.248  32.283  1.00  0.00     0.031 C 
ATOM     39  C   UNL A   1      40.281  26.245  27.553  1.00  0.00     0.029 A 
ATOM     40  C   UNL A   1      41.451  26.238  28.426  1.00  0.00     0.049 A 
ATOM     41  H   UNL A   1      41.813  27.467  30.069  1.00  0.00     0.167 HD
ATOM     42  C   UNL A   1      42.673  30.420  33.183  1.00  0.00     0.034 A 
ATOM     43  C   UNL A   1      42.503  25.404  28.311  1.00  0.00     0.034 A 
ATOM     44  C   UNL A   1      43.739  29.459  33.266  1.00  0.00     0.049 A 
ATOM     45  C   UNL A   1      43.618  25.493  29.316  1.00  0.00     0.074 A 
ATOM     46  C   UNL A   1      44.779  29.405  34.175  1.00  0.00     0.029 A 
ATOM     47  N   UNL A   1      43.904  28.387  32.403  1.00  0.00    -0.354 N 
ATOM     48  N   UNL A   1      43.754  26.320  30.325  1.00  0.00    -0.248 NA
ATOM     49  C   UNL A   1      44.706  24.512  29.193  1.00  0.00     0.031 C 
ATOM     50  C   UNL A   1      45.589  28.311  33.847  1.00  0.00     0.029 A 
ATOM     51  C   UNL A   1      45.038  27.672  32.747  1.00  0.00     0.049 A 
ATOM     52  H   UNL A   1      43.304  28.167  31.654  1.00  0.00     0.167 HD
ATOM     53  C   UNL A   1      44.925  25.944  30.972  1.00  0.00     0.074 A 
ATOM     54  C   UNL A   1      45.447  24.798  30.256  1.00  0.00     0.031 C 
ATOM     55  C   UNL A   1      45.522  26.506  32.053  1.00  0.00     0.034 A 
BRANCH  42  56
ATOM     56  C   UNL A   1      42.680  31.585  34.137  1.00  0.00     0.023 A 
ATOM     57  C   UNL A   1      43.247  32.811  33.734  1.00  0.00     0.012 A 
ATOM     58  C   UNL A   1      42.094  31.483  35.414  1.00  0.00     0.148 A 
ATOM     59  C   UNL A   1      43.270  33.904  34.600  1.00  0.00     0.002 A 
ATOM     60  C   UNL A   1      42.079  32.591  36.254  1.00  0.00     0.091 A 
ATOM     61  F   UNL A   1      41.581  30.303  35.792  1.00  0.00    -0.205 F 
ATOM     62  C   UNL A   1      42.677  33.797  35.854  1.00  0.00     0.022 A 
BRANCH  60  63
ATOM     63  S   UNL A   1      41.269  32.574  37.857  1.00  0.00     0.127 S 
ATOM     64  O   UNL A   1      39.920  32.138  37.503  1.00  0.00    -0.237 OA
ATOM     65  O   UNL A   1      42.057  31.582  38.592  1.00  0.00    -0.237 OA
ATOM     66  O   UNL A   1      41.377  33.932  38.373  1.00  0.00    -0.744 OA
ENDBRANCH  60  63
ENDBRANCH  42  56
BRANCH  43  67
ATOM     67  C   UNL A   1      42.507  24.363  27.244  1.00  0.00     0.023 A 
ATOM     68  C   UNL A   1      43.163  24.625  26.026  1.00  0.00     0.012 A 
ATOM     69  C   UNL A   1      41.916  23.101  27.449  1.00  0.00     0.148 A 
ATOM     70  C   UNL A   1      43.210  23.658  25.021  1.00  0.00     0.002 A 
ATOM     71  C   UNL A   1      42.014  22.123  26.466  1.00  0.00     0.091 A 
ATOM     72  F   UNL A   1      41.289  22.876  28.612  1.00  0.00    -0.205 F 
ATOM     73  C   UNL A   1      42.647  22.405  25.244  1.00  0.00     0.022 A 
BRANCH  71  74
ATOM     74  S   UNL A   1      41.438  20.440  26.719  1.00  0.00     0.127 S 
ATOM     75  O   UNL A   1      41.821  19.801  25.462  1.00  0.00    -0.237 OA
ATOM     76  O   UNL A   1      42.221  20.026  27.885  1.00  0.00    -0.237 OA
ATOM     77  O   UNL A   1      40.007  20.546  26.965  1.00  0.00    -0.744 OA
ENDBRANCH  71  74
ENDBRANCH  43  67
BRANCH  55  78
ATOM     78  C   UNL A   1      46.802  25.885  32.545  1.00  0.00     0.023 A 
ATOM     79  C   UNL A   1      48.038  26.372  32.077  1.00  0.00     0.012 A 
ATOM     80  C   UNL A   1      46.783  24.877  33.529  1.00  0.00     0.148 A 
ATOM     81  C   UNL A   1      49.236  25.845  32.559  1.00  0.00     0.002 A 
ATOM     82  C   UNL A   1      47.981  24.391  34.040  1.00  0.00     0.091 A 
ATOM     83  F   UNL A   1      45.597  24.414  33.949  1.00  0.00    -0.205 F 
ATOM     84  C   UNL A   1      49.208  24.865  33.549  1.00  0.00     0.022 A 
BRANCH  82  85
ATOM     85  S   UNL A   1      48.039  23.198  35.382  1.00  0.00     0.127 S 
ATOM     86  O   UNL A   1      47.436  22.020  34.761  1.00  0.00    -0.237 OA
ATOM     87  O   UNL A   1      49.476  23.085  35.637  1.00  0.00    -0.237 OA
ATOM     88  O   UNL A   1      47.279  23.789  36.476  1.00  0.00    -0.744 OA
ENDBRANCH  82  85
ENDBRANCH  55  78
ENDBRANCH  29  30
ENDBRANCH  21  24
ENDBRANCH  19  20
ENDBRANCH   1  19
TORSDOF 15
ENDMDL
MODEL 2
REMARK VINA RESULT:     -10.8      1.928      2.545
REMARK SMILES CC(C)(C)C(=O)N1CCCC[C@@H]1C(=O)NCCCNC(=O)c1ccc(-c2c3nc(c(-c4cccc(S(=O)(=O)[O-])c4F)c4ccc([nH]4)c(-c4cccc(S(=O)(=O)[O-])c4F)c4nc(c(-c5cccc(S(=O)(=O)[O-])c5F)c5ccc2[nH]5)C=C4)C=C3)cc1
REMARK SMILES IDX 17 1 16 2 15 3 13 4 14 5 12 7 7 8 8 9 9 10 11 11 10 12 5 13
REMARK SMILES IDX 6 14 2 15 1 16 3 17 4 18 18 19 19 20 20 21 21 23 22 24 23 25
REMARK SMILES IDX 84 26 24 27 83 28 25 29 26 30 27 31 77 32 28 33 82 34 76 35
REMARK SMILES IDX 78 36 29 37 81 38 75 39 74 40 30 42 62 43 42 44 61 45 43 46
REMARK SMILES IDX 46 47 60 48 79 49 44 50 45 51 59 53 80 54 47 55 31 56 32 57
REMARK SMILES IDX 40 58 33 59 35 60 41 61 34 62 36 63 37 64 38 65 39 66 63 67
REMARK SMILES IDX 64 68 72 69 65 70 67 71 73 72 66 73 68 74 69 75 70 76 71 77
REMARK SMILES IDX 48 78 49 79 57 80 50 81 52 82 58 83 51 84 53 85 54 86 55 87
REMARK SMILES IDX 56 88
REMARK H PARENT 15 6 19 22 78 41 46 52
REMARK Flexibility Score: inf
ROOT
ATOM      1  C   UNL A   1      32.877  29.356  25.351  1.00  0.00     0.042 C 
ENDROOT
BRANCH   1   2
ATOM      2  C   UNL A   1      33.958  28.315  25.132  1.00  0.00     0.117 C 
BRANCH   2   3
ATOM      3  N   UNL A   1      34.065  27.931  23.734  1.00  0.00    -0.354 N 
ATOM      4  C   UNL A   1      33.501  26.880  23.077  1.00  0.00     0.242 C 
ATOM      5  O   UNL A   1      33.793  26.728  21.887  1.00  0.00    -0.273 OA
ATOM      6  H   UNL A   1      34.628  28.518  23.180  1.00  0.00     0.163 HD
BRANCH   4   7
ATOM      7  C   UNL A   1      32.681  25.809  23.819  1.00  0.00     0.174 C 
ATOM      8  N   UNL A   1      32.919  24.380  23.497  1.00  0.00    -0.330 N 
ATOM      9  C   UNL A   1      31.836  23.467  23.876  1.00  0.00     0.120 C 
ATOM     10  C   UNL A   1      30.500  23.867  23.283  1.00  0.00     0.022 C 
ATOM     11  C   UNL A   1      31.219  26.248  23.467  1.00  0.00     0.035 C 
ATOM     12  C   UNL A   1      30.123  25.246  23.789  1.00  0.00     0.004 C 
BRANCH   8  13
ATOM     13  C   UNL A   1      34.091  23.741  23.114  1.00  0.00     0.228 C 
ATOM     14  O   UNL A   1      34.192  23.428  21.917  1.00  0.00    -0.274 OA
BRANCH  13  15
ATOM     15  C   UNL A   1      35.194  23.247  24.096  1.00  0.00     0.041 C 
ATOM     16  C   UNL A   1      36.494  23.071  23.261  1.00  0.00     0.021 C 
ATOM     17  C   UNL A   1      34.779  21.870  24.632  1.00  0.00     0.021 C 
ATOM     18  C   UNL A   1      35.585  24.140  25.270  1.00  0.00     0.021 C 
ENDBRANCH  13  15
ENDBRANCH   8  13
ENDBRANCH   4   7
ENDBRANCH   2   3
ENDBRANCH   1   2
BRANCH   1  19
ATOM     19  C   UNL A   1      32.721  29.772  26.803  1.00  0.00     0.118 C 
BRANCH  19  20
ATOM     20  N   UNL A   1      32.673  31.218  26.983  1.00  0.00    -0.352 N 
ATOM     21  C   UNL A   1      33.603  32.036  27.586  1.00  0.00     0.251 C 
ATOM     22  H   UNL A   1      31.872  31.667  26.628  1.00  0.00     0.163 HD
ATOM     23  O   UNL A   1      33.364  33.216  27.778  1.00  0.00    -0.269 OA
BRANCH  21  24
ATOM     24  C   UNL A   1      34.885  31.445  28.028  1.00  0.00     0.039 A 
ATOM     25  C   UNL A   1      36.006  32.268  28.140  1.00  0.00     0.014 A 
ATOM     26  C   UNL A   1      34.950  30.100  28.401  1.00  0.00     0.014 A 
ATOM     27  C   UNL A   1      37.179  31.755  28.697  1.00  0.00     0.010 A 
ATOM     28  C   UNL A   1      36.086  29.621  29.040  1.00  0.00     0.010 A 
ATOM     29  C   UNL A   1      37.215  30.440  29.189  1.00  0.00    -0.014 A 
BRANCH  29  30
ATOM     30  C   UNL A   1      38.417  29.902  29.874  1.00  0.00     0.031 A 
ATOM     31  C   UNL A   1      38.803  30.417  31.234  1.00  0.00     0.074 A 
ATOM     32  C   UNL A   1      39.220  29.031  29.229  1.00  0.00     0.049 A 
ATOM     33  N   UNL A   1      39.844  30.115  31.964  1.00  0.00    -0.248 NA
ATOM     34  C   UNL A   1      37.921  31.430  31.839  1.00  0.00     0.031 C 
ATOM     35  C   UNL A   1      39.011  28.537  27.867  1.00  0.00     0.029 A 
ATOM     36  N   UNL A   1      40.390  28.433  29.623  1.00  0.00    -0.354 N 
ATOM     37  C   UNL A   1      39.768  30.929  33.087  1.00  0.00     0.074 A 
ATOM     38  C   UNL A   1      38.600  31.765  32.926  1.00  0.00     0.031 C 
ATOM     39  C   UNL A   1      40.014  27.707  27.540  1.00  0.00     0.029 A 
ATOM     40  C   UNL A   1      40.952  27.632  28.656  1.00  0.00     0.049 A 
ATOM     41  H   UNL A   1      40.790  28.564  30.512  1.00  0.00     0.167 HD
ATOM     42  C   UNL A   1      40.577  30.956  34.172  1.00  0.00     0.034 A 
ATOM     43  C   UNL A   1      42.095  26.918  28.666  1.00  0.00     0.034 A 
ATOM     44  C   UNL A   1      41.704  30.083  34.355  1.00  0.00     0.049 A 
ATOM     45  C   UNL A   1      42.938  26.908  29.911  1.00  0.00     0.074 A 
ATOM     46  C   UNL A   1      42.514  29.945  35.466  1.00  0.00     0.029 A 
ATOM     47  N   UNL A   1      42.183  29.203  33.396  1.00  0.00    -0.354 N 
ATOM     48  N   UNL A   1      42.747  27.545  31.041  1.00  0.00    -0.248 NA
ATOM     49  C   UNL A   1      44.134  26.054  29.899  1.00  0.00     0.031 C 
ATOM     50  C   UNL A   1      43.500  28.996  35.172  1.00  0.00     0.029 A 
ATOM     51  C   UNL A   1      43.288  28.527  33.885  1.00  0.00     0.049 A 
ATOM     52  H   UNL A   1      41.796  29.077  32.500  1.00  0.00     0.167 HD
ATOM     53  C   UNL A   1      43.780  27.149  31.883  1.00  0.00     0.074 A 
ATOM     54  C   UNL A   1      44.581  26.197  31.140  1.00  0.00     0.031 C 
ATOM     55  C   UNL A   1      44.050  27.549  33.151  1.00  0.00     0.034 A 
BRANCH  42  56
ATOM     56  C   UNL A   1      40.233  31.924  35.273  1.00  0.00     0.023 A 
ATOM     57  C   UNL A   1      40.949  33.134  35.385  1.00  0.00     0.012 A 
ATOM     58  C   UNL A   1      39.180  31.660  36.170  1.00  0.00     0.148 A 
ATOM     59  C   UNL A   1      40.653  34.045  36.398  1.00  0.00     0.002 A 
ATOM     60  C   UNL A   1      38.860  32.595  37.149  1.00  0.00     0.091 A 
ATOM     61  F   UNL A   1      38.525  30.495  36.066  1.00  0.00    -0.205 F 
ATOM     62  C   UNL A   1      39.603  33.781  37.272  1.00  0.00     0.022 A 
BRANCH  60  63
ATOM     63  S   UNL A   1      37.474  32.380  38.271  1.00  0.00     0.127 S 
ATOM     64  O   UNL A   1      37.934  33.107  39.452  1.00  0.00    -0.237 OA
ATOM     65  O   UNL A   1      36.382  33.030  37.543  1.00  0.00    -0.237 OA
ATOM     66  O   UNL A   1      37.316  30.942  38.438  1.00  0.00    -0.744 OA
ENDBRANCH  60  63
ENDBRANCH  42  56
BRANCH  43  67
ATOM     67  C   UNL A   1      42.460  26.093  27.480  1.00  0.00     0.023 A 
ATOM     68  C   UNL A   1      43.268  26.653  26.472  1.00  0.00     0.012 A 
ATOM     69  C   UNL A   1      42.059  24.747  27.371  1.00  0.00     0.148 A 
ATOM     70  C   UNL A   1      43.652  25.895  25.365  1.00  0.00     0.002 A 
ATOM     71  C   UNL A   1      42.491  23.981  26.294  1.00  0.00     0.091 A 
ATOM     72  F   UNL A   1      41.282  24.237  28.337  1.00  0.00    -0.205 F 
ATOM     73  C   UNL A   1      43.274  24.557  25.282  1.00  0.00     0.022 A 
BRANCH  71  74
ATOM     74  S   UNL A   1      42.166  22.218  26.172  1.00  0.00     0.127 S 
ATOM     75  O   UNL A   1      42.916  21.857  24.972  1.00  0.00    -0.237 OA
ATOM     76  O   UNL A   1      42.733  21.720  27.427  1.00  0.00    -0.237 OA
ATOM     77  O   UNL A   1      40.718  22.089  26.077  1.00  0.00    -0.744 OA
ENDBRANCH  71  74
ENDBRANCH  43  67
BRANCH  55  78
ATOM     78  C   UNL A   1      45.252  26.950  33.830  1.00  0.00     0.023 A 
ATOM     79  C   UNL A   1      46.493  27.614  33.766  1.00  0.00     0.012 A 
ATOM     80  C   UNL A   1      45.135  25.775  34.599  1.00  0.00     0.148 A 
ATOM     81  C   UNL A   1      47.606  27.103  34.432  1.00  0.00     0.002 A 
ATOM     82  C   UNL A   1      46.238  25.298  35.300  1.00  0.00     0.091 A 
ATOM     83  F   UNL A   1      43.952  25.147  34.634  1.00  0.00    -0.205 F 
ATOM     84  C   UNL A   1      47.476  25.954  35.208  1.00  0.00     0.022 A 
BRANCH  82  85
ATOM     85  S   UNL A   1      46.137  23.881  36.398  1.00  0.00     0.127 S 
ATOM     86  O   UNL A   1      45.105  24.307  37.343  1.00  0.00    -0.237 OA
ATOM     87  O   UNL A   1      45.726  22.810  35.489  1.00  0.00    -0.237 OA
ATOM     88  O   UNL A   1      47.471  23.715  36.960  1.00  0.00    -0.744 OA
ENDBRANCH  82  85
ENDBRANCH  55  78
ENDBRANCH  29  30
ENDBRANCH  21  24
ENDBRANCH  19  20
ENDBRANCH   1  19
TORSDOF 15
ENDMDL
MODEL 3
REMARK VINA RESULT:     -10.8      2.312      3.407
REMARK SMILES CC(C)(C)C(=O)N1CCCC[C@@H]1C(=O)NCCCNC(=O)c1ccc(-c2c3nc(c(-c4cccc(S(=O)(=O)[O-])c4F)c4ccc([nH]4)c(-c4cccc(S(=O)(=O)[O-])c4F)c4nc(c(-c5cccc(S(=O)(=O)[O-])c5F)c5ccc2[nH]5)C=C4)C=C3)cc1
REMARK SMILES IDX 17 1 16 2 15 3 13 4 14 5 12 7 7 8 8 9 9 10 11 11 10 12 5 13
REMARK SMILES IDX 6 14 2 15 1 16 3 17 4 18 18 19 19 20 20 21 21 23 22 24 23 25
REMARK SMILES IDX 84 26 24 27 83 28 25 29 26 30 27 31 77 32 28 33 82 34 76 35
REMARK SMILES IDX 78 36 29 37 81 38 75 39 74 40 30 42 62 43 42 44 61 45 43 46
REMARK SMILES IDX 46 47 60 48 79 49 44 50 45 51 59 53 80 54 47 55 31 56 32 57
REMARK SMILES IDX 40 58 33 59 35 60 41 61 34 62 36 63 37 64 38 65 39 66 63 67
REMARK SMILES IDX 64 68 72 69 65 70 67 71 73 72 66 73 68 74 69 75 70 76 71 77
REMARK SMILES IDX 48 78 49 79 57 80 50 81 52 82 58 83 51 84 53 85 54 86 55 87
REMARK SMILES IDX 56 88
REMARK H PARENT 15 6 19 22 78 41 46 52
REMARK Flexibility Score: inf
ROOT
ATOM      1  C   UNL A   1      31.777  28.901  26.508  1.00  0.00     0.042 C 
ENDROOT
BRANCH   1   2
ATOM      2  C   UNL A   1      32.404  27.571  26.876  1.00  0.00     0.117 C 
BRANCH   2   3
ATOM      3  N   UNL A   1      31.429  26.493  26.875  1.00  0.00    -0.354 N 
ATOM      4  C   UNL A   1      31.598  25.169  26.606  1.00  0.00     0.242 C 
ATOM      5  O   UNL A   1      30.593  24.452  26.611  1.00  0.00    -0.273 OA
ATOM      6  H   UNL A   1      30.509  26.759  27.105  1.00  0.00     0.163 HD
BRANCH   4   7
ATOM      7  C   UNL A   1      32.950  24.609  26.127  1.00  0.00     0.174 C 
ATOM      8  N   UNL A   1      33.300  24.726  24.689  1.00  0.00    -0.330 N 
ATOM      9  C   UNL A   1      34.343  23.804  24.225  1.00  0.00     0.120 C 
ATOM     10  C   UNL A   1      34.011  22.354  24.512  1.00  0.00     0.022 C 
ATOM     11  C   UNL A   1      32.834  23.113  26.576  1.00  0.00     0.035 C 
ATOM     12  C   UNL A   1      33.875  22.161  26.011  1.00  0.00     0.004 C 
BRANCH   8  13
ATOM     13  C   UNL A   1      32.974  25.719  23.775  1.00  0.00     0.228 C 
ATOM     14  O   UNL A   1      33.734  26.700  23.720  1.00  0.00    -0.274 OA
BRANCH  13  15
ATOM     15  C   UNL A   1      31.653  25.768  22.951  1.00  0.00     0.041 C 
ATOM     16  C   UNL A   1      32.058  25.754  21.450  1.00  0.00     0.021 C 
ATOM     17  C   UNL A   1      30.951  27.100  23.246  1.00  0.00     0.021 C 
ATOM     18  C   UNL A   1      30.648  24.631  23.109  1.00  0.00     0.021 C 
ENDBRANCH  13  15
ENDBRANCH   8  13
ENDBRANCH   4   7
ENDBRANCH   2   3
ENDBRANCH   1   2
BRANCH   1  19
ATOM     19  C   UNL A   1      32.766  29.902  25.940  1.00  0.00     0.118 C 
BRANCH  19  20
ATOM     20  N   UNL A   1      32.511  31.270  26.374  1.00  0.00    -0.352 N 
ATOM     21  C   UNL A   1      33.237  32.036  27.260  1.00  0.00     0.251 C 
ATOM     22  H   UNL A   1      31.718  31.702  25.983  1.00  0.00     0.163 HD
ATOM     23  O   UNL A   1      32.826  33.124  27.625  1.00  0.00    -0.269 OA
BRANCH  21  24
ATOM     24  C   UNL A   1      34.509  31.494  27.787  1.00  0.00     0.039 A 
ATOM     25  C   UNL A   1      35.578  32.366  28.001  1.00  0.00     0.014 A 
ATOM     26  C   UNL A   1      34.610  30.145  28.137  1.00  0.00     0.014 A 
ATOM     27  C   UNL A   1      36.728  31.895  28.636  1.00  0.00     0.010 A 
ATOM     28  C   UNL A   1      35.716  29.704  28.851  1.00  0.00     0.010 A 
ATOM     29  C   UNL A   1      36.790  30.571  29.102  1.00  0.00    -0.014 A 
BRANCH  29  30
ATOM     30  C   UNL A   1      37.961  30.073  29.867  1.00  0.00     0.031 A 
ATOM     31  C   UNL A   1      38.208  30.561  31.269  1.00  0.00     0.074 A 
ATOM     32  C   UNL A   1      38.859  29.268  29.263  1.00  0.00     0.049 A 
ATOM     33  N   UNL A   1      39.203  30.289  32.071  1.00  0.00    -0.248 NA
ATOM     34  C   UNL A   1      37.227  31.506  31.830  1.00  0.00     0.031 C 
ATOM     35  C   UNL A   1      38.786  28.810  27.875  1.00  0.00     0.029 A 
ATOM     36  N   UNL A   1      40.025  28.718  29.733  1.00  0.00    -0.354 N 
ATOM     37  C   UNL A   1      38.994  31.059  33.208  1.00  0.00     0.074 A 
ATOM     38  C   UNL A   1      37.798  31.838  32.977  1.00  0.00     0.031 C 
ATOM     39  C   UNL A   1      39.856  28.045  27.606  1.00  0.00     0.029 A 
ATOM     40  C   UNL A   1      40.705  27.980  28.792  1.00  0.00     0.049 A 
ATOM     41  H   UNL A   1      40.345  28.839  30.656  1.00  0.00     0.167 HD
ATOM     42  C   UNL A   1      39.711  31.091  34.356  1.00  0.00     0.034 A 
ATOM     43  C   UNL A   1      41.880  27.327  28.874  1.00  0.00     0.034 A 
ATOM     44  C   UNL A   1      40.866  30.271  34.603  1.00  0.00     0.049 A 
ATOM     45  C   UNL A   1      42.621  27.318  30.182  1.00  0.00     0.074 A 
ATOM     46  C   UNL A   1      41.591  30.137  35.772  1.00  0.00     0.029 A 
ATOM     47  N   UNL A   1      41.468  29.450  33.661  1.00  0.00    -0.354 N 
ATOM     48  N   UNL A   1      42.307  27.906  31.311  1.00  0.00    -0.248 NA
ATOM     49  C   UNL A   1      43.859  26.528  30.241  1.00  0.00     0.031 C 
ATOM     50  C   UNL A   1      42.648  29.251  35.531  1.00  0.00     0.029 A 
ATOM     51  C   UNL A   1      42.565  28.817  34.218  1.00  0.00     0.049 A 
ATOM     52  H   UNL A   1      41.160  29.335  32.733  1.00  0.00     0.167 HD
ATOM     53  C   UNL A   1      43.289  27.535  32.222  1.00  0.00     0.074 A 
ATOM     54  C   UNL A   1      44.197  26.653  31.519  1.00  0.00     0.031 C 
ATOM     55  C   UNL A   1      43.435  27.905  33.519  1.00  0.00     0.034 A 
BRANCH  42  56
ATOM     56  C   UNL A   1      39.228  32.001  35.454  1.00  0.00     0.023 A 
ATOM     57  C   UNL A   1      38.250  31.542  36.359  1.00  0.00     0.012 A 
ATOM     58  C   UNL A   1      39.767  33.293  35.616  1.00  0.00     0.148 A 
ATOM     59  C   UNL A   1      37.784  32.367  37.382  1.00  0.00     0.002 A 
ATOM     60  C   UNL A   1      39.330  34.093  36.667  1.00  0.00     0.091 A 
ATOM     61  F   UNL A   1      40.677  33.724  34.732  1.00  0.00    -0.205 F 
ATOM     62  C   UNL A   1      38.330  33.636  37.542  1.00  0.00     0.022 A 
BRANCH  60  63
ATOM     63  S   UNL A   1      40.031  35.712  37.001  1.00  0.00     0.127 S 
ATOM     64  O   UNL A   1      39.653  36.452  35.799  1.00  0.00    -0.237 OA
ATOM     65  O   UNL A   1      39.316  36.115  38.214  1.00  0.00    -0.237 OA
ATOM     66  O   UNL A   1      41.460  35.497  37.186  1.00  0.00    -0.744 OA
ENDBRANCH  60  63
ENDBRANCH  42  56
BRANCH  43  67
ATOM     67  C   UNL A   1      42.383  26.563  27.697  1.00  0.00     0.023 A 
ATOM     68  C   UNL A   1      43.268  27.186  26.796  1.00  0.00     0.012 A 
ATOM     69  C   UNL A   1      42.036  25.213  27.496  1.00  0.00     0.148 A 
ATOM     70  C   UNL A   1      43.779  26.486  25.702  1.00  0.00     0.002 A 
ATOM     71  C   UNL A   1      42.593  24.505  26.437  1.00  0.00     0.091 A 
ATOM     72  F   UNL A   1      41.186  24.641  28.361  1.00  0.00    -0.205 F 
ATOM     73  C   UNL A   1      43.452  25.144  25.529  1.00  0.00     0.022 A 
BRANCH  71  74
ATOM     74  S   UNL A   1      42.336  22.741  26.214  1.00  0.00     0.127 S 
ATOM     75  O   UNL A   1      42.996  22.501  24.934  1.00  0.00    -0.237 OA
ATOM     76  O   UNL A   1      43.028  22.186  27.379  1.00  0.00    -0.237 OA
ATOM     77  O   UNL A   1      40.892  22.548  26.228  1.00  0.00    -0.744 OA
ENDBRANCH  71  74
ENDBRANCH  43  67
BRANCH  55  78
ATOM     78  C   UNL A   1      44.610  27.347  34.276  1.00  0.00     0.023 A 
ATOM     79  C   UNL A   1      45.824  28.062  34.306  1.00  0.00     0.012 A 
ATOM     80  C   UNL A   1      44.488  26.158  35.023  1.00  0.00     0.148 A 
ATOM     81  C   UNL A   1      46.908  27.587  35.044  1.00  0.00     0.002 A 
ATOM     82  C   UNL A   1      45.557  25.717  35.794  1.00  0.00     0.091 A 
ATOM     83  F   UNL A   1      43.332  25.482  34.966  1.00  0.00    -0.205 F 
ATOM     84  C   UNL A   1      46.771  26.423  35.798  1.00  0.00     0.022 A 
BRANCH  82  85
ATOM     85  S   UNL A   1      45.439  24.282  36.869  1.00  0.00     0.127 S 
ATOM     86  O   UNL A   1      44.438  24.719  37.841  1.00  0.00    -0.237 OA
ATOM     87  O   UNL A   1      44.980  23.241  35.948  1.00  0.00    -0.237 OA
ATOM     88  O   UNL A   1      46.778  24.068  37.400  1.00  0.00    -0.744 OA
ENDBRANCH  82  85
ENDBRANCH  55  78
ENDBRANCH  29  30
ENDBRANCH  21  24
ENDBRANCH  19  20
ENDBRANCH   1  19
TORSDOF 15
ENDMDL
