MODEL 1
REMARK VINA RESULT:     -12.9      0.000      0.000
REMARK SMILES Cc1c(CC(=O)NCCCNC(=O)c2ccc(-c3c4nc(c(-c5cccc(S(=O)(=O)[O-])c5F)c5ccc([nH]5)c(-c5cccc(S(=O)(=O)[O-])c5F)c5nc(c(-c6cccc(S(=O)(=O)[O-])c6F)c6ccc3[nH]6)C=C5)C=C4)cc2)c2cc(O)ccc2n1C(=O)c1ccc(Cl)cc1
REMARK SMILES IDX 9 1 8 2 7 3 5 4 6 5 4 7 3 8 1 9 2 10 84 11 77 12 83 13 78 14
REMARK SMILES IDX 82 15 79 16 81 17 85 18 86 19 87 20 88 21 93 22 89 23 92 24
REMARK SMILES IDX 90 25 91 26 80 27 10 29 11 30 12 31 13 33 14 34 15 35 76 36
REMARK SMILES IDX 16 37 75 38 17 39 18 40 19 41 69 42 20 43 74 44 68 45 70 46
REMARK SMILES IDX 21 47 73 48 67 49 66 50 22 52 54 53 34 54 53 55 35 56 38 57
REMARK SMILES IDX 52 58 71 59 36 60 37 61 51 63 72 64 39 65 23 66 24 67 32 68
REMARK SMILES IDX 25 69 27 70 33 71 26 72 28 73 29 74 30 75 31 76 55 77 56 78
REMARK SMILES IDX 64 79 57 80 59 81 65 82 58 83 60 84 61 85 62 86 63 87 40 88
REMARK SMILES IDX 41 89 49 90 42 91 44 92 50 93 43 94 45 95 46 96 47 97 48 98
REMARK H PARENT 7 6 80 28 11 32 70 51 38 62
REMARK Flexibility Score: inf
ROOT
ATOM      1  C   UNL A   1      32.700  29.929  27.262  1.00  0.00     0.042 C 
ENDROOT
BRANCH   1   2
ATOM      2  C   UNL A   1      32.909  28.432  27.014  1.00  0.00     0.117 C 
BRANCH   2   3
ATOM      3  N   UNL A   1      33.130  28.122  25.611  1.00  0.00    -0.356 N 
ATOM      4  C   UNL A   1      33.135  26.910  24.983  1.00  0.00     0.224 C 
ATOM      5  O   UNL A   1      33.317  26.887  23.763  1.00  0.00    -0.275 OA
ATOM      6  H   UNL A   1      33.302  28.897  25.030  1.00  0.00     0.163 HD
BRANCH   4   7
ATOM      7  C   UNL A   1      32.858  25.636  25.764  1.00  0.00     0.138 C 
BRANCH   7   8
ATOM      8  C   UNL A   1      33.245  24.387  25.025  1.00  0.00    -0.009 A 
ATOM      9  C   UNL A   1      30.938  23.706  24.053  1.00  0.00     0.065 C 
ATOM     10  C   UNL A   1      32.406  23.547  24.304  1.00  0.00     0.028 A 
ATOM     11  N   UNL A   1      33.143  22.436  23.863  1.00  0.00    -0.280 N 
ATOM     12  C   UNL A   1      34.564  23.868  24.899  1.00  0.00     0.008 A 
ATOM     13  C   UNL A   1      34.500  22.708  24.116  1.00  0.00     0.057 A 
ATOM     14  C   UNL A   1      35.816  24.315  25.379  1.00  0.00     0.056 A 
ATOM     15  C   UNL A   1      35.691  22.045  23.750  1.00  0.00     0.031 A 
ATOM     16  C   UNL A   1      36.970  23.604  25.070  1.00  0.00     0.116 A 
ATOM     17  C   UNL A   1      36.917  22.488  24.258  1.00  0.00     0.048 A 
BRANCH  11  18
ATOM     18  C   UNL A   1      32.579  21.263  23.271  1.00  0.00     0.262 C 
ATOM     19  O   UNL A   1      32.067  21.357  22.164  1.00  0.00    -0.268 OA
BRANCH  18  20
ATOM     20  C   UNL A   1      32.564  19.914  23.869  1.00  0.00     0.040 A 
ATOM     21  C   UNL A   1      32.702  19.725  25.248  1.00  0.00     0.015 A 
ATOM     22  C   UNL A   1      32.388  18.821  23.014  1.00  0.00     0.015 A 
ATOM     23  C   UNL A   1      32.775  18.425  25.755  1.00  0.00     0.021 A 
ATOM     24  C   UNL A   1      32.444  17.525  23.529  1.00  0.00     0.021 A 
ATOM     25  C   UNL A   1      32.664  17.332  24.891  1.00  0.00     0.041 A 
ATOM     26  Cl  UNL A   1      32.834  15.736  25.512  1.00  0.00    -0.084 Cl
ENDBRANCH  18  20
ENDBRANCH  11  18
BRANCH  16  27
ATOM     27  O   UNL A   1      38.153  24.055  25.582  1.00  0.00    -0.508 OA
ATOM     28  H   UNL A   1      38.946  23.942  25.095  1.00  0.00     0.293 HD
ENDBRANCH  16  27
ENDBRANCH   7   8
ENDBRANCH   4   7
ENDBRANCH   2   3
ENDBRANCH   1   2
BRANCH   1  29
ATOM     29  C   UNL A   1      34.006  30.713  27.396  1.00  0.00     0.118 C 
BRANCH  29  30
ATOM     30  N   UNL A   1      34.040  31.600  28.543  1.00  0.00    -0.352 N 
ATOM     31  C   UNL A   1      34.969  31.967  29.472  1.00  0.00     0.251 C 
ATOM     32  H   UNL A   1      33.176  32.050  28.686  1.00  0.00     0.163 HD
ATOM     33  O   UNL A   1      34.612  32.863  30.244  1.00  0.00    -0.269 OA
BRANCH  31  34
ATOM     34  C   UNL A   1      36.304  31.341  29.667  1.00  0.00     0.039 A 
ATOM     35  C   UNL A   1      37.530  32.006  29.650  1.00  0.00     0.014 A 
ATOM     36  C   UNL A   1      36.299  29.938  29.811  1.00  0.00     0.014 A 
ATOM     37  C   UNL A   1      38.718  31.278  29.655  1.00  0.00     0.010 A 
ATOM     38  C   UNL A   1      37.481  29.210  29.831  1.00  0.00     0.010 A 
ATOM     39  C   UNL A   1      38.687  29.880  29.691  1.00  0.00    -0.014 A 
BRANCH  39  40
ATOM     40  C   UNL A   1      39.956  29.158  29.676  1.00  0.00     0.031 A 
ATOM     41  C   UNL A   1      40.555  28.945  31.024  1.00  0.00     0.074 A 
ATOM     42  C   UNL A   1      40.505  28.645  28.554  1.00  0.00     0.049 A 
ATOM     43  N   UNL A   1      41.649  29.453  31.491  1.00  0.00    -0.248 NA
ATOM     44  C   UNL A   1      39.769  28.196  32.017  1.00  0.00     0.031 C 
ATOM     45  C   UNL A   1      39.913  28.548  27.217  1.00  0.00     0.029 A 
ATOM     46  N   UNL A   1      41.688  27.984  28.406  1.00  0.00    -0.354 N 
ATOM     47  C   UNL A   1      41.801  28.911  32.766  1.00  0.00     0.074 A 
ATOM     48  C   UNL A   1      40.550  28.278  33.096  1.00  0.00     0.031 C 
ATOM     49  C   UNL A   1      40.618  27.659  26.479  1.00  0.00     0.029 A 
ATOM     50  C   UNL A   1      41.782  27.233  27.234  1.00  0.00     0.049 A 
ATOM     51  H   UNL A   1      42.414  28.032  29.070  1.00  0.00     0.167 HD
ATOM     52  C   UNL A   1      43.014  28.831  33.379  1.00  0.00     0.034 A 
ATOM     53  C   UNL A   1      42.713  26.282  26.960  1.00  0.00     0.034 A 
ATOM     54  C   UNL A   1      44.000  29.656  32.740  1.00  0.00     0.049 A 
ATOM     55  C   UNL A   1      43.871  26.559  27.842  1.00  0.00     0.074 A 
ATOM     56  C   UNL A   1      44.143  31.010  32.516  1.00  0.00     0.029 A 
ATOM     57  N   UNL A   1      44.861  29.032  31.872  1.00  0.00    -0.354 N 
ATOM     58  N   UNL A   1      44.614  27.625  27.743  1.00  0.00    -0.248 NA
ATOM     59  C   UNL A   1      43.942  25.852  29.109  1.00  0.00     0.031 C 
ATOM     60  C   UNL A   1      44.705  31.103  31.210  1.00  0.00     0.029 A 
ATOM     61  C   UNL A   1      44.927  29.806  30.745  1.00  0.00     0.049 A 
ATOM     62  H   UNL A   1      45.341  28.188  32.030  1.00  0.00     0.167 HD
ATOM     63  C   UNL A   1      44.882  27.974  29.059  1.00  0.00     0.074 A 
ATOM     64  C   UNL A   1      44.527  26.797  29.850  1.00  0.00     0.031 C 
ATOM     65  C   UNL A   1      45.090  29.274  29.412  1.00  0.00     0.034 A 
BRANCH  52  66
ATOM     66  C   UNL A   1      43.403  27.748  34.347  1.00  0.00     0.023 A 
ATOM     67  C   UNL A   1      43.811  28.123  35.644  1.00  0.00     0.012 A 
ATOM     68  C   UNL A   1      43.645  26.413  33.949  1.00  0.00     0.148 A 
ATOM     69  C   UNL A   1      44.440  27.213  36.502  1.00  0.00     0.002 A 
ATOM     70  C   UNL A   1      44.210  25.497  34.826  1.00  0.00     0.091 A 
ATOM     71  F   UNL A   1      43.447  26.060  32.674  1.00  0.00    -0.205 F 
ATOM     72  C   UNL A   1      44.629  25.895  36.097  1.00  0.00     0.022 A 
BRANCH  70  73
ATOM     73  S   UNL A   1      44.466  23.780  34.362  1.00  0.00     0.127 S 
ATOM     74  O   UNL A   1      45.371  23.918  33.224  1.00  0.00    -0.237 OA
ATOM     75  O   UNL A   1      45.072  23.231  35.574  1.00  0.00    -0.237 OA
ATOM     76  O   UNL A   1      43.139  23.255  34.065  1.00  0.00    -0.744 OA
ENDBRANCH  70  73
ENDBRANCH  52  66
BRANCH  53  77
ATOM     77  C   UNL A   1      42.593  24.985  26.238  1.00  0.00     0.023 A 
ATOM     78  C   UNL A   1      43.580  24.636  25.289  1.00  0.00     0.012 A 
ATOM     79  C   UNL A   1      41.728  23.965  26.690  1.00  0.00     0.148 A 
ATOM     80  C   UNL A   1      43.748  23.311  24.864  1.00  0.00     0.002 A 
ATOM     81  C   UNL A   1      41.892  22.650  26.256  1.00  0.00     0.091 A 
ATOM     82  F   UNL A   1      40.809  24.257  27.618  1.00  0.00    -0.205 F 
ATOM     83  C   UNL A   1      42.913  22.315  25.359  1.00  0.00     0.022 A 
BRANCH  81  84
ATOM     84  S   UNL A   1      40.858  21.310  26.865  1.00  0.00     0.127 S 
ATOM     85  O   UNL A   1      39.536  21.694  26.370  1.00  0.00    -0.237 OA
ATOM     86  O   UNL A   1      41.446  20.148  26.205  1.00  0.00    -0.237 OA
ATOM     87  O   UNL A   1      40.984  21.344  28.318  1.00  0.00    -0.744 OA
ENDBRANCH  81  84
ENDBRANCH  53  77
BRANCH  65  88
ATOM     88  C   UNL A   1      45.252  30.292  28.314  1.00  0.00     0.023 A 
ATOM     89  C   UNL A   1      44.150  30.948  27.726  1.00  0.00     0.012 A 
ATOM     90  C   UNL A   1      46.550  30.743  28.029  1.00  0.00     0.148 A 
ATOM     91  C   UNL A   1      44.343  32.040  26.874  1.00  0.00     0.002 A 
ATOM     92  C   UNL A   1      46.736  31.851  27.213  1.00  0.00     0.091 A 
ATOM     93  F   UNL A   1      47.578  30.108  28.611  1.00  0.00    -0.205 F 
ATOM     94  C   UNL A   1      45.636  32.500  26.630  1.00  0.00     0.022 A 
BRANCH  92  95
ATOM     95  S   UNL A   1      48.360  32.563  26.948  1.00  0.00     0.127 S 
ATOM     96  O   UNL A   1      48.718  33.019  28.290  1.00  0.00    -0.237 OA
ATOM     97  O   UNL A   1      49.129  31.413  26.467  1.00  0.00    -0.237 OA
ATOM     98  O   UNL A   1      48.186  33.621  25.960  1.00  0.00    -0.744 OA
ENDBRANCH  92  95
ENDBRANCH  65  88
ENDBRANCH  39  40
ENDBRANCH  31  34
ENDBRANCH  29  30
ENDBRANCH   1  29
TORSDOF 17
ENDMDL
MODEL 2
REMARK VINA RESULT:     -12.7      1.168      2.326
REMARK SMILES Cc1c(CC(=O)NCCCNC(=O)c2ccc(-c3c4nc(c(-c5cccc(S(=O)(=O)[O-])c5F)c5ccc([nH]5)c(-c5cccc(S(=O)(=O)[O-])c5F)c5nc(c(-c6cccc(S(=O)(=O)[O-])c6F)c6ccc3[nH]6)C=C5)C=C4)cc2)c2cc(O)ccc2n1C(=O)c1ccc(Cl)cc1
REMARK SMILES IDX 9 1 8 2 7 3 5 4 6 5 4 7 3 8 1 9 2 10 84 11 77 12 83 13 78 14
REMARK SMILES IDX 82 15 79 16 81 17 85 18 86 19 87 20 88 21 93 22 89 23 92 24
REMARK SMILES IDX 90 25 91 26 80 27 10 29 11 30 12 31 13 33 14 34 15 35 76 36
REMARK SMILES IDX 16 37 75 38 17 39 18 40 19 41 69 42 20 43 74 44 68 45 70 46
REMARK SMILES IDX 21 47 73 48 67 49 66 50 22 52 54 53 34 54 53 55 35 56 38 57
REMARK SMILES IDX 52 58 71 59 36 60 37 61 51 63 72 64 39 65 23 66 24 67 32 68
REMARK SMILES IDX 25 69 27 70 33 71 26 72 28 73 29 74 30 75 31 76 55 77 56 78
REMARK SMILES IDX 64 79 57 80 59 81 65 82 58 83 60 84 61 85 62 86 63 87 40 88
REMARK SMILES IDX 41 89 49 90 42 91 44 92 50 93 43 94 45 95 46 96 47 97 48 98
REMARK H PARENT 7 6 80 28 11 32 70 51 38 62
REMARK Flexibility Score: inf
ROOT
ATOM      1  C   UNL A   1      33.969  30.736  27.495  1.00  0.00     0.042 C 
ENDROOT
BRANCH   1   2
ATOM      2  C   UNL A   1      32.724  30.444  26.651  1.00  0.00     0.117 C 
BRANCH   2   3
ATOM      3  N   UNL A   1      32.038  29.231  27.064  1.00  0.00    -0.356 N 
ATOM      4  C   UNL A   1      32.408  27.928  26.895  1.00  0.00     0.224 C 
ATOM      5  O   UNL A   1      31.675  27.050  27.361  1.00  0.00    -0.275 OA
ATOM      6  H   UNL A   1      31.184  29.369  27.534  1.00  0.00     0.163 HD
BRANCH   4   7
ATOM      7  C   UNL A   1      33.718  27.580  26.208  1.00  0.00     0.138 C 
BRANCH   7   8
ATOM      8  C   UNL A   1      33.575  26.525  25.149  1.00  0.00    -0.009 A 
ATOM      9  C   UNL A   1      34.987  24.626  26.213  1.00  0.00     0.065 C 
ATOM     10  C   UNL A   1      34.143  25.258  25.149  1.00  0.00     0.028 A 
ATOM     11  N   UNL A   1      33.853  24.629  23.927  1.00  0.00    -0.280 N 
ATOM     12  C   UNL A   1      32.786  26.630  23.970  1.00  0.00     0.008 A 
ATOM     13  C   UNL A   1      32.903  25.426  23.263  1.00  0.00     0.057 A 
ATOM     14  C   UNL A   1      31.959  27.658  23.461  1.00  0.00     0.056 A 
ATOM     15  C   UNL A   1      32.136  25.223  22.095  1.00  0.00     0.031 A 
ATOM     16  C   UNL A   1      31.271  27.467  22.269  1.00  0.00     0.116 A 
ATOM     17  C   UNL A   1      31.346  26.264  21.594  1.00  0.00     0.048 A 
BRANCH  11  18
ATOM     18  C   UNL A   1      34.438  23.404  23.478  1.00  0.00     0.262 C 
ATOM     19  O   UNL A   1      35.390  23.458  22.712  1.00  0.00    -0.268 OA
BRANCH  18  20
ATOM     20  C   UNL A   1      34.008  22.047  23.867  1.00  0.00     0.040 A 
ATOM     21  C   UNL A   1      32.741  21.559  23.535  1.00  0.00     0.015 A 
ATOM     22  C   UNL A   1      34.918  21.248  24.568  1.00  0.00     0.015 A 
ATOM     23  C   UNL A   1      32.346  20.304  24.006  1.00  0.00     0.021 A 
ATOM     24  C   UNL A   1      34.525  19.988  25.021  1.00  0.00     0.021 A 
ATOM     25  C   UNL A   1      33.233  19.533  24.762  1.00  0.00     0.041 A 
ATOM     26  Cl  UNL A   1      32.714  18.024  25.405  1.00  0.00    -0.084 Cl
ENDBRANCH  18  20
ENDBRANCH  11  18
BRANCH  16  27
ATOM     27  O   UNL A   1      30.511  28.498  21.799  1.00  0.00    -0.508 OA
ATOM     28  H   UNL A   1      29.600  28.365  21.622  1.00  0.00     0.293 HD
ENDBRANCH  16  27
ENDBRANCH   7   8
ENDBRANCH   4   7
ENDBRANCH   2   3
ENDBRANCH   1   2
BRANCH   1  29
ATOM     29  C   UNL A   1      34.051  32.184  27.979  1.00  0.00     0.118 C 
BRANCH  29  30
ATOM     30  N   UNL A   1      34.220  32.312  29.414  1.00  0.00    -0.352 N 
ATOM     31  C   UNL A   1      35.181  31.978  30.322  1.00  0.00     0.251 C 
ATOM     32  H   UNL A   1      33.446  32.750  29.838  1.00  0.00     0.163 HD
ATOM     33  O   UNL A   1      34.974  32.375  31.474  1.00  0.00    -0.269 OA
BRANCH  31  34
ATOM     34  C   UNL A   1      36.380  31.138  30.057  1.00  0.00     0.039 A 
ATOM     35  C   UNL A   1      36.420  29.744  30.065  1.00  0.00     0.014 A 
ATOM     36  C   UNL A   1      37.581  31.847  29.849  1.00  0.00     0.014 A 
ATOM     37  C   UNL A   1      37.642  29.081  29.988  1.00  0.00     0.010 A 
ATOM     38  C   UNL A   1      38.801  31.190  29.758  1.00  0.00     0.010 A 
ATOM     39  C   UNL A   1      38.833  29.809  29.890  1.00  0.00    -0.014 A 
BRANCH  39  40
ATOM     40  C   UNL A   1      40.092  29.073  29.832  1.00  0.00     0.031 A 
ATOM     41  C   UNL A   1      40.729  28.842  31.159  1.00  0.00     0.074 A 
ATOM     42  C   UNL A   1      40.600  28.561  28.690  1.00  0.00     0.049 A 
ATOM     43  N   UNL A   1      41.843  29.334  31.596  1.00  0.00    -0.248 NA
ATOM     44  C   UNL A   1      39.966  28.095  32.171  1.00  0.00     0.031 C 
ATOM     45  C   UNL A   1      39.967  28.481  27.371  1.00  0.00     0.029 A 
ATOM     46  N   UNL A   1      41.771  27.888  28.502  1.00  0.00    -0.354 N 
ATOM     47  C   UNL A   1      42.028  28.781  32.862  1.00  0.00     0.074 A 
ATOM     48  C   UNL A   1      40.780  28.160  33.226  1.00  0.00     0.031 C 
ATOM     49  C   UNL A   1      40.638  27.589  26.606  1.00  0.00     0.029 A 
ATOM     50  C   UNL A   1      41.820  27.144  27.322  1.00  0.00     0.049 A 
ATOM     51  H   UNL A   1      42.517  27.922  29.143  1.00  0.00     0.167 HD
ATOM     52  C   UNL A   1      43.257  28.682  33.437  1.00  0.00     0.034 A 
ATOM     53  C   UNL A   1      42.731  26.185  27.012  1.00  0.00     0.034 A 
ATOM     54  C   UNL A   1      44.234  29.501  32.775  1.00  0.00     0.049 A 
ATOM     55  C   UNL A   1      43.918  26.442  27.861  1.00  0.00     0.074 A 
ATOM     56  C   UNL A   1      44.386  30.854  32.555  1.00  0.00     0.029 A 
ATOM     57  N   UNL A   1      45.060  28.872  31.876  1.00  0.00    -0.354 N 
ATOM     58  N   UNL A   1      44.670  27.500  27.747  1.00  0.00    -0.248 NA
ATOM     59  C   UNL A   1      44.020  25.724  29.120  1.00  0.00     0.031 C 
ATOM     60  C   UNL A   1      44.908  30.951  31.234  1.00  0.00     0.029 A 
ATOM     61  C   UNL A   1      45.101  29.654  30.753  1.00  0.00     0.049 A 
ATOM     62  H   UNL A   1      45.534  28.022  32.013  1.00  0.00     0.167 HD
ATOM     63  C   UNL A   1      44.983  27.836  29.056  1.00  0.00     0.074 A 
ATOM     64  C   UNL A   1      44.638  26.657  29.849  1.00  0.00     0.031 C 
ATOM     65  C   UNL A   1      45.217  29.130  29.412  1.00  0.00     0.034 A 
BRANCH  52  66
ATOM     66  C   UNL A   1      43.664  27.587  34.385  1.00  0.00     0.023 A 
ATOM     67  C   UNL A   1      44.217  27.950  35.631  1.00  0.00     0.012 A 
ATOM     68  C   UNL A   1      43.776  26.234  33.992  1.00  0.00     0.148 A 
ATOM     69  C   UNL A   1      44.862  27.010  36.444  1.00  0.00     0.002 A 
ATOM     70  C   UNL A   1      44.360  25.293  34.830  1.00  0.00     0.091 A 
ATOM     71  F   UNL A   1      43.435  25.879  32.749  1.00  0.00    -0.205 F 
ATOM     72  C   UNL A   1      44.922  25.678  36.048  1.00  0.00     0.022 A 
BRANCH  70  73
ATOM     73  S   UNL A   1      44.454  23.557  34.377  1.00  0.00     0.127 S 
ATOM     74  O   UNL A   1      44.905  22.954  35.628  1.00  0.00    -0.237 OA
ATOM     75  O   UNL A   1      43.068  23.268  34.012  1.00  0.00    -0.237 OA
ATOM     76  O   UNL A   1      45.392  23.495  33.263  1.00  0.00    -0.744 OA
ENDBRANCH  70  73
ENDBRANCH  52  66
BRANCH  53  77
ATOM     77  C   UNL A   1      42.573  24.895  26.286  1.00  0.00     0.023 A 
ATOM     78  C   UNL A   1      43.581  24.492  25.379  1.00  0.00     0.012 A 
ATOM     79  C   UNL A   1      41.637  23.923  26.699  1.00  0.00     0.148 A 
ATOM     80  C   UNL A   1      43.696  23.159  24.961  1.00  0.00     0.002 A 
ATOM     81  C   UNL A   1      41.750  22.600  26.272  1.00  0.00     0.091 A 
ATOM     82  F   UNL A   1      40.695  24.264  27.587  1.00  0.00    -0.205 F 
ATOM     83  C   UNL A   1      42.789  22.210  25.420  1.00  0.00     0.022 A 
BRANCH  81  84
ATOM     84  S   UNL A   1      40.621  21.318  26.836  1.00  0.00     0.127 S 
ATOM     85  O   UNL A   1      39.324  21.838  26.402  1.00  0.00    -0.237 OA
ATOM     86  O   UNL A   1      41.092  20.151  26.095  1.00  0.00    -0.237 OA
ATOM     87  O   UNL A   1      40.784  21.257  28.284  1.00  0.00    -0.744 OA
ENDBRANCH  81  84
ENDBRANCH  53  77
BRANCH  65  88
ATOM     88  C   UNL A   1      45.358  30.154  28.316  1.00  0.00     0.023 A 
ATOM     89  C   UNL A   1      44.240  30.747  27.690  1.00  0.00     0.012 A 
ATOM     90  C   UNL A   1      46.637  30.678  28.074  1.00  0.00     0.148 A 
ATOM     91  C   UNL A   1      44.400  31.846  26.842  1.00  0.00     0.002 A 
ATOM     92  C   UNL A   1      46.787  31.793  27.260  1.00  0.00     0.091 A 
ATOM     93  F   UNL A   1      47.679  30.102  28.691  1.00  0.00    -0.205 F 
ATOM     94  C   UNL A   1      45.671  32.379  26.639  1.00  0.00     0.022 A 
BRANCH  92  95
ATOM     95  S   UNL A   1      48.376  32.596  27.047  1.00  0.00     0.127 S 
ATOM     96  O   UNL A   1      48.029  33.748  26.217  1.00  0.00    -0.237 OA
ATOM     97  O   UNL A   1      48.746  32.923  28.425  1.00  0.00    -0.237 OA
ATOM     98  O   UNL A   1      49.247  31.615  26.411  1.00  0.00    -0.744 OA
ENDBRANCH  92  95
ENDBRANCH  65  88
ENDBRANCH  39  40
ENDBRANCH  31  34
ENDBRANCH  29  30
ENDBRANCH   1  29
TORSDOF 17
ENDMDL
MODEL 3
REMARK VINA RESULT:     -12.7      4.049      9.111
REMARK SMILES Cc1c(CC(=O)NCCCNC(=O)c2ccc(-c3c4nc(c(-c5cccc(S(=O)(=O)[O-])c5F)c5ccc([nH]5)c(-c5cccc(S(=O)(=O)[O-])c5F)c5nc(c(-c6cccc(S(=O)(=O)[O-])c6F)c6ccc3[nH]6)C=C5)C=C4)cc2)c2cc(O)ccc2n1C(=O)c1ccc(Cl)cc1
REMARK SMILES IDX 9 1 8 2 7 3 5 4 6 5 4 7 3 8 1 9 2 10 84 11 77 12 83 13 78 14
REMARK SMILES IDX 82 15 79 16 81 17 85 18 86 19 87 20 88 21 93 22 89 23 92 24
REMARK SMILES IDX 90 25 91 26 80 27 10 29 11 30 12 31 13 33 14 34 15 35 76 36
REMARK SMILES IDX 16 37 75 38 17 39 18 40 19 41 69 42 20 43 74 44 68 45 70 46
REMARK SMILES IDX 21 47 73 48 67 49 66 50 22 52 54 53 34 54 53 55 35 56 38 57
REMARK SMILES IDX 52 58 71 59 36 60 37 61 51 63 72 64 39 65 23 66 24 67 32 68
REMARK SMILES IDX 25 69 27 70 33 71 26 72 28 73 29 74 30 75 31 76 55 77 56 78
REMARK SMILES IDX 64 79 57 80 59 81 65 82 58 83 60 84 61 85 62 86 63 87 40 88
REMARK SMILES IDX 41 89 49 90 42 91 44 92 50 93 43 94 45 95 46 96 47 97 48 98
REMARK H PARENT 7 6 80 28 11 32 70 51 38 62
REMARK Flexibility Score: inf
ROOT
ATOM      1  C   UNL A   1      37.373  22.669  24.437  1.00  0.00     0.042 C 
ENDROOT
BRANCH   1   2
ATOM      2  C   UNL A   1      35.904  22.325  24.172  1.00  0.00     0.117 C 
BRANCH   2   3
ATOM      3  N   UNL A   1      35.049  22.596  25.316  1.00  0.00    -0.356 N 
ATOM      4  C   UNL A   1      34.346  23.725  25.623  1.00  0.00     0.224 C 
ATOM      5  O   UNL A   1      33.654  23.719  26.645  1.00  0.00    -0.275 OA
ATOM      6  H   UNL A   1      34.965  21.859  25.963  1.00  0.00     0.163 HD
BRANCH   4   7
ATOM      7  C   UNL A   1      34.372  24.926  24.693  1.00  0.00     0.138 C 
BRANCH   7   8
ATOM      8  C   UNL A   1      33.168  25.813  24.829  1.00  0.00    -0.009 A 
ATOM      9  C   UNL A   1      31.474  24.502  23.364  1.00  0.00     0.065 C 
ATOM     10  C   UNL A   1      31.925  25.634  24.236  1.00  0.00     0.028 A 
ATOM     11  N   UNL A   1      31.115  26.744  24.530  1.00  0.00    -0.280 N 
ATOM     12  C   UNL A   1      33.081  26.981  25.637  1.00  0.00     0.008 A 
ATOM     13  C   UNL A   1      31.787  27.503  25.505  1.00  0.00     0.057 A 
ATOM     14  C   UNL A   1      34.007  27.623  26.491  1.00  0.00     0.056 A 
ATOM     15  C   UNL A   1      31.399  28.614  26.284  1.00  0.00     0.031 A 
ATOM     16  C   UNL A   1      33.628  28.762  27.191  1.00  0.00     0.116 A 
ATOM     17  C   UNL A   1      32.339  29.252  27.102  1.00  0.00     0.048 A 
BRANCH  11  18
ATOM     18  C   UNL A   1      29.848  27.014  23.927  1.00  0.00     0.262 C 
ATOM     19  O   UNL A   1      28.943  26.205  24.082  1.00  0.00    -0.268 OA
BRANCH  18  20
ATOM     20  C   UNL A   1      29.508  28.207  23.127  1.00  0.00     0.040 A 
ATOM     21  C   UNL A   1      30.475  28.883  22.377  1.00  0.00     0.015 A 
ATOM     22  C   UNL A   1      28.177  28.636  23.125  1.00  0.00     0.015 A 
ATOM     23  C   UNL A   1      30.123  30.061  21.712  1.00  0.00     0.021 A 
ATOM     24  C   UNL A   1      27.827  29.803  22.444  1.00  0.00     0.021 A 
ATOM     25  C   UNL A   1      28.807  30.524  21.764  1.00  0.00     0.041 A 
ATOM     26  Cl  UNL A   1      28.398  32.016  21.008  1.00  0.00    -0.084 Cl
ENDBRANCH  18  20
ENDBRANCH  11  18
BRANCH  16  27
ATOM     27  O   UNL A   1      34.564  29.367  27.979  1.00  0.00    -0.508 OA
ATOM     28  H   UNL A   1      34.388  29.510  28.888  1.00  0.00     0.293 HD
ENDBRANCH  16  27
ENDBRANCH   7   8
ENDBRANCH   4   7
ENDBRANCH   2   3
ENDBRANCH   1   2
BRANCH   1  29
ATOM     29  C   UNL A   1      37.906  22.096  25.751  1.00  0.00     0.118 C 
BRANCH  29  30
ATOM     30  N   UNL A   1      39.349  21.963  25.788  1.00  0.00    -0.352 N 
ATOM     31  C   UNL A   1      40.379  22.611  26.405  1.00  0.00     0.251 C 
ATOM     32  H   UNL A   1      39.665  21.218  25.227  1.00  0.00     0.163 HD
ATOM     33  O   UNL A   1      41.490  22.096  26.250  1.00  0.00    -0.269 OA
BRANCH  31  34
ATOM     34  C   UNL A   1      40.278  23.889  27.161  1.00  0.00     0.039 A 
ATOM     35  C   UNL A   1      39.226  24.801  27.089  1.00  0.00     0.014 A 
ATOM     36  C   UNL A   1      41.395  24.209  27.960  1.00  0.00     0.014 A 
ATOM     37  C   UNL A   1      39.340  26.047  27.700  1.00  0.00     0.010 A 
ATOM     38  C   UNL A   1      41.507  25.444  28.583  1.00  0.00     0.010 A 
ATOM     39  C   UNL A   1      40.504  26.385  28.400  1.00  0.00    -0.014 A 
BRANCH  39  40
ATOM     40  C   UNL A   1      40.587  27.709  29.009  1.00  0.00     0.031 A 
ATOM     41  C   UNL A   1      41.616  28.599  28.401  1.00  0.00     0.074 A 
ATOM     42  C   UNL A   1      39.749  28.133  29.979  1.00  0.00     0.049 A 
ATOM     43  N   UNL A   1      42.699  29.044  28.951  1.00  0.00    -0.248 NA
ATOM     44  C   UNL A   1      41.499  28.910  26.968  1.00  0.00     0.031 C 
ATOM     45  C   UNL A   1      38.541  27.476  30.486  1.00  0.00     0.029 A 
ATOM     46  N   UNL A   1      39.744  29.323  30.644  1.00  0.00    -0.354 N 
ATOM     47  C   UNL A   1      43.291  29.872  28.000  1.00  0.00     0.074 A 
ATOM     48  C   UNL A   1      42.603  29.629  26.758  1.00  0.00     0.031 C 
ATOM     49  C   UNL A   1      37.799  28.374  31.175  1.00  0.00     0.029 A 
ATOM     50  C   UNL A   1      38.537  29.620  31.277  1.00  0.00     0.049 A 
ATOM     51  H   UNL A   1      40.524  29.923  30.673  1.00  0.00     0.167 HD
ATOM     52  C   UNL A   1      44.164  30.858  28.341  1.00  0.00     0.034 A 
ATOM     53  C   UNL A   1      38.164  30.828  31.774  1.00  0.00     0.034 A 
ATOM     54  C   UNL A   1      44.651  30.713  29.684  1.00  0.00     0.049 A 
ATOM     55  C   UNL A   1      39.412  31.592  32.006  1.00  0.00     0.074 A 
ATOM     56  C   UNL A   1      45.383  29.758  30.359  1.00  0.00     0.029 A 
ATOM     57  N   UNL A   1      44.047  31.482  30.648  1.00  0.00    -0.354 N 
ATOM     58  N   UNL A   1      40.306  31.259  32.894  1.00  0.00    -0.248 NA
ATOM     59  C   UNL A   1      39.865  32.487  30.955  1.00  0.00     0.031 C 
ATOM     60  C   UNL A   1      44.796  29.700  31.655  1.00  0.00     0.029 A 
ATOM     61  C   UNL A   1      43.786  30.662  31.713  1.00  0.00     0.049 A 
ATOM     62  H   UNL A   1      43.840  32.442  30.586  1.00  0.00     0.167 HD
ATOM     63  C   UNL A   1      41.517  31.522  32.270  1.00  0.00     0.074 A 
ATOM     64  C   UNL A   1      41.184  32.365  31.122  1.00  0.00     0.031 C 
ATOM     65  C   UNL A   1      42.633  30.801  32.572  1.00  0.00     0.034 A 
BRANCH  52  66
ATOM     66  C   UNL A   1      44.321  32.150  27.585  1.00  0.00     0.023 A 
ATOM     67  C   UNL A   1      45.404  32.276  26.691  1.00  0.00     0.012 A 
ATOM     68  C   UNL A   1      43.613  33.327  27.922  1.00  0.00     0.148 A 
ATOM     69  C   UNL A   1      45.772  33.520  26.163  1.00  0.00     0.002 A 
ATOM     70  C   UNL A   1      43.941  34.547  27.346  1.00  0.00     0.091 A 
ATOM     71  F   UNL A   1      42.702  33.290  28.900  1.00  0.00    -0.205 F 
ATOM     72  C   UNL A   1      45.032  34.654  26.482  1.00  0.00     0.022 A 
BRANCH  70  73
ATOM     73  S   UNL A   1      43.014  36.042  27.711  1.00  0.00     0.127 S 
ATOM     74  O   UNL A   1      43.710  37.025  26.886  1.00  0.00    -0.237 OA
ATOM     75  O   UNL A   1      41.674  35.681  27.248  1.00  0.00    -0.237 OA
ATOM     76  O   UNL A   1      43.121  36.225  29.153  1.00  0.00    -0.744 OA
ENDBRANCH  70  73
ENDBRANCH  52  66
BRANCH  53  77
ATOM     77  C   UNL A   1      36.838  31.506  31.785  1.00  0.00     0.023 A 
ATOM     78  C   UNL A   1      36.357  32.049  32.999  1.00  0.00     0.012 A 
ATOM     79  C   UNL A   1      36.202  31.907  30.590  1.00  0.00     0.148 A 
ATOM     80  C   UNL A   1      35.335  33.008  33.015  1.00  0.00     0.002 A 
ATOM     81  C   UNL A   1      35.178  32.854  30.613  1.00  0.00     0.091 A 
ATOM     82  F   UNL A   1      36.660  31.440  29.423  1.00  0.00    -0.205 F 
ATOM     83  C   UNL A   1      34.756  33.422  31.820  1.00  0.00     0.022 A 
BRANCH  81  84
ATOM     84  S   UNL A   1      34.395  33.444  29.105  1.00  0.00     0.127 S 
ATOM     85  O   UNL A   1      34.012  32.194  28.448  1.00  0.00    -0.237 OA
ATOM     86  O   UNL A   1      33.279  34.227  29.630  1.00  0.00    -0.237 OA
ATOM     87  O   UNL A   1      35.421  34.200  28.397  1.00  0.00    -0.744 OA
ENDBRANCH  81  84
ENDBRANCH  53  77
BRANCH  65  88
ATOM     88  C   UNL A   1      42.581  29.872  33.756  1.00  0.00     0.023 A 
ATOM     89  C   UNL A   1      42.089  28.552  33.658  1.00  0.00     0.012 A 
ATOM     90  C   UNL A   1      43.241  30.272  34.928  1.00  0.00     0.148 A 
ATOM     91  C   UNL A   1      42.260  27.650  34.711  1.00  0.00     0.002 A 
ATOM     92  C   UNL A   1      43.440  29.362  35.957  1.00  0.00     0.091 A 
ATOM     93  F   UNL A   1      43.707  31.528  34.989  1.00  0.00    -0.205 F 
ATOM     94  C   UNL A   1      42.948  28.050  35.855  1.00  0.00     0.022 A 
BRANCH  92  95
ATOM     95  S   UNL A   1      44.414  29.776  37.405  1.00  0.00     0.127 S 
ATOM     96  O   UNL A   1      43.558  30.749  38.082  1.00  0.00    -0.237 OA
ATOM     97  O   UNL A   1      44.526  28.483  38.083  1.00  0.00    -0.237 OA
ATOM     98  O   UNL A   1      45.679  30.304  36.909  1.00  0.00    -0.744 OA
ENDBRANCH  92  95
ENDBRANCH  65  88
ENDBRANCH  39  40
ENDBRANCH  31  34
ENDBRANCH  29  30
ENDBRANCH   1  29
TORSDOF 17
ENDMDL
