MODEL 1
REMARK VINA RESULT:     -12.7      0.000      0.000
REMARK SMILES Nc1cc(C(=O)NCCCNC(=O)c2ccc(-c3c4nc(c(-c5cccc(S(=O)(=O)[O-])c5F)c5ccc([nH]5)c(-c5cccc(S(=O)(=O)[O-])c5F)c5nc(c(-c6cccc(S(=O)(=O)[O-])c6F)c6ccc3[nH]6)C=C5)C=C4)cc2)ccc1N1CC2(CCOCC2)C1
REMARK SMILES IDX 10 1 9 2 8 3 7 4 5 5 6 6 4 8 2 9 3 10 79 11 78 12 77 13 1 14
REMARK SMILES IDX 80 17 81 18 88 19 82 20 83 21 87 22 84 23 86 24 85 25 11 26
REMARK SMILES IDX 12 27 13 29 14 30 15 31 76 32 16 33 75 34 17 35 18 36 19 37
REMARK SMILES IDX 69 38 20 39 74 40 68 41 70 42 21 43 73 44 67 45 66 46 22 48
REMARK SMILES IDX 54 49 34 50 53 51 35 52 38 53 52 54 71 55 36 56 37 57 51 59
REMARK SMILES IDX 72 60 39 61 23 62 24 63 32 64 25 65 27 66 33 67 26 68 28 69
REMARK SMILES IDX 29 70 30 71 31 72 55 73 56 74 64 75 57 76 59 77 65 78 58 79
REMARK SMILES IDX 60 80 61 81 62 82 63 83 40 84 41 85 49 86 42 87 44 88 50 89
REMARK SMILES IDX 43 90 45 91 46 92 47 93 48 94
REMARK H PARENT 7 7 1 15 1 16 11 28 70 47 38 58
REMARK Flexibility Score: inf
ROOT
ATOM      1  C   UNL A   1      33.544  28.370  27.129  1.00  0.00     0.118 C 
ENDROOT
BRANCH   1   2
ATOM      2  C   UNL A   1      34.027  27.729  25.828  1.00  0.00     0.042 C 
BRANCH   2   3
ATOM      3  C   UNL A   1      32.897  27.103  25.014  1.00  0.00     0.118 C 
BRANCH   3   4
ATOM      4  N   UNL A   1      33.242  27.044  23.609  1.00  0.00    -0.352 N 
ATOM      5  C   UNL A   1      33.589  26.022  22.769  1.00  0.00     0.251 C 
ATOM      6  O   UNL A   1      33.821  26.333  21.598  1.00  0.00    -0.269 OA
ATOM      7  H   UNL A   1      33.223  27.923  23.166  1.00  0.00     0.163 HD
BRANCH   5   8
ATOM      8  C   UNL A   1      33.643  24.582  23.158  1.00  0.00     0.041 A 
ATOM      9  C   UNL A   1      32.727  22.357  22.702  1.00  0.00     0.056 A 
ATOM     10  C   UNL A   1      32.802  23.726  22.430  1.00  0.00     0.041 A 
ATOM     11  C   UNL A   1      33.451  21.827  23.791  1.00  0.00     0.060 A 
ATOM     12  C   UNL A   1      34.313  22.668  24.501  1.00  0.00     0.029 A 
ATOM     13  C   UNL A   1      34.440  24.023  24.158  1.00  0.00     0.016 A 
BRANCH   9  14
ATOM     14  N   UNL A   1      31.783  21.591  22.011  1.00  0.00    -0.397 N 
ATOM     15  H   UNL A   1      31.278  20.891  22.482  1.00  0.00     0.156 HD
ATOM     16  H   UNL A   1      31.625  21.752  21.053  1.00  0.00     0.156 HD
ENDBRANCH   9  14
BRANCH  11  17
ATOM     17  N   UNL A   1      33.274  20.489  24.165  1.00  0.00    -0.369 N 
ATOM     18  C   UNL A   1      34.220  19.527  24.627  1.00  0.00     0.125 C 
ATOM     19  C   UNL A   1      32.152  19.780  24.685  1.00  0.00     0.125 C 
ATOM     20  C   UNL A   1      33.045  18.512  24.563  1.00  0.00     0.010 C 
ATOM     21  C   UNL A   1      32.948  17.493  25.693  1.00  0.00     0.039 C 
ATOM     22  C   UNL A   1      32.909  17.796  23.204  1.00  0.00     0.039 C 
ATOM     23  C   UNL A   1      34.001  16.411  25.467  1.00  0.00     0.161 C 
ATOM     24  C   UNL A   1      33.974  16.711  23.117  1.00  0.00     0.161 C 
ATOM     25  O   UNL A   1      33.818  15.784  24.193  1.00  0.00    -0.381 OA
ENDBRANCH  11  17
ENDBRANCH   5   8
ENDBRANCH   3   4
ENDBRANCH   2   3
ENDBRANCH   1   2
BRANCH   1  26
ATOM     26  N   UNL A   1      33.591  29.826  27.063  1.00  0.00    -0.352 N 
ATOM     27  C   UNL A   1      34.505  30.704  27.588  1.00  0.00     0.251 C 
ATOM     28  H   UNL A   1      32.853  30.244  26.565  1.00  0.00     0.163 HD
ATOM     29  O   UNL A   1      34.227  31.899  27.642  1.00  0.00    -0.269 OA
BRANCH  27  30
ATOM     30  C   UNL A   1      35.815  30.226  28.081  1.00  0.00     0.039 A 
ATOM     31  C   UNL A   1      35.910  29.748  29.391  1.00  0.00     0.014 A 
ATOM     32  C   UNL A   1      36.958  30.301  27.280  1.00  0.00     0.014 A 
ATOM     33  C   UNL A   1      37.141  29.302  29.881  1.00  0.00     0.010 A 
ATOM     34  C   UNL A   1      38.168  29.793  27.744  1.00  0.00     0.010 A 
ATOM     35  C   UNL A   1      38.274  29.298  29.053  1.00  0.00    -0.014 A 
BRANCH  35  36
ATOM     36  C   UNL A   1      39.580  28.777  29.533  1.00  0.00     0.031 A 
ATOM     37  C   UNL A   1      40.319  29.483  30.638  1.00  0.00     0.074 A 
ATOM     38  C   UNL A   1      40.141  27.723  28.909  1.00  0.00     0.049 A 
ATOM     39  N   UNL A   1      41.497  29.221  31.141  1.00  0.00    -0.248 NA
ATOM     40  C   UNL A   1      39.659  30.653  31.243  1.00  0.00     0.031 C 
ATOM     41  C   UNL A   1      39.557  27.004  27.775  1.00  0.00     0.029 A 
ATOM     42  N   UNL A   1      41.341  27.092  29.119  1.00  0.00    -0.354 N 
ATOM     43  C   UNL A   1      41.738  30.210  32.087  1.00  0.00     0.074 A 
ATOM     44  C   UNL A   1      40.595  31.096  32.069  1.00  0.00     0.031 C 
ATOM     45  C   UNL A   1      40.397  26.029  27.391  1.00  0.00     0.029 A 
ATOM     46  C   UNL A   1      41.590  26.072  28.230  1.00  0.00     0.049 A 
ATOM     47  H   UNL A   1      41.964  27.343  29.839  1.00  0.00     0.167 HD
ATOM     48  C   UNL A   1      42.799  30.352  32.917  1.00  0.00     0.034 A 
ATOM     49  C   UNL A   1      42.663  25.268  28.099  1.00  0.00     0.034 A 
ATOM     50  C   UNL A   1      43.909  29.439  32.962  1.00  0.00     0.049 A 
ATOM     51  C   UNL A   1      43.809  25.418  29.063  1.00  0.00     0.074 A 
ATOM     52  C   UNL A   1      44.991  29.444  33.825  1.00  0.00     0.029 A 
ATOM     53  N   UNL A   1      44.084  28.362  32.107  1.00  0.00    -0.354 N 
ATOM     54  N   UNL A   1      43.946  26.265  30.055  1.00  0.00    -0.248 NA
ATOM     55  C   UNL A   1      44.931  24.481  28.915  1.00  0.00     0.031 C 
ATOM     56  C   UNL A   1      45.830  28.379  33.479  1.00  0.00     0.029 A 
ATOM     57  C   UNL A   1      45.259  27.697  32.416  1.00  0.00     0.049 A 
ATOM     58  H   UNL A   1      43.465  28.108  31.386  1.00  0.00     0.167 HD
ATOM     59  C   UNL A   1      45.148  25.939  30.672  1.00  0.00     0.074 A 
ATOM     60  C   UNL A   1      45.690  24.805  29.953  1.00  0.00     0.031 C 
ATOM     61  C   UNL A   1      45.756  26.535  31.727  1.00  0.00     0.034 A 
BRANCH  48  62
ATOM     62  C   UNL A   1      42.783  31.505  33.886  1.00  0.00     0.023 A 
ATOM     63  C   UNL A   1      43.232  32.773  33.462  1.00  0.00     0.012 A 
ATOM     64  C   UNL A   1      42.274  31.355  35.191  1.00  0.00     0.148 A 
ATOM     65  C   UNL A   1      43.207  33.864  34.330  1.00  0.00     0.002 A 
ATOM     66  C   UNL A   1      42.211  32.457  36.036  1.00  0.00     0.091 A 
ATOM     67  F   UNL A   1      41.870  30.139  35.584  1.00  0.00    -0.205 F 
ATOM     68  C   UNL A   1      42.688  33.709  35.613  1.00  0.00     0.022 A 
BRANCH  66  69
ATOM     69  S   UNL A   1      41.487  32.381  37.679  1.00  0.00     0.127 S 
ATOM     70  O   UNL A   1      41.615  33.769  38.122  1.00  0.00    -0.237 OA
ATOM     71  O   UNL A   1      40.117  31.955  37.394  1.00  0.00    -0.237 OA
ATOM     72  O   UNL A   1      42.280  31.412  38.422  1.00  0.00    -0.744 OA
ENDBRANCH  66  69
ENDBRANCH  48  62
BRANCH  49  73
ATOM     73  C   UNL A   1      42.669  24.200  27.060  1.00  0.00     0.023 A 
ATOM     74  C   UNL A   1      43.363  24.418  25.853  1.00  0.00     0.012 A 
ATOM     75  C   UNL A   1      42.027  22.964  27.269  1.00  0.00     0.148 A 
ATOM     76  C   UNL A   1      43.389  23.437  24.861  1.00  0.00     0.002 A 
ATOM     77  C   UNL A   1      42.105  21.971  26.300  1.00  0.00     0.091 A 
ATOM     78  F   UNL A   1      41.363  22.780  28.419  1.00  0.00    -0.205 F 
ATOM     79  C   UNL A   1      42.770  22.212  25.088  1.00  0.00     0.022 A 
BRANCH  77  80
ATOM     80  S   UNL A   1      41.453  20.317  26.561  1.00  0.00     0.127 S 
ATOM     81  O   UNL A   1      40.014  20.562  26.587  1.00  0.00    -0.237 OA
ATOM     82  O   UNL A   1      41.937  19.609  25.376  1.00  0.00    -0.237 OA
ATOM     83  O   UNL A   1      42.042  19.858  27.813  1.00  0.00    -0.744 OA
ENDBRANCH  77  80
ENDBRANCH  49  73
BRANCH  61  84
ATOM     84  C   UNL A   1      47.063  25.953  32.199  1.00  0.00     0.023 A 
ATOM     85  C   UNL A   1      48.272  26.383  31.616  1.00  0.00     0.012 A 
ATOM     86  C   UNL A   1      47.097  25.039  33.270  1.00  0.00     0.148 A 
ATOM     87  C   UNL A   1      49.493  25.889  32.073  1.00  0.00     0.002 A 
ATOM     88  C   UNL A   1      48.320  24.588  33.752  1.00  0.00     0.091 A 
ATOM     89  F   UNL A   1      45.934  24.628  33.796  1.00  0.00    -0.205 F 
ATOM     90  C   UNL A   1      49.518  25.002  33.147  1.00  0.00     0.022 A 
BRANCH  88  91
ATOM     91  S   UNL A   1      48.452  23.522  35.192  1.00  0.00     0.127 S 
ATOM     92  O   UNL A   1      49.900  23.354  35.305  1.00  0.00    -0.237 OA
ATOM     93  O   UNL A   1      47.848  24.342  36.243  1.00  0.00    -0.237 OA
ATOM     94  O   UNL A   1      47.706  22.314  34.865  1.00  0.00    -0.744 OA
ENDBRANCH  88  91
ENDBRANCH  61  84
ENDBRANCH  35  36
ENDBRANCH  27  30
ENDBRANCH   1  26
TORSDOF 15
ENDMDL
MODEL 2
REMARK VINA RESULT:     -12.5      2.200      7.851
REMARK SMILES Nc1cc(C(=O)NCCCNC(=O)c2ccc(-c3c4nc(c(-c5cccc(S(=O)(=O)[O-])c5F)c5ccc([nH]5)c(-c5cccc(S(=O)(=O)[O-])c5F)c5nc(c(-c6cccc(S(=O)(=O)[O-])c6F)c6ccc3[nH]6)C=C5)C=C4)cc2)ccc1N1CC2(CCOCC2)C1
REMARK SMILES IDX 10 1 9 2 8 3 7 4 5 5 6 6 4 8 2 9 3 10 79 11 78 12 77 13 1 14
REMARK SMILES IDX 80 17 81 18 88 19 82 20 83 21 87 22 84 23 86 24 85 25 11 26
REMARK SMILES IDX 12 27 13 29 14 30 15 31 76 32 16 33 75 34 17 35 18 36 19 37
REMARK SMILES IDX 69 38 20 39 74 40 68 41 70 42 21 43 73 44 67 45 66 46 22 48
REMARK SMILES IDX 54 49 34 50 53 51 35 52 38 53 52 54 71 55 36 56 37 57 51 59
REMARK SMILES IDX 72 60 39 61 23 62 24 63 32 64 25 65 27 66 33 67 26 68 28 69
REMARK SMILES IDX 29 70 30 71 31 72 55 73 56 74 64 75 57 76 59 77 65 78 58 79
REMARK SMILES IDX 60 80 61 81 62 82 63 83 40 84 41 85 49 86 42 87 44 88 50 89
REMARK SMILES IDX 43 90 45 91 46 92 47 93 48 94
REMARK H PARENT 7 7 1 15 1 16 11 28 70 47 38 58
REMARK Flexibility Score: inf
ROOT
ATOM      1  C   UNL A   1      32.582  29.129  25.760  1.00  0.00     0.118 C 
ENDROOT
BRANCH   1   2
ATOM      2  C   UNL A   1      31.502  28.429  24.935  1.00  0.00     0.042 C 
BRANCH   2   3
ATOM      3  C   UNL A   1      31.881  27.005  24.536  1.00  0.00     0.118 C 
BRANCH   3   4
ATOM      4  N   UNL A   1      32.689  27.002  23.335  1.00  0.00    -0.352 N 
ATOM      5  C   UNL A   1      33.416  26.036  22.694  1.00  0.00     0.251 C 
ATOM      6  O   UNL A   1      33.995  26.384  21.662  1.00  0.00    -0.269 OA
ATOM      7  H   UNL A   1      32.720  27.876  22.884  1.00  0.00     0.163 HD
BRANCH   5   8
ATOM      8  C   UNL A   1      33.499  24.609  23.124  1.00  0.00     0.041 A 
ATOM      9  C   UNL A   1      32.787  22.325  22.602  1.00  0.00     0.056 A 
ATOM     10  C   UNL A   1      32.819  23.691  22.308  1.00  0.00     0.041 A 
ATOM     11  C   UNL A   1      33.382  21.859  23.793  1.00  0.00     0.060 A 
ATOM     12  C   UNL A   1      34.086  22.763  24.593  1.00  0.00     0.029 A 
ATOM     13  C   UNL A   1      34.181  24.117  24.237  1.00  0.00     0.016 A 
BRANCH   9  14
ATOM     14  N   UNL A   1      31.995  21.491  21.807  1.00  0.00    -0.397 N 
ATOM     15  H   UNL A   1      31.731  20.602  22.137  1.00  0.00     0.156 HD
ATOM     16  H   UNL A   1      31.701  21.793  20.917  1.00  0.00     0.156 HD
ENDBRANCH   9  14
BRANCH  11  17
ATOM     17  N   UNL A   1      33.233  20.519  24.173  1.00  0.00    -0.369 N 
ATOM     18  C   UNL A   1      34.205  19.568  24.602  1.00  0.00     0.125 C 
ATOM     19  C   UNL A   1      32.138  19.797  24.731  1.00  0.00     0.125 C 
ATOM     20  C   UNL A   1      33.040  18.539  24.578  1.00  0.00     0.010 C 
ATOM     21  C   UNL A   1      32.994  17.520  25.711  1.00  0.00     0.039 C 
ATOM     22  C   UNL A   1      32.866  17.822  23.225  1.00  0.00     0.039 C 
ATOM     23  C   UNL A   1      34.051  16.450  25.449  1.00  0.00     0.161 C 
ATOM     24  C   UNL A   1      33.939  16.749  23.100  1.00  0.00     0.161 C 
ATOM     25  O   UNL A   1      33.831  15.820  24.182  1.00  0.00    -0.381 OA
ENDBRANCH  11  17
ENDBRANCH   5   8
ENDBRANCH   3   4
ENDBRANCH   2   3
ENDBRANCH   1   2
BRANCH   1  26
ATOM     26  N   UNL A   1      32.260  30.531  25.994  1.00  0.00    -0.352 N 
ATOM     27  C   UNL A   1      32.795  31.423  26.888  1.00  0.00     0.251 C 
ATOM     28  H   UNL A   1      31.549  30.895  25.420  1.00  0.00     0.163 HD
ATOM     29  O   UNL A   1      32.210  32.481  27.105  1.00  0.00    -0.269 OA
BRANCH  27  30
ATOM     30  C   UNL A   1      34.065  31.124  27.586  1.00  0.00     0.039 A 
ATOM     31  C   UNL A   1      34.976  32.161  27.805  1.00  0.00     0.014 A 
ATOM     32  C   UNL A   1      34.385  29.819  27.971  1.00  0.00     0.014 A 
ATOM     33  C   UNL A   1      36.186  31.897  28.453  1.00  0.00     0.010 A 
ATOM     34  C   UNL A   1      35.559  29.570  28.676  1.00  0.00     0.010 A 
ATOM     35  C   UNL A   1      36.476  30.604  28.915  1.00  0.00    -0.014 A 
BRANCH  35  36
ATOM     36  C   UNL A   1      37.731  30.312  29.654  1.00  0.00     0.031 A 
ATOM     37  C   UNL A   1      38.765  29.392  29.062  1.00  0.00     0.074 A 
ATOM     38  C   UNL A   1      37.895  30.802  30.898  1.00  0.00     0.049 A 
ATOM     39  N   UNL A   1      39.884  28.963  29.585  1.00  0.00    -0.248 NA
ATOM     40  C   UNL A   1      38.494  28.863  27.714  1.00  0.00     0.031 C 
ATOM     41  C   UNL A   1      36.928  31.642  31.610  1.00  0.00     0.029 A 
ATOM     42  N   UNL A   1      38.918  30.641  31.798  1.00  0.00    -0.354 N 
ATOM     43  C   UNL A   1      40.430  28.088  28.654  1.00  0.00     0.074 A 
ATOM     44  C   UNL A   1      39.505  28.023  27.545  1.00  0.00     0.031 C 
ATOM     45  C   UNL A   1      37.406  31.924  32.832  1.00  0.00     0.029 A 
ATOM     46  C   UNL A   1      38.695  31.263  33.004  1.00  0.00     0.049 A 
ATOM     47  H   UNL A   1      39.736  30.130  31.599  1.00  0.00     0.167 HD
ATOM     48  C   UNL A   1      41.608  27.421  28.704  1.00  0.00     0.034 A 
ATOM     49  C   UNL A   1      39.440  31.291  34.126  1.00  0.00     0.034 A 
ATOM     50  C   UNL A   1      42.545  27.529  29.790  1.00  0.00     0.049 A 
ATOM     51  C   UNL A   1      40.766  30.579  34.138  1.00  0.00     0.074 A 
ATOM     52  C   UNL A   1      43.804  26.965  29.898  1.00  0.00     0.029 A 
ATOM     53  N   UNL A   1      42.326  28.243  30.957  1.00  0.00    -0.354 N 
ATOM     54  N   UNL A   1      41.336  29.882  33.184  1.00  0.00    -0.248 NA
ATOM     55  C   UNL A   1      41.568  30.686  35.365  1.00  0.00     0.031 C 
ATOM     56  C   UNL A   1      44.339  27.324  31.139  1.00  0.00     0.029 A 
ATOM     57  C   UNL A   1      43.422  28.131  31.795  1.00  0.00     0.049 A 
ATOM     58  H   UNL A   1      41.510  28.755  31.161  1.00  0.00     0.167 HD
ATOM     59  C   UNL A   1      42.577  29.500  33.681  1.00  0.00     0.074 A 
ATOM     60  C   UNL A   1      42.683  30.060  35.013  1.00  0.00     0.031 C 
ATOM     61  C   UNL A   1      43.535  28.741  33.094  1.00  0.00     0.034 A 
BRANCH  48  62
ATOM     62  C   UNL A   1      41.979  26.561  27.523  1.00  0.00     0.023 A 
ATOM     63  C   UNL A   1      42.651  27.140  26.428  1.00  0.00     0.012 A 
ATOM     64  C   UNL A   1      41.717  25.177  27.519  1.00  0.00     0.148 A 
ATOM     65  C   UNL A   1      43.027  26.365  25.332  1.00  0.00     0.002 A 
ATOM     66  C   UNL A   1      42.134  24.402  26.442  1.00  0.00     0.091 A 
ATOM     67  F   UNL A   1      41.060  24.646  28.559  1.00  0.00    -0.205 F 
ATOM     68  C   UNL A   1      42.778  24.995  25.343  1.00  0.00     0.022 A 
BRANCH  66  69
ATOM     69  S   UNL A   1      41.932  22.617  26.396  1.00  0.00     0.127 S 
ATOM     70  O   UNL A   1      42.554  22.284  25.114  1.00  0.00    -0.237 OA
ATOM     71  O   UNL A   1      42.691  22.189  27.571  1.00  0.00    -0.237 OA
ATOM     72  O   UNL A   1      40.499  22.373  26.478  1.00  0.00    -0.744 OA
ENDBRANCH  66  69
ENDBRANCH  48  62
BRANCH  49  73
ATOM     73  C   UNL A   1      38.984  32.082  35.303  1.00  0.00     0.023 A 
ATOM     74  C   UNL A   1      39.096  33.487  35.273  1.00  0.00     0.012 A 
ATOM     75  C   UNL A   1      38.410  31.464  36.431  1.00  0.00     0.148 A 
ATOM     76  C   UNL A   1      38.676  34.258  36.358  1.00  0.00     0.002 A 
ATOM     77  C   UNL A   1      37.943  32.242  37.484  1.00  0.00     0.091 A 
ATOM     78  F   UNL A   1      38.322  30.127  36.445  1.00  0.00    -0.205 F 
ATOM     79  C   UNL A   1      38.091  33.637  37.457  1.00  0.00     0.022 A 
BRANCH  77  80
ATOM     80  S   UNL A   1      37.055  31.540  38.879  1.00  0.00     0.127 S 
ATOM     81  O   UNL A   1      35.868  32.388  38.936  1.00  0.00    -0.237 OA
ATOM     82  O   UNL A   1      36.814  30.170  38.428  1.00  0.00    -0.237 OA
ATOM     83  O   UNL A   1      37.965  31.645  40.014  1.00  0.00    -0.744 OA
ENDBRANCH  77  80
ENDBRANCH  49  73
BRANCH  61  84
ATOM     84  C   UNL A   1      44.804  28.497  33.869  1.00  0.00     0.023 A 
ATOM     85  C   UNL A   1      45.873  29.410  33.768  1.00  0.00     0.012 A 
ATOM     86  C   UNL A   1      44.905  27.407  34.756  1.00  0.00     0.148 A 
ATOM     87  C   UNL A   1      47.036  29.223  34.514  1.00  0.00     0.002 A 
ATOM     88  C   UNL A   1      46.047  27.254  35.532  1.00  0.00     0.091 A 
ATOM     89  F   UNL A   1      43.885  26.540  34.821  1.00  0.00    -0.205 F 
ATOM     90  C   UNL A   1      47.118  28.154  35.403  1.00  0.00     0.022 A 
BRANCH  88  91
ATOM     91  S   UNL A   1      46.202  25.965  36.773  1.00  0.00     0.127 S 
ATOM     92  O   UNL A   1      46.182  24.756  35.950  1.00  0.00    -0.237 OA
ATOM     93  O   UNL A   1      47.499  26.270  37.378  1.00  0.00    -0.237 OA
ATOM     94  O   UNL A   1      45.064  26.131  37.667  1.00  0.00    -0.744 OA
ENDBRANCH  88  91
ENDBRANCH  61  84
ENDBRANCH  35  36
ENDBRANCH  27  30
ENDBRANCH   1  26
TORSDOF 15
ENDMDL
MODEL 3
REMARK VINA RESULT:     -12.5      2.048      2.818
REMARK SMILES Nc1cc(C(=O)NCCCNC(=O)c2ccc(-c3c4nc(c(-c5cccc(S(=O)(=O)[O-])c5F)c5ccc([nH]5)c(-c5cccc(S(=O)(=O)[O-])c5F)c5nc(c(-c6cccc(S(=O)(=O)[O-])c6F)c6ccc3[nH]6)C=C5)C=C4)cc2)ccc1N1CC2(CCOCC2)C1
REMARK SMILES IDX 10 1 9 2 8 3 7 4 5 5 6 6 4 8 2 9 3 10 79 11 78 12 77 13 1 14
REMARK SMILES IDX 80 17 81 18 88 19 82 20 83 21 87 22 84 23 86 24 85 25 11 26
REMARK SMILES IDX 12 27 13 29 14 30 15 31 76 32 16 33 75 34 17 35 18 36 19 37
REMARK SMILES IDX 69 38 20 39 74 40 68 41 70 42 21 43 73 44 67 45 66 46 22 48
REMARK SMILES IDX 54 49 34 50 53 51 35 52 38 53 52 54 71 55 36 56 37 57 51 59
REMARK SMILES IDX 72 60 39 61 23 62 24 63 32 64 25 65 27 66 33 67 26 68 28 69
REMARK SMILES IDX 29 70 30 71 31 72 55 73 56 74 64 75 57 76 59 77 65 78 58 79
REMARK SMILES IDX 60 80 61 81 62 82 63 83 40 84 41 85 49 86 42 87 44 88 50 89
REMARK SMILES IDX 43 90 45 91 46 92 47 93 48 94
REMARK H PARENT 7 7 1 15 1 16 11 28 70 47 38 58
REMARK Flexibility Score: inf
ROOT
ATOM      1  C   UNL A   1      33.154  29.467  25.313  1.00  0.00     0.118 C 
ENDROOT
BRANCH   1   2
ATOM      2  C   UNL A   1      31.978  28.492  25.378  1.00  0.00     0.042 C 
BRANCH   2   3
ATOM      3  C   UNL A   1      32.353  27.073  24.958  1.00  0.00     0.118 C 
BRANCH   3   4
ATOM      4  N   UNL A   1      32.995  27.070  23.660  1.00  0.00    -0.352 N 
ATOM      5  C   UNL A   1      33.574  26.090  22.901  1.00  0.00     0.251 C 
ATOM      6  O   UNL A   1      34.032  26.444  21.812  1.00  0.00    -0.269 OA
ATOM      7  H   UNL A   1      33.018  27.957  23.235  1.00  0.00     0.163 HD
BRANCH   5   8
ATOM      8  C   UNL A   1      33.629  24.646  23.273  1.00  0.00     0.041 A 
ATOM      9  C   UNL A   1      32.765  22.416  22.745  1.00  0.00     0.056 A 
ATOM     10  C   UNL A   1      32.834  23.789  22.495  1.00  0.00     0.041 A 
ATOM     11  C   UNL A   1      33.444  21.880  23.860  1.00  0.00     0.060 A 
ATOM     12  C   UNL A   1      34.260  22.722  24.620  1.00  0.00     0.029 A 
ATOM     13  C   UNL A   1      34.385  24.083  24.302  1.00  0.00     0.016 A 
BRANCH   9  14
ATOM     14  N   UNL A   1      31.864  21.647  22.001  1.00  0.00    -0.397 N 
ATOM     15  H   UNL A   1      30.951  21.500  22.333  1.00  0.00     0.156 HD
ATOM     16  H   UNL A   1      32.146  21.253  21.143  1.00  0.00     0.156 HD
ENDBRANCH   9  14
BRANCH  11  17
ATOM     17  N   UNL A   1      33.267  20.535  24.207  1.00  0.00    -0.369 N 
ATOM     18  C   UNL A   1      34.217  19.558  24.628  1.00  0.00     0.125 C 
ATOM     19  C   UNL A   1      32.153  19.820  24.735  1.00  0.00     0.125 C 
ATOM     20  C   UNL A   1      33.035  18.550  24.566  1.00  0.00     0.010 C 
ATOM     21  C   UNL A   1      32.957  17.507  25.674  1.00  0.00     0.039 C 
ATOM     22  C   UNL A   1      32.867  17.866  23.194  1.00  0.00     0.039 C 
ATOM     23  C   UNL A   1      33.999  16.425  25.402  1.00  0.00     0.161 C 
ATOM     24  C   UNL A   1      33.923  16.778  23.060  1.00  0.00     0.161 C 
ATOM     25  O   UNL A   1      33.785  15.828  24.119  1.00  0.00    -0.381 OA
ENDBRANCH  11  17
ENDBRANCH   5   8
ENDBRANCH   3   4
ENDBRANCH   2   3
ENDBRANCH   1   2
BRANCH   1  26
ATOM     26  N   UNL A   1      32.786  30.790  25.801  1.00  0.00    -0.352 N 
ATOM     27  C   UNL A   1      33.222  31.478  26.905  1.00  0.00     0.251 C 
ATOM     28  H   UNL A   1      32.121  31.265  25.253  1.00  0.00     0.163 HD
ATOM     29  O   UNL A   1      32.600  32.468  27.281  1.00  0.00    -0.269 OA
BRANCH  27  30
ATOM     30  C   UNL A   1      34.430  31.040  27.639  1.00  0.00     0.039 A 
ATOM     31  C   UNL A   1      35.402  31.990  27.966  1.00  0.00     0.014 A 
ATOM     32  C   UNL A   1      34.634  29.694  27.952  1.00  0.00     0.014 A 
ATOM     33  C   UNL A   1      36.556  31.596  28.649  1.00  0.00     0.010 A 
ATOM     34  C   UNL A   1      35.750  29.314  28.693  1.00  0.00     0.010 A 
ATOM     35  C   UNL A   1      36.728  30.259  29.039  1.00  0.00    -0.014 A 
BRANCH  35  36
ATOM     36  C   UNL A   1      37.919  29.827  29.814  1.00  0.00     0.031 A 
ATOM     37  C   UNL A   1      38.173  30.384  31.189  1.00  0.00     0.074 A 
ATOM     38  C   UNL A   1      38.819  29.005  29.240  1.00  0.00     0.049 A 
ATOM     39  N   UNL A   1      39.190  30.182  31.985  1.00  0.00    -0.248 NA
ATOM     40  C   UNL A   1      37.164  31.309  31.732  1.00  0.00     0.031 C 
ATOM     41  C   UNL A   1      38.722  28.461  27.883  1.00  0.00     0.029 A 
ATOM     42  N   UNL A   1      40.007  28.507  29.712  1.00  0.00    -0.354 N 
ATOM     43  C   UNL A   1      38.967  30.980  33.101  1.00  0.00     0.074 A 
ATOM     44  C   UNL A   1      37.731  31.694  32.866  1.00  0.00     0.031 C 
ATOM     45  C   UNL A   1      39.802  27.704  27.634  1.00  0.00     0.029 A 
ATOM     46  C   UNL A   1      40.682  27.732  28.797  1.00  0.00     0.049 A 
ATOM     47  H   UNL A   1      40.345  28.686  30.619  1.00  0.00     0.167 HD
ATOM     48  C   UNL A   1      39.706  31.089  34.230  1.00  0.00     0.034 A 
ATOM     49  C   UNL A   1      41.879  27.119  28.883  1.00  0.00     0.034 A 
ATOM     50  C   UNL A   1      40.909  30.340  34.476  1.00  0.00     0.049 A 
ATOM     51  C   UNL A   1      42.659  27.219  30.166  1.00  0.00     0.074 A 
ATOM     52  C   UNL A   1      41.685  30.311  35.622  1.00  0.00     0.029 A 
ATOM     53  N   UNL A   1      41.515  29.492  33.562  1.00  0.00    -0.354 N 
ATOM     54  N   UNL A   1      42.351  27.857  31.270  1.00  0.00    -0.248 NA
ATOM     55  C   UNL A   1      43.931  26.487  30.230  1.00  0.00     0.031 C 
ATOM     56  C   UNL A   1      42.770  29.458  35.393  1.00  0.00     0.029 A 
ATOM     57  C   UNL A   1      42.658  28.938  34.113  1.00  0.00     0.049 A 
ATOM     58  H   UNL A   1      41.182  29.311  32.654  1.00  0.00     0.167 HD
ATOM     59  C   UNL A   1      43.371  27.573  32.171  1.00  0.00     0.074 A 
ATOM     60  C   UNL A   1      44.295  26.690  31.489  1.00  0.00     0.031 C 
ATOM     61  C   UNL A   1      43.536  28.016  33.441  1.00  0.00     0.034 A 
BRANCH  48  62
ATOM     62  C   UNL A   1      39.204  32.009  35.313  1.00  0.00     0.023 A 
ATOM     63  C   UNL A   1      38.238  31.540  36.227  1.00  0.00     0.012 A 
ATOM     64  C   UNL A   1      39.724  33.309  35.465  1.00  0.00     0.148 A 
ATOM     65  C   UNL A   1      37.772  32.362  37.253  1.00  0.00     0.002 A 
ATOM     66  C   UNL A   1      39.287  34.106  36.516  1.00  0.00     0.091 A 
ATOM     67  F   UNL A   1      40.627  33.745  34.575  1.00  0.00    -0.205 F 
ATOM     68  C   UNL A   1      38.303  33.640  37.404  1.00  0.00     0.022 A 
BRANCH  66  69
ATOM     69  S   UNL A   1      39.966  35.737  36.845  1.00  0.00     0.127 S 
ATOM     70  O   UNL A   1      41.384  35.434  37.030  1.00  0.00    -0.237 OA
ATOM     71  O   UNL A   1      39.652  36.458  35.611  1.00  0.00    -0.237 OA
ATOM     72  O   UNL A   1      39.272  36.230  38.027  1.00  0.00    -0.744 OA
ENDBRANCH  66  69
ENDBRANCH  48  62
BRANCH  49  73
ATOM     73  C   UNL A   1      42.375  26.295  27.745  1.00  0.00     0.023 A 
ATOM     74  C   UNL A   1      43.314  26.848  26.853  1.00  0.00     0.012 A 
ATOM     75  C   UNL A   1      41.954  24.964  27.560  1.00  0.00     0.148 A 
ATOM     76  C   UNL A   1      43.801  26.102  25.778  1.00  0.00     0.002 A 
ATOM     77  C   UNL A   1      42.484  24.209  26.520  1.00  0.00     0.091 A 
ATOM     78  F   UNL A   1      41.051  24.459  28.412  1.00  0.00    -0.205 F 
ATOM     79  C   UNL A   1      43.394  24.781  25.618  1.00  0.00     0.022 A 
BRANCH  77  80
ATOM     80  S   UNL A   1      42.122  22.461  26.317  1.00  0.00     0.127 S 
ATOM     81  O   UNL A   1      42.812  21.876  27.463  1.00  0.00    -0.237 OA
ATOM     82  O   UNL A   1      40.662  22.442  26.400  1.00  0.00    -0.237 OA
ATOM     83  O   UNL A   1      42.650  22.101  25.006  1.00  0.00    -0.744 OA
ENDBRANCH  77  80
ENDBRANCH  49  73
BRANCH  61  84
ATOM     84  C   UNL A   1      44.743  27.527  34.199  1.00  0.00     0.023 A 
ATOM     85  C   UNL A   1      45.931  28.285  34.189  1.00  0.00     0.012 A 
ATOM     86  C   UNL A   1      44.673  26.359  34.984  1.00  0.00     0.148 A 
ATOM     87  C   UNL A   1      47.041  27.870  34.922  1.00  0.00     0.002 A 
ATOM     88  C   UNL A   1      45.767  25.978  35.750  1.00  0.00     0.091 A 
ATOM     89  F   UNL A   1      43.540  25.642  34.963  1.00  0.00    -0.205 F 
ATOM     90  C   UNL A   1      46.956  26.725  35.711  1.00  0.00     0.022 A 
BRANCH  88  91
ATOM     91  S   UNL A   1      45.716  24.574  36.869  1.00  0.00     0.127 S 
ATOM     92  O   UNL A   1      44.595  24.927  37.739  1.00  0.00    -0.237 OA
ATOM     93  O   UNL A   1      45.453  23.459  35.958  1.00  0.00    -0.237 OA
ATOM     94  O   UNL A   1      47.020  24.529  37.517  1.00  0.00    -0.744 OA
ENDBRANCH  88  91
ENDBRANCH  61  84
ENDBRANCH  35  36
ENDBRANCH  27  30
ENDBRANCH   1  26
TORSDOF 15
ENDMDL
