MODEL 1
REMARK VINA RESULT:     -13.4      0.000      0.000
REMARK SMILES O=C(NCCCNC(=O)[C@@H]1[C@@H](C(=O)Nc2cccc(C(F)(F)F)c2)[C@@H]2C=C[C@H]1O2)c1ccc(-c2c3nc(c(-c4cccc(S(=O)(=O)[O-])c4F)c4ccc([nH]4)c(-c4cccc(S(=O)(=O)[O-])c4F)c4nc(c(-c5cccc(S(=O)(=O)[O-])c5F)c5ccc2[nH]5)C=C4)C=C3)cc1
REMARK SMILES IDX 5 1 4 2 3 3 1 4 2 5 30 7 31 8 92 9 32 10 91 11 33 12 34 13
REMARK SMILES IDX 35 14 85 15 36 16 90 17 84 18 86 19 37 20 89 21 83 22 82 23
REMARK SMILES IDX 38 25 70 26 50 27 69 28 51 29 54 30 68 31 87 32 52 33 53 34
REMARK SMILES IDX 67 36 88 37 55 38 39 39 40 40 48 41 41 42 43 43 49 44 42 45
REMARK SMILES IDX 44 46 45 47 46 48 47 49 71 50 72 51 80 52 73 53 75 54 81 55
REMARK SMILES IDX 74 56 76 57 77 58 78 59 79 60 56 61 57 62 65 63 58 64 60 65
REMARK SMILES IDX 66 66 59 67 61 68 62 69 63 70 64 71 6 72 7 73 8 74 9 76
REMARK SMILES IDX 10 77 11 78 28 79 25 80 27 81 29 82 26 83 12 84 13 85 14 86
REMARK SMILES IDX 15 88 16 89 24 90 17 91 19 92 18 93 20 94 21 95 22 96 23 97
REMARK H PARENT 3 6 86 24 54 35 7 75 14 87
REMARK Flexibility Score: inf
ROOT
ATOM      1  C   UNL A   1      31.990  28.161  26.400  1.00  0.00     0.042 C 
ENDROOT
BRANCH   1   2
ATOM      2  C   UNL A   1      32.867  29.235  25.790  1.00  0.00     0.118 C 
BRANCH   2   3
ATOM      3  N   UNL A   1      32.387  30.581  26.100  1.00  0.00    -0.352 N 
ATOM      4  O   UNL A   1      32.259  32.507  27.265  1.00  0.00    -0.269 OA
ATOM      5  C   UNL A   1      32.898  31.503  26.988  1.00  0.00     0.251 C 
ATOM      6  H   UNL A   1      31.586  30.870  25.606  1.00  0.00     0.163 HD
BRANCH   5   7
ATOM      7  C   UNL A   1      34.212  31.233  27.610  1.00  0.00     0.039 A 
ATOM      8  C   UNL A   1      34.528  29.936  28.005  1.00  0.00     0.014 A 
ATOM      9  C   UNL A   1      35.105  32.281  27.847  1.00  0.00     0.014 A 
ATOM     10  C   UNL A   1      35.623  29.720  28.822  1.00  0.00     0.010 A 
ATOM     11  C   UNL A   1      36.290  32.030  28.548  1.00  0.00     0.010 A 
ATOM     12  C   UNL A   1      36.539  30.754  29.073  1.00  0.00    -0.014 A 
BRANCH  12  13
ATOM     13  C   UNL A   1      37.785  30.408  29.802  1.00  0.00     0.031 A 
ATOM     14  C   UNL A   1      38.018  30.827  31.224  1.00  0.00     0.074 A 
ATOM     15  C   UNL A   1      38.681  29.632  29.159  1.00  0.00     0.049 A 
ATOM     16  N   UNL A   1      39.015  30.513  32.012  1.00  0.00    -0.248 NA
ATOM     17  C   UNL A   1      37.025  31.718  31.846  1.00  0.00     0.031 C 
ATOM     18  C   UNL A   1      38.575  29.218  27.755  1.00  0.00     0.029 A 
ATOM     19  N   UNL A   1      39.828  29.025  29.594  1.00  0.00    -0.354 N 
ATOM     20  C   UNL A   1      38.796  31.194  33.202  1.00  0.00     0.074 A 
ATOM     21  C   UNL A   1      37.570  31.947  33.034  1.00  0.00     0.031 C 
ATOM     22  C   UNL A   1      39.566  28.367  27.468  1.00  0.00     0.029 A 
ATOM     23  C   UNL A   1      40.423  28.233  28.638  1.00  0.00     0.049 A 
ATOM     24  H   UNL A   1      40.192  29.141  30.501  1.00  0.00     0.167 HD
ATOM     25  C   UNL A   1      39.542  31.181  34.332  1.00  0.00     0.034 A 
ATOM     26  C   UNL A   1      41.541  27.487  28.689  1.00  0.00     0.034 A 
ATOM     27  C   UNL A   1      40.739  30.397  34.497  1.00  0.00     0.049 A 
ATOM     28  C   UNL A   1      42.303  27.436  29.978  1.00  0.00     0.074 A 
ATOM     29  C   UNL A   1      41.558  30.295  35.608  1.00  0.00     0.029 A 
ATOM     30  N   UNL A   1      41.286  29.572  33.523  1.00  0.00    -0.354 N 
ATOM     31  N   UNL A   1      42.026  28.019  31.119  1.00  0.00    -0.248 NA
ATOM     32  C   UNL A   1      43.517  26.612  29.997  1.00  0.00     0.031 C 
ATOM     33  C   UNL A   1      42.600  29.412  35.306  1.00  0.00     0.029 A 
ATOM     34  C   UNL A   1      42.426  28.954  34.010  1.00  0.00     0.049 A 
ATOM     35  H   UNL A   1      40.918  29.445  32.619  1.00  0.00     0.167 HD
ATOM     36  C   UNL A   1      43.031  27.635  31.994  1.00  0.00     0.074 A 
ATOM     37  C   UNL A   1      43.894  26.727  31.262  1.00  0.00     0.031 C 
ATOM     38  C   UNL A   1      43.245  28.026  33.274  1.00  0.00     0.034 A 
BRANCH  25  39
ATOM     39  C   UNL A   1      39.065  32.001  35.503  1.00  0.00     0.023 A 
ATOM     40  C   UNL A   1      39.259  33.397  35.493  1.00  0.00     0.012 A 
ATOM     41  C   UNL A   1      38.361  31.409  36.571  1.00  0.00     0.148 A 
ATOM     42  C   UNL A   1      38.780  34.190  36.536  1.00  0.00     0.002 A 
ATOM     43  C   UNL A   1      37.855  32.211  37.590  1.00  0.00     0.091 A 
ATOM     44  F   UNL A   1      38.204  30.078  36.575  1.00  0.00    -0.205 F 
ATOM     45  C   UNL A   1      38.070  33.599  37.577  1.00  0.00     0.022 A 
BRANCH  43  46
ATOM     46  S   UNL A   1      36.869  31.556  38.942  1.00  0.00     0.127 S 
ATOM     47  O   UNL A   1      36.641  30.181  38.501  1.00  0.00    -0.237 OA
ATOM     48  O   UNL A   1      37.777  31.688  40.081  1.00  0.00    -0.237 OA
ATOM     49  O   UNL A   1      35.680  32.394  39.014  1.00  0.00    -0.744 OA
ENDBRANCH  43  46
ENDBRANCH  25  39
BRANCH  26  50
ATOM     50  C   UNL A   1      41.962  26.712  27.490  1.00  0.00     0.023 A 
ATOM     51  C   UNL A   1      42.718  27.338  26.482  1.00  0.00     0.012 A 
ATOM     52  C   UNL A   1      41.686  25.335  27.382  1.00  0.00     0.148 A 
ATOM     53  C   UNL A   1      43.175  26.611  25.381  1.00  0.00     0.002 A 
ATOM     54  C   UNL A   1      42.203  24.602  26.322  1.00  0.00     0.091 A 
ATOM     55  F   UNL A   1      40.945  24.756  28.339  1.00  0.00    -0.205 F 
ATOM     56  C   UNL A   1      42.933  25.240  25.310  1.00  0.00     0.022 A 
BRANCH  54  57
ATOM     57  S   UNL A   1      42.078  22.810  26.280  1.00  0.00     0.127 S 
ATOM     58  O   UNL A   1      42.825  22.427  27.474  1.00  0.00    -0.237 OA
ATOM     59  O   UNL A   1      40.632  22.595  26.361  1.00  0.00    -0.237 OA
ATOM     60  O   UNL A   1      42.660  22.426  25.001  1.00  0.00    -0.744 OA
ENDBRANCH  54  57
ENDBRANCH  26  50
BRANCH  38  61
ATOM     61  C   UNL A   1      44.468  27.475  33.952  1.00  0.00     0.023 A 
ATOM     62  C   UNL A   1      45.676  28.199  33.893  1.00  0.00     0.012 A 
ATOM     63  C   UNL A   1      44.418  26.266  34.671  1.00  0.00     0.148 A 
ATOM     64  C   UNL A   1      46.826  27.710  34.508  1.00  0.00     0.002 A 
ATOM     65  C   UNL A   1      45.558  25.805  35.318  1.00  0.00     0.091 A 
ATOM     66  F   UNL A   1      43.266  25.579  34.693  1.00  0.00    -0.205 F 
ATOM     67  C   UNL A   1      46.765  26.519  35.229  1.00  0.00     0.022 A 
BRANCH  65  68
ATOM     68  S   UNL A   1      45.541  24.323  36.331  1.00  0.00     0.127 S 
ATOM     69  O   UNL A   1      44.267  24.455  37.034  1.00  0.00    -0.237 OA
ATOM     70  O   UNL A   1      45.578  23.256  35.331  1.00  0.00    -0.237 OA
ATOM     71  O   UNL A   1      46.734  24.403  37.164  1.00  0.00    -0.744 OA
ENDBRANCH  65  68
ENDBRANCH  38  61
ENDBRANCH  12  13
ENDBRANCH   5   7
ENDBRANCH   2   3
ENDBRANCH   1   2
BRANCH   1  72
ATOM     72  C   UNL A   1      32.694  26.823  26.409  1.00  0.00     0.117 C 
BRANCH  72  73
ATOM     73  N   UNL A   1      31.852  25.743  26.873  1.00  0.00    -0.356 N 
ATOM     74  C   UNL A   1      31.791  24.423  26.589  1.00  0.00     0.227 C 
ATOM     75  H   UNL A   1      31.183  26.030  27.536  1.00  0.00     0.163 HD
ATOM     76  O   UNL A   1      30.967  23.778  27.251  1.00  0.00    -0.275 OA
BRANCH  74  77
ATOM     77  C   UNL A   1      32.691  23.679  25.613  1.00  0.00     0.127 C 
ATOM     78  C   UNL A   1      32.386  22.263  25.078  1.00  0.00     0.127 C 
ATOM     79  C   UNL A   1      34.048  23.470  26.327  1.00  0.00     0.155 C 
ATOM     80  C   UNL A   1      33.654  21.495  25.541  1.00  0.00     0.155 C 
ATOM     81  C   UNL A   1      33.900  22.578  27.524  1.00  0.00     0.004 C 
ATOM     82  O   UNL A   1      34.661  22.533  25.410  1.00  0.00    -0.365 OA
ATOM     83  C   UNL A   1      33.644  21.357  27.040  1.00  0.00     0.004 C 
BRANCH  78  84
ATOM     84  C   UNL A   1      32.230  22.111  23.553  1.00  0.00     0.231 C 
ATOM     85  O   UNL A   1      32.153  20.989  23.037  1.00  0.00    -0.274 OA
ATOM     86  N   UNL A   1      31.916  23.147  22.710  1.00  0.00    -0.326 N 
ATOM     87  H   UNL A   1      31.525  22.839  21.861  1.00  0.00     0.169 HD
BRANCH  86  88
ATOM     88  C   UNL A   1      32.025  24.541  22.780  1.00  0.00     0.041 A 
ATOM     89  C   UNL A   1      33.288  25.108  22.571  1.00  0.00     0.026 A 
ATOM     90  C   UNL A   1      30.952  25.380  23.070  1.00  0.00     0.039 A 
ATOM     91  C   UNL A   1      33.441  26.497  22.515  1.00  0.00     0.003 A 
ATOM     92  C   UNL A   1      31.084  26.780  22.999  1.00  0.00     0.058 A 
ATOM     93  C   UNL A   1      32.340  27.330  22.706  1.00  0.00     0.013 A 
BRANCH  92  94
ATOM     94  C   UNL A   1      29.878  27.677  23.153  1.00  0.00     0.416 C 
ATOM     95  F   UNL A   1      29.562  28.334  22.003  1.00  0.00    -0.166 F 
ATOM     96  F   UNL A   1      28.764  26.976  23.501  1.00  0.00    -0.166 F 
ATOM     97  F   UNL A   1      30.036  28.638  24.102  1.00  0.00    -0.166 F 
ENDBRANCH  92  94
ENDBRANCH  86  88
ENDBRANCH  78  84
ENDBRANCH  74  77
ENDBRANCH  72  73
ENDBRANCH   1  72
TORSDOF 16
ENDMDL
MODEL 2
REMARK VINA RESULT:     -13.3      1.341      1.573
REMARK SMILES O=C(NCCCNC(=O)[C@@H]1[C@@H](C(=O)Nc2cccc(C(F)(F)F)c2)[C@@H]2C=C[C@H]1O2)c1ccc(-c2c3nc(c(-c4cccc(S(=O)(=O)[O-])c4F)c4ccc([nH]4)c(-c4cccc(S(=O)(=O)[O-])c4F)c4nc(c(-c5cccc(S(=O)(=O)[O-])c5F)c5ccc2[nH]5)C=C4)C=C3)cc1
REMARK SMILES IDX 5 1 4 2 3 3 1 4 2 5 30 7 31 8 92 9 32 10 91 11 33 12 34 13
REMARK SMILES IDX 35 14 85 15 36 16 90 17 84 18 86 19 37 20 89 21 83 22 82 23
REMARK SMILES IDX 38 25 70 26 50 27 69 28 51 29 54 30 68 31 87 32 52 33 53 34
REMARK SMILES IDX 67 36 88 37 55 38 39 39 40 40 48 41 41 42 43 43 49 44 42 45
REMARK SMILES IDX 44 46 45 47 46 48 47 49 71 50 72 51 80 52 73 53 75 54 81 55
REMARK SMILES IDX 74 56 76 57 77 58 78 59 79 60 56 61 57 62 65 63 58 64 60 65
REMARK SMILES IDX 66 66 59 67 61 68 62 69 63 70 64 71 6 72 7 73 8 74 9 76
REMARK SMILES IDX 10 77 11 78 28 79 25 80 27 81 29 82 26 83 12 84 13 85 14 86
REMARK SMILES IDX 15 88 16 89 24 90 17 91 19 92 18 93 20 94 21 95 22 96 23 97
REMARK H PARENT 3 6 86 24 54 35 7 75 14 87
REMARK Flexibility Score: inf
ROOT
ATOM      1  C   UNL A   1      32.186  28.194  26.373  1.00  0.00     0.042 C 
ENDROOT
BRANCH   1   2
ATOM      2  C   UNL A   1      33.055  29.267  25.751  1.00  0.00     0.118 C 
BRANCH   2   3
ATOM      3  N   UNL A   1      32.592  30.614  26.084  1.00  0.00    -0.352 N 
ATOM      4  O   UNL A   1      32.488  32.522  27.279  1.00  0.00    -0.269 OA
ATOM      5  C   UNL A   1      33.114  31.515  26.986  1.00  0.00     0.251 C 
ATOM      6  H   UNL A   1      31.794  30.921  25.594  1.00  0.00     0.163 HD
BRANCH   5   7
ATOM      7  C   UNL A   1      34.424  31.220  27.604  1.00  0.00     0.039 A 
ATOM      8  C   UNL A   1      34.674  29.942  28.099  1.00  0.00     0.014 A 
ATOM      9  C   UNL A   1      35.382  32.229  27.737  1.00  0.00     0.014 A 
ATOM     10  C   UNL A   1      35.773  29.729  28.910  1.00  0.00     0.010 A 
ATOM     11  C   UNL A   1      36.566  31.965  28.434  1.00  0.00     0.010 A 
ATOM     12  C   UNL A   1      36.753  30.724  29.058  1.00  0.00    -0.014 A 
BRANCH  12  13
ATOM     13  C   UNL A   1      37.994  30.365  29.790  1.00  0.00     0.031 A 
ATOM     14  C   UNL A   1      38.240  30.805  31.204  1.00  0.00     0.074 A 
ATOM     15  C   UNL A   1      38.872  29.559  29.159  1.00  0.00     0.049 A 
ATOM     16  N   UNL A   1      39.233  30.483  31.995  1.00  0.00    -0.248 NA
ATOM     17  C   UNL A   1      37.268  31.727  31.812  1.00  0.00     0.031 C 
ATOM     18  C   UNL A   1      38.753  29.122  27.763  1.00  0.00     0.029 A 
ATOM     19  N   UNL A   1      40.007  28.935  29.602  1.00  0.00    -0.354 N 
ATOM     20  C   UNL A   1      39.030  31.191  33.173  1.00  0.00     0.074 A 
ATOM     21  C   UNL A   1      37.821  31.966  32.994  1.00  0.00     0.031 C 
ATOM     22  C   UNL A   1      39.725  28.246  27.489  1.00  0.00     0.029 A 
ATOM     23  C   UNL A   1      40.583  28.115  28.659  1.00  0.00     0.049 A 
ATOM     24  H   UNL A   1      40.376  29.061  30.506  1.00  0.00     0.167 HD
ATOM     25  C   UNL A   1      39.779  31.182  34.301  1.00  0.00     0.034 A 
ATOM     26  C   UNL A   1      41.685  27.346  28.720  1.00  0.00     0.034 A 
ATOM     27  C   UNL A   1      40.960  30.376  34.477  1.00  0.00     0.049 A 
ATOM     28  C   UNL A   1      42.449  27.302  30.008  1.00  0.00     0.074 A 
ATOM     29  C   UNL A   1      41.780  30.277  35.588  1.00  0.00     0.029 A 
ATOM     30  N   UNL A   1      41.487  29.522  33.517  1.00  0.00    -0.354 N 
ATOM     31  N   UNL A   1      42.187  27.912  31.139  1.00  0.00    -0.248 NA
ATOM     32  C   UNL A   1      43.646  26.453  30.039  1.00  0.00     0.031 C 
ATOM     33  C   UNL A   1      42.803  29.367  35.299  1.00  0.00     0.029 A 
ATOM     34  C   UNL A   1      42.615  28.889  34.012  1.00  0.00     0.049 A 
ATOM     35  H   UNL A   1      41.114  29.387  32.616  1.00  0.00     0.167 HD
ATOM     36  C   UNL A   1      43.187  27.522  32.018  1.00  0.00     0.074 A 
ATOM     37  C   UNL A   1      44.029  26.583  31.301  1.00  0.00     0.031 C 
ATOM     38  C   UNL A   1      43.413  27.931  33.291  1.00  0.00     0.034 A 
BRANCH  25  39
ATOM     39  C   UNL A   1      39.323  32.032  35.458  1.00  0.00     0.023 A 
ATOM     40  C   UNL A   1      38.480  31.470  36.439  1.00  0.00     0.012 A 
ATOM     41  C   UNL A   1      39.783  33.354  35.620  1.00  0.00     0.148 A 
ATOM     42  C   UNL A   1      38.085  32.215  37.550  1.00  0.00     0.002 A 
ATOM     43  C   UNL A   1      39.414  34.079  36.749  1.00  0.00     0.091 A 
ATOM     44  F   UNL A   1      40.566  33.880  34.667  1.00  0.00    -0.205 F 
ATOM     45  C   UNL A   1      38.560  33.513  37.710  1.00  0.00     0.022 A 
BRANCH  43  46
ATOM     46  S   UNL A   1      40.025  35.735  37.082  1.00  0.00     0.127 S 
ATOM     47  O   UNL A   1      41.460  35.495  37.232  1.00  0.00    -0.237 OA
ATOM     48  O   UNL A   1      39.652  36.455  35.865  1.00  0.00    -0.237 OA
ATOM     49  O   UNL A   1      39.338  36.182  38.286  1.00  0.00    -0.744 OA
ENDBRANCH  43  46
ENDBRANCH  25  39
BRANCH  26  50
ATOM     50  C   UNL A   1      42.086  26.542  27.534  1.00  0.00     0.023 A 
ATOM     51  C   UNL A   1      42.900  27.117  26.541  1.00  0.00     0.012 A 
ATOM     52  C   UNL A   1      41.732  25.182  27.427  1.00  0.00     0.148 A 
ATOM     53  C   UNL A   1      43.338  26.357  25.454  1.00  0.00     0.002 A 
ATOM     54  C   UNL A   1      42.229  24.415  26.381  1.00  0.00     0.091 A 
ATOM     55  F   UNL A   1      40.936  24.653  28.368  1.00  0.00    -0.205 F 
ATOM     56  C   UNL A   1      43.017  25.003  25.383  1.00  0.00     0.022 A 
BRANCH  54  57
ATOM     57  S   UNL A   1      41.999  22.633  26.344  1.00  0.00     0.127 S 
ATOM     58  O   UNL A   1      42.653  22.270  25.090  1.00  0.00    -0.237 OA
ATOM     59  O   UNL A   1      42.701  22.200  27.553  1.00  0.00    -0.237 OA
ATOM     60  O   UNL A   1      40.555  22.441  26.400  1.00  0.00    -0.744 OA
ENDBRANCH  54  57
ENDBRANCH  26  50
BRANCH  38  61
ATOM     61  C   UNL A   1      44.626  27.367  33.975  1.00  0.00     0.023 A 
ATOM     62  C   UNL A   1      45.867  28.020  33.832  1.00  0.00     0.012 A 
ATOM     63  C   UNL A   1      44.536  26.218  34.782  1.00  0.00     0.148 A 
ATOM     64  C   UNL A   1      47.008  27.517  34.451  1.00  0.00     0.002 A 
ATOM     65  C   UNL A   1      45.670  25.746  35.432  1.00  0.00     0.091 A 
ATOM     66  F   UNL A   1      43.352  25.596  34.886  1.00  0.00    -0.205 F 
ATOM     67  C   UNL A   1      46.909  26.386  35.259  1.00  0.00     0.022 A 
BRANCH  65  68
ATOM     68  S   UNL A   1      45.608  24.343  36.552  1.00  0.00     0.127 S 
ATOM     69  O   UNL A   1      44.674  24.816  37.571  1.00  0.00    -0.237 OA
ATOM     70  O   UNL A   1      45.088  23.277  35.695  1.00  0.00    -0.237 OA
ATOM     71  O   UNL A   1      46.980  24.136  36.998  1.00  0.00    -0.744 OA
ENDBRANCH  65  68
ENDBRANCH  38  61
ENDBRANCH  12  13
ENDBRANCH   5   7
ENDBRANCH   2   3
ENDBRANCH   1   2
BRANCH   1  72
ATOM     72  C   UNL A   1      32.812  26.828  26.216  1.00  0.00     0.117 C 
BRANCH  72  73
ATOM     73  N   UNL A   1      31.995  25.765  26.759  1.00  0.00    -0.356 N 
ATOM     74  C   UNL A   1      31.924  24.435  26.527  1.00  0.00     0.227 C 
ATOM     75  H   UNL A   1      31.357  26.076  27.441  1.00  0.00     0.163 HD
ATOM     76  O   UNL A   1      31.134  23.815  27.250  1.00  0.00    -0.275 OA
BRANCH  74  77
ATOM     77  C   UNL A   1      32.780  23.656  25.538  1.00  0.00     0.127 C 
ATOM     78  C   UNL A   1      32.400  22.261  24.995  1.00  0.00     0.127 C 
ATOM     79  C   UNL A   1      34.129  23.375  26.240  1.00  0.00     0.155 C 
ATOM     80  C   UNL A   1      33.633  21.427  25.441  1.00  0.00     0.155 C 
ATOM     81  C   UNL A   1      33.946  22.480  27.431  1.00  0.00     0.004 C 
ATOM     82  O   UNL A   1      34.689  22.416  25.311  1.00  0.00    -0.365 OA
ATOM     83  C   UNL A   1      33.626  21.278  26.939  1.00  0.00     0.004 C 
BRANCH  78  84
ATOM     84  C   UNL A   1      32.227  22.130  23.469  1.00  0.00     0.231 C 
ATOM     85  O   UNL A   1      32.153  21.014  22.938  1.00  0.00    -0.274 OA
ATOM     86  N   UNL A   1      31.893  23.175  22.646  1.00  0.00    -0.326 N 
ATOM     87  H   UNL A   1      31.493  22.876  21.797  1.00  0.00     0.169 HD
BRANCH  86  88
ATOM     88  C   UNL A   1      31.990  24.569  22.734  1.00  0.00     0.041 A 
ATOM     89  C   UNL A   1      33.207  25.162  22.375  1.00  0.00     0.026 A 
ATOM     90  C   UNL A   1      30.953  25.382  23.183  1.00  0.00     0.039 A 
ATOM     91  C   UNL A   1      33.331  26.554  22.334  1.00  0.00     0.003 A 
ATOM     92  C   UNL A   1      31.055  26.786  23.128  1.00  0.00     0.058 A 
ATOM     93  C   UNL A   1      32.253  27.364  22.687  1.00  0.00     0.013 A 
BRANCH  92  94
ATOM     94  C   UNL A   1      29.867  27.658  23.461  1.00  0.00     0.416 C 
ATOM     95  F   UNL A   1      29.112  27.957  22.368  1.00  0.00    -0.166 F 
ATOM     96  F   UNL A   1      29.024  27.055  24.345  1.00  0.00    -0.166 F 
ATOM     97  F   UNL A   1      30.210  28.852  24.015  1.00  0.00    -0.166 F 
ENDBRANCH  92  94
ENDBRANCH  86  88
ENDBRANCH  78  84
ENDBRANCH  74  77
ENDBRANCH  72  73
ENDBRANCH   1  72
TORSDOF 16
ENDMDL
MODEL 3
REMARK VINA RESULT:     -13.2      5.139      9.752
REMARK SMILES O=C(NCCCNC(=O)[C@@H]1[C@@H](C(=O)Nc2cccc(C(F)(F)F)c2)[C@@H]2C=C[C@H]1O2)c1ccc(-c2c3nc(c(-c4cccc(S(=O)(=O)[O-])c4F)c4ccc([nH]4)c(-c4cccc(S(=O)(=O)[O-])c4F)c4nc(c(-c5cccc(S(=O)(=O)[O-])c5F)c5ccc2[nH]5)C=C4)C=C3)cc1
REMARK SMILES IDX 5 1 4 2 3 3 1 4 2 5 30 7 31 8 92 9 32 10 91 11 33 12 34 13
REMARK SMILES IDX 35 14 85 15 36 16 90 17 84 18 86 19 37 20 89 21 83 22 82 23
REMARK SMILES IDX 38 25 70 26 50 27 69 28 51 29 54 30 68 31 87 32 52 33 53 34
REMARK SMILES IDX 67 36 88 37 55 38 39 39 40 40 48 41 41 42 43 43 49 44 42 45
REMARK SMILES IDX 44 46 45 47 46 48 47 49 71 50 72 51 80 52 73 53 75 54 81 55
REMARK SMILES IDX 74 56 76 57 77 58 78 59 79 60 56 61 57 62 65 63 58 64 60 65
REMARK SMILES IDX 66 66 59 67 61 68 62 69 63 70 64 71 6 72 7 73 8 74 9 76
REMARK SMILES IDX 10 77 11 78 28 79 25 80 27 81 29 82 26 83 12 84 13 85 14 86
REMARK SMILES IDX 15 88 16 89 24 90 17 91 19 92 18 93 20 94 21 95 22 96 23 97
REMARK H PARENT 3 6 86 24 54 35 7 75 14 87
REMARK Flexibility Score: inf
ROOT
ATOM      1  C   UNL A   1      36.400  23.078  24.420  1.00  0.00     0.042 C 
ENDROOT
BRANCH   1   2
ATOM      2  C   UNL A   1      36.770  22.659  25.828  1.00  0.00     0.118 C 
BRANCH   2   3
ATOM      3  N   UNL A   1      37.726  21.553  25.842  1.00  0.00    -0.352 N 
ATOM      4  O   UNL A   1      39.762  20.588  25.921  1.00  0.00    -0.269 OA
ATOM      5  C   UNL A   1      39.070  21.569  26.149  1.00  0.00     0.251 C 
ATOM      6  H   UNL A   1      37.359  20.672  25.597  1.00  0.00     0.163 HD
BRANCH   5   7
ATOM      7  C   UNL A   1      39.649  22.799  26.727  1.00  0.00     0.039 A 
ATOM      8  C   UNL A   1      39.325  24.034  26.170  1.00  0.00     0.014 A 
ATOM      9  C   UNL A   1      40.555  22.719  27.787  1.00  0.00     0.014 A 
ATOM     10  C   UNL A   1      40.058  25.153  26.520  1.00  0.00     0.010 A 
ATOM     11  C   UNL A   1      41.188  23.881  28.241  1.00  0.00     0.010 A 
ATOM     12  C   UNL A   1      40.972  25.101  27.585  1.00  0.00    -0.014 A 
BRANCH  12  13
ATOM     13  C   UNL A   1      41.587  26.378  28.027  1.00  0.00     0.031 A 
ATOM     14  C   UNL A   1      42.992  26.756  27.654  1.00  0.00     0.074 A 
ATOM     15  C   UNL A   1      40.809  27.230  28.724  1.00  0.00     0.049 A 
ATOM     16  N   UNL A   1      43.621  27.880  27.889  1.00  0.00    -0.248 NA
ATOM     17  C   UNL A   1      43.802  25.757  26.940  1.00  0.00     0.031 C 
ATOM     18  C   UNL A   1      39.449  26.932  29.187  1.00  0.00     0.029 A 
ATOM     19  N   UNL A   1      41.020  28.519  29.134  1.00  0.00    -0.354 N 
ATOM     20  C   UNL A   1      44.907  27.712  27.393  1.00  0.00     0.074 A 
ATOM     21  C   UNL A   1      44.973  26.373  26.846  1.00  0.00     0.031 C 
ATOM     22  C   UNL A   1      38.921  28.027  29.746  1.00  0.00     0.029 A 
ATOM     23  C   UNL A   1      39.927  29.080  29.754  1.00  0.00     0.049 A 
ATOM     24  H   UNL A   1      41.870  28.997  29.000  1.00  0.00     0.167 HD
ATOM     25  C   UNL A   1      45.930  28.599  27.384  1.00  0.00     0.034 A 
ATOM     26  C   UNL A   1      39.751  30.305  30.281  1.00  0.00     0.034 A 
ATOM     27  C   UNL A   1      45.837  29.941  27.899  1.00  0.00     0.049 A 
ATOM     28  C   UNL A   1      40.879  31.287  30.188  1.00  0.00     0.074 A 
ATOM     29  C   UNL A   1      46.808  30.927  27.920  1.00  0.00     0.029 A 
ATOM     30  N   UNL A   1      44.700  30.490  28.477  1.00  0.00    -0.354 N 
ATOM     31  N   UNL A   1      42.057  31.134  29.634  1.00  0.00    -0.248 NA
ATOM     32  C   UNL A   1      40.651  32.613  30.773  1.00  0.00     0.031 C 
ATOM     33  C   UNL A   1      46.261  32.070  28.513  1.00  0.00     0.029 A 
ATOM     34  C   UNL A   1      44.944  31.801  28.852  1.00  0.00     0.049 A 
ATOM     35  H   UNL A   1      43.846  30.017  28.603  1.00  0.00     0.167 HD
ATOM     36  C   UNL A   1      42.714  32.343  29.803  1.00  0.00     0.074 A 
ATOM     37  C   UNL A   1      41.781  33.234  30.467  1.00  0.00     0.031 C 
ATOM     38  C   UNL A   1      43.987  32.678  29.476  1.00  0.00     0.034 A 
BRANCH  25  39
ATOM     39  C   UNL A   1      47.232  28.169  26.758  1.00  0.00     0.023 A 
ATOM     40  C   UNL A   1      48.320  27.832  27.588  1.00  0.00     0.012 A 
ATOM     41  C   UNL A   1      47.358  28.024  25.362  1.00  0.00     0.148 A 
ATOM     42  C   UNL A   1      49.520  27.378  27.041  1.00  0.00     0.002 A 
ATOM     43  C   UNL A   1      48.546  27.537  24.825  1.00  0.00     0.091 A 
ATOM     44  F   UNL A   1      46.320  28.369  24.586  1.00  0.00    -0.205 F 
ATOM     45  C   UNL A   1      49.628  27.221  25.662  1.00  0.00     0.022 A 
BRANCH  43  46
ATOM     46  S   UNL A   1      48.764  27.234  23.067  1.00  0.00     0.127 S 
ATOM     47  O   UNL A   1      50.220  27.268  22.940  1.00  0.00    -0.237 OA
ATOM     48  O   UNL A   1      48.170  25.907  22.905  1.00  0.00    -0.237 OA
ATOM     49  O   UNL A   1      48.052  28.305  22.384  1.00  0.00    -0.744 OA
ENDBRANCH  43  46
ENDBRANCH  25  39
BRANCH  26  50
ATOM     50  C   UNL A   1      38.443  30.659  30.898  1.00  0.00     0.023 A 
ATOM     51  C   UNL A   1      38.229  30.424  32.268  1.00  0.00     0.012 A 
ATOM     52  C   UNL A   1      37.438  31.301  30.148  1.00  0.00     0.148 A 
ATOM     53  C   UNL A   1      37.032  30.807  32.876  1.00  0.00     0.002 A 
ATOM     54  C   UNL A   1      36.280  31.744  30.773  1.00  0.00     0.091 A 
ATOM     55  F   UNL A   1      37.645  31.498  28.837  1.00  0.00    -0.205 F 
ATOM     56  C   UNL A   1      36.065  31.482  32.133  1.00  0.00     0.022 A 
BRANCH  54  57
ATOM     57  S   UNL A   1      35.090  32.776  29.908  1.00  0.00     0.127 S 
ATOM     58  O   UNL A   1      34.155  33.118  30.975  1.00  0.00    -0.237 OA
ATOM     59  O   UNL A   1      35.921  33.884  29.436  1.00  0.00    -0.237 OA
ATOM     60  O   UNL A   1      34.572  31.932  28.839  1.00  0.00    -0.744 OA
ENDBRANCH  54  57
ENDBRANCH  26  50
BRANCH  38  61
ATOM     61  C   UNL A   1      44.436  34.064  29.843  1.00  0.00     0.023 A 
ATOM     62  C   UNL A   1      45.093  34.274  31.073  1.00  0.00     0.012 A 
ATOM     63  C   UNL A   1      44.241  35.147  28.967  1.00  0.00     0.148 A 
ATOM     64  C   UNL A   1      45.516  35.548  31.441  1.00  0.00     0.002 A 
ATOM     65  C   UNL A   1      44.703  36.409  29.323  1.00  0.00     0.091 A 
ATOM     66  F   UNL A   1      43.591  34.932  27.814  1.00  0.00    -0.205 F 
ATOM     67  C   UNL A   1      45.331  36.614  30.563  1.00  0.00     0.022 A 
BRANCH  65  68
ATOM     68  S   UNL A   1      44.574  37.815  28.213  1.00  0.00     0.127 S 
ATOM     69  O   UNL A   1      43.126  37.983  28.111  1.00  0.00    -0.237 OA
ATOM     70  O   UNL A   1      45.260  38.870  28.959  1.00  0.00    -0.237 OA
ATOM     71  O   UNL A   1      45.252  37.411  26.988  1.00  0.00    -0.744 OA
ENDBRANCH  65  68
ENDBRANCH  38  61
ENDBRANCH  12  13
ENDBRANCH   5   7
ENDBRANCH   2   3
ENDBRANCH   1   2
BRANCH   1  72
ATOM     72  C   UNL A   1      35.296  24.110  24.431  1.00  0.00     0.117 C 
BRANCH  72  73
ATOM     73  N   UNL A   1      34.404  23.996  23.300  1.00  0.00    -0.356 N 
ATOM     74  C   UNL A   1      33.137  23.547  23.155  1.00  0.00     0.227 C 
ATOM     75  H   UNL A   1      34.802  24.313  22.457  1.00  0.00     0.163 HD
ATOM     76  O   UNL A   1      32.659  23.672  22.020  1.00  0.00    -0.275 OA
BRANCH  74  77
ATOM     77  C   UNL A   1      32.253  23.000  24.267  1.00  0.00     0.127 C 
ATOM     78  C   UNL A   1      32.632  23.054  25.764  1.00  0.00     0.127 C 
ATOM     79  C   UNL A   1      32.118  21.478  24.022  1.00  0.00     0.155 C 
ATOM     80  C   UNL A   1      32.599  21.544  26.129  1.00  0.00     0.155 C 
ATOM     81  C   UNL A   1      33.443  20.786  24.159  1.00  0.00     0.004 C 
ATOM     82  O   UNL A   1      31.516  21.084  25.277  1.00  0.00    -0.365 OA
ATOM     83  C   UNL A   1      33.748  20.837  25.461  1.00  0.00     0.004 C 
BRANCH  78  84
ATOM     84  C   UNL A   1      31.676  23.822  26.697  1.00  0.00     0.231 C 
ATOM     85  O   UNL A   1      31.073  23.232  27.603  1.00  0.00    -0.274 OA
ATOM     86  N   UNL A   1      31.615  25.190  26.771  1.00  0.00    -0.326 N 
ATOM     87  H   UNL A   1      31.232  25.507  27.621  1.00  0.00     0.169 HD
BRANCH  86  88
ATOM     88  C   UNL A   1      31.973  26.239  25.916  1.00  0.00     0.041 A 
ATOM     89  C   UNL A   1      33.247  26.799  26.067  1.00  0.00     0.026 A 
ATOM     90  C   UNL A   1      31.120  26.764  24.948  1.00  0.00     0.039 A 
ATOM     91  C   UNL A   1      33.705  27.771  25.173  1.00  0.00     0.003 A 
ATOM     92  C   UNL A   1      31.571  27.728  24.027  1.00  0.00     0.058 A 
ATOM     93  C   UNL A   1      32.879  28.218  24.142  1.00  0.00     0.013 A 
BRANCH  92  94
ATOM     94  C   UNL A   1      30.692  28.169  22.880  1.00  0.00     0.416 C 
ATOM     95  F   UNL A   1      31.097  29.348  22.331  1.00  0.00    -0.166 F 
ATOM     96  F   UNL A   1      30.690  27.265  21.862  1.00  0.00    -0.166 F 
ATOM     97  F   UNL A   1      29.391  28.350  23.233  1.00  0.00    -0.166 F 
ENDBRANCH  92  94
ENDBRANCH  86  88
ENDBRANCH  78  84
ENDBRANCH  74  77
ENDBRANCH  72  73
ENDBRANCH   1  72
TORSDOF 16
ENDMDL
