MODEL 1
REMARK VINA RESULT:     -13.2      0.000      0.000
REMARK SMILES O=C(NCCCNC(=O)c1ccc2c(=O)n(CCC[NH+]3CCOCC3)c(=O)[nH]c2c1)c1ccc(-c2c3nc(c(-c4cccc(S(=O)(=O)[O-])c4F)c4ccc([nH]4)c(-c4cccc(S(=O)(=O)[O-])c4F)c4nc(c(-c5cccc(S(=O)(=O)[O-])c5F)c5ccc2[nH]5)C=C4)C=C3)cc1
REMARK SMILES IDX 5 1 4 2 3 3 1 4 2 5 31 7 32 8 93 9 33 10 92 11 34 12 35 13
REMARK SMILES IDX 36 14 86 15 37 16 91 17 85 18 87 19 38 20 90 21 84 22 83 23
REMARK SMILES IDX 39 25 71 26 51 27 70 28 52 29 55 30 69 31 88 32 53 33 54 34
REMARK SMILES IDX 68 36 89 37 56 38 40 39 41 40 49 41 42 42 44 43 50 44 43 45
REMARK SMILES IDX 45 46 46 47 47 48 48 49 72 50 73 51 81 52 74 53 76 54 82 55
REMARK SMILES IDX 75 56 77 57 78 58 79 59 80 60 57 61 58 62 66 63 59 64 61 65
REMARK SMILES IDX 67 66 60 67 62 68 63 69 64 70 65 71 6 72 7 73 8 74 9 76
REMARK SMILES IDX 10 77 11 78 30 79 12 80 29 81 13 82 28 83 14 84 26 85 15 87
REMARK SMILES IDX 16 88 27 89 17 90 18 91 19 92 20 93 21 94 25 95 22 97 24 98
REMARK SMILES IDX 23 99
REMARK H PARENT 3 6 87 24 55 35 7 75 28 86 20 96
REMARK Flexibility Score: inf
ROOT
ATOM      1  C   UNL A   1      32.559  29.337  24.747  1.00  0.00     0.042 C 
ENDROOT
BRANCH   1   2
ATOM      2  C   UNL A   1      33.365  29.690  25.982  1.00  0.00     0.118 C 
BRANCH   2   3
ATOM      3  N   UNL A   1      33.083  31.030  26.480  1.00  0.00    -0.352 N 
ATOM      4  O   UNL A   1      33.210  32.820  27.826  1.00  0.00    -0.269 OA
ATOM      5  C   UNL A   1      33.713  31.762  27.455  1.00  0.00     0.251 C 
ATOM      6  H   UNL A   1      32.322  31.481  26.048  1.00  0.00     0.163 HD
BRANCH   5   7
ATOM      7  C   UNL A   1      34.970  31.279  28.067  1.00  0.00     0.039 A 
ATOM      8  C   UNL A   1      36.084  32.121  28.071  1.00  0.00     0.014 A 
ATOM      9  C   UNL A   1      35.067  29.996  28.612  1.00  0.00     0.014 A 
ATOM     10  C   UNL A   1      37.277  31.689  28.656  1.00  0.00     0.010 A 
ATOM     11  C   UNL A   1      36.217  29.611  29.291  1.00  0.00     0.010 A 
ATOM     12  C   UNL A   1      37.347  30.439  29.292  1.00  0.00    -0.014 A 
BRANCH  12  13
ATOM     13  C   UNL A   1      38.610  29.959  29.907  1.00  0.00     0.031 A 
ATOM     14  C   UNL A   1      39.020  30.460  31.269  1.00  0.00     0.074 A 
ATOM     15  C   UNL A   1      39.406  29.105  29.233  1.00  0.00     0.049 A 
ATOM     16  N   UNL A   1      40.096  30.175  31.956  1.00  0.00    -0.248 NA
ATOM     17  C   UNL A   1      38.128  31.426  31.937  1.00  0.00     0.031 C 
ATOM     18  C   UNL A   1      39.163  28.615  27.874  1.00  0.00     0.029 A 
ATOM     19  N   UNL A   1      40.585  28.505  29.596  1.00  0.00    -0.354 N 
ATOM     20  C   UNL A   1      40.023  30.944  33.111  1.00  0.00     0.074 A 
ATOM     21  C   UNL A   1      38.825  31.744  33.018  1.00  0.00     0.031 C 
ATOM     22  C   UNL A   1      40.146  27.768  27.530  1.00  0.00     0.029 A 
ATOM     23  C   UNL A   1      41.100  27.671  28.631  1.00  0.00     0.049 A 
ATOM     24  H   UNL A   1      41.022  28.656  30.465  1.00  0.00     0.167 HD
ATOM     25  C   UNL A   1      40.851  30.948  34.178  1.00  0.00     0.034 A 
ATOM     26  C   UNL A   1      42.211  26.906  28.634  1.00  0.00     0.034 A 
ATOM     27  C   UNL A   1      41.991  30.089  34.311  1.00  0.00     0.049 A 
ATOM     28  C   UNL A   1      43.077  26.873  29.862  1.00  0.00     0.074 A 
ATOM     29  C   UNL A   1      42.840  29.961  35.396  1.00  0.00     0.029 A 
ATOM     30  N   UNL A   1      42.429  29.200  33.345  1.00  0.00    -0.354 N 
ATOM     31  N   UNL A   1      42.923  27.522  30.990  1.00  0.00    -0.248 NA
ATOM     32  C   UNL A   1      44.251  25.987  29.836  1.00  0.00     0.031 C 
ATOM     33  C   UNL A   1      43.791  28.988  35.086  1.00  0.00     0.029 A 
ATOM     34  C   UNL A   1      43.531  28.511  33.810  1.00  0.00     0.049 A 
ATOM     35  H   UNL A   1      42.016  29.079  32.458  1.00  0.00     0.167 HD
ATOM     36  C   UNL A   1      43.962  27.109  31.814  1.00  0.00     0.074 A 
ATOM     37  C   UNL A   1      44.737  26.144  31.062  1.00  0.00     0.031 C 
ATOM     38  C   UNL A   1      44.253  27.509  33.073  1.00  0.00     0.034 A 
BRANCH  25  39
ATOM     39  C   UNL A   1      40.506  31.829  35.344  1.00  0.00     0.023 A 
ATOM     40  C   UNL A   1      41.224  33.027  35.526  1.00  0.00     0.012 A 
ATOM     41  C   UNL A   1      39.406  31.542  36.174  1.00  0.00     0.148 A 
ATOM     42  C   UNL A   1      40.857  33.928  36.523  1.00  0.00     0.002 A 
ATOM     43  C   UNL A   1      39.025  32.460  37.145  1.00  0.00     0.091 A 
ATOM     44  F   UNL A   1      38.746  30.390  35.984  1.00  0.00    -0.205 F 
ATOM     45  C   UNL A   1      39.751  33.650  37.323  1.00  0.00     0.022 A 
BRANCH  43  46
ATOM     46  S   UNL A   1      37.586  32.230  38.194  1.00  0.00     0.127 S 
ATOM     47  O   UNL A   1      37.402  30.780  38.130  1.00  0.00    -0.237 OA
ATOM     48  O   UNL A   1      38.065  32.728  39.483  1.00  0.00    -0.237 OA
ATOM     49  O   UNL A   1      36.515  33.011  37.591  1.00  0.00    -0.744 OA
ENDBRANCH  43  46
ENDBRANCH  25  39
BRANCH  26  50
ATOM     50  C   UNL A   1      42.509  26.050  27.454  1.00  0.00     0.023 A 
ATOM     51  C   UNL A   1      43.282  26.575  26.400  1.00  0.00     0.012 A 
ATOM     52  C   UNL A   1      42.099  24.704  27.406  1.00  0.00     0.148 A 
ATOM     53  C   UNL A   1      43.634  25.774  25.312  1.00  0.00     0.002 A 
ATOM     54  C   UNL A   1      42.487  23.902  26.340  1.00  0.00     0.091 A 
ATOM     55  F   UNL A   1      41.362  24.232  28.421  1.00  0.00    -0.205 F 
ATOM     56  C   UNL A   1      43.246  24.437  25.287  1.00  0.00     0.022 A 
BRANCH  54  57
ATOM     57  S   UNL A   1      42.128  22.142  26.272  1.00  0.00     0.127 S 
ATOM     58  O   UNL A   1      42.616  21.688  27.571  1.00  0.00    -0.237 OA
ATOM     59  O   UNL A   1      40.672  22.140  26.124  1.00  0.00    -0.237 OA
ATOM     60  O   UNL A   1      42.853  21.635  25.115  1.00  0.00    -0.744 OA
ENDBRANCH  54  57
ENDBRANCH  26  50
BRANCH  38  61
ATOM     61  C   UNL A   1      45.445  26.914  33.765  1.00  0.00     0.023 A 
ATOM     62  C   UNL A   1      46.651  27.637  33.788  1.00  0.00     0.012 A 
ATOM     63  C   UNL A   1      45.305  25.756  34.555  1.00  0.00     0.148 A 
ATOM     64  C   UNL A   1      47.703  27.223  34.603  1.00  0.00     0.002 A 
ATOM     65  C   UNL A   1      46.345  25.367  35.388  1.00  0.00     0.091 A 
ATOM     66  F   UNL A   1      44.140  25.094  34.512  1.00  0.00    -0.205 F 
ATOM     67  C   UNL A   1      47.545  26.098  35.413  1.00  0.00     0.022 A 
BRANCH  65  68
ATOM     68  S   UNL A   1      46.211  23.988  36.530  1.00  0.00     0.127 S 
ATOM     69  O   UNL A   1      46.815  22.902  35.759  1.00  0.00    -0.237 OA
ATOM     70  O   UNL A   1      47.010  24.450  37.664  1.00  0.00    -0.237 OA
ATOM     71  O   UNL A   1      44.790  23.825  36.806  1.00  0.00    -0.744 OA
ENDBRANCH  65  68
ENDBRANCH  38  61
ENDBRANCH  12  13
ENDBRANCH   5   7
ENDBRANCH   2   3
ENDBRANCH   1   2
BRANCH   1  72
ATOM     72  C   UNL A   1      31.074  29.620  24.882  1.00  0.00     0.118 C 
BRANCH  72  73
ATOM     73  N   UNL A   1      30.411  29.873  23.604  1.00  0.00    -0.352 N 
ATOM     74  C   UNL A   1      30.113  28.999  22.580  1.00  0.00     0.251 C 
ATOM     75  H   UNL A   1      30.137  30.807  23.452  1.00  0.00     0.163 HD
ATOM     76  O   UNL A   1      29.669  29.391  21.513  1.00  0.00    -0.269 OA
BRANCH  74  77
ATOM     77  C   UNL A   1      30.390  27.563  22.787  1.00  0.00     0.041 A 
ATOM     78  C   UNL A   1      29.545  26.816  23.614  1.00  0.00     0.015 A 
ATOM     79  C   UNL A   1      31.566  27.013  22.262  1.00  0.00     0.040 A 
ATOM     80  C   UNL A   1      30.011  25.624  24.147  1.00  0.00     0.017 A 
ATOM     81  C   UNL A   1      31.974  25.769  22.732  1.00  0.00     0.056 A 
ATOM     82  C   UNL A   1      31.257  25.146  23.742  1.00  0.00     0.064 A 
ATOM     83  N   UNL A   1      33.093  25.124  22.217  1.00  0.00    -0.307 N 
ATOM     84  C   UNL A   1      31.904  24.037  24.450  1.00  0.00     0.264 A 
ATOM     85  C   UNL A   1      33.496  23.876  22.621  1.00  0.00     0.328 A 
ATOM     86  H   UNL A   1      33.624  25.586  21.529  1.00  0.00     0.171 HD
ATOM     87  O   UNL A   1      31.592  23.887  25.627  1.00  0.00    -0.268 OA
ATOM     88  N   UNL A   1      32.872  23.343  23.749  1.00  0.00    -0.260 N 
ATOM     89  O   UNL A   1      34.377  23.301  21.983  1.00  0.00    -0.248 OA
BRANCH  88  90
ATOM     90  C   UNL A   1      33.342  22.020  24.170  1.00  0.00     0.137 C 
BRANCH  90  91
ATOM     91  C   UNL A   1      32.496  20.744  23.981  1.00  0.00     0.083 C 
BRANCH  91  92
ATOM     92  C   UNL A   1      32.394  19.720  25.133  1.00  0.00     0.264 C 
BRANCH  92  93
ATOM     93  N   UNL A   1      33.051  18.464  24.823  1.00  0.00    -0.331 N 
ATOM     94  C   UNL A   1      32.686  17.331  25.675  1.00  0.00     0.291 C 
ATOM     95  C   UNL A   1      32.976  18.057  23.415  1.00  0.00     0.291 C 
ATOM     96  H   UNL A   1      34.020  18.703  25.034  1.00  0.00     0.348 HD
ATOM     97  C   UNL A   1      33.748  16.246  25.447  1.00  0.00     0.221 C 
ATOM     98  C   UNL A   1      34.000  16.928  23.197  1.00  0.00     0.221 C 
ATOM     99  O   UNL A   1      33.760  15.814  24.075  1.00  0.00    -0.370 OA
ENDBRANCH  92  93
ENDBRANCH  91  92
ENDBRANCH  90  91
ENDBRANCH  88  90
ENDBRANCH  74  77
ENDBRANCH  72  73
ENDBRANCH   1  72
TORSDOF 17
ENDMDL
MODEL 2
REMARK VINA RESULT:     -13.0      2.503      8.032
REMARK SMILES O=C(NCCCNC(=O)c1ccc2c(=O)n(CCC[NH+]3CCOCC3)c(=O)[nH]c2c1)c1ccc(-c2c3nc(c(-c4cccc(S(=O)(=O)[O-])c4F)c4ccc([nH]4)c(-c4cccc(S(=O)(=O)[O-])c4F)c4nc(c(-c5cccc(S(=O)(=O)[O-])c5F)c5ccc2[nH]5)C=C4)C=C3)cc1
REMARK SMILES IDX 5 1 4 2 3 3 1 4 2 5 31 7 32 8 93 9 33 10 92 11 34 12 35 13
REMARK SMILES IDX 36 14 86 15 37 16 91 17 85 18 87 19 38 20 90 21 84 22 83 23
REMARK SMILES IDX 39 25 71 26 51 27 70 28 52 29 55 30 69 31 88 32 53 33 54 34
REMARK SMILES IDX 68 36 89 37 56 38 40 39 41 40 49 41 42 42 44 43 50 44 43 45
REMARK SMILES IDX 45 46 46 47 47 48 48 49 72 50 73 51 81 52 74 53 76 54 82 55
REMARK SMILES IDX 75 56 77 57 78 58 79 59 80 60 57 61 58 62 66 63 59 64 61 65
REMARK SMILES IDX 67 66 60 67 62 68 63 69 64 70 65 71 6 72 7 73 8 74 9 76
REMARK SMILES IDX 10 77 11 78 30 79 12 80 29 81 13 82 28 83 14 84 26 85 15 87
REMARK SMILES IDX 16 88 27 89 17 90 18 91 19 92 20 93 21 94 25 95 22 97 24 98
REMARK SMILES IDX 23 99
REMARK H PARENT 3 6 87 24 55 35 7 75 28 86 20 96
REMARK Flexibility Score: inf
ROOT
ATOM      1  C   UNL A   1      31.498  32.258  26.698  1.00  0.00     0.042 C 
ENDROOT
BRANCH   1   2
ATOM      2  C   UNL A   1      32.774  32.870  27.244  1.00  0.00     0.118 C 
BRANCH   2   3
ATOM      3  N   UNL A   1      32.582  34.221  27.754  1.00  0.00    -0.352 N 
ATOM      4  O   UNL A   1      32.754  35.958  29.164  1.00  0.00    -0.269 OA
ATOM      5  C   UNL A   1      33.181  34.862  28.809  1.00  0.00     0.251 C 
ATOM      6  H   UNL A   1      31.918  34.759  27.264  1.00  0.00     0.163 HD
BRANCH   5   7
ATOM      7  C   UNL A   1      34.314  34.237  29.526  1.00  0.00     0.039 A 
ATOM      8  C   UNL A   1      34.043  33.347  30.568  1.00  0.00     0.014 A 
ATOM      9  C   UNL A   1      35.638  34.539  29.198  1.00  0.00     0.014 A 
ATOM     10  C   UNL A   1      35.098  32.736  31.250  1.00  0.00     0.010 A 
ATOM     11  C   UNL A   1      36.683  33.846  29.800  1.00  0.00     0.010 A 
ATOM     12  C   UNL A   1      36.427  32.963  30.856  1.00  0.00    -0.014 A 
BRANCH  12  13
ATOM     13  C   UNL A   1      37.561  32.331  31.577  1.00  0.00     0.031 A 
ATOM     14  C   UNL A   1      38.318  31.193  30.938  1.00  0.00     0.074 A 
ATOM     15  C   UNL A   1      37.890  32.751  32.815  1.00  0.00     0.049 A 
ATOM     16  N   UNL A   1      39.317  30.502  31.422  1.00  0.00    -0.248 NA
ATOM     17  C   UNL A   1      37.882  30.751  29.601  1.00  0.00     0.031 C 
ATOM     18  C   UNL A   1      37.181  33.784  33.574  1.00  0.00     0.029 A 
ATOM     19  N   UNL A   1      38.899  32.355  33.656  1.00  0.00    -0.354 N 
ATOM     20  C   UNL A   1      39.604  29.534  30.467  1.00  0.00     0.074 A 
ATOM     21  C   UNL A   1      38.650  29.691  29.396  1.00  0.00     0.031 C 
ATOM     22  C   UNL A   1      37.794  33.960  34.756  1.00  0.00     0.029 A 
ATOM     23  C   UNL A   1      38.924  33.039  34.849  1.00  0.00     0.049 A 
ATOM     24  H   UNL A   1      39.545  31.648  33.427  1.00  0.00     0.167 HD
ATOM     25  C   UNL A   1      40.606  28.627  30.458  1.00  0.00     0.034 A 
ATOM     26  C   UNL A   1      39.767  32.943  35.898  1.00  0.00     0.034 A 
ATOM     27  C   UNL A   1      41.609  28.530  31.477  1.00  0.00     0.049 A 
ATOM     28  C   UNL A   1      40.916  31.976  35.831  1.00  0.00     0.074 A 
ATOM     29  C   UNL A   1      42.714  27.698  31.509  1.00  0.00     0.029 A 
ATOM     30  N   UNL A   1      41.644  29.298  32.628  1.00  0.00    -0.354 N 
ATOM     31  N   UNL A   1      41.236  31.152  34.865  1.00  0.00    -0.248 NA
ATOM     32  C   UNL A   1      41.835  31.943  36.979  1.00  0.00     0.031 C 
ATOM     33  C   UNL A   1      43.422  27.968  32.681  1.00  0.00     0.029 A 
ATOM     34  C   UNL A   1      42.758  28.968  33.375  1.00  0.00     0.049 A 
ATOM     35  H   UNL A   1      40.974  29.976  32.877  1.00  0.00     0.167 HD
ATOM     36  C   UNL A   1      42.402  30.518  35.275  1.00  0.00     0.074 A 
ATOM     37  C   UNL A   1      42.742  31.060  36.573  1.00  0.00     0.031 C 
ATOM     38  C   UNL A   1      43.115  29.562  34.635  1.00  0.00     0.034 A 
BRANCH  25  39
ATOM     39  C   UNL A   1      40.744  27.732  29.260  1.00  0.00     0.023 A 
ATOM     40  C   UNL A   1      39.910  26.601  29.157  1.00  0.00     0.012 A 
ATOM     41  C   UNL A   1      41.595  28.070  28.191  1.00  0.00     0.148 A 
ATOM     42  C   UNL A   1      39.923  25.813  28.009  1.00  0.00     0.002 A 
ATOM     43  C   UNL A   1      41.580  27.298  27.036  1.00  0.00     0.091 A 
ATOM     44  F   UNL A   1      42.385  29.146  28.320  1.00  0.00    -0.205 F 
ATOM     45  C   UNL A   1      40.749  26.169  26.945  1.00  0.00     0.022 A 
BRANCH  43  46
ATOM     46  S   UNL A   1      42.560  27.695  25.585  1.00  0.00     0.127 S 
ATOM     47  O   UNL A   1      41.956  28.957  25.156  1.00  0.00    -0.237 OA
ATOM     48  O   UNL A   1      43.903  27.823  26.149  1.00  0.00    -0.237 OA
ATOM     49  O   UNL A   1      42.383  26.585  24.659  1.00  0.00    -0.744 OA
ENDBRANCH  43  46
ENDBRANCH  25  39
BRANCH  26  50
ATOM     50  C   UNL A   1      39.587  33.853  37.061  1.00  0.00     0.023 A 
ATOM     51  C   UNL A   1      39.960  35.206  36.943  1.00  0.00     0.012 A 
ATOM     52  C   UNL A   1      38.981  33.405  38.250  1.00  0.00     0.148 A 
ATOM     53  C   UNL A   1      39.741  36.097  37.995  1.00  0.00     0.002 A 
ATOM     54  C   UNL A   1      38.728  34.306  39.278  1.00  0.00     0.091 A 
ATOM     55  F   UNL A   1      38.638  32.113  38.337  1.00  0.00    -0.205 F 
ATOM     56  C   UNL A   1      39.117  35.650  39.157  1.00  0.00     0.022 A 
BRANCH  54  57
ATOM     57  S   UNL A   1      37.832  33.850  40.767  1.00  0.00     0.127 S 
ATOM     58  O   UNL A   1      36.642  33.209  40.215  1.00  0.00    -0.237 OA
ATOM     59  O   UNL A   1      38.777  32.941  41.417  1.00  0.00    -0.237 OA
ATOM     60  O   UNL A   1      37.600  35.095  41.486  1.00  0.00    -0.744 OA
ENDBRANCH  54  57
ENDBRANCH  26  50
BRANCH  38  61
ATOM     61  C   UNL A   1      44.354  29.023  35.289  1.00  0.00     0.023 A 
ATOM     62  C   UNL A   1      45.576  29.694  35.093  1.00  0.00     0.012 A 
ATOM     63  C   UNL A   1      44.264  27.995  36.249  1.00  0.00     0.148 A 
ATOM     64  C   UNL A   1      46.692  29.356  35.856  1.00  0.00     0.002 A 
ATOM     65  C   UNL A   1      45.371  27.687  37.026  1.00  0.00     0.091 A 
ATOM     66  F   UNL A   1      43.083  27.381  36.412  1.00  0.00    -0.205 F 
ATOM     67  C   UNL A   1      46.586  28.365  36.831  1.00  0.00     0.022 A 
BRANCH  65  68
ATOM     68  S   UNL A   1      45.316  26.489  38.364  1.00  0.00     0.127 S 
ATOM     69  O   UNL A   1      45.100  25.239  37.636  1.00  0.00    -0.237 OA
ATOM     70  O   UNL A   1      46.645  26.630  38.956  1.00  0.00    -0.237 OA
ATOM     71  O   UNL A   1      44.213  26.894  39.226  1.00  0.00    -0.744 OA
ENDBRANCH  65  68
ENDBRANCH  38  61
ENDBRANCH  12  13
ENDBRANCH   5   7
ENDBRANCH   2   3
ENDBRANCH   1   2
BRANCH   1  72
ATOM     72  C   UNL A   1      31.613  30.777  26.387  1.00  0.00     0.118 C 
BRANCH  72  73
ATOM     73  N   UNL A   1      31.117  30.422  25.059  1.00  0.00    -0.352 N 
ATOM     74  C   UNL A   1      31.269  29.251  24.348  1.00  0.00     0.251 C 
ATOM     75  H   UNL A   1      30.597  31.124  24.604  1.00  0.00     0.163 HD
ATOM     76  O   UNL A   1      30.901  29.153  23.188  1.00  0.00    -0.269 OA
BRANCH  74  77
ATOM     77  C   UNL A   1      31.936  28.114  25.012  1.00  0.00     0.041 A 
ATOM     78  C   UNL A   1      33.331  28.013  24.958  1.00  0.00     0.015 A 
ATOM     79  C   UNL A   1      31.155  27.091  25.564  1.00  0.00     0.040 A 
ATOM     80  C   UNL A   1      33.924  26.781  25.190  1.00  0.00     0.017 A 
ATOM     81  C   UNL A   1      31.779  25.891  25.886  1.00  0.00     0.056 A 
ATOM     82  C   UNL A   1      33.123  25.713  25.593  1.00  0.00     0.064 A 
ATOM     83  N   UNL A   1      31.090  24.848  26.496  1.00  0.00    -0.307 N 
ATOM     84  C   UNL A   1      33.646  24.344  25.609  1.00  0.00     0.264 A 
ATOM     85  C   UNL A   1      31.684  23.670  26.873  1.00  0.00     0.328 A 
ATOM     86  H   UNL A   1      30.126  24.961  26.666  1.00  0.00     0.171 HD
ATOM     87  O   UNL A   1      34.567  24.104  24.834  1.00  0.00    -0.268 OA
ATOM     88  N   UNL A   1      32.983  23.442  26.419  1.00  0.00    -0.260 N 
ATOM     89  O   UNL A   1      31.049  22.884  27.575  1.00  0.00    -0.248 OA
BRANCH  88  90
ATOM     90  C   UNL A   1      33.580  22.164  26.817  1.00  0.00     0.137 C 
BRANCH  90  91
ATOM     91  C   UNL A   1      33.832  21.021  25.813  1.00  0.00     0.083 C 
BRANCH  91  92
ATOM     92  C   UNL A   1      32.655  20.127  25.364  1.00  0.00     0.264 C 
BRANCH  92  93
ATOM     93  N   UNL A   1      33.082  18.799  24.968  1.00  0.00    -0.331 N 
ATOM     94  C   UNL A   1      32.642  17.705  25.835  1.00  0.00     0.291 C 
ATOM     95  C   UNL A   1      32.806  18.451  23.569  1.00  0.00     0.291 C 
ATOM     96  H   UNL A   1      34.093  18.887  25.080  1.00  0.00     0.348 HD
ATOM     97  C   UNL A   1      33.502  16.484  25.480  1.00  0.00     0.221 C 
ATOM     98  C   UNL A   1      33.624  17.192  23.227  1.00  0.00     0.221 C 
ATOM     99  O   UNL A   1      33.310  16.098  24.108  1.00  0.00    -0.370 OA
ENDBRANCH  92  93
ENDBRANCH  91  92
ENDBRANCH  90  91
ENDBRANCH  88  90
ENDBRANCH  74  77
ENDBRANCH  72  73
ENDBRANCH   1  72
TORSDOF 17
ENDMDL
MODEL 3
REMARK VINA RESULT:     -13.0      5.048     10.719
REMARK SMILES O=C(NCCCNC(=O)c1ccc2c(=O)n(CCC[NH+]3CCOCC3)c(=O)[nH]c2c1)c1ccc(-c2c3nc(c(-c4cccc(S(=O)(=O)[O-])c4F)c4ccc([nH]4)c(-c4cccc(S(=O)(=O)[O-])c4F)c4nc(c(-c5cccc(S(=O)(=O)[O-])c5F)c5ccc2[nH]5)C=C4)C=C3)cc1
REMARK SMILES IDX 5 1 4 2 3 3 1 4 2 5 31 7 32 8 93 9 33 10 92 11 34 12 35 13
REMARK SMILES IDX 36 14 86 15 37 16 91 17 85 18 87 19 38 20 90 21 84 22 83 23
REMARK SMILES IDX 39 25 71 26 51 27 70 28 52 29 55 30 69 31 88 32 53 33 54 34
REMARK SMILES IDX 68 36 89 37 56 38 40 39 41 40 49 41 42 42 44 43 50 44 43 45
REMARK SMILES IDX 45 46 46 47 47 48 48 49 72 50 73 51 81 52 74 53 76 54 82 55
REMARK SMILES IDX 75 56 77 57 78 58 79 59 80 60 57 61 58 62 66 63 59 64 61 65
REMARK SMILES IDX 67 66 60 67 62 68 63 69 64 70 65 71 6 72 7 73 8 74 9 76
REMARK SMILES IDX 10 77 11 78 30 79 12 80 29 81 13 82 28 83 14 84 26 85 15 87
REMARK SMILES IDX 16 88 27 89 17 90 18 91 19 92 20 93 21 94 25 95 22 97 24 98
REMARK SMILES IDX 23 99
REMARK H PARENT 3 6 87 24 55 35 7 75 28 86 20 96
REMARK Flexibility Score: inf
ROOT
ATOM      1  C   UNL A   1      35.940  21.843  24.630  1.00  0.00     0.042 C 
ENDROOT
BRANCH   1   2
ATOM      2  C   UNL A   1      37.352  22.308  24.932  1.00  0.00     0.118 C 
BRANCH   2   3
ATOM      3  N   UNL A   1      38.179  21.263  25.522  1.00  0.00    -0.352 N 
ATOM      4  O   UNL A   1      39.965  20.330  26.509  1.00  0.00    -0.269 OA
ATOM      5  C   UNL A   1      39.347  21.357  26.236  1.00  0.00     0.251 C 
ATOM      6  H   UNL A   1      37.846  20.346  25.388  1.00  0.00     0.163 HD
BRANCH   5   7
ATOM      7  C   UNL A   1      39.870  22.675  26.656  1.00  0.00     0.039 A 
ATOM      8  C   UNL A   1      40.807  22.730  27.691  1.00  0.00     0.014 A 
ATOM      9  C   UNL A   1      39.427  23.858  26.059  1.00  0.00     0.014 A 
ATOM     10  C   UNL A   1      41.323  23.963  28.095  1.00  0.00     0.010 A 
ATOM     11  C   UNL A   1      40.023  25.071  26.384  1.00  0.00     0.010 A 
ATOM     12  C   UNL A   1      40.952  25.143  27.428  1.00  0.00    -0.014 A 
BRANCH  12  13
ATOM     13  C   UNL A   1      41.482  26.463  27.853  1.00  0.00     0.031 A 
ATOM     14  C   UNL A   1      42.911  26.834  27.545  1.00  0.00     0.074 A 
ATOM     15  C   UNL A   1      40.696  27.314  28.543  1.00  0.00     0.049 A 
ATOM     16  N   UNL A   1      43.557  27.928  27.854  1.00  0.00    -0.248 NA
ATOM     17  C   UNL A   1      43.732  25.844  26.824  1.00  0.00     0.031 C 
ATOM     18  C   UNL A   1      39.325  27.037  28.976  1.00  0.00     0.029 A 
ATOM     19  N   UNL A   1      40.942  28.582  29.009  1.00  0.00    -0.354 N 
ATOM     20  C   UNL A   1      44.856  27.743  27.397  1.00  0.00     0.074 A 
ATOM     21  C   UNL A   1      44.926  26.418  26.830  1.00  0.00     0.031 C 
ATOM     22  C   UNL A   1      38.841  28.112  29.619  1.00  0.00     0.029 A 
ATOM     23  C   UNL A   1      39.872  29.145  29.664  1.00  0.00     0.049 A 
ATOM     24  H   UNL A   1      41.802  29.044  28.885  1.00  0.00     0.167 HD
ATOM     25  C   UNL A   1      45.887  28.617  27.402  1.00  0.00     0.034 A 
ATOM     26  C   UNL A   1      39.732  30.362  30.229  1.00  0.00     0.034 A 
ATOM     27  C   UNL A   1      45.794  29.964  27.882  1.00  0.00     0.049 A 
ATOM     28  C   UNL A   1      40.870  31.341  30.157  1.00  0.00     0.074 A 
ATOM     29  C   UNL A   1      46.763  30.951  27.847  1.00  0.00     0.029 A 
ATOM     30  N   UNL A   1      44.667  30.521  28.462  1.00  0.00    -0.354 N 
ATOM     31  N   UNL A   1      42.052  31.184  29.614  1.00  0.00    -0.248 NA
ATOM     32  C   UNL A   1      40.652  32.671  30.746  1.00  0.00     0.031 C 
ATOM     33  C   UNL A   1      46.219  32.109  28.404  1.00  0.00     0.029 A 
ATOM     34  C   UNL A   1      44.912  31.841  28.782  1.00  0.00     0.049 A 
ATOM     35  H   UNL A   1      43.820  30.045  28.623  1.00  0.00     0.167 HD
ATOM     36  C   UNL A   1      42.711  32.396  29.774  1.00  0.00     0.074 A 
ATOM     37  C   UNL A   1      41.794  33.286  30.456  1.00  0.00     0.031 C 
ATOM     38  C   UNL A   1      43.967  32.731  29.402  1.00  0.00     0.034 A 
BRANCH  25  39
ATOM     39  C   UNL A   1      47.183  28.192  26.773  1.00  0.00     0.023 A 
ATOM     40  C   UNL A   1      48.234  27.764  27.607  1.00  0.00     0.012 A 
ATOM     41  C   UNL A   1      47.318  28.096  25.375  1.00  0.00     0.148 A 
ATOM     42  C   UNL A   1      49.408  27.251  27.060  1.00  0.00     0.002 A 
ATOM     43  C   UNL A   1      48.479  27.553  24.838  1.00  0.00     0.091 A 
ATOM     44  F   UNL A   1      46.305  28.519  24.605  1.00  0.00    -0.205 F 
ATOM     45  C   UNL A   1      49.524  27.134  25.678  1.00  0.00     0.022 A 
BRANCH  43  46
ATOM     46  S   UNL A   1      48.714  27.305  23.075  1.00  0.00     0.127 S 
ATOM     47  O   UNL A   1      48.185  25.952  22.894  1.00  0.00    -0.237 OA
ATOM     48  O   UNL A   1      47.885  28.365  22.504  1.00  0.00    -0.237 OA
ATOM     49  O   UNL A   1      50.143  27.441  22.832  1.00  0.00    -0.744 OA
ENDBRANCH  43  46
ENDBRANCH  25  39
BRANCH  26  50
ATOM     50  C   UNL A   1      38.427  30.735  30.840  1.00  0.00     0.023 A 
ATOM     51  C   UNL A   1      38.204  30.469  32.204  1.00  0.00     0.012 A 
ATOM     52  C   UNL A   1      37.444  31.418  30.098  1.00  0.00     0.148 A 
ATOM     53  C   UNL A   1      37.016  30.869  32.819  1.00  0.00     0.002 A 
ATOM     54  C   UNL A   1      36.282  31.849  30.726  1.00  0.00     0.091 A 
ATOM     55  F   UNL A   1      37.682  31.655  28.801  1.00  0.00    -0.205 F 
ATOM     56  C   UNL A   1      36.060  31.566  32.084  1.00  0.00     0.022 A 
BRANCH  54  57
ATOM     57  S   UNL A   1      35.043  32.847  29.891  1.00  0.00     0.127 S 
ATOM     58  O   UNL A   1      34.535  31.915  28.888  1.00  0.00    -0.237 OA
ATOM     59  O   UNL A   1      34.115  33.146  30.983  1.00  0.00    -0.237 OA
ATOM     60  O   UNL A   1      35.754  34.006  29.370  1.00  0.00    -0.744 OA
ENDBRANCH  54  57
ENDBRANCH  26  50
BRANCH  38  61
ATOM     61  C   UNL A   1      44.462  34.119  29.691  1.00  0.00     0.023 A 
ATOM     62  C   UNL A   1      45.198  34.351  30.867  1.00  0.00     0.012 A 
ATOM     63  C   UNL A   1      44.377  35.124  28.707  1.00  0.00     0.148 A 
ATOM     64  C   UNL A   1      45.857  35.564  31.056  1.00  0.00     0.002 A 
ATOM     65  C   UNL A   1      45.062  36.317  28.888  1.00  0.00     0.091 A 
ATOM     66  F   UNL A   1      43.672  34.868  27.596  1.00  0.00    -0.205 F 
ATOM     67  C   UNL A   1      45.802  36.540  30.062  1.00  0.00     0.022 A 
BRANCH  65  68
ATOM     68  S   UNL A   1      45.126  37.601  27.633  1.00  0.00     0.127 S 
ATOM     69  O   UNL A   1      45.910  36.953  26.583  1.00  0.00    -0.237 OA
ATOM     70  O   UNL A   1      43.711  37.787  27.313  1.00  0.00    -0.237 OA
ATOM     71  O   UNL A   1      45.769  38.749  28.258  1.00  0.00    -0.744 OA
ENDBRANCH  65  68
ENDBRANCH  38  61
ENDBRANCH  12  13
ENDBRANCH   5   7
ENDBRANCH   2   3
ENDBRANCH   1   2
BRANCH   1  72
ATOM     72  C   UNL A   1      35.105  21.574  25.868  1.00  0.00     0.118 C 
BRANCH  72  73
ATOM     73  N   UNL A   1      34.047  20.589  25.652  1.00  0.00    -0.352 N 
ATOM     74  C   UNL A   1      32.781  20.759  25.133  1.00  0.00     0.251 C 
ATOM     75  H   UNL A   1      34.271  19.667  25.918  1.00  0.00     0.163 HD
ATOM     76  O   UNL A   1      31.961  19.854  25.135  1.00  0.00    -0.269 OA
BRANCH  74  77
ATOM     77  C   UNL A   1      32.416  22.089  24.607  1.00  0.00     0.041 A 
ATOM     78  C   UNL A   1      32.524  22.335  23.233  1.00  0.00     0.015 A 
ATOM     79  C   UNL A   1      32.103  23.116  25.506  1.00  0.00     0.040 A 
ATOM     80  C   UNL A   1      32.600  23.647  22.791  1.00  0.00     0.017 A 
ATOM     81  C   UNL A   1      32.085  24.422  25.030  1.00  0.00     0.056 A 
ATOM     82  C   UNL A   1      32.441  24.680  23.714  1.00  0.00     0.064 A 
ATOM     83  N   UNL A   1      31.720  25.492  25.840  1.00  0.00    -0.307 N 
ATOM     84  C   UNL A   1      32.758  26.066  23.356  1.00  0.00     0.264 A 
ATOM     85  C   UNL A   1      31.643  26.786  25.391  1.00  0.00     0.328 A 
ATOM     86  H   UNL A   1      31.507  25.312  26.785  1.00  0.00     0.171 HD
ATOM     87  O   UNL A   1      33.588  26.222  22.465  1.00  0.00    -0.268 OA
ATOM     88  N   UNL A   1      32.167  27.050  24.125  1.00  0.00    -0.260 N 
ATOM     89  O   UNL A   1      31.130  27.636  26.117  1.00  0.00    -0.248 OA
BRANCH  88  90
ATOM     90  C   UNL A   1      32.093  28.445  23.685  1.00  0.00     0.137 C 
BRANCH  90  91
ATOM     91  C   UNL A   1      31.037  28.938  22.675  1.00  0.00     0.083 C 
BRANCH  91  92
ATOM     92  C   UNL A   1      29.658  29.413  23.184  1.00  0.00     0.264 C 
BRANCH  92  93
ATOM     93  N   UNL A   1      29.280  30.706  22.647  1.00  0.00    -0.331 N 
ATOM     94  C   UNL A   1      28.214  30.689  21.643  1.00  0.00     0.291 C 
ATOM     95  C   UNL A   1      28.982  31.732  23.653  1.00  0.00     0.291 C 
ATOM     96  H   UNL A   1      30.143  30.969  22.170  1.00  0.00     0.348 HD
ATOM     97  C   UNL A   1      28.246  32.053  20.940  1.00  0.00     0.221 C 
ATOM     98  C   UNL A   1      28.956  33.096  22.940  1.00  0.00     0.221 C 
ATOM     99  O   UNL A   1      27.993  33.120  21.872  1.00  0.00    -0.370 OA
ENDBRANCH  92  93
ENDBRANCH  91  92
ENDBRANCH  90  91
ENDBRANCH  88  90
ENDBRANCH  74  77
ENDBRANCH  72  73
ENDBRANCH   1  72
TORSDOF 17
ENDMDL
