MODEL 1
REMARK VINA RESULT:     -11.6      0.000      0.000
REMARK SMILES COc1ccc(-c2noc(C[N@H+]3CCCC[C@@H]3C(=O)NCCCNC(=O)c3ccc(-c4c5nc(c(-c6cccc(S(=O)(=O)[O-])c6F)c6ccc([nH]6)c(-c6cccc(S(=O)(=O)[O-])c6F)c6nc(c(-c7cccc(S(=O)(=O)[O-])c7F)c7ccc4[nH]7)C=C6)C=C5)cc3)n2)cc1OC
REMARK SMILES IDX 21 1 20 2 18 3 19 4 17 6 12 7 13 8 14 10 16 11 15 12 11 13
REMARK SMILES IDX 10 14 7 15 8 16 90 17 9 18 6 19 3 20 4 21 92 22 5 23 91 24
REMARK SMILES IDX 2 25 1 26 93 27 94 28 22 29 23 30 24 31 25 32 26 34 27 35
REMARK SMILES IDX 28 36 89 37 29 38 88 39 30 40 31 41 32 42 82 43 33 44 87 45
REMARK SMILES IDX 81 46 83 47 34 48 86 49 80 50 79 51 35 53 67 54 47 55 66 56
REMARK SMILES IDX 48 57 51 58 65 59 84 60 49 61 50 62 64 64 85 65 52 66 36 67
REMARK SMILES IDX 37 68 45 69 38 70 40 71 46 72 39 73 41 74 42 75 43 76 44 77
REMARK SMILES IDX 68 78 69 79 77 80 70 81 72 82 78 83 71 84 73 85 74 86 75 87
REMARK SMILES IDX 76 88 53 89 54 90 62 91 55 92 57 93 63 94 56 95 58 96 59 97
REMARK SMILES IDX 60 98 61 99
REMARK H PARENT 20 5 12 9 24 33 83 52 51 63
REMARK Flexibility Score: inf
ROOT
ATOM      1  C   UNL A   1      32.602  30.151  27.071  1.00  0.00     0.118 C 
ENDROOT
BRANCH   1   2
ATOM      2  N   UNL A   1      33.227  29.902  25.783  1.00  0.00    -0.351 N 
ATOM      3  C   UNL A   1      32.718  29.314  24.662  1.00  0.00     0.278 C 
ATOM      4  O   UNL A   1      33.450  29.241  23.670  1.00  0.00    -0.268 OA
ATOM      5  H   UNL A   1      34.161  30.204  25.708  1.00  0.00     0.163 HD
BRANCH   3   6
ATOM      6  C   UNL A   1      31.260  28.809  24.605  1.00  0.00     0.274 C 
ATOM      7  N   UNL A   1      31.227  27.327  24.485  1.00  0.00    -0.317 N 
ATOM      8  C   UNL A   1      29.868  26.803  24.311  1.00  0.00     0.263 C 
ATOM      9  H   UNL A   1      31.735  27.119  23.626  1.00  0.00     0.349 HD
ATOM     10  C   UNL A   1      29.161  27.459  23.125  1.00  0.00     0.062 C 
ATOM     11  C   UNL A   1      30.491  29.536  23.492  1.00  0.00     0.076 C 
ATOM     12  C   UNL A   1      29.091  28.969  23.305  1.00  0.00     0.012 C 
BRANCH   7  13
ATOM     13  C   UNL A   1      31.958  26.630  25.572  1.00  0.00     0.364 C 
BRANCH  13  14
ATOM     14  C   UNL A   1      32.794  25.459  25.179  1.00  0.00     0.282 A 
ATOM     15  C   UNL A   1      33.685  23.597  24.844  1.00  0.00     0.202 A 
ATOM     16  N   UNL A   1      34.611  24.460  24.403  1.00  0.00    -0.057 NA
ATOM     17  N   UNL A   1      32.542  24.180  25.330  1.00  0.00    -0.186 NA
ATOM     18  O   UNL A   1      34.002  25.704  24.593  1.00  0.00    -0.333 OA
BRANCH  15  19
ATOM     19  C   UNL A   1      33.828  22.158  24.806  1.00  0.00     0.027 A 
ATOM     20  C   UNL A   1      34.205  19.395  24.592  1.00  0.00     0.160 A 
ATOM     21  C   UNL A   1      32.924  19.948  24.447  1.00  0.00     0.051 A 
ATOM     22  C   UNL A   1      35.304  20.224  24.851  1.00  0.00     0.161 A 
ATOM     23  C   UNL A   1      32.731  21.326  24.573  1.00  0.00     0.016 A 
ATOM     24  C   UNL A   1      35.105  21.603  24.942  1.00  0.00     0.062 A 
BRANCH  20  25
ATOM     25  O   UNL A   1      34.390  18.058  24.359  1.00  0.00    -0.493 OA
ATOM     26  C   UNL A   1      33.245  17.439  23.775  1.00  0.00     0.278 C 
ENDBRANCH  20  25
BRANCH  22  27
ATOM     27  O   UNL A   1      36.615  19.860  24.999  1.00  0.00    -0.493 OA
ATOM     28  C   UNL A   1      37.577  20.904  25.036  1.00  0.00     0.278 C 
ENDBRANCH  22  27
ENDBRANCH  15  19
ENDBRANCH  13  14
ENDBRANCH   7  13
ENDBRANCH   3   6
ENDBRANCH   1   2
BRANCH   1  29
ATOM     29  C   UNL A   1      31.980  31.540  27.140  1.00  0.00     0.042 C 
BRANCH  29  30
ATOM     30  C   UNL A   1      32.967  32.672  26.895  1.00  0.00     0.118 C 
BRANCH  30  31
ATOM     31  N   UNL A   1      32.675  33.852  27.694  1.00  0.00    -0.352 N 
ATOM     32  C   UNL A   1      33.278  34.313  28.836  1.00  0.00     0.251 C 
ATOM     33  H   UNL A   1      31.929  34.403  27.364  1.00  0.00     0.163 HD
ATOM     34  O   UNL A   1      32.756  35.236  29.457  1.00  0.00    -0.269 OA
BRANCH  32  35
ATOM     35  C   UNL A   1      34.535  33.705  29.329  1.00  0.00     0.039 A 
ATOM     36  C   UNL A   1      34.453  32.660  30.255  1.00  0.00     0.014 A 
ATOM     37  C   UNL A   1      35.786  34.175  28.923  1.00  0.00     0.014 A 
ATOM     38  C   UNL A   1      35.620  32.067  30.738  1.00  0.00     0.010 A 
ATOM     39  C   UNL A   1      36.946  33.525  29.337  1.00  0.00     0.010 A 
ATOM     40  C   UNL A   1      36.878  32.481  30.268  1.00  0.00    -0.014 A 
BRANCH  40  41
ATOM     41  C   UNL A   1      38.120  31.830  30.755  1.00  0.00     0.031 A 
ATOM     42  C   UNL A   1      38.752  32.256  32.052  1.00  0.00     0.074 A 
ATOM     43  C   UNL A   1      38.707  30.881  30.000  1.00  0.00     0.049 A 
ATOM     44  N   UNL A   1      39.797  31.756  32.661  1.00  0.00    -0.248 NA
ATOM     45  C   UNL A   1      38.152  33.408  32.745  1.00  0.00     0.031 C 
ATOM     46  C   UNL A   1      38.246  30.448  28.679  1.00  0.00     0.029 A 
ATOM     47  N   UNL A   1      39.820  30.112  30.233  1.00  0.00    -0.354 N 
ATOM     48  C   UNL A   1      39.995  32.545  33.788  1.00  0.00     0.074 A 
ATOM     49  C   UNL A   1      38.993  33.587  33.753  1.00  0.00     0.031 C 
ATOM     50  C   UNL A   1      39.047  29.466  28.235  1.00  0.00     0.029 A 
ATOM     51  C   UNL A   1      40.085  29.211  29.229  1.00  0.00     0.049 A 
ATOM     52  H   UNL A   1      40.374  30.196  31.042  1.00  0.00     0.167 HD
ATOM     53  C   UNL A   1      40.901  32.396  34.783  1.00  0.00     0.034 A 
ATOM     54  C   UNL A   1      41.042  28.268  29.132  1.00  0.00     0.034 A 
ATOM     55  C   UNL A   1      41.867  31.332  34.835  1.00  0.00     0.049 A 
ATOM     56  C   UNL A   1      41.998  28.077  30.278  1.00  0.00     0.074 A 
ATOM     57  C   UNL A   1      42.771  31.036  35.840  1.00  0.00     0.029 A 
ATOM     58  N   UNL A   1      42.058  30.390  33.836  1.00  0.00    -0.354 N 
ATOM     59  N   UNL A   1      42.058  28.722  31.418  1.00  0.00    -0.248 NA
ATOM     60  C   UNL A   1      42.987  26.999  30.143  1.00  0.00     0.031 C 
ATOM     61  C   UNL A   1      43.519  29.922  35.440  1.00  0.00     0.029 A 
ATOM     62  C   UNL A   1      43.066  29.513  34.194  1.00  0.00     0.049 A 
ATOM     63  H   UNL A   1      41.549  30.350  32.994  1.00  0.00     0.167 HD
ATOM     64  C   UNL A   1      43.062  28.104  32.153  1.00  0.00     0.074 A 
ATOM     65  C   UNL A   1      43.572  27.022  31.334  1.00  0.00     0.031 C 
ATOM     66  C   UNL A   1      43.528  28.410  33.390  1.00  0.00     0.034 A 
BRANCH  53  67
ATOM     67  C   UNL A   1      40.841  33.378  35.927  1.00  0.00     0.023 A 
ATOM     68  C   UNL A   1      41.486  34.627  35.801  1.00  0.00     0.012 A 
ATOM     69  C   UNL A   1      40.134  33.084  37.109  1.00  0.00     0.148 A 
ATOM     70  C   UNL A   1      41.471  35.545  36.851  1.00  0.00     0.002 A 
ATOM     71  C   UNL A   1      40.086  34.025  38.134  1.00  0.00     0.091 A 
ATOM     72  F   UNL A   1      39.547  31.885  37.226  1.00  0.00    -0.205 F 
ATOM     73  C   UNL A   1      40.765  35.249  38.012  1.00  0.00     0.022 A 
BRANCH  71  74
ATOM     74  S   UNL A   1      39.133  33.759  39.632  1.00  0.00     0.127 S 
ATOM     75  O   UNL A   1      39.324  35.026  40.334  1.00  0.00    -0.237 OA
ATOM     76  O   UNL A   1      37.780  33.550  39.111  1.00  0.00    -0.237 OA
ATOM     77  O   UNL A   1      39.718  32.587  40.268  1.00  0.00    -0.744 OA
ENDBRANCH  71  74
ENDBRANCH  53  67
BRANCH  54  78
ATOM     78  C   UNL A   1      41.053  27.351  27.957  1.00  0.00     0.023 A 
ATOM     79  C   UNL A   1      41.763  27.731  26.802  1.00  0.00     0.012 A 
ATOM     80  C   UNL A   1      40.430  26.089  27.999  1.00  0.00     0.148 A 
ATOM     81  C   UNL A   1      41.834  26.881  25.698  1.00  0.00     0.002 A 
ATOM     82  C   UNL A   1      40.549  25.226  26.915  1.00  0.00     0.091 A 
ATOM     83  F   UNL A   1      39.757  25.750  29.106  1.00  0.00    -0.205 F 
ATOM     84  C   UNL A   1      41.238  25.625  25.759  1.00  0.00     0.022 A 
BRANCH  82  85
ATOM     85  S   UNL A   1      39.928  23.540  26.952  1.00  0.00     0.127 S 
ATOM     86  O   UNL A   1      40.391  23.024  25.663  1.00  0.00    -0.237 OA
ATOM     87  O   UNL A   1      40.622  22.991  28.118  1.00  0.00    -0.237 OA
ATOM     88  O   UNL A   1      38.488  23.651  27.105  1.00  0.00    -0.744 OA
ENDBRANCH  82  85
ENDBRANCH  54  78
BRANCH  66  89
ATOM     89  C   UNL A   1      44.625  27.546  33.955  1.00  0.00     0.023 A 
ATOM     90  C   UNL A   1      45.973  27.903  33.752  1.00  0.00     0.012 A 
ATOM     91  C   UNL A   1      44.320  26.419  34.744  1.00  0.00     0.148 A 
ATOM     92  C   UNL A   1      46.999  27.133  34.296  1.00  0.00     0.002 A 
ATOM     93  C   UNL A   1      45.348  25.684  35.323  1.00  0.00     0.091 A 
ATOM     94  F   UNL A   1      43.032  26.081  34.908  1.00  0.00    -0.205 F 
ATOM     95  C   UNL A   1      46.688  26.032  35.091  1.00  0.00     0.022 A 
BRANCH  93  96
ATOM     96  S   UNL A   1      45.030  24.310  36.436  1.00  0.00     0.127 S 
ATOM     97  O   UNL A   1      46.378  23.966  36.880  1.00  0.00    -0.237 OA
ATOM     98  O   UNL A   1      44.188  24.926  37.463  1.00  0.00    -0.237 OA
ATOM     99  O   UNL A   1      44.354  23.299  35.633  1.00  0.00    -0.744 OA
ENDBRANCH  93  96
ENDBRANCH  66  89
ENDBRANCH  40  41
ENDBRANCH  32  35
ENDBRANCH  30  31
ENDBRANCH  29  30
ENDBRANCH   1  29
TORSDOF 18
ENDMDL
MODEL 2
REMARK VINA RESULT:     -11.6      2.331      3.317
REMARK SMILES COc1ccc(-c2noc(C[N@H+]3CCCC[C@@H]3C(=O)NCCCNC(=O)c3ccc(-c4c5nc(c(-c6cccc(S(=O)(=O)[O-])c6F)c6ccc([nH]6)c(-c6cccc(S(=O)(=O)[O-])c6F)c6nc(c(-c7cccc(S(=O)(=O)[O-])c7F)c7ccc4[nH]7)C=C6)C=C5)cc3)n2)cc1OC
REMARK SMILES IDX 21 1 20 2 18 3 19 4 17 6 12 7 13 8 14 10 16 11 15 12 11 13
REMARK SMILES IDX 10 14 7 15 8 16 90 17 9 18 6 19 3 20 4 21 92 22 5 23 91 24
REMARK SMILES IDX 2 25 1 26 93 27 94 28 22 29 23 30 24 31 25 32 26 34 27 35
REMARK SMILES IDX 28 36 89 37 29 38 88 39 30 40 31 41 32 42 82 43 33 44 87 45
REMARK SMILES IDX 81 46 83 47 34 48 86 49 80 50 79 51 35 53 67 54 47 55 66 56
REMARK SMILES IDX 48 57 51 58 65 59 84 60 49 61 50 62 64 64 85 65 52 66 36 67
REMARK SMILES IDX 37 68 45 69 38 70 40 71 46 72 39 73 41 74 42 75 43 76 44 77
REMARK SMILES IDX 68 78 69 79 77 80 70 81 72 82 78 83 71 84 73 85 74 86 75 87
REMARK SMILES IDX 76 88 53 89 54 90 62 91 55 92 57 93 63 94 56 95 58 96 59 97
REMARK SMILES IDX 60 98 61 99
REMARK H PARENT 20 5 12 9 24 33 83 52 51 63
REMARK Flexibility Score: inf
ROOT
ATOM      1  C   UNL A   1      31.943  26.787  26.116  1.00  0.00     0.118 C 
ENDROOT
BRANCH   1   2
ATOM      2  N   UNL A   1      30.645  26.881  25.470  1.00  0.00    -0.351 N 
ATOM      3  C   UNL A   1      30.324  27.260  24.200  1.00  0.00     0.278 C 
ATOM      4  O   UNL A   1      29.133  27.231  23.875  1.00  0.00    -0.268 OA
ATOM      5  H   UNL A   1      29.879  26.632  26.037  1.00  0.00     0.163 HD
BRANCH   3   6
ATOM      6  C   UNL A   1      31.411  27.655  23.177  1.00  0.00     0.274 C 
ATOM      7  N   UNL A   1      32.309  26.502  22.898  1.00  0.00    -0.317 N 
ATOM      8  C   UNL A   1      33.429  26.855  22.021  1.00  0.00     0.263 C 
ATOM      9  H   UNL A   1      32.709  26.253  23.802  1.00  0.00     0.349 HD
ATOM     10  C   UNL A   1      34.223  28.038  22.573  1.00  0.00     0.062 C 
ATOM     11  C   UNL A   1      32.152  28.913  23.652  1.00  0.00     0.076 C 
ATOM     12  C   UNL A   1      33.327  29.257  22.747  1.00  0.00     0.012 C 
BRANCH   7  13
ATOM     13  C   UNL A   1      31.587  25.295  22.424  1.00  0.00     0.364 C 
BRANCH  13  14
ATOM     14  C   UNL A   1      31.735  24.057  23.243  1.00  0.00     0.282 A 
ATOM     15  C   UNL A   1      32.186  22.194  24.081  1.00  0.00     0.202 A 
ATOM     16  N   UNL A   1      31.198  22.647  24.864  1.00  0.00    -0.057 NA
ATOM     17  N   UNL A   1      32.549  23.043  23.065  1.00  0.00    -0.186 NA
ATOM     18  O   UNL A   1      30.920  23.908  24.329  1.00  0.00    -0.333 OA
BRANCH  15  19
ATOM     19  C   UNL A   1      32.861  20.929  24.268  1.00  0.00     0.027 A 
ATOM     20  C   UNL A   1      34.278  18.528  24.505  1.00  0.00     0.160 A 
ATOM     21  C   UNL A   1      32.933  18.521  24.103  1.00  0.00     0.051 A 
ATOM     22  C   UNL A   1      34.918  19.740  24.796  1.00  0.00     0.161 A 
ATOM     23  C   UNL A   1      32.219  19.717  24.003  1.00  0.00     0.016 A 
ATOM     24  C   UNL A   1      34.204  20.932  24.661  1.00  0.00     0.062 A 
BRANCH  20  25
ATOM     25  O   UNL A   1      34.989  17.358  24.492  1.00  0.00    -0.493 OA
ATOM     26  C   UNL A   1      34.394  16.363  23.662  1.00  0.00     0.278 C 
ENDBRANCH  20  25
BRANCH  22  27
ATOM     27  O   UNL A   1      36.218  19.933  25.177  1.00  0.00    -0.493 OA
ATOM     28  C   UNL A   1      36.872  21.092  24.682  1.00  0.00     0.278 C 
ENDBRANCH  22  27
ENDBRANCH  15  19
ENDBRANCH  13  14
ENDBRANCH   7  13
ENDBRANCH   3   6
ENDBRANCH   1   2
BRANCH   1  29
ATOM     29  C   UNL A   1      32.127  27.863  27.179  1.00  0.00     0.042 C 
BRANCH  29  30
ATOM     30  C   UNL A   1      33.509  28.501  27.180  1.00  0.00     0.118 C 
BRANCH  30  31
ATOM     31  N   UNL A   1      33.458  29.945  27.350  1.00  0.00    -0.352 N 
ATOM     32  C   UNL A   1      34.356  30.793  27.946  1.00  0.00     0.251 C 
ATOM     33  H   UNL A   1      32.655  30.379  26.982  1.00  0.00     0.163 HD
ATOM     34  O   UNL A   1      34.033  31.962  28.145  1.00  0.00    -0.269 OA
BRANCH  32  35
ATOM     35  C   UNL A   1      35.695  30.313  28.359  1.00  0.00     0.039 A 
ATOM     36  C   UNL A   1      36.768  30.494  27.482  1.00  0.00     0.014 A 
ATOM     37  C   UNL A   1      35.895  29.656  29.576  1.00  0.00     0.014 A 
ATOM     38  C   UNL A   1      38.042  30.052  27.843  1.00  0.00     0.010 A 
ATOM     39  C   UNL A   1      37.181  29.297  29.972  1.00  0.00     0.010 A 
ATOM     40  C   UNL A   1      38.264  29.468  29.101  1.00  0.00    -0.014 A 
BRANCH  40  41
ATOM     41  C   UNL A   1      39.624  29.027  29.502  1.00  0.00     0.031 A 
ATOM     42  C   UNL A   1      40.355  29.717  30.622  1.00  0.00     0.074 A 
ATOM     43  C   UNL A   1      40.223  28.030  28.822  1.00  0.00     0.049 A 
ATOM     44  N   UNL A   1      41.518  29.426  31.148  1.00  0.00    -0.248 NA
ATOM     45  C   UNL A   1      39.713  30.903  31.212  1.00  0.00     0.031 C 
ATOM     46  C   UNL A   1      39.658  27.346  27.657  1.00  0.00     0.029 A 
ATOM     47  N   UNL A   1      41.438  27.421  29.010  1.00  0.00    -0.354 N 
ATOM     48  C   UNL A   1      41.757  30.403  32.106  1.00  0.00     0.074 A 
ATOM     49  C   UNL A   1      40.643  31.324  32.056  1.00  0.00     0.031 C 
ATOM     50  C   UNL A   1      40.508  26.387  27.256  1.00  0.00     0.029 A 
ATOM     51  C   UNL A   1      41.683  26.399  28.124  1.00  0.00     0.049 A 
ATOM     52  H   UNL A   1      42.072  27.688  29.712  1.00  0.00     0.167 HD
ATOM     53  C   UNL A   1      42.789  30.507  32.978  1.00  0.00     0.034 A 
ATOM     54  C   UNL A   1      42.725  25.549  28.035  1.00  0.00     0.034 A 
ATOM     55  C   UNL A   1      43.872  29.564  33.052  1.00  0.00     0.049 A 
ATOM     56  C   UNL A   1      43.829  25.640  29.053  1.00  0.00     0.074 A 
ATOM     57  C   UNL A   1      44.921  29.524  33.954  1.00  0.00     0.029 A 
ATOM     58  N   UNL A   1      44.049  28.495  32.187  1.00  0.00    -0.354 N 
ATOM     59  N   UNL A   1      43.951  26.465  30.066  1.00  0.00    -0.248 NA
ATOM     60  C   UNL A   1      44.914  24.656  28.944  1.00  0.00     0.031 C 
ATOM     61  C   UNL A   1      45.740  28.437  33.624  1.00  0.00     0.029 A 
ATOM     62  C   UNL A   1      45.190  27.790  32.528  1.00  0.00     0.049 A 
ATOM     63  H   UNL A   1      43.450  28.270  31.439  1.00  0.00     0.167 HD
ATOM     64  C   UNL A   1      45.103  26.074  30.738  1.00  0.00     0.074 A 
ATOM     65  C   UNL A   1      45.633  24.929  30.025  1.00  0.00     0.031 C 
ATOM     66  C   UNL A   1      45.676  26.620  31.840  1.00  0.00     0.034 A 
BRANCH  53  67
ATOM     67  C   UNL A   1      42.754  31.650  33.960  1.00  0.00     0.023 A 
ATOM     68  C   UNL A   1      43.202  32.926  33.554  1.00  0.00     0.012 A 
ATOM     69  C   UNL A   1      42.261  31.479  35.268  1.00  0.00     0.148 A 
ATOM     70  C   UNL A   1      43.207  33.997  34.447  1.00  0.00     0.002 A 
ATOM     71  C   UNL A   1      42.227  32.564  36.139  1.00  0.00     0.091 A 
ATOM     72  F   UNL A   1      41.862  30.257  35.649  1.00  0.00    -0.205 F 
ATOM     73  C   UNL A   1      42.712  33.818  35.735  1.00  0.00     0.022 A 
BRANCH  71  74
ATOM     74  S   UNL A   1      41.530  32.443  37.790  1.00  0.00     0.127 S 
ATOM     75  O   UNL A   1      41.680  33.814  38.275  1.00  0.00    -0.237 OA
ATOM     76  O   UNL A   1      40.148  32.041  37.519  1.00  0.00    -0.237 OA
ATOM     77  O   UNL A   1      42.324  31.436  38.479  1.00  0.00    -0.744 OA
ENDBRANCH  71  74
ENDBRANCH  53  67
BRANCH  54  78
ATOM     78  C   UNL A   1      42.700  24.460  27.019  1.00  0.00     0.023 A 
ATOM     79  C   UNL A   1      43.464  24.604  25.845  1.00  0.00     0.012 A 
ATOM     80  C   UNL A   1      41.988  23.264  27.235  1.00  0.00     0.148 A 
ATOM     81  C   UNL A   1      43.503  23.588  24.891  1.00  0.00     0.002 A 
ATOM     82  C   UNL A   1      42.073  22.235  26.304  1.00  0.00     0.091 A 
ATOM     83  F   UNL A   1      41.265  23.151  28.356  1.00  0.00    -0.205 F 
ATOM     84  C   UNL A   1      42.817  22.400  25.126  1.00  0.00     0.022 A 
BRANCH  82  85
ATOM     85  S   UNL A   1      41.333  20.621  26.581  1.00  0.00     0.127 S 
ATOM     86  O   UNL A   1      41.835  20.288  27.915  1.00  0.00    -0.237 OA
ATOM     87  O   UNL A   1      39.903  20.932  26.523  1.00  0.00    -0.237 OA
ATOM     88  O   UNL A   1      41.808  19.774  25.500  1.00  0.00    -0.744 OA
ENDBRANCH  82  85
ENDBRANCH  54  78
BRANCH  66  89
ATOM     89  C   UNL A   1      46.928  25.971  32.368  1.00  0.00     0.023 A 
ATOM     90  C   UNL A   1      48.190  26.419  31.930  1.00  0.00     0.012 A 
ATOM     91  C   UNL A   1      46.855  24.962  33.349  1.00  0.00     0.148 A 
ATOM     92  C   UNL A   1      49.358  25.851  32.435  1.00  0.00     0.002 A 
ATOM     93  C   UNL A   1      48.025  24.433  33.883  1.00  0.00     0.091 A 
ATOM     94  F   UNL A   1      45.646  24.531  33.738  1.00  0.00    -0.205 F 
ATOM     95  C   UNL A   1      49.277  24.868  33.419  1.00  0.00     0.022 A 
BRANCH  93  96
ATOM     96  S   UNL A   1      48.009  23.232  35.219  1.00  0.00     0.127 S 
ATOM     97  O   UNL A   1      49.317  23.449  35.833  1.00  0.00    -0.237 OA
ATOM     98  O   UNL A   1      46.875  23.680  36.029  1.00  0.00    -0.237 OA
ATOM     99  O   UNL A   1      47.818  21.935  34.584  1.00  0.00    -0.744 OA
ENDBRANCH  93  96
ENDBRANCH  66  89
ENDBRANCH  40  41
ENDBRANCH  32  35
ENDBRANCH  30  31
ENDBRANCH  29  30
ENDBRANCH   1  29
TORSDOF 18
ENDMDL
MODEL 3
REMARK VINA RESULT:     -11.6      1.750      2.324
REMARK SMILES COc1ccc(-c2noc(C[N@H+]3CCCC[C@@H]3C(=O)NCCCNC(=O)c3ccc(-c4c5nc(c(-c6cccc(S(=O)(=O)[O-])c6F)c6ccc([nH]6)c(-c6cccc(S(=O)(=O)[O-])c6F)c6nc(c(-c7cccc(S(=O)(=O)[O-])c7F)c7ccc4[nH]7)C=C6)C=C5)cc3)n2)cc1OC
REMARK SMILES IDX 21 1 20 2 18 3 19 4 17 6 12 7 13 8 14 10 16 11 15 12 11 13
REMARK SMILES IDX 10 14 7 15 8 16 90 17 9 18 6 19 3 20 4 21 92 22 5 23 91 24
REMARK SMILES IDX 2 25 1 26 93 27 94 28 22 29 23 30 24 31 25 32 26 34 27 35
REMARK SMILES IDX 28 36 89 37 29 38 88 39 30 40 31 41 32 42 82 43 33 44 87 45
REMARK SMILES IDX 81 46 83 47 34 48 86 49 80 50 79 51 35 53 67 54 47 55 66 56
REMARK SMILES IDX 48 57 51 58 65 59 84 60 49 61 50 62 64 64 85 65 52 66 36 67
REMARK SMILES IDX 37 68 45 69 38 70 40 71 46 72 39 73 41 74 42 75 43 76 44 77
REMARK SMILES IDX 68 78 69 79 77 80 70 81 72 82 78 83 71 84 73 85 74 86 75 87
REMARK SMILES IDX 76 88 53 89 54 90 62 91 55 92 57 93 63 94 56 95 58 96 59 97
REMARK SMILES IDX 60 98 61 99
REMARK H PARENT 20 5 12 9 24 33 83 52 51 63
REMARK Flexibility Score: inf
ROOT
ATOM      1  C   UNL A   1      33.855  29.126  24.486  1.00  0.00     0.118 C 
ENDROOT
BRANCH   1   2
ATOM      2  N   UNL A   1      33.787  28.117  23.443  1.00  0.00    -0.351 N 
ATOM      3  C   UNL A   1      32.735  27.353  23.031  1.00  0.00     0.278 C 
ATOM      4  O   UNL A   1      32.924  26.573  22.093  1.00  0.00    -0.268 OA
ATOM      5  H   UNL A   1      34.630  27.963  22.958  1.00  0.00     0.163 HD
BRANCH   3   6
ATOM      6  C   UNL A   1      31.337  27.492  23.671  1.00  0.00     0.274 C 
ATOM      7  N   UNL A   1      30.895  26.193  24.246  1.00  0.00    -0.317 N 
ATOM      8  C   UNL A   1      29.524  26.240  24.764  1.00  0.00     0.263 C 
ATOM      9  H   UNL A   1      30.891  25.542  23.461  1.00  0.00     0.349 HD
ATOM     10  C   UNL A   1      28.538  26.724  23.701  1.00  0.00     0.062 C 
ATOM     11  C   UNL A   1      30.348  28.085  22.656  1.00  0.00     0.076 C 
ATOM     12  C   UNL A   1      28.925  28.107  23.195  1.00  0.00     0.012 C 
BRANCH   7  13
ATOM     13  C   UNL A   1      31.847  25.634  25.238  1.00  0.00     0.364 C 
BRANCH  13  14
ATOM     14  C   UNL A   1      31.855  24.151  25.401  1.00  0.00     0.282 A 
ATOM     15  C   UNL A   1      32.182  22.086  25.359  1.00  0.00     0.202 A 
ATOM     16  N   UNL A   1      31.021  22.195  26.017  1.00  0.00    -0.057 NA
ATOM     17  N   UNL A   1      32.733  23.280  24.962  1.00  0.00    -0.186 NA
ATOM     18  O   UNL A   1      30.819  23.577  26.079  1.00  0.00    -0.333 OA
BRANCH  15  19
ATOM     19  C   UNL A   1      32.851  20.833  25.086  1.00  0.00     0.027 A 
ATOM     20  C   UNL A   1      34.227  18.488  24.428  1.00  0.00     0.160 A 
ATOM     21  C   UNL A   1      32.828  18.539  24.330  1.00  0.00     0.051 A 
ATOM     22  C   UNL A   1      34.943  19.610  24.862  1.00  0.00     0.161 A 
ATOM     23  C   UNL A   1      32.138  19.704  24.677  1.00  0.00     0.016 A 
ATOM     24  C   UNL A   1      34.246  20.779  25.175  1.00  0.00     0.062 A 
BRANCH  20  25
ATOM     25  O   UNL A   1      34.891  17.377  23.981  1.00  0.00    -0.493 OA
ATOM     26  C   UNL A   1      35.107  16.414  25.011  1.00  0.00     0.278 C 
ENDBRANCH  20  25
BRANCH  22  27
ATOM     27  O   UNL A   1      36.299  19.743  24.995  1.00  0.00    -0.493 OA
ATOM     28  C   UNL A   1      36.838  21.050  24.868  1.00  0.00     0.278 C 
ENDBRANCH  22  27
ENDBRANCH  15  19
ENDBRANCH  13  14
ENDBRANCH   7  13
ENDBRANCH   3   6
ENDBRANCH   1   2
BRANCH   1  29
ATOM     29  C   UNL A   1      34.103  28.509  25.856  1.00  0.00     0.042 C 
BRANCH  29  30
ATOM     30  C   UNL A   1      33.196  29.051  26.952  1.00  0.00     0.118 C 
BRANCH  30  31
ATOM     31  N   UNL A   1      33.125  30.504  26.951  1.00  0.00    -0.352 N 
ATOM     32  C   UNL A   1      33.943  31.426  27.552  1.00  0.00     0.251 C 
ATOM     33  H   UNL A   1      32.374  30.884  26.440  1.00  0.00     0.163 HD
ATOM     34  O   UNL A   1      33.598  32.606  27.577  1.00  0.00    -0.269 OA
BRANCH  32  35
ATOM     35  C   UNL A   1      35.220  31.014  28.178  1.00  0.00     0.039 A 
ATOM     36  C   UNL A   1      35.255  29.819  28.902  1.00  0.00     0.014 A 
ATOM     37  C   UNL A   1      36.368  31.807  28.091  1.00  0.00     0.014 A 
ATOM     38  C   UNL A   1      36.444  29.405  29.503  1.00  0.00     0.010 A 
ATOM     39  C   UNL A   1      37.574  31.349  28.615  1.00  0.00     0.010 A 
ATOM     40  C   UNL A   1      37.621  30.157  29.347  1.00  0.00    -0.014 A 
BRANCH  40  41
ATOM     41  C   UNL A   1      38.897  29.701  29.957  1.00  0.00     0.031 A 
ATOM     42  C   UNL A   1      39.332  30.219  31.301  1.00  0.00     0.074 A 
ATOM     43  C   UNL A   1      39.689  28.853  29.274  1.00  0.00     0.049 A 
ATOM     44  N   UNL A   1      40.378  29.883  32.012  1.00  0.00    -0.248 NA
ATOM     45  C   UNL A   1      38.503  31.266  31.918  1.00  0.00     0.031 C 
ATOM     46  C   UNL A   1      39.425  28.354  27.922  1.00  0.00     0.029 A 
ATOM     47  N   UNL A   1      40.878  28.262  29.620  1.00  0.00    -0.354 N 
ATOM     48  C   UNL A   1      40.348  30.693  33.140  1.00  0.00     0.074 A 
ATOM     49  C   UNL A   1      39.208  31.572  32.997  1.00  0.00     0.031 C 
ATOM     50  C   UNL A   1      40.402  27.505  27.568  1.00  0.00     0.029 A 
ATOM     51  C   UNL A   1      41.369  27.411  28.658  1.00  0.00     0.049 A 
ATOM     52  H   UNL A   1      41.334  28.429  30.475  1.00  0.00     0.167 HD
ATOM     53  C   UNL A   1      41.169  30.684  34.217  1.00  0.00     0.034 A 
ATOM     54  C   UNL A   1      42.463  26.624  28.663  1.00  0.00     0.034 A 
ATOM     55  C   UNL A   1      42.275  29.779  34.374  1.00  0.00     0.049 A 
ATOM     56  C   UNL A   1      43.324  26.580  29.896  1.00  0.00     0.074 A 
ATOM     57  C   UNL A   1      43.115  29.623  35.463  1.00  0.00     0.029 A 
ATOM     58  N   UNL A   1      42.699  28.876  33.411  1.00  0.00    -0.354 N 
ATOM     59  N   UNL A   1      43.179  27.227  31.027  1.00  0.00    -0.248 NA
ATOM     60  C   UNL A   1      44.473  25.665  29.869  1.00  0.00     0.031 C 
ATOM     61  C   UNL A   1      44.058  28.635  35.149  1.00  0.00     0.029 A 
ATOM     62  C   UNL A   1      43.791  28.163  33.873  1.00  0.00     0.049 A 
ATOM     63  H   UNL A   1      42.284  28.760  32.526  1.00  0.00     0.167 HD
ATOM     64  C   UNL A   1      44.192  26.769  31.861  1.00  0.00     0.074 A 
ATOM     65  C   UNL A   1      44.934  25.778  31.108  1.00  0.00     0.031 C 
ATOM     66  C   UNL A   1      44.487  27.142  33.132  1.00  0.00     0.034 A 
BRANCH  53  67
ATOM     67  C   UNL A   1      40.854  31.645  35.336  1.00  0.00     0.023 A 
ATOM     68  C   UNL A   1      41.776  32.666  35.651  1.00  0.00     0.012 A 
ATOM     69  C   UNL A   1      39.648  31.560  36.058  1.00  0.00     0.148 A 
ATOM     70  C   UNL A   1      41.526  33.554  36.697  1.00  0.00     0.002 A 
ATOM     71  C   UNL A   1      39.386  32.478  37.071  1.00  0.00     0.091 A 
ATOM     72  F   UNL A   1      38.792  30.571  35.767  1.00  0.00    -0.205 F 
ATOM     73  C   UNL A   1      40.329  33.466  37.400  1.00  0.00     0.022 A 
BRANCH  71  74
ATOM     74  S   UNL A   1      37.834  32.489  37.974  1.00  0.00     0.127 S 
ATOM     75  O   UNL A   1      38.035  33.604  38.897  1.00  0.00    -0.237 OA
ATOM     76  O   UNL A   1      36.855  32.745  36.915  1.00  0.00    -0.237 OA
ATOM     77  O   UNL A   1      37.725  31.171  38.585  1.00  0.00    -0.744 OA
ENDBRANCH  71  74
ENDBRANCH  53  67
BRANCH  54  78
ATOM     78  C   UNL A   1      42.722  25.720  27.508  1.00  0.00     0.023 A 
ATOM     79  C   UNL A   1      43.551  26.170  26.462  1.00  0.00     0.012 A 
ATOM     80  C   UNL A   1      42.217  24.406  27.469  1.00  0.00     0.148 A 
ATOM     81  C   UNL A   1      43.854  25.336  25.385  1.00  0.00     0.002 A 
ATOM     82  C   UNL A   1      42.565  23.564  26.419  1.00  0.00     0.091 A 
ATOM     83  F   UNL A   1      41.427  24.001  28.472  1.00  0.00    -0.205 F 
ATOM     84  C   UNL A   1      43.371  24.031  25.370  1.00  0.00     0.022 A 
BRANCH  82  85
ATOM     85  S   UNL A   1      42.100  21.829  26.379  1.00  0.00     0.127 S 
ATOM     86  O   UNL A   1      40.665  21.911  26.104  1.00  0.00    -0.237 OA
ATOM     87  O   UNL A   1      42.910  21.327  25.268  1.00  0.00    -0.237 OA
ATOM     88  O   UNL A   1      42.461  21.291  27.679  1.00  0.00    -0.744 OA
ENDBRANCH  82  85
ENDBRANCH  54  78
BRANCH  66  89
ATOM     89  C   UNL A   1      45.644  26.455  33.808  1.00  0.00     0.023 A 
ATOM     90  C   UNL A   1      46.935  27.014  33.728  1.00  0.00     0.012 A 
ATOM     91  C   UNL A   1      45.441  25.293  34.578  1.00  0.00     0.148 A 
ATOM     92  C   UNL A   1      48.011  26.409  34.377  1.00  0.00     0.002 A 
ATOM     93  C   UNL A   1      46.509  24.723  35.261  1.00  0.00     0.091 A 
ATOM     94  F   UNL A   1      44.210  24.761  34.625  1.00  0.00    -0.205 F 
ATOM     95  C   UNL A   1      47.796  25.272  35.152  1.00  0.00     0.022 A 
BRANCH  93  96
ATOM     96  S   UNL A   1      46.299  23.313  36.356  1.00  0.00     0.127 S 
ATOM     97  O   UNL A   1      45.835  22.282  35.431  1.00  0.00    -0.237 OA
ATOM     98  O   UNL A   1      47.655  23.108  36.866  1.00  0.00    -0.237 OA
ATOM     99  O   UNL A   1      45.336  23.735  37.365  1.00  0.00    -0.744 OA
ENDBRANCH  93  96
ENDBRANCH  66  89
ENDBRANCH  40  41
ENDBRANCH  32  35
ENDBRANCH  30  31
ENDBRANCH  29  30
ENDBRANCH   1  29
TORSDOF 18
ENDMDL
