MODEL 1
REMARK VINA RESULT:     -13.0      0.000      0.000
REMARK SMILES Cc1cc(F)c([C@@H](C)[N@@H+]2C[C@H](C)[C@H](C(=O)NCCCNC(=O)c3ccc(-c4c5nc(c(-c6cccc(S(=O)(=O)[O-])c6F)c6ccc([nH]6)c(-c6cccc(S(=O)(=O)[O-])c6F)c6nc(c(-c7cccc(S(=O)(=O)[O-])c7F)c7ccc4[nH]7)C=C6)C=C5)cc3)C2)cc1F
REMARK SMILES IDX 18 1 17 2 16 3 14 4 15 5 13 7 9 8 10 9 86 10 11 12 12 13
REMARK SMILES IDX 7 14 8 15 6 16 1 17 2 18 3 19 88 20 4 21 87 22 89 23 5 24
REMARK SMILES IDX 19 25 20 26 21 27 22 29 23 30 24 31 85 32 25 33 84 34 26 35
REMARK SMILES IDX 27 36 28 37 78 38 29 39 83 40 77 41 79 42 30 43 82 44 76 45
REMARK SMILES IDX 75 46 31 48 63 49 43 50 62 51 44 52 47 53 61 54 80 55 45 56
REMARK SMILES IDX 46 57 60 59 81 60 48 61 32 62 33 63 41 64 34 65 36 66 42 67
REMARK SMILES IDX 35 68 37 69 38 70 39 71 40 72 64 73 65 74 73 75 66 76 68 77
REMARK SMILES IDX 74 78 67 79 69 80 70 81 71 82 72 83 49 84 50 85 58 86 51 87
REMARK SMILES IDX 53 88 59 89 52 90 54 91 55 92 56 93 57 94
REMARK H PARENT 16 6 9 11 20 28 79 47 47 58
REMARK Flexibility Score: inf
ROOT
ATOM      1  C   UNL A   1      32.365  29.705  25.050  1.00  0.00     0.042 C 
ENDROOT
BRANCH   1   2
ATOM      2  C   UNL A   1      31.566  28.592  24.387  1.00  0.00     0.117 C 
BRANCH   2   3
ATOM      3  N   UNL A   1      30.883  27.748  25.348  1.00  0.00    -0.356 N 
ATOM      4  C   UNL A   1      30.998  26.423  25.622  1.00  0.00     0.229 C 
ATOM      5  O   UNL A   1      30.243  25.978  26.495  1.00  0.00    -0.275 OA
ATOM      6  H   UNL A   1      30.217  28.220  25.900  1.00  0.00     0.163 HD
BRANCH   4   7
ATOM      7  C   UNL A   1      31.963  25.474  24.916  1.00  0.00     0.142 C 
ATOM      8  N   UNL A   1      33.222  23.457  25.032  1.00  0.00    -0.328 N 
ATOM      9  C   UNL A   1      34.130  24.503  24.580  1.00  0.00     0.266 C 
ATOM     10  C   UNL A   1      31.889  23.995  25.281  1.00  0.00     0.276 C 
ATOM     11  H   UNL A   1      33.102  22.821  24.245  1.00  0.00     0.348 HD
ATOM     12  C   UNL A   1      33.450  25.844  24.867  1.00  0.00     0.059 C 
ATOM     13  C   UNL A   1      34.055  26.527  26.083  1.00  0.00     0.015 C 
BRANCH   8  14
ATOM     14  C   UNL A   1      33.751  22.393  25.895  1.00  0.00     0.215 C 
ATOM     15  C   UNL A   1      35.093  22.825  26.506  1.00  0.00     0.081 C 
BRANCH  14  16
ATOM     16  C   UNL A   1      33.769  21.002  25.274  1.00  0.00     0.048 A 
ATOM     17  C   UNL A   1      33.969  16.910  23.845  1.00  0.00     0.047 C 
ATOM     18  C   UNL A   1      33.900  18.347  24.256  1.00  0.00    -0.012 A 
ATOM     19  C   UNL A   1      32.672  19.006  24.373  1.00  0.00     0.046 A 
ATOM     20  C   UNL A   1      35.055  19.033  24.626  1.00  0.00     0.126 A 
ATOM     21  C   UNL A   1      32.617  20.312  24.870  1.00  0.00     0.132 A 
ATOM     22  C   UNL A   1      35.000  20.340  25.111  1.00  0.00     0.052 A 
ATOM     23  F   UNL A   1      36.247  18.427  24.547  1.00  0.00    -0.207 F 
ATOM     24  F   UNL A   1      31.404  20.863  25.016  1.00  0.00    -0.206 F 
ENDBRANCH  14  16
ENDBRANCH   8  14
ENDBRANCH   4   7
ENDBRANCH   2   3
ENDBRANCH   1   2
BRANCH   1  25
ATOM     25  C   UNL A   1      31.901  30.034  26.460  1.00  0.00     0.118 C 
BRANCH  25  26
ATOM     26  N   UNL A   1      31.910  31.464  26.754  1.00  0.00    -0.352 N 
ATOM     27  C   UNL A   1      32.830  32.301  27.352  1.00  0.00     0.251 C 
ATOM     28  H   UNL A   1      31.090  31.927  26.466  1.00  0.00     0.163 HD
ATOM     29  O   UNL A   1      32.486  33.453  27.593  1.00  0.00    -0.269 OA
BRANCH  27  30
ATOM     30  C   UNL A   1      34.181  31.838  27.769  1.00  0.00     0.039 A 
ATOM     31  C   UNL A   1      34.468  30.503  28.022  1.00  0.00     0.014 A 
ATOM     32  C   UNL A   1      35.211  32.781  27.907  1.00  0.00     0.014 A 
ATOM     33  C   UNL A   1      35.656  30.152  28.658  1.00  0.00     0.010 A 
ATOM     34  C   UNL A   1      36.458  32.406  28.428  1.00  0.00     0.010 A 
ATOM     35  C   UNL A   1      36.666  31.099  28.885  1.00  0.00    -0.014 A 
BRANCH  35  36
ATOM     36  C   UNL A   1      37.905  30.678  29.600  1.00  0.00     0.031 A 
ATOM     37  C   UNL A   1      38.151  31.069  31.037  1.00  0.00     0.074 A 
ATOM     38  C   UNL A   1      38.776  29.854  28.981  1.00  0.00     0.049 A 
ATOM     39  N   UNL A   1      39.115  30.681  31.836  1.00  0.00    -0.248 NA
ATOM     40  C   UNL A   1      37.211  32.015  31.661  1.00  0.00     0.031 C 
ATOM     41  C   UNL A   1      38.680  29.429  27.581  1.00  0.00     0.029 A 
ATOM     42  N   UNL A   1      39.884  29.193  29.448  1.00  0.00    -0.354 N 
ATOM     43  C   UNL A   1      38.924  31.366  33.031  1.00  0.00     0.074 A 
ATOM     44  C   UNL A   1      37.756  32.199  32.857  1.00  0.00     0.031 C 
ATOM     45  C   UNL A   1      39.630  28.518  27.331  1.00  0.00     0.029 A 
ATOM     46  C   UNL A   1      40.441  28.333  28.530  1.00  0.00     0.049 A 
ATOM     47  H   UNL A   1      40.246  29.322  30.356  1.00  0.00     0.167 HD
ATOM     48  C   UNL A   1      39.637  31.288  34.179  1.00  0.00     0.034 A 
ATOM     49  C   UNL A   1      41.480  27.480  28.634  1.00  0.00     0.034 A 
ATOM     50  C   UNL A   1      40.748  30.402  34.386  1.00  0.00     0.049 A 
ATOM     51  C   UNL A   1      42.223  27.377  29.931  1.00  0.00     0.074 A 
ATOM     52  C   UNL A   1      41.485  30.213  35.544  1.00  0.00     0.029 A 
ATOM     53  N   UNL A   1      41.277  29.553  33.429  1.00  0.00    -0.354 N 
ATOM     54  N   UNL A   1      41.966  27.969  31.071  1.00  0.00    -0.248 NA
ATOM     55  C   UNL A   1      43.395  26.490  29.964  1.00  0.00     0.031 C 
ATOM     56  C   UNL A   1      42.461  29.246  35.285  1.00  0.00     0.029 A 
ATOM     57  C   UNL A   1      42.331  28.838  33.967  1.00  0.00     0.049 A 
ATOM     58  H   UNL A   1      40.950  29.471  32.504  1.00  0.00     0.167 HD
ATOM     59  C   UNL A   1      42.939  27.525  31.958  1.00  0.00     0.074 A 
ATOM     60  C   UNL A   1      43.779  26.596  31.231  1.00  0.00     0.031 C 
ATOM     61  C   UNL A   1      43.131  27.881  33.249  1.00  0.00     0.034 A 
BRANCH  48  62
ATOM     62  C   UNL A   1      39.206  32.137  35.343  1.00  0.00     0.023 A 
ATOM     63  C   UNL A   1      38.368  31.576  36.327  1.00  0.00     0.012 A 
ATOM     64  C   UNL A   1      39.720  33.435  35.524  1.00  0.00     0.148 A 
ATOM     65  C   UNL A   1      38.043  32.298  37.474  1.00  0.00     0.002 A 
ATOM     66  C   UNL A   1      39.413  34.139  36.683  1.00  0.00     0.091 A 
ATOM     67  F   UNL A   1      40.507  33.949  34.568  1.00  0.00    -0.205 F 
ATOM     68  C   UNL A   1      38.572  33.573  37.656  1.00  0.00     0.022 A 
BRANCH  66  69
ATOM     69  S   UNL A   1      40.087  35.766  37.043  1.00  0.00     0.127 S 
ATOM     70  O   UNL A   1      41.522  35.485  37.087  1.00  0.00    -0.237 OA
ATOM     71  O   UNL A   1      39.653  36.543  35.883  1.00  0.00    -0.237 OA
ATOM     72  O   UNL A   1      39.496  36.175  38.310  1.00  0.00    -0.744 OA
ENDBRANCH  66  69
ENDBRANCH  48  62
BRANCH  49  73
ATOM     73  C   UNL A   1      41.821  26.611  27.475  1.00  0.00     0.023 A 
ATOM     74  C   UNL A   1      42.606  27.134  26.430  1.00  0.00     0.012 A 
ATOM     75  C   UNL A   1      41.456  25.251  27.451  1.00  0.00     0.148 A 
ATOM     76  C   UNL A   1      43.024  26.316  25.380  1.00  0.00     0.002 A 
ATOM     77  C   UNL A   1      41.916  24.431  26.428  1.00  0.00     0.091 A 
ATOM     78  F   UNL A   1      40.698  24.782  28.452  1.00  0.00    -0.205 F 
ATOM     79  C   UNL A   1      42.692  24.964  25.386  1.00  0.00     0.022 A 
BRANCH  77  80
ATOM     80  S   UNL A   1      41.649  22.656  26.421  1.00  0.00     0.127 S 
ATOM     81  O   UNL A   1      42.436  22.240  25.262  1.00  0.00    -0.237 OA
ATOM     82  O   UNL A   1      42.205  22.264  27.717  1.00  0.00    -0.237 OA
ATOM     83  O   UNL A   1      40.209  22.473  26.303  1.00  0.00    -0.744 OA
ENDBRANCH  77  80
ENDBRANCH  49  73
BRANCH  61  84
ATOM     84  C   UNL A   1      44.296  27.284  33.987  1.00  0.00     0.023 A 
ATOM     85  C   UNL A   1      45.523  27.975  33.993  1.00  0.00     0.012 A 
ATOM     86  C   UNL A   1      44.133  26.138  34.788  1.00  0.00     0.148 A 
ATOM     87  C   UNL A   1      46.576  27.532  34.791  1.00  0.00     0.002 A 
ATOM     88  C   UNL A   1      45.179  25.721  35.604  1.00  0.00     0.091 A 
ATOM     89  F   UNL A   1      42.954  25.503  34.760  1.00  0.00    -0.205 F 
ATOM     90  C   UNL A   1      46.401  26.415  35.603  1.00  0.00     0.022 A 
BRANCH  88  91
ATOM     91  S   UNL A   1      45.032  24.337  36.739  1.00  0.00     0.127 S 
ATOM     92  O   UNL A   1      43.995  24.812  37.655  1.00  0.00    -0.237 OA
ATOM     93  O   UNL A   1      44.612  23.254  35.851  1.00  0.00    -0.237 OA
ATOM     94  O   UNL A   1      46.348  24.163  37.339  1.00  0.00    -0.744 OA
ENDBRANCH  88  91
ENDBRANCH  61  84
ENDBRANCH  35  36
ENDBRANCH  27  30
ENDBRANCH  25  26
ENDBRANCH   1  25
TORSDOF 15
ENDMDL
MODEL 2
REMARK VINA RESULT:     -12.9      1.572      2.046
REMARK SMILES Cc1cc(F)c([C@@H](C)[N@@H+]2C[C@H](C)[C@H](C(=O)NCCCNC(=O)c3ccc(-c4c5nc(c(-c6cccc(S(=O)(=O)[O-])c6F)c6ccc([nH]6)c(-c6cccc(S(=O)(=O)[O-])c6F)c6nc(c(-c7cccc(S(=O)(=O)[O-])c7F)c7ccc4[nH]7)C=C6)C=C5)cc3)C2)cc1F
REMARK SMILES IDX 18 1 17 2 16 3 14 4 15 5 13 7 9 8 10 9 86 10 11 12 12 13
REMARK SMILES IDX 7 14 8 15 6 16 1 17 2 18 3 19 88 20 4 21 87 22 89 23 5 24
REMARK SMILES IDX 19 25 20 26 21 27 22 29 23 30 24 31 85 32 25 33 84 34 26 35
REMARK SMILES IDX 27 36 28 37 78 38 29 39 83 40 77 41 79 42 30 43 82 44 76 45
REMARK SMILES IDX 75 46 31 48 63 49 43 50 62 51 44 52 47 53 61 54 80 55 45 56
REMARK SMILES IDX 46 57 60 59 81 60 48 61 32 62 33 63 41 64 34 65 36 66 42 67
REMARK SMILES IDX 35 68 37 69 38 70 39 71 40 72 64 73 65 74 73 75 66 76 68 77
REMARK SMILES IDX 74 78 67 79 69 80 70 81 71 82 72 83 49 84 50 85 58 86 51 87
REMARK SMILES IDX 53 88 59 89 52 90 54 91 55 92 56 93 57 94
REMARK H PARENT 16 6 9 11 20 28 79 47 47 58
REMARK Flexibility Score: inf
ROOT
ATOM      1  C   UNL A   1      31.811  28.091  26.282  1.00  0.00     0.042 C 
ENDROOT
BRANCH   1   2
ATOM      2  C   UNL A   1      31.030  27.207  25.319  1.00  0.00     0.117 C 
BRANCH   2   3
ATOM      3  N   UNL A   1      30.601  27.920  24.132  1.00  0.00    -0.356 N 
ATOM      4  C   UNL A   1      30.625  27.573  22.818  1.00  0.00     0.229 C 
ATOM      5  O   UNL A   1      30.207  28.423  22.022  1.00  0.00    -0.275 OA
ATOM      6  H   UNL A   1      30.226  28.813  24.308  1.00  0.00     0.163 HD
BRANCH   4   7
ATOM      7  C   UNL A   1      31.145  26.242  22.284  1.00  0.00     0.142 C 
ATOM      8  N   UNL A   1      31.808  24.012  22.785  1.00  0.00    -0.328 N 
ATOM      9  C   UNL A   1      32.863  24.598  21.969  1.00  0.00     0.266 C 
ATOM     10  C   UNL A   1      30.743  24.976  23.034  1.00  0.00     0.276 C 
ATOM     11  H   UNL A   1      31.373  23.287  22.213  1.00  0.00     0.348 HD
ATOM     12  C   UNL A   1      32.639  26.113  21.967  1.00  0.00     0.059 C 
ATOM     13  C   UNL A   1      33.626  26.823  22.880  1.00  0.00     0.015 C 
BRANCH   8  14
ATOM     14  C   UNL A   1      32.180  23.052  23.832  1.00  0.00     0.215 C 
ATOM     15  C   UNL A   1      31.089  23.000  24.914  1.00  0.00     0.081 C 
BRANCH  14  16
ATOM     16  C   UNL A   1      33.593  23.204  24.381  1.00  0.00     0.048 A 
ATOM     17  C   UNL A   1      37.712  23.809  25.605  1.00  0.00     0.047 C 
ATOM     18  C   UNL A   1      36.285  23.538  25.242  1.00  0.00    -0.012 A 
ATOM     19  C   UNL A   1      35.237  24.159  25.926  1.00  0.00     0.046 A 
ATOM     20  C   UNL A   1      35.975  22.734  24.147  1.00  0.00     0.126 A 
ATOM     21  C   UNL A   1      33.916  23.986  25.500  1.00  0.00     0.132 A 
ATOM     22  C   UNL A   1      34.656  22.553  23.729  1.00  0.00     0.052 A 
ATOM     23  F   UNL A   1      36.955  22.140  23.454  1.00  0.00    -0.207 F 
ATOM     24  F   UNL A   1      32.964  24.660  26.160  1.00  0.00    -0.206 F 
ENDBRANCH  14  16
ENDBRANCH   8  14
ENDBRANCH   4   7
ENDBRANCH   2   3
ENDBRANCH   1   2
BRANCH   1  25
ATOM     25  C   UNL A   1      32.570  29.217  25.597  1.00  0.00     0.118 C 
BRANCH  25  26
ATOM     26  N   UNL A   1      32.303  30.531  26.176  1.00  0.00    -0.352 N 
ATOM     27  C   UNL A   1      33.015  31.354  27.025  1.00  0.00     0.251 C 
ATOM     28  H   UNL A   1      31.435  30.907  25.904  1.00  0.00     0.163 HD
ATOM     29  O   UNL A   1      32.454  32.354  27.458  1.00  0.00    -0.269 OA
BRANCH  27  30
ATOM     30  C   UNL A   1      34.396  31.033  27.479  1.00  0.00     0.039 A 
ATOM     31  C   UNL A   1      34.852  29.729  27.620  1.00  0.00     0.014 A 
ATOM     32  C   UNL A   1      35.277  32.086  27.769  1.00  0.00     0.014 A 
ATOM     33  C   UNL A   1      36.045  29.476  28.292  1.00  0.00     0.010 A 
ATOM     34  C   UNL A   1      36.538  31.828  28.328  1.00  0.00     0.010 A 
ATOM     35  C   UNL A   1      36.902  30.521  28.670  1.00  0.00    -0.014 A 
BRANCH  35  36
ATOM     36  C   UNL A   1      38.151  30.196  29.416  1.00  0.00     0.031 A 
ATOM     37  C   UNL A   1      38.345  30.634  30.848  1.00  0.00     0.074 A 
ATOM     38  C   UNL A   1      39.086  29.417  28.832  1.00  0.00     0.049 A 
ATOM     39  N   UNL A   1      39.315  30.328  31.673  1.00  0.00    -0.248 NA
ATOM     40  C   UNL A   1      37.333  31.531  31.433  1.00  0.00     0.031 C 
ATOM     41  C   UNL A   1      39.044  28.956  27.441  1.00  0.00     0.029 A 
ATOM     42  N   UNL A   1      40.225  28.840  29.334  1.00  0.00    -0.354 N 
ATOM     43  C   UNL A   1      39.058  31.024  32.848  1.00  0.00     0.074 A 
ATOM     44  C   UNL A   1      37.842  31.776  32.634  1.00  0.00     0.031 C 
ATOM     45  C   UNL A   1      40.056  28.103  27.229  1.00  0.00     0.029 A 
ATOM     46  C   UNL A   1      40.854  27.998  28.446  1.00  0.00     0.049 A 
ATOM     47  H   UNL A   1      40.560  29.012  30.245  1.00  0.00     0.167 HD
ATOM     48  C   UNL A   1      39.752  31.018  34.010  1.00  0.00     0.034 A 
ATOM     49  C   UNL A   1      41.943  27.216  28.588  1.00  0.00     0.034 A 
ATOM     50  C   UNL A   1      40.914  30.211  34.258  1.00  0.00     0.049 A 
ATOM     51  C   UNL A   1      42.667  27.191  29.901  1.00  0.00     0.074 A 
ATOM     52  C   UNL A   1      41.640  30.095  35.432  1.00  0.00     0.029 A 
ATOM     53  N   UNL A   1      41.515  29.377  33.330  1.00  0.00    -0.354 N 
ATOM     54  N   UNL A   1      42.350  27.790  31.022  1.00  0.00    -0.248 NA
ATOM     55  C   UNL A   1      43.893  26.383  29.975  1.00  0.00     0.031 C 
ATOM     56  C   UNL A   1      42.680  29.189  35.213  1.00  0.00     0.029 A 
ATOM     57  C   UNL A   1      42.602  28.744  33.903  1.00  0.00     0.049 A 
ATOM     58  H   UNL A   1      41.211  29.254  32.401  1.00  0.00     0.167 HD
ATOM     59  C   UNL A   1      43.333  27.430  31.935  1.00  0.00     0.074 A 
ATOM     60  C   UNL A   1      44.245  26.541  31.245  1.00  0.00     0.031 C 
ATOM     61  C   UNL A   1      43.477  27.825  33.222  1.00  0.00     0.034 A 
BRANCH  48  62
ATOM     62  C   UNL A   1      39.245  31.863  35.146  1.00  0.00     0.023 A 
ATOM     63  C   UNL A   1      38.366  31.290  36.086  1.00  0.00     0.012 A 
ATOM     64  C   UNL A   1      39.727  33.170  35.349  1.00  0.00     0.148 A 
ATOM     65  C   UNL A   1      37.968  32.010  37.211  1.00  0.00     0.002 A 
ATOM     66  C   UNL A   1      39.345  33.872  36.487  1.00  0.00     0.091 A 
ATOM     67  F   UNL A   1      40.553  33.696  34.434  1.00  0.00    -0.205 F 
ATOM     68  C   UNL A   1      38.464  33.295  37.416  1.00  0.00     0.022 A 
BRANCH  66  69
ATOM     69  S   UNL A   1      39.970  35.512  36.877  1.00  0.00     0.127 S 
ATOM     70  O   UNL A   1      41.415  35.281  36.881  1.00  0.00    -0.237 OA
ATOM     71  O   UNL A   1      39.483  36.303  35.748  1.00  0.00    -0.237 OA
ATOM     72  O   UNL A   1      39.395  35.866  38.167  1.00  0.00    -0.744 OA
ENDBRANCH  66  69
ENDBRANCH  48  62
BRANCH  49  73
ATOM     73  C   UNL A   1      42.362  26.347  27.456  1.00  0.00     0.023 A 
ATOM     74  C   UNL A   1      43.247  26.856  26.487  1.00  0.00     0.012 A 
ATOM     75  C   UNL A   1      41.966  24.996  27.389  1.00  0.00     0.148 A 
ATOM     76  C   UNL A   1      43.734  26.034  25.471  1.00  0.00     0.002 A 
ATOM     77  C   UNL A   1      42.493  24.171  26.403  1.00  0.00     0.091 A 
ATOM     78  F   UNL A   1      41.114  24.540  28.317  1.00  0.00    -0.205 F 
ATOM     79  C   UNL A   1      43.369  24.691  25.437  1.00  0.00     0.022 A 
BRANCH  77  80
ATOM     80  S   UNL A   1      42.184  22.403  26.358  1.00  0.00     0.127 S 
ATOM     81  O   UNL A   1      42.938  21.998  25.175  1.00  0.00    -0.237 OA
ATOM     82  O   UNL A   1      42.755  21.967  27.633  1.00  0.00    -0.237 OA
ATOM     83  O   UNL A   1      40.738  22.257  26.265  1.00  0.00    -0.744 OA
ENDBRANCH  77  80
ENDBRANCH  49  73
BRANCH  61  84
ATOM     84  C   UNL A   1      44.663  27.322  33.994  1.00  0.00     0.023 A 
ATOM     85  C   UNL A   1      45.840  28.094  34.012  1.00  0.00     0.012 A 
ATOM     86  C   UNL A   1      44.561  26.181  34.811  1.00  0.00     0.148 A 
ATOM     87  C   UNL A   1      46.903  27.738  34.839  1.00  0.00     0.002 A 
ATOM     88  C   UNL A   1      45.615  25.849  35.656  1.00  0.00     0.091 A 
ATOM     89  F   UNL A   1      43.428  25.466  34.771  1.00  0.00    -0.205 F 
ATOM     90  C   UNL A   1      46.787  26.625  35.668  1.00  0.00     0.022 A 
BRANCH  88  91
ATOM     91  S   UNL A   1      45.538  24.478  36.813  1.00  0.00     0.127 S 
ATOM     92  O   UNL A   1      46.919  24.410  37.287  1.00  0.00    -0.237 OA
ATOM     93  O   UNL A   1      44.576  24.965  37.802  1.00  0.00    -0.237 OA
ATOM     94  O   UNL A   1      45.094  23.322  36.044  1.00  0.00    -0.744 OA
ENDBRANCH  88  91
ENDBRANCH  61  84
ENDBRANCH  35  36
ENDBRANCH  27  30
ENDBRANCH  25  26
ENDBRANCH   1  25
TORSDOF 15
ENDMDL
MODEL 3
REMARK VINA RESULT:     -12.9      4.958     10.222
REMARK SMILES Cc1cc(F)c([C@@H](C)[N@@H+]2C[C@H](C)[C@H](C(=O)NCCCNC(=O)c3ccc(-c4c5nc(c(-c6cccc(S(=O)(=O)[O-])c6F)c6ccc([nH]6)c(-c6cccc(S(=O)(=O)[O-])c6F)c6nc(c(-c7cccc(S(=O)(=O)[O-])c7F)c7ccc4[nH]7)C=C6)C=C5)cc3)C2)cc1F
REMARK SMILES IDX 18 1 17 2 16 3 14 4 15 5 13 7 9 8 10 9 86 10 11 12 12 13
REMARK SMILES IDX 7 14 8 15 6 16 1 17 2 18 3 19 88 20 4 21 87 22 89 23 5 24
REMARK SMILES IDX 19 25 20 26 21 27 22 29 23 30 24 31 85 32 25 33 84 34 26 35
REMARK SMILES IDX 27 36 28 37 78 38 29 39 83 40 77 41 79 42 30 43 82 44 76 45
REMARK SMILES IDX 75 46 31 48 63 49 43 50 62 51 44 52 47 53 61 54 80 55 45 56
REMARK SMILES IDX 46 57 60 59 81 60 48 61 32 62 33 63 41 64 34 65 36 66 42 67
REMARK SMILES IDX 35 68 37 69 38 70 39 71 40 72 64 73 65 74 73 75 66 76 68 77
REMARK SMILES IDX 74 78 67 79 69 80 70 81 71 82 72 83 49 84 50 85 58 86 51 87
REMARK SMILES IDX 53 88 59 89 52 90 54 91 55 92 56 93 57 94
REMARK H PARENT 16 6 9 11 20 28 79 47 47 58
REMARK Flexibility Score: inf
ROOT
ATOM      1  C   UNL A   1      35.696  22.544  23.995  1.00  0.00     0.042 C 
ENDROOT
BRANCH   1   2
ATOM      2  C   UNL A   1      34.198  22.486  23.726  1.00  0.00     0.117 C 
BRANCH   2   3
ATOM      3  N   UNL A   1      33.583  21.284  24.253  1.00  0.00    -0.356 N 
ATOM      4  C   UNL A   1      32.392  21.082  24.875  1.00  0.00     0.229 C 
ATOM      5  O   UNL A   1      32.157  19.924  25.242  1.00  0.00    -0.275 OA
ATOM      6  H   UNL A   1      34.125  20.469  24.140  1.00  0.00     0.163 HD
BRANCH   4   7
ATOM      7  C   UNL A   1      31.368  22.176  25.159  1.00  0.00     0.142 C 
ATOM      8  N   UNL A   1      30.618  24.383  24.676  1.00  0.00    -0.328 N 
ATOM      9  C   UNL A   1      30.696  24.266  26.126  1.00  0.00     0.266 C 
ATOM     10  C   UNL A   1      31.042  23.147  24.028  1.00  0.00     0.276 C 
ATOM     11  H   UNL A   1      29.627  24.468  24.448  1.00  0.00     0.348 HD
ATOM     12  C   UNL A   1      31.526  23.016  26.431  1.00  0.00     0.059 C 
ATOM     13  C   UNL A   1      32.935  23.377  26.877  1.00  0.00     0.015 C 
BRANCH   8  14
ATOM     14  C   UNL A   1      30.938  25.675  24.057  1.00  0.00     0.215 C 
ATOM     15  C   UNL A   1      31.404  25.467  22.607  1.00  0.00     0.081 C 
BRANCH  14  16
ATOM     16  C   UNL A   1      31.846  26.582  24.878  1.00  0.00     0.048 A 
ATOM     17  C   UNL A   1      34.249  29.031  27.534  1.00  0.00     0.047 C 
ATOM     18  C   UNL A   1      33.440  28.241  26.554  1.00  0.00    -0.012 A 
ATOM     19  C   UNL A   1      34.030  27.251  25.763  1.00  0.00     0.046 A 
ATOM     20  C   UNL A   1      32.058  28.409  26.480  1.00  0.00     0.126 A 
ATOM     21  C   UNL A   1      33.240  26.443  24.938  1.00  0.00     0.132 A 
ATOM     22  C   UNL A   1      31.273  27.611  25.648  1.00  0.00     0.052 A 
ATOM     23  F   UNL A   1      31.456  29.334  27.239  1.00  0.00    -0.207 F 
ATOM     24  F   UNL A   1      33.860  25.472  24.254  1.00  0.00    -0.206 F 
ENDBRANCH  14  16
ENDBRANCH   8  14
ENDBRANCH   4   7
ENDBRANCH   2   3
ENDBRANCH   1   2
BRANCH   1  25
ATOM     25  C   UNL A   1      36.086  22.052  25.380  1.00  0.00     0.118 C 
BRANCH  25  26
ATOM     26  N   UNL A   1      37.198  21.105  25.365  1.00  0.00    -0.352 N 
ATOM     27  C   UNL A   1      38.520  21.192  25.750  1.00  0.00     0.251 C 
ATOM     28  H   UNL A   1      36.953  20.222  25.006  1.00  0.00     0.163 HD
ATOM     29  O   UNL A   1      39.261  20.254  25.475  1.00  0.00    -0.269 OA
BRANCH  27  30
ATOM     30  C   UNL A   1      39.083  22.399  26.416  1.00  0.00     0.039 A 
ATOM     31  C   UNL A   1      38.580  23.675  26.198  1.00  0.00     0.014 A 
ATOM     32  C   UNL A   1      40.157  22.246  27.304  1.00  0.00     0.014 A 
ATOM     33  C   UNL A   1      39.294  24.790  26.627  1.00  0.00     0.010 A 
ATOM     34  C   UNL A   1      40.802  23.368  27.846  1.00  0.00     0.010 A 
ATOM     35  C   UNL A   1      40.425  24.656  27.447  1.00  0.00    -0.014 A 
BRANCH  35  36
ATOM     36  C   UNL A   1      41.173  25.881  27.852  1.00  0.00     0.031 A 
ATOM     37  C   UNL A   1      42.567  26.153  27.340  1.00  0.00     0.074 A 
ATOM     38  C   UNL A   1      40.557  26.809  28.615  1.00  0.00     0.049 A 
ATOM     39  N   UNL A   1      43.301  27.227  27.498  1.00  0.00    -0.248 NA
ATOM     40  C   UNL A   1      43.230  25.094  26.560  1.00  0.00     0.031 C 
ATOM     41  C   UNL A   1      39.226  26.657  29.209  1.00  0.00     0.029 A 
ATOM     42  N   UNL A   1      40.940  28.073  28.987  1.00  0.00    -0.354 N 
ATOM     43  C   UNL A   1      44.518  26.957  26.881  1.00  0.00     0.074 A 
ATOM     44  C   UNL A   1      44.432  25.616  26.349  1.00  0.00     0.031 C 
ATOM     45  C   UNL A   1      38.870  27.809  29.794  1.00  0.00     0.029 A 
ATOM     46  C   UNL A   1      39.966  28.765  29.670  1.00  0.00     0.049 A 
ATOM     47  H   UNL A   1      41.828  28.449  28.784  1.00  0.00     0.167 HD
ATOM     48  C   UNL A   1      45.599  27.759  26.745  1.00  0.00     0.034 A 
ATOM     49  C   UNL A   1      39.944  30.029  30.138  1.00  0.00     0.034 A 
ATOM     50  C   UNL A   1      45.662  29.121  27.199  1.00  0.00     0.049 A 
ATOM     51  C   UNL A   1      41.136  30.914  29.932  1.00  0.00     0.074 A 
ATOM     52  C   UNL A   1      46.698  30.026  27.041  1.00  0.00     0.029 A 
ATOM     53  N   UNL A   1      44.655  29.777  27.886  1.00  0.00    -0.354 N 
ATOM     54  N   UNL A   1      42.237  30.663  29.268  1.00  0.00    -0.248 NA
ATOM     55  C   UNL A   1      41.087  32.255  30.532  1.00  0.00     0.031 C 
ATOM     56  C   UNL A   1      46.315  31.233  27.633  1.00  0.00     0.029 A 
ATOM     57  C   UNL A   1      45.044  31.075  28.161  1.00  0.00     0.049 A 
ATOM     58  H   UNL A   1      43.792  29.377  28.140  1.00  0.00     0.167 HD
ATOM     59  C   UNL A   1      43.010  31.812  29.366  1.00  0.00     0.074 A 
ATOM     60  C   UNL A   1      42.243  32.772  30.134  1.00  0.00     0.031 C 
ATOM     61  C   UNL A   1      44.255  32.037  28.884  1.00  0.00     0.034 A 
BRANCH  48  62
ATOM     62  C   UNL A   1      46.798  27.220  26.014  1.00  0.00     0.023 A 
ATOM     63  C   UNL A   1      46.901  27.422  24.624  1.00  0.00     0.012 A 
ATOM     64  C   UNL A   1      47.867  26.627  26.712  1.00  0.00     0.148 A 
ATOM     65  C   UNL A   1      48.050  27.035  23.936  1.00  0.00     0.002 A 
ATOM     66  C   UNL A   1      49.020  26.268  26.024  1.00  0.00     0.091 A 
ATOM     67  F   UNL A   1      47.739  26.436  28.033  1.00  0.00    -0.205 F 
ATOM     68  C   UNL A   1      49.111  26.468  24.637  1.00  0.00     0.022 A 
BRANCH  66  69
ATOM     69  S   UNL A   1      50.468  25.582  26.839  1.00  0.00     0.127 S 
ATOM     70  O   UNL A   1      50.892  26.704  27.676  1.00  0.00    -0.237 OA
ATOM     71  O   UNL A   1      49.901  24.453  27.575  1.00  0.00    -0.237 OA
ATOM     72  O   UNL A   1      51.393  25.216  25.776  1.00  0.00    -0.744 OA
ENDBRANCH  66  69
ENDBRANCH  48  62
BRANCH  49  73
ATOM     73  C   UNL A   1      38.707  30.536  30.792  1.00  0.00     0.023 A 
ATOM     74  C   UNL A   1      38.532  30.346  32.175  1.00  0.00     0.012 A 
ATOM     75  C   UNL A   1      37.756  31.285  30.071  1.00  0.00     0.148 A 
ATOM     76  C   UNL A   1      37.430  30.895  32.832  1.00  0.00     0.002 A 
ATOM     77  C   UNL A   1      36.689  31.871  30.740  1.00  0.00     0.091 A 
ATOM     78  F   UNL A   1      37.941  31.441  28.753  1.00  0.00    -0.205 F 
ATOM     79  C   UNL A   1      36.518  31.669  32.119  1.00  0.00     0.022 A 
BRANCH  77  80
ATOM     80  S   UNL A   1      35.539  32.988  29.931  1.00  0.00     0.127 S 
ATOM     81  O   UNL A   1      34.801  33.532  31.067  1.00  0.00    -0.237 OA
ATOM     82  O   UNL A   1      36.448  33.930  29.276  1.00  0.00    -0.237 OA
ATOM     83  O   UNL A   1      34.765  32.162  29.014  1.00  0.00    -0.744 OA
ENDBRANCH  77  80
ENDBRANCH  49  73
BRANCH  61  84
ATOM     84  C   UNL A   1      44.899  33.365  29.166  1.00  0.00     0.023 A 
ATOM     85  C   UNL A   1      45.705  33.500  30.312  1.00  0.00     0.012 A 
ATOM     86  C   UNL A   1      44.830  34.414  28.230  1.00  0.00     0.148 A 
ATOM     87  C   UNL A   1      46.440  34.665  30.522  1.00  0.00     0.002 A 
ATOM     88  C   UNL A   1      45.589  35.561  28.432  1.00  0.00     0.091 A 
ATOM     89  F   UNL A   1      44.052  34.255  27.150  1.00  0.00    -0.205 F 
ATOM     90  C   UNL A   1      46.392  35.689  29.579  1.00  0.00     0.022 A 
BRANCH  88  91
ATOM     91  S   UNL A   1      45.653  36.905  27.243  1.00  0.00     0.127 S 
ATOM     92  O   UNL A   1      46.520  37.866  27.925  1.00  0.00    -0.237 OA
ATOM     93  O   UNL A   1      46.256  36.258  26.079  1.00  0.00    -0.237 OA
ATOM     94  O   UNL A   1      44.277  37.347  27.055  1.00  0.00    -0.744 OA
ENDBRANCH  88  91
ENDBRANCH  61  84
ENDBRANCH  35  36
ENDBRANCH  27  30
ENDBRANCH  25  26
ENDBRANCH   1  25
TORSDOF 15
ENDMDL
