MODEL 1
REMARK VINA RESULT:     -12.4      0.000      0.000
REMARK SMILES CCC(=O)Nc1cc(NC(=O)/C=C/C(=O)NCCCNC(=O)c2ccc(-c3c4nc(c(-c5cccc(S(=O)(=O)[O-])c5F)c5ccc([nH]5)c(-c5cccc(S(=O)(=O)[O-])c5F)c5nc(c(-c6cccc(S(=O)(=O)[O-])c6F)c6ccc3[nH]6)C=C5)C=C4)cc2)ccc1C
REMARK SMILES IDX 17 1 16 2 14 3 15 4 13 6 12 7 10 8 9 9 11 11 8 12 6 13 7 14
REMARK SMILES IDX 88 15 87 16 89 17 86 18 5 19 3 20 4 21 2 23 1 24 18 25 19 26
REMARK SMILES IDX 20 27 21 28 22 30 23 31 24 32 85 33 25 34 84 35 26 36 27 37
REMARK SMILES IDX 28 38 78 39 29 40 83 41 77 42 79 43 30 44 82 45 76 46 75 47
REMARK SMILES IDX 31 49 63 50 43 51 62 52 44 53 47 54 61 55 80 56 45 57 46 58
REMARK SMILES IDX 60 60 81 61 48 62 32 63 33 64 41 65 34 66 36 67 42 68 35 69
REMARK SMILES IDX 37 70 38 71 39 72 40 73 64 74 65 75 73 76 66 77 68 78 74 79
REMARK SMILES IDX 67 80 69 81 70 82 71 83 72 84 49 85 50 86 58 87 51 88 53 89
REMARK SMILES IDX 59 90 52 91 54 92 55 93 56 94 57 95
REMARK H PARENT 16 5 9 10 5 22 20 29 79 48 47 59
REMARK Flexibility Score: inf
ROOT
ATOM      1  C   UNL A   1      33.862  33.668  28.196  1.00  0.00     0.118 C 
ENDROOT
BRANCH   1   2
ATOM      2  N   UNL A   1      33.621  35.090  27.990  1.00  0.00    -0.352 N 
ATOM      3  C   UNL A   1      33.173  36.028  28.867  1.00  0.00     0.244 C 
ATOM      4  O   UNL A   1      32.976  37.191  28.523  1.00  0.00    -0.270 OA
ATOM      5  H   UNL A   1      33.811  35.422  27.083  1.00  0.00     0.163 HD
BRANCH   3   6
ATOM      6  C   UNL A   1      32.913  35.657  30.273  1.00  0.00     0.077 C 
ATOM      7  C   UNL A   1      33.363  36.442  31.261  1.00  0.00     0.077 C 
BRANCH   7   8
ATOM      8  C   UNL A   1      32.851  36.294  32.630  1.00  0.00     0.248 C 
ATOM      9  N   UNL A   1      33.563  35.580  33.556  1.00  0.00    -0.322 N 
ATOM     10  H   UNL A   1      33.107  35.480  34.423  1.00  0.00     0.170 HD
ATOM     11  O   UNL A   1      31.771  36.801  32.928  1.00  0.00    -0.270 OA
BRANCH   9  12
ATOM     12  C   UNL A   1      34.829  34.960  33.496  1.00  0.00     0.043 A 
ATOM     13  C   UNL A   1      37.026  34.669  32.488  1.00  0.00     0.046 A 
ATOM     14  C   UNL A   1      35.669  34.979  32.384  1.00  0.00     0.052 A 
ATOM     15  C   UNL A   1      37.545  34.254  33.720  1.00  0.00    -0.027 A 
ATOM     16  C   UNL A   1      36.653  34.033  34.783  1.00  0.00     0.008 A 
ATOM     17  C   UNL A   1      39.015  34.206  34.026  1.00  0.00     0.046 C 
ATOM     18  C   UNL A   1      35.306  34.385  34.673  1.00  0.00     0.026 A 
BRANCH  13  19
ATOM     19  N   UNL A   1      37.839  35.053  31.414  1.00  0.00    -0.326 N 
ATOM     20  C   UNL A   1      38.636  34.284  30.616  1.00  0.00     0.224 C 
ATOM     21  O   UNL A   1      39.475  34.817  29.887  1.00  0.00    -0.275 OA
ATOM     22  H   UNL A   1      37.836  36.015  31.206  1.00  0.00     0.169 HD
BRANCH  20  23
ATOM     23  C   UNL A   1      38.383  32.791  30.522  1.00  0.00     0.097 C 
ATOM     24  C   UNL A   1      39.615  31.922  30.425  1.00  0.00     0.014 C 
ENDBRANCH  20  23
ENDBRANCH  13  19
ENDBRANCH   9  12
ENDBRANCH   7   8
ENDBRANCH   3   6
ENDBRANCH   1   2
BRANCH   1  25
ATOM     25  C   UNL A   1      35.226  33.378  28.814  1.00  0.00     0.042 C 
BRANCH  25  26
ATOM     26  C   UNL A   1      36.002  32.370  27.987  1.00  0.00     0.118 C 
BRANCH  26  27
ATOM     27  N   UNL A   1      35.352  31.074  27.919  1.00  0.00    -0.352 N 
ATOM     28  C   UNL A   1      35.913  29.818  27.809  1.00  0.00     0.251 C 
ATOM     29  H   UNL A   1      34.369  31.094  27.957  1.00  0.00     0.163 HD
ATOM     30  O   UNL A   1      35.183  28.874  27.511  1.00  0.00    -0.269 OA
BRANCH  28  31
ATOM     31  C   UNL A   1      37.337  29.609  28.156  1.00  0.00     0.039 A 
ATOM     32  C   UNL A   1      38.289  29.813  27.149  1.00  0.00     0.014 A 
ATOM     33  C   UNL A   1      37.717  29.045  29.372  1.00  0.00     0.014 A 
ATOM     34  C   UNL A   1      39.557  29.250  27.273  1.00  0.00     0.010 A 
ATOM     35  C   UNL A   1      38.941  28.420  29.468  1.00  0.00     0.010 A 
ATOM     36  C   UNL A   1      39.832  28.471  28.392  1.00  0.00    -0.014 A 
BRANCH  36  37
ATOM     37  C   UNL A   1      41.014  27.642  28.538  1.00  0.00     0.031 A 
ATOM     38  C   UNL A   1      40.916  26.183  28.394  1.00  0.00     0.074 A 
ATOM     39  C   UNL A   1      42.211  28.253  28.657  1.00  0.00     0.049 A 
ATOM     40  N   UNL A   1      41.772  25.346  28.870  1.00  0.00    -0.248 NA
ATOM     41  C   UNL A   1      39.796  25.557  27.707  1.00  0.00     0.031 C 
ATOM     42  C   UNL A   1      43.530  27.676  28.446  1.00  0.00     0.029 A 
ATOM     43  N   UNL A   1      42.464  29.515  29.204  1.00  0.00    -0.354 N 
ATOM     44  C   UNL A   1      41.479  24.112  28.327  1.00  0.00     0.074 A 
ATOM     45  C   UNL A   1      40.192  24.281  27.689  1.00  0.00     0.031 C 
ATOM     46  C   UNL A   1      44.435  28.436  29.083  1.00  0.00     0.029 A 
ATOM     47  C   UNL A   1      43.697  29.412  29.871  1.00  0.00     0.049 A 
ATOM     48  H   UNL A   1      41.895  30.314  29.135  1.00  0.00     0.167 HD
ATOM     49  C   UNL A   1      42.434  23.139  28.331  1.00  0.00     0.034 A 
ATOM     50  C   UNL A   1      43.851  29.636  31.209  1.00  0.00     0.034 A 
ATOM     51  C   UNL A   1      43.652  23.606  29.012  1.00  0.00     0.049 A 
ATOM     52  C   UNL A   1      44.417  28.437  31.946  1.00  0.00     0.074 A 
ATOM     53  C   UNL A   1      44.826  24.167  28.533  1.00  0.00     0.029 A 
ATOM     54  N   UNL A   1      43.649  23.817  30.386  1.00  0.00    -0.354 N 
ATOM     55  N   UNL A   1      44.571  27.256  31.415  1.00  0.00    -0.248 NA
ATOM     56  C   UNL A   1      44.812  28.464  33.352  1.00  0.00     0.031 C 
ATOM     57  C   UNL A   1      45.486  24.798  29.619  1.00  0.00     0.029 A 
ATOM     58  C   UNL A   1      44.734  24.596  30.764  1.00  0.00     0.049 A 
ATOM     59  H   UNL A   1      42.971  23.461  31.005  1.00  0.00     0.167 HD
ATOM     60  C   UNL A   1      44.914  26.353  32.384  1.00  0.00     0.074 A 
ATOM     61  C   UNL A   1      45.144  27.177  33.560  1.00  0.00     0.031 C 
ATOM     62  C   UNL A   1      44.906  25.003  32.155  1.00  0.00     0.034 A 
BRANCH  49  63
ATOM     63  C   UNL A   1      42.422  21.921  27.414  1.00  0.00     0.023 A 
ATOM     64  C   UNL A   1      41.448  20.928  27.670  1.00  0.00     0.012 A 
ATOM     65  C   UNL A   1      43.333  21.630  26.375  1.00  0.00     0.148 A 
ATOM     66  C   UNL A   1      41.456  19.681  27.036  1.00  0.00     0.002 A 
ATOM     67  C   UNL A   1      43.395  20.357  25.796  1.00  0.00     0.091 A 
ATOM     68  F   UNL A   1      44.086  22.607  25.858  1.00  0.00    -0.205 F 
ATOM     69  C   UNL A   1      42.460  19.376  26.131  1.00  0.00     0.022 A 
BRANCH  67  70
ATOM     70  S   UNL A   1      44.724  19.868  24.681  1.00  0.00     0.127 S 
ATOM     71  O   UNL A   1      44.451  18.443  24.478  1.00  0.00    -0.237 OA
ATOM     72  O   UNL A   1      44.477  20.705  23.509  1.00  0.00    -0.237 OA
ATOM     73  O   UNL A   1      45.966  20.134  25.397  1.00  0.00    -0.744 OA
ENDBRANCH  67  70
ENDBRANCH  49  63
BRANCH  50  74
ATOM     74  C   UNL A   1      42.854  30.596  31.772  1.00  0.00     0.023 A 
ATOM     75  C   UNL A   1      41.869  30.062  32.639  1.00  0.00     0.012 A 
ATOM     76  C   UNL A   1      43.107  31.978  31.804  1.00  0.00     0.148 A 
ATOM     77  C   UNL A   1      41.269  30.856  33.617  1.00  0.00     0.002 A 
ATOM     78  C   UNL A   1      42.500  32.764  32.782  1.00  0.00     0.091 A 
ATOM     79  F   UNL A   1      43.993  32.492  30.941  1.00  0.00    -0.205 F 
ATOM     80  C   UNL A   1      41.614  32.198  33.714  1.00  0.00     0.022 A 
BRANCH  78  81
ATOM     81  S   UNL A   1      42.933  34.499  32.973  1.00  0.00     0.127 S 
ATOM     82  O   UNL A   1      42.255  35.096  31.827  1.00  0.00    -0.237 OA
ATOM     83  O   UNL A   1      42.350  34.831  34.273  1.00  0.00    -0.237 OA
ATOM     84  O   UNL A   1      44.388  34.516  32.953  1.00  0.00    -0.744 OA
ENDBRANCH  78  81
ENDBRANCH  50  74
BRANCH  62  85
ATOM     85  C   UNL A   1      45.045  23.939  33.226  1.00  0.00     0.023 A 
ATOM     86  C   UNL A   1      44.007  23.036  33.528  1.00  0.00     0.012 A 
ATOM     87  C   UNL A   1      46.291  23.713  33.868  1.00  0.00     0.148 A 
ATOM     88  C   UNL A   1      44.164  22.011  34.466  1.00  0.00     0.002 A 
ATOM     89  C   UNL A   1      46.476  22.623  34.714  1.00  0.00     0.091 A 
ATOM     90  F   UNL A   1      47.306  24.568  33.675  1.00  0.00    -0.205 F 
ATOM     91  C   UNL A   1      45.407  21.789  35.044  1.00  0.00     0.022 A 
BRANCH  89  92
ATOM     92  S   UNL A   1      48.122  22.163  35.276  1.00  0.00     0.127 S 
ATOM     93  O   UNL A   1      48.405  23.194  36.273  1.00  0.00    -0.237 OA
ATOM     94  O   UNL A   1      47.908  20.825  35.832  1.00  0.00    -0.237 OA
ATOM     95  O   UNL A   1      48.945  22.181  34.075  1.00  0.00    -0.744 OA
ENDBRANCH  89  92
ENDBRANCH  62  85
ENDBRANCH  36  37
ENDBRANCH  28  31
ENDBRANCH  26  27
ENDBRANCH  25  26
ENDBRANCH   1  25
TORSDOF 17
ENDMDL
MODEL 2
REMARK VINA RESULT:     -12.4      4.058      6.914
REMARK SMILES CCC(=O)Nc1cc(NC(=O)/C=C/C(=O)NCCCNC(=O)c2ccc(-c3c4nc(c(-c5cccc(S(=O)(=O)[O-])c5F)c5ccc([nH]5)c(-c5cccc(S(=O)(=O)[O-])c5F)c5nc(c(-c6cccc(S(=O)(=O)[O-])c6F)c6ccc3[nH]6)C=C5)C=C4)cc2)ccc1C
REMARK SMILES IDX 17 1 16 2 14 3 15 4 13 6 12 7 10 8 9 9 11 11 8 12 6 13 7 14
REMARK SMILES IDX 88 15 87 16 89 17 86 18 5 19 3 20 4 21 2 23 1 24 18 25 19 26
REMARK SMILES IDX 20 27 21 28 22 30 23 31 24 32 85 33 25 34 84 35 26 36 27 37
REMARK SMILES IDX 28 38 78 39 29 40 83 41 77 42 79 43 30 44 82 45 76 46 75 47
REMARK SMILES IDX 31 49 63 50 43 51 62 52 44 53 47 54 61 55 80 56 45 57 46 58
REMARK SMILES IDX 60 60 81 61 48 62 32 63 33 64 41 65 34 66 36 67 42 68 35 69
REMARK SMILES IDX 37 70 38 71 39 72 40 73 64 74 65 75 73 76 66 77 68 78 74 79
REMARK SMILES IDX 67 80 69 81 70 82 71 83 72 84 49 85 50 86 58 87 51 88 53 89
REMARK SMILES IDX 59 90 52 91 54 92 55 93 56 94 57 95
REMARK H PARENT 16 5 9 10 5 22 20 29 79 48 47 59
REMARK Flexibility Score: inf
ROOT
ATOM      1  C   UNL A   1      32.723  29.706  25.441  1.00  0.00     0.118 C 
ENDROOT
BRANCH   1   2
ATOM      2  N   UNL A   1      31.396  29.943  24.890  1.00  0.00    -0.352 N 
ATOM      3  C   UNL A   1      30.781  29.354  23.830  1.00  0.00     0.244 C 
ATOM      4  O   UNL A   1      29.663  29.701  23.458  1.00  0.00    -0.270 OA
ATOM      5  H   UNL A   1      30.865  30.631  25.353  1.00  0.00     0.163 HD
BRANCH   3   6
ATOM      6  C   UNL A   1      31.460  28.266  23.098  1.00  0.00     0.077 C 
ATOM      7  C   UNL A   1      31.042  27.001  23.250  1.00  0.00     0.077 C 
BRANCH   7   8
ATOM      8  C   UNL A   1      31.458  25.954  22.307  1.00  0.00     0.248 C 
ATOM      9  N   UNL A   1      31.976  24.776  22.774  1.00  0.00    -0.322 N 
ATOM     10  H   UNL A   1      32.288  24.167  22.067  1.00  0.00     0.170 HD
ATOM     11  O   UNL A   1      31.353  26.155  21.099  1.00  0.00    -0.270 OA
BRANCH   9  12
ATOM     12  C   UNL A   1      32.146  24.276  24.083  1.00  0.00     0.043 A 
ATOM     13  C   UNL A   1      32.230  22.442  25.682  1.00  0.00     0.046 A 
ATOM     14  C   UNL A   1      31.732  23.016  24.510  1.00  0.00     0.052 A 
ATOM     15  C   UNL A   1      33.106  23.176  26.490  1.00  0.00    -0.027 A 
ATOM     16  C   UNL A   1      33.351  24.521  26.164  1.00  0.00     0.008 A 
ATOM     17  C   UNL A   1      33.941  22.562  27.578  1.00  0.00     0.046 C 
ATOM     18  C   UNL A   1      32.877  25.066  24.969  1.00  0.00     0.026 A 
BRANCH  13  19
ATOM     19  N   UNL A   1      32.033  21.064  25.835  1.00  0.00    -0.326 N 
ATOM     20  C   UNL A   1      32.533  20.032  25.093  1.00  0.00     0.224 C 
ATOM     21  O   UNL A   1      32.055  18.903  25.210  1.00  0.00    -0.275 OA
ATOM     22  H   UNL A   1      31.449  20.802  26.583  1.00  0.00     0.169 HD
BRANCH  20  23
ATOM     23  C   UNL A   1      33.771  20.252  24.244  1.00  0.00     0.097 C 
ATOM     24  C   UNL A   1      35.077  20.339  24.999  1.00  0.00     0.014 C 
ENDBRANCH  20  23
ENDBRANCH  13  19
ENDBRANCH   9  12
ENDBRANCH   7   8
ENDBRANCH   3   6
ENDBRANCH   1   2
BRANCH   1  25
ATOM     25  C   UNL A   1      33.016  30.551  26.677  1.00  0.00     0.042 C 
BRANCH  25  26
ATOM     26  C   UNL A   1      34.311  30.127  27.342  1.00  0.00     0.118 C 
BRANCH  26  27
ATOM     27  N   UNL A   1      35.174  31.249  27.667  1.00  0.00    -0.352 N 
ATOM     28  C   UNL A   1      36.438  31.249  28.218  1.00  0.00     0.251 C 
ATOM     29  H   UNL A   1      34.802  32.137  27.465  1.00  0.00     0.163 HD
ATOM     30  O   UNL A   1      36.891  32.309  28.648  1.00  0.00    -0.269 OA
BRANCH  28  31
ATOM     31  C   UNL A   1      37.264  30.020  28.181  1.00  0.00     0.039 A 
ATOM     32  C   UNL A   1      37.345  29.255  29.352  1.00  0.00     0.014 A 
ATOM     33  C   UNL A   1      38.088  29.726  27.097  1.00  0.00     0.014 A 
ATOM     34  C   UNL A   1      38.394  28.356  29.519  1.00  0.00     0.010 A 
ATOM     35  C   UNL A   1      39.172  28.897  27.284  1.00  0.00     0.010 A 
ATOM     36  C   UNL A   1      39.355  28.263  28.517  1.00  0.00    -0.014 A 
BRANCH  36  37
ATOM     37  C   UNL A   1      40.613  27.550  28.656  1.00  0.00     0.031 A 
ATOM     38  C   UNL A   1      40.665  26.096  28.455  1.00  0.00     0.074 A 
ATOM     39  C   UNL A   1      41.739  28.273  28.823  1.00  0.00     0.049 A 
ATOM     40  N   UNL A   1      41.592  25.330  28.916  1.00  0.00    -0.248 NA
ATOM     41  C   UNL A   1      39.625  25.389  27.722  1.00  0.00     0.031 C 
ATOM     42  C   UNL A   1      43.113  27.839  28.618  1.00  0.00     0.029 A 
ATOM     43  N   UNL A   1      41.855  29.531  29.423  1.00  0.00    -0.354 N 
ATOM     44  C   UNL A   1      41.433  24.095  28.321  1.00  0.00     0.074 A 
ATOM     45  C   UNL A   1      40.147  24.161  27.664  1.00  0.00     0.031 C 
ATOM     46  C   UNL A   1      43.927  28.660  29.302  1.00  0.00     0.029 A 
ATOM     47  C   UNL A   1      43.081  29.525  30.111  1.00  0.00     0.049 A 
ATOM     48  H   UNL A   1      41.209  30.271  29.372  1.00  0.00     0.167 HD
ATOM     49  C   UNL A   1      42.482  23.223  28.309  1.00  0.00     0.034 A 
ATOM     50  C   UNL A   1      43.188  29.710  31.459  1.00  0.00     0.034 A 
ATOM     51  C   UNL A   1      43.634  23.782  29.032  1.00  0.00     0.049 A 
ATOM     52  C   UNL A   1      43.860  28.545  32.162  1.00  0.00     0.074 A 
ATOM     53  C   UNL A   1      44.754  24.476  28.600  1.00  0.00     0.029 A 
ATOM     54  N   UNL A   1      43.587  23.937  30.413  1.00  0.00    -0.354 N 
ATOM     55  N   UNL A   1      44.141  27.408  31.590  1.00  0.00    -0.248 NA
ATOM     56  C   UNL A   1      44.226  28.555  33.576  1.00  0.00     0.031 C 
ATOM     57  C   UNL A   1      45.329  25.127  29.722  1.00  0.00     0.029 A 
ATOM     58  C   UNL A   1      44.581  24.805  30.842  1.00  0.00     0.049 A 
ATOM     59  H   UNL A   1      42.938  23.491  31.004  1.00  0.00     0.167 HD
ATOM     60  C   UNL A   1      44.557  26.505  32.532  1.00  0.00     0.074 A 
ATOM     61  C   UNL A   1      44.682  27.301  33.742  1.00  0.00     0.031 C 
ATOM     62  C   UNL A   1      44.688  25.171  32.251  1.00  0.00     0.034 A 
BRANCH  49  63
ATOM     63  C   UNL A   1      42.608  22.048  27.346  1.00  0.00     0.023 A 
ATOM     64  C   UNL A   1      41.768  20.932  27.574  1.00  0.00     0.012 A 
ATOM     65  C   UNL A   1      43.533  21.911  26.287  1.00  0.00     0.148 A 
ATOM     66  C   UNL A   1      41.923  19.720  26.892  1.00  0.00     0.002 A 
ATOM     67  C   UNL A   1      43.744  20.678  25.660  1.00  0.00     0.091 A 
ATOM     68  F   UNL A   1      44.150  22.993  25.800  1.00  0.00    -0.205 F 
ATOM     69  C   UNL A   1      42.943  19.576  25.967  1.00  0.00     0.022 A 
BRANCH  67  70
ATOM     70  S   UNL A   1      45.107  20.399  24.514  1.00  0.00     0.127 S 
ATOM     71  O   UNL A   1      45.023  18.956  24.275  1.00  0.00    -0.237 OA
ATOM     72  O   UNL A   1      44.731  21.226  23.369  1.00  0.00    -0.237 OA
ATOM     73  O   UNL A   1      46.315  20.810  25.220  1.00  0.00    -0.744 OA
ENDBRANCH  67  70
ENDBRANCH  49  63
BRANCH  50  74
ATOM     74  C   UNL A   1      42.091  30.542  32.037  1.00  0.00     0.023 A 
ATOM     75  C   UNL A   1      41.980  31.875  31.566  1.00  0.00     0.012 A 
ATOM     76  C   UNL A   1      40.983  29.954  32.671  1.00  0.00     0.148 A 
ATOM     77  C   UNL A   1      40.754  32.542  31.585  1.00  0.00     0.002 A 
ATOM     78  C   UNL A   1      39.764  30.630  32.689  1.00  0.00     0.091 A 
ATOM     79  F   UNL A   1      41.107  28.718  33.172  1.00  0.00    -0.205 F 
ATOM     80  C   UNL A   1      39.638  31.904  32.111  1.00  0.00     0.022 A 
BRANCH  78  81
ATOM     81  S   UNL A   1      38.280  29.841  33.328  1.00  0.00     0.127 S 
ATOM     82  O   UNL A   1      38.441  30.035  34.765  1.00  0.00    -0.237 OA
ATOM     83  O   UNL A   1      37.212  30.633  32.718  1.00  0.00    -0.237 OA
ATOM     84  O   UNL A   1      38.356  28.472  32.841  1.00  0.00    -0.744 OA
ENDBRANCH  78  81
ENDBRANCH  50  74
BRANCH  62  85
ATOM     85  C   UNL A   1      44.915  24.085  33.284  1.00  0.00     0.023 A 
ATOM     86  C   UNL A   1      43.942  23.109  33.575  1.00  0.00     0.012 A 
ATOM     87  C   UNL A   1      46.185  23.918  33.895  1.00  0.00     0.148 A 
ATOM     88  C   UNL A   1      44.183  22.066  34.475  1.00  0.00     0.002 A 
ATOM     89  C   UNL A   1      46.455  22.816  34.702  1.00  0.00     0.091 A 
ATOM     90  F   UNL A   1      47.140  24.842  33.712  1.00  0.00    -0.205 F 
ATOM     91  C   UNL A   1      45.448  21.905  35.023  1.00  0.00     0.022 A 
BRANCH  89  92
ATOM     92  S   UNL A   1      48.138  22.444  35.219  1.00  0.00     0.127 S 
ATOM     93  O   UNL A   1      48.855  22.431  33.945  1.00  0.00    -0.237 OA
ATOM     94  O   UNL A   1      48.464  23.578  36.087  1.00  0.00    -0.237 OA
ATOM     95  O   UNL A   1      48.041  21.171  35.919  1.00  0.00    -0.744 OA
ENDBRANCH  89  92
ENDBRANCH  62  85
ENDBRANCH  36  37
ENDBRANCH  28  31
ENDBRANCH  26  27
ENDBRANCH  25  26
ENDBRANCH   1  25
TORSDOF 17
ENDMDL
MODEL 3
REMARK VINA RESULT:     -12.4      4.395      7.425
REMARK SMILES CCC(=O)Nc1cc(NC(=O)/C=C/C(=O)NCCCNC(=O)c2ccc(-c3c4nc(c(-c5cccc(S(=O)(=O)[O-])c5F)c5ccc([nH]5)c(-c5cccc(S(=O)(=O)[O-])c5F)c5nc(c(-c6cccc(S(=O)(=O)[O-])c6F)c6ccc3[nH]6)C=C5)C=C4)cc2)ccc1C
REMARK SMILES IDX 17 1 16 2 14 3 15 4 13 6 12 7 10 8 9 9 11 11 8 12 6 13 7 14
REMARK SMILES IDX 88 15 87 16 89 17 86 18 5 19 3 20 4 21 2 23 1 24 18 25 19 26
REMARK SMILES IDX 20 27 21 28 22 30 23 31 24 32 85 33 25 34 84 35 26 36 27 37
REMARK SMILES IDX 28 38 78 39 29 40 83 41 77 42 79 43 30 44 82 45 76 46 75 47
REMARK SMILES IDX 31 49 63 50 43 51 62 52 44 53 47 54 61 55 80 56 45 57 46 58
REMARK SMILES IDX 60 60 81 61 48 62 32 63 33 64 41 65 34 66 36 67 42 68 35 69
REMARK SMILES IDX 37 70 38 71 39 72 40 73 64 74 65 75 73 76 66 77 68 78 74 79
REMARK SMILES IDX 67 80 69 81 70 82 71 83 72 84 49 85 50 86 58 87 51 88 53 89
REMARK SMILES IDX 59 90 52 91 54 92 55 93 56 94 57 95
REMARK H PARENT 16 5 9 10 5 22 20 29 79 48 47 59
REMARK Flexibility Score: inf
ROOT
ATOM      1  C   UNL A   1      32.797  29.522  25.038  1.00  0.00     0.118 C 
ENDROOT
BRANCH   1   2
ATOM      2  N   UNL A   1      31.640  29.454  24.155  1.00  0.00    -0.352 N 
ATOM      3  C   UNL A   1      31.396  28.617  23.112  1.00  0.00     0.244 C 
ATOM      4  O   UNL A   1      30.380  28.717  22.428  1.00  0.00    -0.270 OA
ATOM      5  H   UNL A   1      30.931  30.110  24.340  1.00  0.00     0.163 HD
BRANCH   3   6
ATOM      6  C   UNL A   1      32.364  27.552  22.780  1.00  0.00     0.077 C 
ATOM      7  C   UNL A   1      31.923  26.372  22.324  1.00  0.00     0.077 C 
BRANCH   7   8
ATOM      8  C   UNL A   1      32.843  25.425  21.678  1.00  0.00     0.248 C 
ATOM      9  N   UNL A   1      33.426  24.427  22.411  1.00  0.00    -0.322 N 
ATOM     10  H   UNL A   1      34.077  23.887  21.907  1.00  0.00     0.170 HD
ATOM     11  O   UNL A   1      33.096  25.551  20.482  1.00  0.00    -0.270 OA
BRANCH   9  12
ATOM     12  C   UNL A   1      33.266  24.030  23.756  1.00  0.00     0.043 A 
ATOM     13  C   UNL A   1      32.700  22.374  25.449  1.00  0.00     0.046 A 
ATOM     14  C   UNL A   1      32.536  22.919  24.173  1.00  0.00     0.052 A 
ATOM     15  C   UNL A   1      33.559  23.000  26.360  1.00  0.00    -0.027 A 
ATOM     16  C   UNL A   1      34.127  24.235  26.005  1.00  0.00     0.008 A 
ATOM     17  C   UNL A   1      34.053  22.343  27.617  1.00  0.00     0.046 C 
ATOM     18  C   UNL A   1      33.984  24.745  24.713  1.00  0.00     0.026 A 
BRANCH  13  19
ATOM     19  N   UNL A   1      32.199  21.081  25.644  1.00  0.00    -0.326 N 
ATOM     20  C   UNL A   1      32.683  19.889  25.185  1.00  0.00     0.224 C 
ATOM     21  O   UNL A   1      31.980  18.879  25.237  1.00  0.00    -0.275 OA
ATOM     22  H   UNL A   1      31.382  21.022  26.189  1.00  0.00     0.169 HD
BRANCH  20  23
ATOM     23  C   UNL A   1      34.134  19.787  24.753  1.00  0.00     0.097 C 
ATOM     24  C   UNL A   1      34.634  18.392  24.458  1.00  0.00     0.014 C 
ENDBRANCH  20  23
ENDBRANCH  13  19
ENDBRANCH   9  12
ENDBRANCH   7   8
ENDBRANCH   3   6
ENDBRANCH   1   2
BRANCH   1  25
ATOM     25  C   UNL A   1      32.511  30.264  26.339  1.00  0.00     0.042 C 
BRANCH  25  26
ATOM     26  C   UNL A   1      33.524  29.910  27.411  1.00  0.00     0.118 C 
BRANCH  26  27
ATOM     27  N   UNL A   1      34.058  31.076  28.092  1.00  0.00    -0.352 N 
ATOM     28  C   UNL A   1      35.199  31.196  28.858  1.00  0.00     0.251 C 
ATOM     29  H   UNL A   1      33.529  31.900  27.992  1.00  0.00     0.163 HD
ATOM     30  O   UNL A   1      35.336  32.202  29.552  1.00  0.00    -0.269 OA
BRANCH  28  31
ATOM     31  C   UNL A   1      36.275  30.185  28.748  1.00  0.00     0.039 A 
ATOM     32  C   UNL A   1      36.679  29.534  29.922  1.00  0.00     0.014 A 
ATOM     33  C   UNL A   1      37.002  30.016  27.572  1.00  0.00     0.014 A 
ATOM     34  C   UNL A   1      37.920  28.906  29.972  1.00  0.00     0.010 A 
ATOM     35  C   UNL A   1      38.263  29.466  27.636  1.00  0.00     0.010 A 
ATOM     36  C   UNL A   1      38.742  28.970  28.851  1.00  0.00    -0.014 A 
BRANCH  36  37
ATOM     37  C   UNL A   1      40.138  28.569  28.840  1.00  0.00     0.031 A 
ATOM     38  C   UNL A   1      40.501  27.158  28.649  1.00  0.00     0.074 A 
ATOM     39  C   UNL A   1      41.078  29.536  28.857  1.00  0.00     0.049 A 
ATOM     40  N   UNL A   1      41.629  26.643  29.000  1.00  0.00    -0.248 NA
ATOM     41  C   UNL A   1      39.574  26.204  28.060  1.00  0.00     0.031 C 
ATOM     42  C   UNL A   1      42.481  29.420  28.487  1.00  0.00     0.029 A 
ATOM     43  N   UNL A   1      40.970  30.810  29.424  1.00  0.00    -0.354 N 
ATOM     44  C   UNL A   1      41.690  25.383  28.442  1.00  0.00     0.074 A 
ATOM     45  C   UNL A   1      40.355  25.126  27.950  1.00  0.00     0.031 C 
ATOM     46  C   UNL A   1      43.157  30.431  29.055  1.00  0.00     0.029 A 
ATOM     47  C   UNL A   1      42.236  31.111  29.954  1.00  0.00     0.049 A 
ATOM     48  H   UNL A   1      40.169  31.380  29.447  1.00  0.00     0.167 HD
ATOM     49  C   UNL A   1      42.903  24.773  28.309  1.00  0.00     0.034 A 
ATOM     50  C   UNL A   1      42.458  31.369  31.276  1.00  0.00     0.034 A 
ATOM     51  C   UNL A   1      43.973  25.609  28.876  1.00  0.00     0.049 A 
ATOM     52  C   UNL A   1      43.460  30.417  31.902  1.00  0.00     0.074 A 
ATOM     53  C   UNL A   1      44.841  26.523  28.300  1.00  0.00     0.029 A 
ATOM     54  N   UNL A   1      44.056  25.803  30.250  1.00  0.00    -0.354 N 
ATOM     55  N   UNL A   1      43.927  29.352  31.311  1.00  0.00    -0.248 NA
ATOM     56  C   UNL A   1      43.980  30.566  33.259  1.00  0.00     0.031 C 
ATOM     57  C   UNL A   1      45.380  27.331  29.334  1.00  0.00     0.029 A 
ATOM     58  C   UNL A   1      44.866  26.891  30.543  1.00  0.00     0.049 A 
ATOM     59  H   UNL A   1      43.603  25.244  30.922  1.00  0.00     0.167 HD
ATOM     60  C   UNL A   1      44.649  28.606  32.204  1.00  0.00     0.074 A 
ATOM     61  C   UNL A   1      44.730  29.457  33.380  1.00  0.00     0.031 C 
ATOM     62  C   UNL A   1      45.052  27.328  31.923  1.00  0.00     0.034 A 
BRANCH  49  63
ATOM     63  C   UNL A   1      43.183  23.621  27.351  1.00  0.00     0.023 A 
ATOM     64  C   UNL A   1      43.928  23.915  26.185  1.00  0.00     0.012 A 
ATOM     65  C   UNL A   1      42.710  22.294  27.456  1.00  0.00     0.148 A 
ATOM     66  C   UNL A   1      44.081  23.002  25.136  1.00  0.00     0.002 A 
ATOM     67  C   UNL A   1      42.791  21.405  26.377  1.00  0.00     0.091 A 
ATOM     68  F   UNL A   1      42.267  21.838  28.632  1.00  0.00    -0.205 F 
ATOM     69  C   UNL A   1      43.472  21.760  25.211  1.00  0.00     0.022 A 
BRANCH  67  70
ATOM     70  S   UNL A   1      41.949  19.812  26.375  1.00  0.00     0.127 S 
ATOM     71  O   UNL A   1      40.539  20.206  26.326  1.00  0.00    -0.237 OA
ATOM     72  O   UNL A   1      42.447  19.192  25.149  1.00  0.00    -0.237 OA
ATOM     73  O   UNL A   1      42.334  19.153  27.618  1.00  0.00    -0.744 OA
ENDBRANCH  67  70
ENDBRANCH  49  63
BRANCH  50  74
ATOM     74  C   UNL A   1      41.274  31.950  31.978  1.00  0.00     0.023 A 
ATOM     75  C   UNL A   1      40.830  33.223  31.539  1.00  0.00     0.012 A 
ATOM     76  C   UNL A   1      40.393  31.143  32.717  1.00  0.00     0.148 A 
ATOM     77  C   UNL A   1      39.498  33.610  31.696  1.00  0.00     0.002 A 
ATOM     78  C   UNL A   1      39.065  31.541  32.872  1.00  0.00     0.091 A 
ATOM     79  F   UNL A   1      40.833  29.968  33.185  1.00  0.00    -0.205 F 
ATOM     80  C   UNL A   1      38.607  32.751  32.328  1.00  0.00     0.022 A 
BRANCH  78  81
ATOM     81  S   UNL A   1      37.862  30.456  33.653  1.00  0.00     0.127 S 
ATOM     82  O   UNL A   1      36.616  30.925  33.058  1.00  0.00    -0.237 OA
ATOM     83  O   UNL A   1      38.294  29.131  33.209  1.00  0.00    -0.237 OA
ATOM     84  O   UNL A   1      38.033  30.689  35.079  1.00  0.00    -0.744 OA
ENDBRANCH  78  81
ENDBRANCH  50  74
BRANCH  62  85
ATOM     85  C   UNL A   1      45.645  26.363  32.931  1.00  0.00     0.023 A 
ATOM     86  C   UNL A   1      47.025  26.322  33.210  1.00  0.00     0.012 A 
ATOM     87  C   UNL A   1      44.807  25.562  33.750  1.00  0.00     0.148 A 
ATOM     88  C   UNL A   1      47.559  25.482  34.192  1.00  0.00     0.002 A 
ATOM     89  C   UNL A   1      45.331  24.814  34.800  1.00  0.00     0.091 A 
ATOM     90  F   UNL A   1      43.490  25.505  33.502  1.00  0.00    -0.205 F 
ATOM     91  C   UNL A   1      46.710  24.743  35.005  1.00  0.00     0.022 A 
BRANCH  89  92
ATOM     92  S   UNL A   1      44.248  24.052  36.018  1.00  0.00     0.127 S 
ATOM     93  O   UNL A   1      43.731  25.213  36.739  1.00  0.00    -0.237 OA
ATOM     94  O   UNL A   1      43.259  23.367  35.181  1.00  0.00    -0.237 OA
ATOM     95  O   UNL A   1      45.109  23.152  36.773  1.00  0.00    -0.744 OA
ENDBRANCH  89  92
ENDBRANCH  62  85
ENDBRANCH  36  37
ENDBRANCH  28  31
ENDBRANCH  26  27
ENDBRANCH  25  26
ENDBRANCH   1  25
TORSDOF 17
ENDMDL
