MODEL 1
REMARK VINA RESULT:     -12.4      0.000      0.000
REMARK SMILES C[C@@H](c1ccccn1)S(=O)(=O)N1CC[NH2+]C[C@@H]1C(=O)NCCCNC(=O)c1ccc(-c2c3nc(c(-c4cccc(S(=O)(=O)[O-])c4F)c4ccc([nH]4)c(-c4cccc(S(=O)(=O)[O-])c4F)c4nc(c(-c5cccc(S(=O)(=O)[O-])c5F)c5ccc2[nH]5)C=C4)C=C3)cc1
REMARK SMILES IDX 22 1 21 2 20 3 18 4 19 5 17 7 12 8 13 9 14 10 16 11 15 12
REMARK SMILES IDX 9 15 10 16 11 17 2 18 1 19 3 20 4 21 8 22 5 23 7 24 6 25
REMARK SMILES IDX 23 26 24 27 25 28 26 30 27 31 28 32 89 33 29 34 88 35 30 36
REMARK SMILES IDX 31 37 32 38 82 39 33 40 87 41 81 42 83 43 34 44 86 45 80 46
REMARK SMILES IDX 79 47 35 49 67 50 47 51 66 52 48 53 51 54 65 55 84 56 49 57
REMARK SMILES IDX 50 58 64 60 85 61 52 62 36 63 37 64 45 65 38 66 40 67 46 68
REMARK SMILES IDX 39 69 41 70 42 71 43 72 44 73 68 74 69 75 77 76 70 77 72 78
REMARK SMILES IDX 78 79 71 80 73 81 74 82 75 83 76 84 53 85 54 86 62 87 55 88
REMARK SMILES IDX 57 89 63 90 56 91 58 92 59 93 60 94 61 95
REMARK H PARENT 20 6 15 13 15 14 24 29 83 48 51 59
REMARK Flexibility Score: inf
ROOT
ATOM      1  C   UNL A   1      32.187  30.079  25.479  1.00  0.00     0.042 C 
ENDROOT
BRANCH   1   2
ATOM      2  C   UNL A   1      33.470  29.269  25.398  1.00  0.00     0.117 C 
BRANCH   2   3
ATOM      3  N   UNL A   1      33.947  29.175  24.025  1.00  0.00    -0.354 N 
ATOM      4  C   UNL A   1      33.801  28.112  23.163  1.00  0.00     0.244 C 
ATOM      5  O   UNL A   1      34.285  28.198  22.034  1.00  0.00    -0.273 OA
ATOM      6  H   UNL A   1      34.426  29.960  23.673  1.00  0.00     0.163 HD
BRANCH   4   7
ATOM      7  C   UNL A   1      32.929  26.962  23.638  1.00  0.00     0.216 C 
ATOM      8  N   UNL A   1      33.301  25.564  23.355  1.00  0.00    -0.177 NA
ATOM      9  C   UNL A   1      33.325  25.217  21.931  1.00  0.00     0.164 C 
ATOM     10  C   UNL A   1      31.950  25.589  21.298  1.00  0.00     0.277 C 
ATOM     11  C   UNL A   1      31.508  27.175  23.079  1.00  0.00     0.291 C 
ATOM     12  N   UNL A   1      31.425  26.937  21.616  1.00  0.00    -0.343 N 
ATOM     13  H   UNL A   1      30.451  27.000  21.317  1.00  0.00     0.346 HD
ATOM     14  H   UNL A   1      31.980  27.639  21.127  1.00  0.00     0.346 HD
BRANCH   8  15
ATOM     15  S   UNL A   1      33.467  24.567  24.669  1.00  0.00     0.223 S 
ATOM     16  O   UNL A   1      33.520  25.456  25.821  1.00  0.00    -0.211 OA
ATOM     17  O   UNL A   1      34.613  23.725  24.403  1.00  0.00    -0.211 OA
BRANCH  15  18
ATOM     18  C   UNL A   1      31.982  23.582  24.959  1.00  0.00     0.170 C 
ATOM     19  C   UNL A   1      30.668  24.246  24.592  1.00  0.00     0.033 C 
BRANCH  18  20
ATOM     20  C   UNL A   1      32.227  22.205  24.410  1.00  0.00     0.060 A 
ATOM     21  C   UNL A   1      32.062  21.985  23.038  1.00  0.00     0.025 A 
ATOM     22  N   UNL A   1      32.527  21.204  25.274  1.00  0.00    -0.260 NA
ATOM     23  C   UNL A   1      32.153  20.693  22.542  1.00  0.00     0.004 A 
ATOM     24  C   UNL A   1      32.594  19.954  24.761  1.00  0.00     0.111 A 
ATOM     25  C   UNL A   1      32.412  19.652  23.422  1.00  0.00     0.020 A 
ENDBRANCH  18  20
ENDBRANCH  15  18
ENDBRANCH   8  15
ENDBRANCH   4   7
ENDBRANCH   2   3
ENDBRANCH   1   2
BRANCH   1  26
ATOM     26  C   UNL A   1      31.975  30.666  26.867  1.00  0.00     0.118 C 
BRANCH  26  27
ATOM     27  N   UNL A   1      32.008  32.128  26.843  1.00  0.00    -0.352 N 
ATOM     28  C   UNL A   1      32.849  32.994  27.493  1.00  0.00     0.251 C 
ATOM     29  H   UNL A   1      31.325  32.554  26.275  1.00  0.00     0.163 HD
ATOM     30  O   UNL A   1      32.544  34.173  27.618  1.00  0.00    -0.269 OA
BRANCH  28  31
ATOM     31  C   UNL A   1      34.125  32.482  28.020  1.00  0.00     0.039 A 
ATOM     32  C   UNL A   1      35.230  33.328  28.094  1.00  0.00     0.014 A 
ATOM     33  C   UNL A   1      34.208  31.156  28.454  1.00  0.00     0.014 A 
ATOM     34  C   UNL A   1      36.408  32.860  28.675  1.00  0.00     0.010 A 
ATOM     35  C   UNL A   1      35.343  30.725  29.118  1.00  0.00     0.010 A 
ATOM     36  C   UNL A   1      36.456  31.570  29.229  1.00  0.00    -0.014 A 
BRANCH  36  37
ATOM     37  C   UNL A   1      37.647  31.081  29.958  1.00  0.00     0.031 A 
ATOM     38  C   UNL A   1      38.569  30.087  29.308  1.00  0.00     0.074 A 
ATOM     39  C   UNL A   1      37.826  31.444  31.244  1.00  0.00     0.049 A 
ATOM     40  N   UNL A   1      39.607  29.477  29.813  1.00  0.00    -0.248 NA
ATOM     41  C   UNL A   1      38.268  29.702  27.917  1.00  0.00     0.031 C 
ATOM     42  C   UNL A   1      36.947  32.341  32.000  1.00  0.00     0.029 A 
ATOM     43  N   UNL A   1      38.786  31.080  32.152  1.00  0.00    -0.354 N 
ATOM     44  C   UNL A   1      40.054  28.607  28.827  1.00  0.00     0.074 A 
ATOM     45  C   UNL A   1      39.161  28.747  27.698  1.00  0.00     0.031 C 
ATOM     46  C   UNL A   1      37.414  32.463  33.252  1.00  0.00     0.029 A 
ATOM     47  C   UNL A   1      38.596  31.622  33.402  1.00  0.00     0.049 A 
ATOM     48  H   UNL A   1      39.540  30.486  31.930  1.00  0.00     0.167 HD
ATOM     49  C   UNL A   1      41.123  27.780  28.854  1.00  0.00     0.034 A 
ATOM     50  C   UNL A   1      39.289  31.446  34.544  1.00  0.00     0.034 A 
ATOM     51  C   UNL A   1      42.031  27.684  29.963  1.00  0.00     0.049 A 
ATOM     52  C   UNL A   1      40.486  30.534  34.531  1.00  0.00     0.074 A 
ATOM     53  C   UNL A   1      43.213  26.970  30.044  1.00  0.00     0.029 A 
ATOM     54  N   UNL A   1      41.848  28.302  31.190  1.00  0.00    -0.354 N 
ATOM     55  N   UNL A   1      41.003  29.865  33.530  1.00  0.00    -0.248 NA
ATOM     56  C   UNL A   1      41.210  30.374  35.800  1.00  0.00     0.031 C 
ATOM     57  C   UNL A   1      43.722  27.119  31.336  1.00  0.00     0.029 A 
ATOM     58  C   UNL A   1      42.878  27.958  32.047  1.00  0.00     0.049 A 
ATOM     59  H   UNL A   1      41.097  28.896  31.418  1.00  0.00     0.167 HD
ATOM     60  C   UNL A   1      42.130  29.231  34.038  1.00  0.00     0.074 A 
ATOM     61  C   UNL A   1      42.235  29.617  35.431  1.00  0.00     0.031 C 
ATOM     62  C   UNL A   1      42.993  28.391  33.416  1.00  0.00     0.034 A 
BRANCH  49  63
ATOM     63  C   UNL A   1      41.399  26.936  27.638  1.00  0.00     0.023 A 
ATOM     64  C   UNL A   1      41.988  27.517  26.498  1.00  0.00     0.012 A 
ATOM     65  C   UNL A   1      41.155  25.548  27.661  1.00  0.00     0.148 A 
ATOM     66  C   UNL A   1      42.307  26.735  25.388  1.00  0.00     0.002 A 
ATOM     67  C   UNL A   1      41.519  24.769  26.571  1.00  0.00     0.091 A 
ATOM     68  F   UNL A   1      40.574  25.020  28.748  1.00  0.00    -0.205 F 
ATOM     69  C   UNL A   1      42.085  25.362  25.430  1.00  0.00     0.022 A 
BRANCH  67  70
ATOM     70  S   UNL A   1      41.352  22.980  26.558  1.00  0.00     0.127 S 
ATOM     71  O   UNL A   1      41.966  22.618  27.835  1.00  0.00    -0.237 OA
ATOM     72  O   UNL A   1      39.901  22.810  26.508  1.00  0.00    -0.237 OA
ATOM     73  O   UNL A   1      42.064  22.517  25.375  1.00  0.00    -0.744 OA
ENDBRANCH  67  70
ENDBRANCH  49  63
BRANCH  50  74
ATOM     74  C   UNL A   1      38.900  32.177  35.783  1.00  0.00     0.023 A 
ATOM     75  C   UNL A   1      39.301  33.518  35.944  1.00  0.00     0.012 A 
ATOM     76  C   UNL A   1      38.142  31.562  36.798  1.00  0.00     0.148 A 
ATOM     77  C   UNL A   1      38.991  34.219  37.110  1.00  0.00     0.002 A 
ATOM     78  C   UNL A   1      37.789  32.283  37.932  1.00  0.00     0.091 A 
ATOM     79  F   UNL A   1      37.777  30.282  36.631  1.00  0.00    -0.205 F 
ATOM     80  C   UNL A   1      38.229  33.605  38.100  1.00  0.00     0.022 A 
BRANCH  78  81
ATOM     81  S   UNL A   1      36.706  31.616  39.200  1.00  0.00     0.127 S 
ATOM     82  O   UNL A   1      35.476  32.368  38.968  1.00  0.00    -0.237 OA
ATOM     83  O   UNL A   1      36.643  30.201  38.830  1.00  0.00    -0.237 OA
ATOM     84  O   UNL A   1      37.378  31.876  40.466  1.00  0.00    -0.744 OA
ENDBRANCH  78  81
ENDBRANCH  50  74
BRANCH  62  85
ATOM     85  C   UNL A   1      44.147  27.851  34.218  1.00  0.00     0.023 A 
ATOM     86  C   UNL A   1      45.343  28.589  34.307  1.00  0.00     0.012 A 
ATOM     87  C   UNL A   1      44.010  26.659  34.956  1.00  0.00     0.148 A 
ATOM     88  C   UNL A   1      46.398  28.134  35.098  1.00  0.00     0.002 A 
ATOM     89  C   UNL A   1      45.045  26.239  35.783  1.00  0.00     0.091 A 
ATOM     90  F   UNL A   1      42.868  25.966  34.847  1.00  0.00    -0.205 F 
ATOM     91  C   UNL A   1      46.244  26.968  35.845  1.00  0.00     0.022 A 
BRANCH  89  92
ATOM     92  S   UNL A   1      44.903  24.808  36.858  1.00  0.00     0.127 S 
ATOM     93  O   UNL A   1      43.801  25.200  37.734  1.00  0.00    -0.237 OA
ATOM     94  O   UNL A   1      44.580  23.742  35.909  1.00  0.00    -0.237 OA
ATOM     95  O   UNL A   1      46.196  24.664  37.514  1.00  0.00    -0.744 OA
ENDBRANCH  89  92
ENDBRANCH  62  85
ENDBRANCH  36  37
ENDBRANCH  28  31
ENDBRANCH  26  27
ENDBRANCH   1  26
TORSDOF 16
ENDMDL
MODEL 2
REMARK VINA RESULT:     -12.4      6.133     11.016
REMARK SMILES C[C@@H](c1ccccn1)S(=O)(=O)N1CC[NH2+]C[C@@H]1C(=O)NCCCNC(=O)c1ccc(-c2c3nc(c(-c4cccc(S(=O)(=O)[O-])c4F)c4ccc([nH]4)c(-c4cccc(S(=O)(=O)[O-])c4F)c4nc(c(-c5cccc(S(=O)(=O)[O-])c5F)c5ccc2[nH]5)C=C4)C=C3)cc1
REMARK SMILES IDX 22 1 21 2 20 3 18 4 19 5 17 7 12 8 13 9 14 10 16 11 15 12
REMARK SMILES IDX 9 15 10 16 11 17 2 18 1 19 3 20 4 21 8 22 5 23 7 24 6 25
REMARK SMILES IDX 23 26 24 27 25 28 26 30 27 31 28 32 89 33 29 34 88 35 30 36
REMARK SMILES IDX 31 37 32 38 82 39 33 40 87 41 81 42 83 43 34 44 86 45 80 46
REMARK SMILES IDX 79 47 35 49 67 50 47 51 66 52 48 53 51 54 65 55 84 56 49 57
REMARK SMILES IDX 50 58 64 60 85 61 52 62 36 63 37 64 45 65 38 66 40 67 46 68
REMARK SMILES IDX 39 69 41 70 42 71 43 72 44 73 68 74 69 75 77 76 70 77 72 78
REMARK SMILES IDX 78 79 71 80 73 81 74 82 75 83 76 84 53 85 54 86 62 87 55 88
REMARK SMILES IDX 57 89 63 90 56 91 58 92 59 93 60 94 61 95
REMARK H PARENT 20 6 15 13 15 14 24 29 83 48 51 59
REMARK Flexibility Score: inf
ROOT
ATOM      1  C   UNL A   1      38.230  19.566  24.984  1.00  0.00     0.042 C 
ENDROOT
BRANCH   1   2
ATOM      2  C   UNL A   1      36.967  20.408  25.011  1.00  0.00     0.117 C 
BRANCH   2   3
ATOM      3  N   UNL A   1      37.034  21.489  24.037  1.00  0.00    -0.354 N 
ATOM      4  C   UNL A   1      36.114  22.495  23.841  1.00  0.00     0.244 C 
ATOM      5  O   UNL A   1      36.326  23.323  22.956  1.00  0.00    -0.273 OA
ATOM      6  H   UNL A   1      37.828  21.504  23.454  1.00  0.00     0.163 HD
BRANCH   4   7
ATOM      7  C   UNL A   1      34.969  22.574  24.836  1.00  0.00     0.216 C 
ATOM      8  N   UNL A   1      33.580  22.317  24.413  1.00  0.00    -0.177 NA
ATOM      9  C   UNL A   1      33.056  23.272  23.433  1.00  0.00     0.164 C 
ATOM     10  C   UNL A   1      33.231  24.717  23.992  1.00  0.00     0.277 C 
ATOM     11  C   UNL A   1      34.993  23.972  25.485  1.00  0.00     0.291 C 
ATOM     12  N   UNL A   1      34.563  25.045  24.553  1.00  0.00    -0.343 N 
ATOM     13  H   UNL A   1      34.508  25.931  25.057  1.00  0.00     0.346 HD
ATOM     14  H   UNL A   1      35.239  25.124  23.793  1.00  0.00     0.346 HD
BRANCH   8  15
ATOM     15  S   UNL A   1      32.777  21.112  25.219  1.00  0.00     0.223 S 
ATOM     16  O   UNL A   1      31.518  21.706  25.644  1.00  0.00    -0.211 OA
ATOM     17  O   UNL A   1      33.682  20.627  26.238  1.00  0.00    -0.211 OA
BRANCH  15  18
ATOM     18  C   UNL A   1      32.268  19.782  24.108  1.00  0.00     0.170 C 
ATOM     19  C   UNL A   1      32.362  20.090  22.624  1.00  0.00     0.033 C 
BRANCH  18  20
ATOM     20  C   UNL A   1      32.912  18.511  24.583  1.00  0.00     0.060 A 
ATOM     21  C   UNL A   1      34.069  18.058  23.940  1.00  0.00     0.025 A 
ATOM     22  N   UNL A   1      32.307  17.806  25.570  1.00  0.00    -0.260 NA
ATOM     23  C   UNL A   1      34.593  16.820  24.280  1.00  0.00     0.004 A 
ATOM     24  C   UNL A   1      32.834  16.595  25.868  1.00  0.00     0.111 A 
ATOM     25  C   UNL A   1      33.957  16.065  25.255  1.00  0.00     0.020 A 
ENDBRANCH  18  20
ENDBRANCH  15  18
ENDBRANCH   8  15
ENDBRANCH   4   7
ENDBRANCH   2   3
ENDBRANCH   1   2
BRANCH   1  26
ATOM     26  C   UNL A   1      39.245  20.034  26.016  1.00  0.00     0.118 C 
BRANCH  26  27
ATOM     27  N   UNL A   1      40.454  19.211  25.992  1.00  0.00    -0.352 N 
ATOM     28  C   UNL A   1      41.772  19.592  25.969  1.00  0.00     0.251 C 
ATOM     29  H   UNL A   1      40.300  18.238  25.994  1.00  0.00     0.163 HD
ATOM     30  O   UNL A   1      42.638  18.796  25.631  1.00  0.00    -0.269 OA
BRANCH  28  31
ATOM     31  C   UNL A   1      42.119  20.965  26.371  1.00  0.00     0.039 A 
ATOM     32  C   UNL A   1      42.346  21.253  27.716  1.00  0.00     0.014 A 
ATOM     33  C   UNL A   1      42.231  21.960  25.397  1.00  0.00     0.014 A 
ATOM     34  C   UNL A   1      42.759  22.535  28.077  1.00  0.00     0.010 A 
ATOM     35  C   UNL A   1      42.735  23.202  25.744  1.00  0.00     0.010 A 
ATOM     36  C   UNL A   1      42.998  23.503  27.087  1.00  0.00    -0.014 A 
BRANCH  36  37
ATOM     37  C   UNL A   1      43.550  24.835  27.420  1.00  0.00     0.031 A 
ATOM     38  C   UNL A   1      42.641  25.917  27.933  1.00  0.00     0.074 A 
ATOM     39  C   UNL A   1      44.844  25.097  27.146  1.00  0.00     0.049 A 
ATOM     40  N   UNL A   1      42.917  27.167  28.194  1.00  0.00    -0.248 NA
ATOM     41  C   UNL A   1      41.228  25.559  28.152  1.00  0.00     0.031 C 
ATOM     42  C   UNL A   1      45.798  24.144  26.570  1.00  0.00     0.029 A 
ATOM     43  N   UNL A   1      45.572  26.251  27.283  1.00  0.00    -0.354 N 
ATOM     44  C   UNL A   1      41.713  27.753  28.561  1.00  0.00     0.074 A 
ATOM     45  C   UNL A   1      40.695  26.731  28.467  1.00  0.00     0.031 C 
ATOM     46  C   UNL A   1      46.985  24.749  26.413  1.00  0.00     0.029 A 
ATOM     47  C   UNL A   1      46.868  26.141  26.832  1.00  0.00     0.049 A 
ATOM     48  H   UNL A   1      45.202  27.079  27.667  1.00  0.00     0.167 HD
ATOM     49  C   UNL A   1      41.482  29.024  28.958  1.00  0.00     0.034 A 
ATOM     50  C   UNL A   1      47.844  27.066  26.753  1.00  0.00     0.034 A 
ATOM     51  C   UNL A   1      42.510  30.019  29.093  1.00  0.00     0.049 A 
ATOM     52  C   UNL A   1      47.556  28.466  27.224  1.00  0.00     0.074 A 
ATOM     53  C   UNL A   1      42.401  31.299  29.605  1.00  0.00     0.029 A 
ATOM     54  N   UNL A   1      43.827  29.854  28.695  1.00  0.00    -0.354 N 
ATOM     55  N   UNL A   1      46.457  28.951  27.746  1.00  0.00    -0.248 NA
ATOM     56  C   UNL A   1      48.653  29.439  27.118  1.00  0.00     0.031 C 
ATOM     57  C   UNL A   1      43.644  31.926  29.474  1.00  0.00     0.029 A 
ATOM     58  C   UNL A   1      44.535  31.021  28.917  1.00  0.00     0.049 A 
ATOM     59  H   UNL A   1      44.202  29.029  28.311  1.00  0.00     0.167 HD
ATOM     60  C   UNL A   1      46.738  30.275  28.062  1.00  0.00     0.074 A 
ATOM     61  C   UNL A   1      48.120  30.508  27.695  1.00  0.00     0.031 C 
ATOM     62  C   UNL A   1      45.924  31.220  28.591  1.00  0.00     0.034 A 
BRANCH  49  63
ATOM     63  C   UNL A   1      40.071  29.412  29.313  1.00  0.00     0.023 A 
ATOM     64  C   UNL A   1      39.156  29.741  28.294  1.00  0.00     0.012 A 
ATOM     65  C   UNL A   1      39.632  29.366  30.651  1.00  0.00     0.148 A 
ATOM     66  C   UNL A   1      37.829  30.042  28.602  1.00  0.00     0.002 A 
ATOM     67  C   UNL A   1      38.299  29.621  30.945  1.00  0.00     0.091 A 
ATOM     68  F   UNL A   1      40.526  29.073  31.606  1.00  0.00    -0.205 F 
ATOM     69  C   UNL A   1      37.399  29.969  29.924  1.00  0.00     0.022 A 
BRANCH  67  70
ATOM     70  S   UNL A   1      37.626  29.472  32.604  1.00  0.00     0.127 S 
ATOM     71  O   UNL A   1      38.556  30.296  33.374  1.00  0.00    -0.237 OA
ATOM     72  O   UNL A   1      36.291  30.046  32.444  1.00  0.00    -0.237 OA
ATOM     73  O   UNL A   1      37.647  28.051  32.922  1.00  0.00    -0.744 OA
ENDBRANCH  67  70
ENDBRANCH  49  63
BRANCH  50  74
ATOM     74  C   UNL A   1      49.196  26.693  26.249  1.00  0.00     0.023 A 
ATOM     75  C   UNL A   1      50.029  25.885  27.048  1.00  0.00     0.012 A 
ATOM     76  C   UNL A   1      49.663  27.129  24.993  1.00  0.00     0.148 A 
ATOM     77  C   UNL A   1      51.317  25.553  26.625  1.00  0.00     0.002 A 
ATOM     78  C   UNL A   1      50.926  26.747  24.554  1.00  0.00     0.091 A 
ATOM     79  F   UNL A   1      48.860  27.904  24.251  1.00  0.00    -0.205 F 
ATOM     80  C   UNL A   1      51.762  25.977  25.376  1.00  0.00     0.022 A 
BRANCH  78  81
ATOM     81  S   UNL A   1      51.534  27.141  22.911  1.00  0.00     0.127 S 
ATOM     82  O   UNL A   1      50.406  26.746  22.072  1.00  0.00    -0.237 OA
ATOM     83  O   UNL A   1      51.754  28.586  23.008  1.00  0.00    -0.237 OA
ATOM     84  O   UNL A   1      52.752  26.359  22.745  1.00  0.00    -0.744 OA
ENDBRANCH  78  81
ENDBRANCH  50  74
BRANCH  62  85
ATOM     85  C   UNL A   1      46.504  32.587  28.839  1.00  0.00     0.023 A 
ATOM     86  C   UNL A   1      47.109  32.877  30.077  1.00  0.00     0.012 A 
ATOM     87  C   UNL A   1      46.530  33.551  27.811  1.00  0.00     0.148 A 
ATOM     88  C   UNL A   1      47.708  34.116  30.299  1.00  0.00     0.002 A 
ATOM     89  C   UNL A   1      47.174  34.763  28.021  1.00  0.00     0.091 A 
ATOM     90  F   UNL A   1      45.936  33.258  26.645  1.00  0.00    -0.205 F 
ATOM     91  C   UNL A   1      47.751  35.053  29.268  1.00  0.00     0.022 A 
BRANCH  89  92
ATOM     92  S   UNL A   1      47.369  35.991  26.725  1.00  0.00     0.127 S 
ATOM     93  O   UNL A   1      46.062  36.645  26.734  1.00  0.00    -0.237 OA
ATOM     94  O   UNL A   1      48.466  36.811  27.242  1.00  0.00    -0.237 OA
ATOM     95  O   UNL A   1      47.685  35.253  25.510  1.00  0.00    -0.744 OA
ENDBRANCH  89  92
ENDBRANCH  62  85
ENDBRANCH  36  37
ENDBRANCH  28  31
ENDBRANCH  26  27
ENDBRANCH   1  26
TORSDOF 16
ENDMDL
MODEL 3
REMARK VINA RESULT:     -12.2      5.369      8.197
REMARK SMILES C[C@@H](c1ccccn1)S(=O)(=O)N1CC[NH2+]C[C@@H]1C(=O)NCCCNC(=O)c1ccc(-c2c3nc(c(-c4cccc(S(=O)(=O)[O-])c4F)c4ccc([nH]4)c(-c4cccc(S(=O)(=O)[O-])c4F)c4nc(c(-c5cccc(S(=O)(=O)[O-])c5F)c5ccc2[nH]5)C=C4)C=C3)cc1
REMARK SMILES IDX 22 1 21 2 20 3 18 4 19 5 17 7 12 8 13 9 14 10 16 11 15 12
REMARK SMILES IDX 9 15 10 16 11 17 2 18 1 19 3 20 4 21 8 22 5 23 7 24 6 25
REMARK SMILES IDX 23 26 24 27 25 28 26 30 27 31 28 32 89 33 29 34 88 35 30 36
REMARK SMILES IDX 31 37 32 38 82 39 33 40 87 41 81 42 83 43 34 44 86 45 80 46
REMARK SMILES IDX 79 47 35 49 67 50 47 51 66 52 48 53 51 54 65 55 84 56 49 57
REMARK SMILES IDX 50 58 64 60 85 61 52 62 36 63 37 64 45 65 38 66 40 67 46 68
REMARK SMILES IDX 39 69 41 70 42 71 43 72 44 73 68 74 69 75 77 76 70 77 72 78
REMARK SMILES IDX 78 79 71 80 73 81 74 82 75 83 76 84 53 85 54 86 62 87 55 88
REMARK SMILES IDX 57 89 63 90 56 91 58 92 59 93 60 94 61 95
REMARK H PARENT 20 6 15 13 15 14 24 29 83 48 51 59
REMARK Flexibility Score: inf
ROOT
ATOM      1  C   UNL A   1      36.393  22.561  25.975  1.00  0.00     0.042 C 
ENDROOT
BRANCH   1   2
ATOM      2  C   UNL A   1      35.431  21.392  26.100  1.00  0.00     0.117 C 
BRANCH   2   3
ATOM      3  N   UNL A   1      34.573  21.539  27.268  1.00  0.00    -0.354 N 
ATOM      4  C   UNL A   1      33.317  22.099  27.315  1.00  0.00     0.244 C 
ATOM      5  O   UNL A   1      32.737  22.156  28.399  1.00  0.00    -0.273 OA
ATOM      6  H   UNL A   1      34.931  21.198  28.119  1.00  0.00     0.163 HD
BRANCH   4   7
ATOM      7  C   UNL A   1      32.691  22.483  25.984  1.00  0.00     0.216 C 
ATOM      8  N   UNL A   1      32.672  23.887  25.534  1.00  0.00    -0.177 NA
ATOM      9  C   UNL A   1      31.891  24.788  26.387  1.00  0.00     0.164 C 
ATOM     10  C   UNL A   1      30.451  24.212  26.544  1.00  0.00     0.277 C 
ATOM     11  C   UNL A   1      31.232  21.986  25.979  1.00  0.00     0.291 C 
ATOM     12  N   UNL A   1      30.354  22.773  26.882  1.00  0.00    -0.343 N 
ATOM     13  H   UNL A   1      29.388  22.463  26.770  1.00  0.00     0.346 HD
ATOM     14  H   UNL A   1      30.649  22.632  27.848  1.00  0.00     0.346 HD
BRANCH   8  15
ATOM     15  S   UNL A   1      33.381  24.199  24.070  1.00  0.00     0.223 S 
ATOM     16  O   UNL A   1      33.585  22.894  23.456  1.00  0.00    -0.211 OA
ATOM     17  O   UNL A   1      34.545  25.014  24.342  1.00  0.00    -0.211 OA
BRANCH  15  18
ATOM     18  C   UNL A   1      32.247  25.032  22.937  1.00  0.00     0.170 C 
ATOM     19  C   UNL A   1      30.786  24.641  23.061  1.00  0.00     0.033 C 
BRANCH  18  20
ATOM     20  C   UNL A   1      32.566  26.500  22.960  1.00  0.00     0.060 A 
ATOM     21  C   UNL A   1      33.540  26.993  22.085  1.00  0.00     0.025 A 
ATOM     22  N   UNL A   1      31.953  27.283  23.881  1.00  0.00    -0.260 NA
ATOM     23  C   UNL A   1      33.938  28.318  22.192  1.00  0.00     0.004 A 
ATOM     24  C   UNL A   1      32.375  28.566  23.969  1.00  0.00     0.111 A 
ATOM     25  C   UNL A   1      33.355  29.120  23.161  1.00  0.00     0.020 A 
ENDBRANCH  18  20
ENDBRANCH  15  18
ENDBRANCH   8  15
ENDBRANCH   4   7
ENDBRANCH   2   3
ENDBRANCH   1   2
BRANCH   1  26
ATOM     26  C   UNL A   1      37.576  22.228  25.078  1.00  0.00     0.118 C 
BRANCH  26  27
ATOM     27  N   UNL A   1      38.454  21.233  25.694  1.00  0.00    -0.352 N 
ATOM     28  C   UNL A   1      39.668  21.401  26.311  1.00  0.00     0.251 C 
ATOM     29  H   UNL A   1      38.126  20.305  25.660  1.00  0.00     0.163 HD
ATOM     30  O   UNL A   1      40.409  20.442  26.483  1.00  0.00    -0.269 OA
BRANCH  28  31
ATOM     31  C   UNL A   1      40.048  22.745  26.773  1.00  0.00     0.039 A 
ATOM     32  C   UNL A   1      40.914  22.883  27.857  1.00  0.00     0.014 A 
ATOM     33  C   UNL A   1      39.547  23.869  26.109  1.00  0.00     0.014 A 
ATOM     34  C   UNL A   1      41.337  24.158  28.232  1.00  0.00     0.010 A 
ATOM     35  C   UNL A   1      40.044  25.123  26.419  1.00  0.00     0.010 A 
ATOM     36  C   UNL A   1      40.939  25.280  27.487  1.00  0.00    -0.014 A 
BRANCH  36  37
ATOM     37  C   UNL A   1      41.461  26.634  27.781  1.00  0.00     0.031 A 
ATOM     38  C   UNL A   1      42.887  26.975  27.452  1.00  0.00     0.074 A 
ATOM     39  C   UNL A   1      40.681  27.507  28.450  1.00  0.00     0.049 A 
ATOM     40  N   UNL A   1      43.551  28.070  27.712  1.00  0.00    -0.248 NA
ATOM     41  C   UNL A   1      43.685  25.941  26.770  1.00  0.00     0.031 C 
ATOM     42  C   UNL A   1      39.307  27.251  28.890  1.00  0.00     0.029 A 
ATOM     43  N   UNL A   1      40.943  28.773  28.905  1.00  0.00    -0.354 N 
ATOM     44  C   UNL A   1      44.848  27.841  27.272  1.00  0.00     0.074 A 
ATOM     45  C   UNL A   1      44.889  26.495  26.748  1.00  0.00     0.031 C 
ATOM     46  C   UNL A   1      38.845  28.328  29.542  1.00  0.00     0.029 A 
ATOM     47  C   UNL A   1      39.900  29.333  29.607  1.00  0.00     0.049 A 
ATOM     48  H   UNL A   1      41.797  29.238  28.745  1.00  0.00     0.167 HD
ATOM     49  C   UNL A   1      45.903  28.686  27.286  1.00  0.00     0.034 A 
ATOM     50  C   UNL A   1      39.814  30.516  30.244  1.00  0.00     0.034 A 
ATOM     51  C   UNL A   1      45.837  30.039  27.766  1.00  0.00     0.049 A 
ATOM     52  C   UNL A   1      41.002  31.440  30.221  1.00  0.00     0.074 A 
ATOM     53  C   UNL A   1      46.815  31.016  27.711  1.00  0.00     0.029 A 
ATOM     54  N   UNL A   1      44.744  30.598  28.407  1.00  0.00    -0.354 N 
ATOM     55  N   UNL A   1      42.161  31.279  29.632  1.00  0.00    -0.248 NA
ATOM     56  C   UNL A   1      40.860  32.720  30.930  1.00  0.00     0.031 C 
ATOM     57  C   UNL A   1      46.329  32.153  28.361  1.00  0.00     0.029 A 
ATOM     58  C   UNL A   1      45.033  31.897  28.785  1.00  0.00     0.049 A 
ATOM     59  H   UNL A   1      43.888  30.139  28.570  1.00  0.00     0.167 HD
ATOM     60  C   UNL A   1      42.874  32.448  29.870  1.00  0.00     0.074 A 
ATOM     61  C   UNL A   1      42.006  33.319  30.635  1.00  0.00     0.031 C 
ATOM     62  C   UNL A   1      44.139  32.768  29.504  1.00  0.00     0.034 A 
BRANCH  49  63
ATOM     63  C   UNL A   1      47.215  28.194  26.736  1.00  0.00     0.023 A 
ATOM     64  C   UNL A   1      48.237  27.786  27.615  1.00  0.00     0.012 A 
ATOM     65  C   UNL A   1      47.400  28.054  25.346  1.00  0.00     0.148 A 
ATOM     66  C   UNL A   1      49.434  27.269  27.121  1.00  0.00     0.002 A 
ATOM     67  C   UNL A   1      48.576  27.495  24.862  1.00  0.00     0.091 A 
ATOM     68  F   UNL A   1      46.423  28.470  24.527  1.00  0.00    -0.205 F 
ATOM     69  C   UNL A   1      49.597  27.112  25.747  1.00  0.00     0.022 A 
BRANCH  67  70
ATOM     70  S   UNL A   1      48.851  27.173  23.117  1.00  0.00     0.127 S 
ATOM     71  O   UNL A   1      50.311  27.169  23.045  1.00  0.00    -0.237 OA
ATOM     72  O   UNL A   1      48.228  25.861  22.948  1.00  0.00    -0.237 OA
ATOM     73  O   UNL A   1      48.198  28.258  22.398  1.00  0.00    -0.744 OA
ENDBRANCH  67  70
ENDBRANCH  49  63
BRANCH  50  74
ATOM     74  C   UNL A   1      38.548  30.919  30.920  1.00  0.00     0.023 A 
ATOM     75  C   UNL A   1      38.390  30.659  32.295  1.00  0.00     0.012 A 
ATOM     76  C   UNL A   1      37.504  31.553  30.218  1.00  0.00     0.148 A 
ATOM     77  C   UNL A   1      37.202  30.985  32.950  1.00  0.00     0.002 A 
ATOM     78  C   UNL A   1      36.345  31.925  30.889  1.00  0.00     0.091 A 
ATOM     79  F   UNL A   1      37.669  31.784  28.907  1.00  0.00    -0.205 F 
ATOM     80  C   UNL A   1      36.183  31.624  32.250  1.00  0.00     0.022 A 
BRANCH  78  81
ATOM     81  S   UNL A   1      35.033  32.863  30.098  1.00  0.00     0.127 S 
ATOM     82  O   UNL A   1      34.551  31.917  29.096  1.00  0.00    -0.237 OA
ATOM     83  O   UNL A   1      34.116  33.100  31.214  1.00  0.00    -0.237 OA
ATOM     84  O   UNL A   1      35.669  34.066  29.578  1.00  0.00    -0.744 OA
ENDBRANCH  78  81
ENDBRANCH  50  74
BRANCH  62  85
ATOM     85  C   UNL A   1      44.660  34.125  29.894  1.00  0.00     0.023 A 
ATOM     86  C   UNL A   1      45.402  34.275  31.081  1.00  0.00     0.012 A 
ATOM     87  C   UNL A   1      44.491  35.231  29.037  1.00  0.00     0.148 A 
ATOM     88  C   UNL A   1      45.946  35.512  31.425  1.00  0.00     0.002 A 
ATOM     89  C   UNL A   1      45.080  36.447  29.358  1.00  0.00     0.091 A 
ATOM     90  F   UNL A   1      43.770  35.068  27.918  1.00  0.00    -0.205 F 
ATOM     91  C   UNL A   1      45.796  36.593  30.558  1.00  0.00     0.022 A 
BRANCH  89  92
ATOM     92  S   UNL A   1      45.028  37.866  28.261  1.00  0.00     0.127 S 
ATOM     93  O   UNL A   1      45.666  37.337  27.057  1.00  0.00    -0.237 OA
ATOM     94  O   UNL A   1      43.589  38.105  28.134  1.00  0.00    -0.237 OA
ATOM     95  O   UNL A   1      45.761  38.929  28.935  1.00  0.00    -0.744 OA
ENDBRANCH  89  92
ENDBRANCH  62  85
ENDBRANCH  36  37
ENDBRANCH  28  31
ENDBRANCH  26  27
ENDBRANCH   1  26
TORSDOF 16
ENDMDL
