MODEL 1
REMARK VINA RESULT:     -12.1      0.000      0.000
REMARK SMILES Cc1ccc(S(=O)(=O)/C=C/C(=O)NCCCNC(=O)c2ccc(-c3c4nc(c(-c5cccc(S(=O)(=O)[O-])c5F)c5ccc([nH]5)c(-c5cccc(S(=O)(=O)[O-])c5F)c5nc(c(-c6cccc(S(=O)(=O)[O-])c6F)c6ccc3[nH]6)C=C5)C=C4)cc2)cc1
REMARK SMILES IDX 15 1 14 2 13 3 11 4 12 5 10 7 9 8 6 9 7 10 8 11 5 12 1 13
REMARK SMILES IDX 2 14 3 15 84 16 4 17 83 18 16 19 17 20 18 21 19 23 20 24
REMARK SMILES IDX 21 25 82 26 22 27 81 28 23 29 24 30 25 31 75 32 26 33 80 34
REMARK SMILES IDX 74 35 76 36 27 37 79 38 73 39 72 40 28 42 60 43 40 44 59 45
REMARK SMILES IDX 41 46 44 47 58 48 77 49 42 50 43 51 57 53 78 54 45 55 29 56
REMARK SMILES IDX 30 57 38 58 31 59 33 60 39 61 32 62 34 63 35 64 36 65 37 66
REMARK SMILES IDX 61 67 62 68 70 69 63 70 65 71 71 72 64 73 66 74 67 75 68 76
REMARK SMILES IDX 69 77 46 78 47 79 55 80 48 81 50 82 56 83 49 84 51 85 52 86
REMARK SMILES IDX 53 87 54 88
REMARK H PARENT 13 6 17 22 76 41 44 52
REMARK Flexibility Score: inf
ROOT
ATOM      1  C   UNL A   1      37.094  21.278  25.429  1.00  0.00     0.042 C 
ENDROOT
BRANCH   1   2
ATOM      2  C   UNL A   1      35.616  21.635  25.308  1.00  0.00     0.118 C 
BRANCH   2   3
ATOM      3  N   UNL A   1      35.304  22.212  24.004  1.00  0.00    -0.352 N 
ATOM      4  C   UNL A   1      34.338  23.124  23.703  1.00  0.00     0.244 C 
ATOM      5  O   UNL A   1      34.171  23.577  22.579  1.00  0.00    -0.270 OA
ATOM      6  H   UNL A   1      35.860  21.906  23.251  1.00  0.00     0.163 HD
BRANCH   4   7
ATOM      7  C   UNL A   1      33.489  23.584  24.808  1.00  0.00     0.083 C 
ATOM      8  C   UNL A   1      32.594  24.550  24.566  1.00  0.00     0.117 C 
BRANCH   8   9
ATOM      9  S   UNL A   1      31.575  25.079  25.849  1.00  0.00     0.200 S 
ATOM     10  O   UNL A   1      31.748  24.202  26.986  1.00  0.00    -0.219 OA
ATOM     11  O   UNL A   1      30.247  25.321  25.301  1.00  0.00    -0.219 OA
BRANCH   9  12
ATOM     12  C   UNL A   1      32.189  26.671  26.353  1.00  0.00     0.071 A 
ATOM     13  C   UNL A   1      33.803  30.546  27.259  1.00  0.00     0.044 C 
ATOM     14  C   UNL A   1      33.240  29.190  26.953  1.00  0.00    -0.051 A 
ATOM     15  C   UNL A   1      34.054  28.206  26.380  1.00  0.00     0.005 A 
ATOM     16  C   UNL A   1      31.907  28.890  27.256  1.00  0.00     0.005 A 
ATOM     17  C   UNL A   1      33.531  26.950  26.074  1.00  0.00     0.021 A 
ATOM     18  C   UNL A   1      31.379  27.632  26.964  1.00  0.00     0.021 A 
ENDBRANCH   9  12
ENDBRANCH   8   9
ENDBRANCH   4   7
ENDBRANCH   2   3
ENDBRANCH   1   2
BRANCH   1  19
ATOM     19  C   UNL A   1      37.950  22.494  25.740  1.00  0.00     0.118 C 
BRANCH  19  20
ATOM     20  N   UNL A   1      39.148  22.187  26.507  1.00  0.00    -0.352 N 
ATOM     21  C   UNL A   1      40.069  23.035  27.100  1.00  0.00     0.251 C 
ATOM     22  H   UNL A   1      39.333  21.226  26.621  1.00  0.00     0.163 HD
ATOM     23  O   UNL A   1      41.097  22.556  27.554  1.00  0.00    -0.269 OA
BRANCH  21  24
ATOM     24  C   UNL A   1      39.738  24.472  27.296  1.00  0.00     0.039 A 
ATOM     25  C   UNL A   1      40.399  25.422  26.503  1.00  0.00     0.014 A 
ATOM     26  C   UNL A   1      38.961  24.890  28.369  1.00  0.00     0.014 A 
ATOM     27  C   UNL A   1      40.486  26.746  26.935  1.00  0.00     0.010 A 
ATOM     28  C   UNL A   1      39.143  26.160  28.863  1.00  0.00     0.010 A 
ATOM     29  C   UNL A   1      39.953  27.071  28.176  1.00  0.00    -0.014 A 
BRANCH  29  30
ATOM     30  C   UNL A   1      40.132  28.329  28.882  1.00  0.00     0.031 A 
ATOM     31  C   UNL A   1      39.165  29.418  28.654  1.00  0.00     0.074 A 
ATOM     32  C   UNL A   1      40.956  28.355  29.953  1.00  0.00     0.049 A 
ATOM     33  N   UNL A   1      39.227  30.566  29.232  1.00  0.00    -0.248 NA
ATOM     34  C   UNL A   1      38.057  29.301  27.715  1.00  0.00     0.031 C 
ATOM     35  C   UNL A   1      40.880  29.247  31.103  1.00  0.00     0.029 A 
ATOM     36  N   UNL A   1      42.189  27.714  30.102  1.00  0.00    -0.354 N 
ATOM     37  C   UNL A   1      38.058  31.237  28.959  1.00  0.00     0.074 A 
ATOM     38  C   UNL A   1      37.417  30.454  27.931  1.00  0.00     0.031 C 
ATOM     39  C   UNL A   1      42.090  29.322  31.672  1.00  0.00     0.029 A 
ATOM     40  C   UNL A   1      43.012  28.628  30.792  1.00  0.00     0.049 A 
ATOM     41  H   UNL A   1      42.432  26.812  29.791  1.00  0.00     0.167 HD
ATOM     42  C   UNL A   1      37.743  32.317  29.729  1.00  0.00     0.034 A 
ATOM     43  C   UNL A   1      44.153  29.164  30.265  1.00  0.00     0.034 A 
ATOM     44  C   UNL A   1      38.894  32.715  30.558  1.00  0.00     0.049 A 
ATOM     45  C   UNL A   1      44.140  30.686  30.179  1.00  0.00     0.074 A 
ATOM     46  C   UNL A   1      39.260  32.575  31.886  1.00  0.00     0.029 A 
ATOM     47  N   UNL A   1      40.019  33.178  29.902  1.00  0.00    -0.354 N 
ATOM     48  N   UNL A   1      43.177  31.453  30.614  1.00  0.00    -0.248 NA
ATOM     49  C   UNL A   1      45.183  31.452  29.492  1.00  0.00     0.031 C 
ATOM     50  C   UNL A   1      40.643  32.920  31.999  1.00  0.00     0.029 A 
ATOM     51  C   UNL A   1      41.103  33.294  30.748  1.00  0.00     0.049 A 
ATOM     52  H   UNL A   1      40.043  33.400  28.943  1.00  0.00     0.167 HD
ATOM     53  C   UNL A   1      43.347  32.719  30.112  1.00  0.00     0.074 A 
ATOM     54  C   UNL A   1      44.650  32.685  29.471  1.00  0.00     0.031 C 
ATOM     55  C   UNL A   1      42.382  33.686  30.169  1.00  0.00     0.034 A 
BRANCH  42  56
ATOM     56  C   UNL A   1      36.380  32.973  29.873  1.00  0.00     0.023 A 
ATOM     57  C   UNL A   1      35.767  33.431  28.682  1.00  0.00     0.012 A 
ATOM     58  C   UNL A   1      35.683  33.266  31.069  1.00  0.00     0.148 A 
ATOM     59  C   UNL A   1      34.580  34.172  28.678  1.00  0.00     0.002 A 
ATOM     60  C   UNL A   1      34.495  34.001  31.069  1.00  0.00     0.091 A 
ATOM     61  F   UNL A   1      36.162  32.867  32.244  1.00  0.00    -0.205 F 
ATOM     62  C   UNL A   1      33.945  34.465  29.874  1.00  0.00     0.022 A 
BRANCH  60  63
ATOM     63  S   UNL A   1      33.625  34.438  32.589  1.00  0.00     0.127 S 
ATOM     64  O   UNL A   1      34.637  35.220  33.300  1.00  0.00    -0.237 OA
ATOM     65  O   UNL A   1      32.493  35.218  32.091  1.00  0.00    -0.237 OA
ATOM     66  O   UNL A   1      33.263  33.184  33.239  1.00  0.00    -0.744 OA
ENDBRANCH  60  63
ENDBRANCH  42  56
BRANCH  43  67
ATOM     67  C   UNL A   1      44.817  28.264  29.277  1.00  0.00     0.023 A 
ATOM     68  C   UNL A   1      45.379  27.065  29.773  1.00  0.00     0.012 A 
ATOM     69  C   UNL A   1      44.538  28.371  27.903  1.00  0.00     0.148 A 
ATOM     70  C   UNL A   1      45.534  25.953  28.944  1.00  0.00     0.002 A 
ATOM     71  C   UNL A   1      44.694  27.256  27.084  1.00  0.00     0.091 A 
ATOM     72  F   UNL A   1      44.035  29.520  27.438  1.00  0.00    -0.205 F 
ATOM     73  C   UNL A   1      45.158  26.040  27.608  1.00  0.00     0.022 A 
BRANCH  71  74
ATOM     74  S   UNL A   1      44.159  27.270  25.367  1.00  0.00     0.127 S 
ATOM     75  O   UNL A   1      43.799  25.870  25.165  1.00  0.00    -0.237 OA
ATOM     76  O   UNL A   1      43.033  28.202  25.405  1.00  0.00    -0.237 OA
ATOM     77  O   UNL A   1      45.309  27.758  24.621  1.00  0.00    -0.744 OA
ENDBRANCH  71  74
ENDBRANCH  43  67
BRANCH  55  78
ATOM     78  C   UNL A   1      42.578  35.094  29.647  1.00  0.00     0.023 A 
ATOM     79  C   UNL A   1      42.262  35.403  28.309  1.00  0.00     0.012 A 
ATOM     80  C   UNL A   1      43.224  36.102  30.406  1.00  0.00     0.148 A 
ATOM     81  C   UNL A   1      42.545  36.660  27.761  1.00  0.00     0.002 A 
ATOM     82  C   UNL A   1      43.600  37.309  29.826  1.00  0.00     0.091 A 
ATOM     83  F   UNL A   1      43.431  35.917  31.715  1.00  0.00    -0.205 F 
ATOM     84  C   UNL A   1      43.238  37.603  28.510  1.00  0.00     0.022 A 
BRANCH  82  85
ATOM     85  S   UNL A   1      44.672  38.484  30.667  1.00  0.00     0.127 S 
ATOM     86  O   UNL A   1      45.839  37.655  30.977  1.00  0.00    -0.237 OA
ATOM     87  O   UNL A   1      44.895  39.485  29.626  1.00  0.00    -0.237 OA
ATOM     88  O   UNL A   1      43.929  38.936  31.835  1.00  0.00    -0.744 OA
ENDBRANCH  82  85
ENDBRANCH  55  78
ENDBRANCH  29  30
ENDBRANCH  21  24
ENDBRANCH  19  20
ENDBRANCH   1  19
TORSDOF 15
ENDMDL
MODEL 2
REMARK VINA RESULT:     -12.1      4.494     10.144
REMARK SMILES Cc1ccc(S(=O)(=O)/C=C/C(=O)NCCCNC(=O)c2ccc(-c3c4nc(c(-c5cccc(S(=O)(=O)[O-])c5F)c5ccc([nH]5)c(-c5cccc(S(=O)(=O)[O-])c5F)c5nc(c(-c6cccc(S(=O)(=O)[O-])c6F)c6ccc3[nH]6)C=C5)C=C4)cc2)cc1
REMARK SMILES IDX 15 1 14 2 13 3 11 4 12 5 10 7 9 8 6 9 7 10 8 11 5 12 1 13
REMARK SMILES IDX 2 14 3 15 84 16 4 17 83 18 16 19 17 20 18 21 19 23 20 24
REMARK SMILES IDX 21 25 82 26 22 27 81 28 23 29 24 30 25 31 75 32 26 33 80 34
REMARK SMILES IDX 74 35 76 36 27 37 79 38 73 39 72 40 28 42 60 43 40 44 59 45
REMARK SMILES IDX 41 46 44 47 58 48 77 49 42 50 43 51 57 53 78 54 45 55 29 56
REMARK SMILES IDX 30 57 38 58 31 59 33 60 39 61 32 62 34 63 35 64 36 65 37 66
REMARK SMILES IDX 61 67 62 68 70 69 63 70 65 71 71 72 64 73 66 74 67 75 68 76
REMARK SMILES IDX 69 77 46 78 47 79 55 80 48 81 50 82 56 83 49 84 51 85 52 86
REMARK SMILES IDX 53 87 54 88
REMARK H PARENT 13 6 17 22 76 41 44 52
REMARK Flexibility Score: inf
ROOT
ATOM      1  C   UNL A   1      33.495  29.412  25.721  1.00  0.00     0.042 C 
ENDROOT
BRANCH   1   2
ATOM      2  C   UNL A   1      32.112  28.847  25.411  1.00  0.00     0.118 C 
BRANCH   2   3
ATOM      3  N   UNL A   1      31.494  29.523  24.275  1.00  0.00    -0.352 N 
ATOM      4  C   UNL A   1      31.025  28.966  23.125  1.00  0.00     0.244 C 
ATOM      5  O   UNL A   1      30.489  29.613  22.235  1.00  0.00    -0.270 OA
ATOM      6  H   UNL A   1      31.404  30.501  24.350  1.00  0.00     0.163 HD
BRANCH   4   7
ATOM      7  C   UNL A   1      31.160  27.511  22.986  1.00  0.00     0.083 C 
ATOM      8  C   UNL A   1      32.266  27.025  22.408  1.00  0.00     0.117 C 
BRANCH   8   9
ATOM      9  S   UNL A   1      32.446  25.318  22.264  1.00  0.00     0.200 S 
ATOM     10  O   UNL A   1      33.002  25.007  20.965  1.00  0.00    -0.219 OA
ATOM     11  O   UNL A   1      31.205  24.695  22.703  1.00  0.00    -0.219 OA
BRANCH   9  12
ATOM     12  C   UNL A   1      33.677  24.842  23.457  1.00  0.00     0.071 A 
ATOM     13  C   UNL A   1      36.877  23.705  26.087  1.00  0.00     0.044 C 
ATOM     14  C   UNL A   1      35.752  24.097  25.175  1.00  0.00    -0.051 A 
ATOM     15  C   UNL A   1      35.561  23.418  23.965  1.00  0.00     0.005 A 
ATOM     16  C   UNL A   1      34.874  25.126  25.533  1.00  0.00     0.005 A 
ATOM     17  C   UNL A   1      34.530  23.792  23.103  1.00  0.00     0.021 A 
ATOM     18  C   UNL A   1      33.833  25.498  24.681  1.00  0.00     0.021 A 
ENDBRANCH   9  12
ENDBRANCH   8   9
ENDBRANCH   4   7
ENDBRANCH   2   3
ENDBRANCH   1   2
BRANCH   1  19
ATOM     19  C   UNL A   1      33.596  29.916  27.151  1.00  0.00     0.118 C 
BRANCH  19  20
ATOM     20  N   UNL A   1      34.377  31.136  27.287  1.00  0.00    -0.352 N 
ATOM     21  C   UNL A   1      35.641  31.330  27.822  1.00  0.00     0.251 C 
ATOM     22  H   UNL A   1      33.940  31.950  26.947  1.00  0.00     0.163 HD
ATOM     23  O   UNL A   1      36.035  32.475  27.987  1.00  0.00    -0.269 OA
BRANCH  21  24
ATOM     24  C   UNL A   1      36.537  30.167  28.054  1.00  0.00     0.039 A 
ATOM     25  C   UNL A   1      36.544  29.573  29.325  1.00  0.00     0.014 A 
ATOM     26  C   UNL A   1      37.497  29.802  27.118  1.00  0.00     0.014 A 
ATOM     27  C   UNL A   1      37.646  28.822  29.733  1.00  0.00     0.010 A 
ATOM     28  C   UNL A   1      38.637  29.167  27.552  1.00  0.00     0.010 A 
ATOM     29  C   UNL A   1      38.735  28.728  28.877  1.00  0.00    -0.014 A 
BRANCH  29  30
ATOM     30  C   UNL A   1      40.039  28.178  29.207  1.00  0.00     0.031 A 
ATOM     31  C   UNL A   1      40.355  26.797  28.794  1.00  0.00     0.074 A 
ATOM     32  C   UNL A   1      41.024  29.028  29.571  1.00  0.00     0.049 A 
ATOM     33  N   UNL A   1      41.480  26.219  29.029  1.00  0.00    -0.248 NA
ATOM     34  C   UNL A   1      39.396  25.944  28.105  1.00  0.00     0.031 C 
ATOM     35  C   UNL A   1      42.460  28.840  29.403  1.00  0.00     0.029 A 
ATOM     36  N   UNL A   1      40.923  30.155  30.392  1.00  0.00    -0.354 N 
ATOM     37  C   UNL A   1      41.502  25.041  28.317  1.00  0.00     0.074 A 
ATOM     38  C   UNL A   1      40.149  24.871  27.849  1.00  0.00     0.031 C 
ATOM     39  C   UNL A   1      43.103  29.604  30.296  1.00  0.00     0.029 A 
ATOM     40  C   UNL A   1      42.093  30.157  31.180  1.00  0.00     0.049 A 
ATOM     41  H   UNL A   1      40.190  30.811  30.415  1.00  0.00     0.167 HD
ATOM     42  C   UNL A   1      42.705  24.427  28.131  1.00  0.00     0.034 A 
ATOM     43  C   UNL A   1      42.087  30.039  32.541  1.00  0.00     0.034 A 
ATOM     44  C   UNL A   1      43.736  25.036  28.989  1.00  0.00     0.049 A 
ATOM     45  C   UNL A   1      42.869  28.837  33.061  1.00  0.00     0.074 A 
ATOM     46  C   UNL A   1      44.788  25.918  28.808  1.00  0.00     0.029 A 
ATOM     47  N   UNL A   1      43.582  24.907  30.356  1.00  0.00    -0.354 N 
ATOM     48  N   UNL A   1      43.549  28.007  32.319  1.00  0.00    -0.248 NA
ATOM     49  C   UNL A   1      42.850  28.426  34.467  1.00  0.00     0.031 C 
ATOM     50  C   UNL A   1      45.227  26.349  30.099  1.00  0.00     0.029 A 
ATOM     51  C   UNL A   1      44.461  25.708  31.057  1.00  0.00     0.049 A 
ATOM     52  H   UNL A   1      42.922  24.313  30.781  1.00  0.00     0.167 HD
ATOM     53  C   UNL A   1      43.865  26.895  33.058  1.00  0.00     0.074 A 
ATOM     54  C   UNL A   1      43.464  27.232  34.413  1.00  0.00     0.031 C 
ATOM     55  C   UNL A   1      44.347  25.739  32.510  1.00  0.00     0.034 A 
BRANCH  42  56
ATOM     56  C   UNL A   1      43.040  23.362  27.101  1.00  0.00     0.023 A 
ATOM     57  C   UNL A   1      43.759  23.788  25.958  1.00  0.00     0.012 A 
ATOM     58  C   UNL A   1      42.642  22.004  27.099  1.00  0.00     0.148 A 
ATOM     59  C   UNL A   1      44.017  22.948  24.869  1.00  0.00     0.002 A 
ATOM     60  C   UNL A   1      42.903  21.161  26.017  1.00  0.00     0.091 A 
ATOM     61  F   UNL A   1      41.977  21.495  28.132  1.00  0.00    -0.205 F 
ATOM     62  C   UNL A   1      43.582  21.633  24.893  1.00  0.00     0.022 A 
BRANCH  60  63
ATOM     63  S   UNL A   1      42.348  19.443  25.970  1.00  0.00     0.127 S 
ATOM     64  O   UNL A   1      43.110  18.913  24.838  1.00  0.00    -0.237 OA
ATOM     65  O   UNL A   1      42.771  18.940  27.276  1.00  0.00    -0.237 OA
ATOM     66  O   UNL A   1      40.905  19.475  25.767  1.00  0.00    -0.744 OA
ENDBRANCH  60  63
ENDBRANCH  42  56
BRANCH  43  67
ATOM     67  C   UNL A   1      40.846  30.580  33.167  1.00  0.00     0.023 A 
ATOM     68  C   UNL A   1      39.630  29.928  32.858  1.00  0.00     0.012 A 
ATOM     69  C   UNL A   1      40.912  31.395  34.312  1.00  0.00     0.148 A 
ATOM     70  C   UNL A   1      38.548  29.980  33.737  1.00  0.00     0.002 A 
ATOM     71  C   UNL A   1      39.828  31.439  35.184  1.00  0.00     0.091 A 
ATOM     72  F   UNL A   1      42.058  32.031  34.581  1.00  0.00    -0.205 F 
ATOM     73  C   UNL A   1      38.661  30.708  34.917  1.00  0.00     0.022 A 
BRANCH  71  74
ATOM     74  S   UNL A   1      39.929  32.295  36.763  1.00  0.00     0.127 S 
ATOM     75  O   UNL A   1      38.717  31.824  37.425  1.00  0.00    -0.237 OA
ATOM     76  O   UNL A   1      41.180  31.776  37.314  1.00  0.00    -0.237 OA
ATOM     77  O   UNL A   1      39.972  33.708  36.420  1.00  0.00    -0.744 OA
ENDBRANCH  71  74
ENDBRANCH  43  67
BRANCH  55  78
ATOM     78  C   UNL A   1      44.730  24.522  33.326  1.00  0.00     0.023 A 
ATOM     79  C   UNL A   1      43.733  23.643  33.795  1.00  0.00     0.012 A 
ATOM     80  C   UNL A   1      46.052  24.302  33.787  1.00  0.00     0.148 A 
ATOM     81  C   UNL A   1      44.039  22.579  34.653  1.00  0.00     0.002 A 
ATOM     82  C   UNL A   1      46.332  23.312  34.722  1.00  0.00     0.091 A 
ATOM     83  F   UNL A   1      47.061  25.019  33.276  1.00  0.00    -0.205 F 
ATOM     84  C   UNL A   1      45.333  22.430  35.138  1.00  0.00     0.022 A 
BRANCH  82  85
ATOM     85  S   UNL A   1      47.929  23.194  35.544  1.00  0.00     0.127 S 
ATOM     86  O   UNL A   1      48.802  22.786  34.441  1.00  0.00    -0.237 OA
ATOM     87  O   UNL A   1      48.130  24.565  36.006  1.00  0.00    -0.237 OA
ATOM     88  O   UNL A   1      47.768  22.188  36.585  1.00  0.00    -0.744 OA
ENDBRANCH  82  85
ENDBRANCH  55  78
ENDBRANCH  29  30
ENDBRANCH  21  24
ENDBRANCH  19  20
ENDBRANCH   1  19
TORSDOF 15
ENDMDL
MODEL 3
REMARK VINA RESULT:     -11.9      4.113      9.768
REMARK SMILES Cc1ccc(S(=O)(=O)/C=C/C(=O)NCCCNC(=O)c2ccc(-c3c4nc(c(-c5cccc(S(=O)(=O)[O-])c5F)c5ccc([nH]5)c(-c5cccc(S(=O)(=O)[O-])c5F)c5nc(c(-c6cccc(S(=O)(=O)[O-])c6F)c6ccc3[nH]6)C=C5)C=C4)cc2)cc1
REMARK SMILES IDX 15 1 14 2 13 3 11 4 12 5 10 7 9 8 6 9 7 10 8 11 5 12 1 13
REMARK SMILES IDX 2 14 3 15 84 16 4 17 83 18 16 19 17 20 18 21 19 23 20 24
REMARK SMILES IDX 21 25 82 26 22 27 81 28 23 29 24 30 25 31 75 32 26 33 80 34
REMARK SMILES IDX 74 35 76 36 27 37 79 38 73 39 72 40 28 42 60 43 40 44 59 45
REMARK SMILES IDX 41 46 44 47 58 48 77 49 42 50 43 51 57 53 78 54 45 55 29 56
REMARK SMILES IDX 30 57 38 58 31 59 33 60 39 61 32 62 34 63 35 64 36 65 37 66
REMARK SMILES IDX 61 67 62 68 70 69 63 70 65 71 71 72 64 73 66 74 67 75 68 76
REMARK SMILES IDX 69 77 46 78 47 79 55 80 48 81 50 82 56 83 49 84 51 85 52 86
REMARK SMILES IDX 53 87 54 88
REMARK H PARENT 13 6 17 22 76 41 44 52
REMARK Flexibility Score: inf
ROOT
ATOM      1  C   UNL A   1      33.609  29.340  26.107  1.00  0.00     0.042 C 
ENDROOT
BRANCH   1   2
ATOM      2  C   UNL A   1      33.759  27.826  25.994  1.00  0.00     0.118 C 
BRANCH   2   3
ATOM      3  N   UNL A   1      32.531  27.132  26.366  1.00  0.00    -0.352 N 
ATOM      4  C   UNL A   1      32.298  25.790  26.369  1.00  0.00     0.244 C 
ATOM      5  O   UNL A   1      31.238  25.294  26.730  1.00  0.00    -0.270 OA
ATOM      6  H   UNL A   1      31.780  27.702  26.649  1.00  0.00     0.163 HD
BRANCH   4   7
ATOM      7  C   UNL A   1      33.399  24.921  25.938  1.00  0.00     0.083 C 
ATOM      8  C   UNL A   1      33.422  24.503  24.666  1.00  0.00     0.117 C 
BRANCH   8   9
ATOM      9  S   UNL A   1      34.725  23.504  24.143  1.00  0.00     0.200 S 
ATOM     10  O   UNL A   1      35.862  23.715  25.011  1.00  0.00    -0.219 OA
ATOM     11  O   UNL A   1      34.860  23.658  22.701  1.00  0.00    -0.219 OA
BRANCH   9  12
ATOM     12  C   UNL A   1      34.204  21.824  24.406  1.00  0.00     0.071 A 
ATOM     13  C   UNL A   1      32.780  17.787  24.747  1.00  0.00     0.044 C 
ATOM     14  C   UNL A   1      33.278  19.197  24.639  1.00  0.00    -0.051 A 
ATOM     15  C   UNL A   1      32.382  20.238  24.367  1.00  0.00     0.005 A 
ATOM     16  C   UNL A   1      34.634  19.488  24.830  1.00  0.00     0.005 A 
ATOM     17  C   UNL A   1      32.843  21.549  24.244  1.00  0.00     0.021 A 
ATOM     18  C   UNL A   1      35.100  20.799  24.719  1.00  0.00     0.021 A 
ENDBRANCH   9  12
ENDBRANCH   8   9
ENDBRANCH   4   7
ENDBRANCH   2   3
ENDBRANCH   1   2
BRANCH   1  19
ATOM     19  C   UNL A   1      33.346  29.781  27.537  1.00  0.00     0.118 C 
BRANCH  19  20
ATOM     20  N   UNL A   1      33.948  31.061  27.876  1.00  0.00    -0.352 N 
ATOM     21  C   UNL A   1      35.171  31.343  28.464  1.00  0.00     0.251 C 
ATOM     22  H   UNL A   1      33.402  31.849  27.653  1.00  0.00     0.163 HD
ATOM     23  O   UNL A   1      35.401  32.493  28.810  1.00  0.00    -0.269 OA
BRANCH  21  24
ATOM     24  C   UNL A   1      36.221  30.293  28.538  1.00  0.00     0.039 A 
ATOM     25  C   UNL A   1      36.494  29.711  29.785  1.00  0.00     0.014 A 
ATOM     26  C   UNL A   1      37.058  30.037  27.460  1.00  0.00     0.014 A 
ATOM     27  C   UNL A   1      37.726  29.094  30.007  1.00  0.00     0.010 A 
ATOM     28  C   UNL A   1      38.317  29.540  27.702  1.00  0.00     0.010 A 
ATOM     29  C   UNL A   1      38.671  29.123  28.990  1.00  0.00    -0.014 A 
BRANCH  29  30
ATOM     30  C   UNL A   1      40.065  28.729  29.106  1.00  0.00     0.031 A 
ATOM     31  C   UNL A   1      40.427  27.316  28.887  1.00  0.00     0.074 A 
ATOM     32  C   UNL A   1      41.011  29.694  29.075  1.00  0.00     0.049 A 
ATOM     33  N   UNL A   1      41.630  26.865  28.958  1.00  0.00    -0.248 NA
ATOM     34  C   UNL A   1      39.437  26.287  28.602  1.00  0.00     0.031 C 
ATOM     35  C   UNL A   1      42.390  29.563  28.619  1.00  0.00     0.029 A 
ATOM     36  N   UNL A   1      40.973  30.953  29.680  1.00  0.00    -0.354 N 
ATOM     37  C   UNL A   1      41.622  25.573  28.484  1.00  0.00     0.074 A 
ATOM     38  C   UNL A   1      40.225  25.231  28.377  1.00  0.00     0.031 C 
ATOM     39  C   UNL A   1      43.126  30.526  29.188  1.00  0.00     0.029 A 
ATOM     40  C   UNL A   1      42.277  31.182  30.165  1.00  0.00     0.049 A 
ATOM     41  H   UNL A   1      40.197  31.554  29.752  1.00  0.00     0.167 HD
ATOM     42  C   UNL A   1      42.814  25.008  28.141  1.00  0.00     0.034 A 
ATOM     43  C   UNL A   1      42.574  31.337  31.490  1.00  0.00     0.034 A 
ATOM     44  C   UNL A   1      43.936  25.837  28.616  1.00  0.00     0.049 A 
ATOM     45  C   UNL A   1      43.569  30.312  32.025  1.00  0.00     0.074 A 
ATOM     46  C   UNL A   1      44.827  26.727  28.042  1.00  0.00     0.029 A 
ATOM     47  N   UNL A   1      44.091  25.974  29.982  1.00  0.00    -0.354 N 
ATOM     48  N   UNL A   1      44.157  29.393  31.308  1.00  0.00    -0.248 NA
ATOM     49  C   UNL A   1      43.893  30.188  33.448  1.00  0.00     0.031 C 
ATOM     50  C   UNL A   1      45.485  27.433  29.098  1.00  0.00     0.029 A 
ATOM     51  C   UNL A   1      45.012  26.949  30.306  1.00  0.00     0.049 A 
ATOM     52  H   UNL A   1      43.602  25.436  30.646  1.00  0.00     0.167 HD
ATOM     53  C   UNL A   1      44.737  28.472  32.143  1.00  0.00     0.074 A 
ATOM     54  C   UNL A   1      44.602  29.047  33.470  1.00  0.00     0.031 C 
ATOM     55  C   UNL A   1      45.208  27.262  31.716  1.00  0.00     0.034 A 
BRANCH  42  56
ATOM     56  C   UNL A   1      43.030  23.782  27.270  1.00  0.00     0.023 A 
ATOM     57  C   UNL A   1      43.924  23.926  26.182  1.00  0.00     0.012 A 
ATOM     58  C   UNL A   1      42.375  22.531  27.361  1.00  0.00     0.148 A 
ATOM     59  C   UNL A   1      44.114  22.926  25.222  1.00  0.00     0.002 A 
ATOM     60  C   UNL A   1      42.567  21.528  26.408  1.00  0.00     0.091 A 
ATOM     61  F   UNL A   1      41.528  22.283  28.355  1.00  0.00    -0.205 F 
ATOM     62  C   UNL A   1      43.429  21.726  25.329  1.00  0.00     0.022 A 
BRANCH  60  63
ATOM     63  S   UNL A   1      41.693  19.950  26.471  1.00  0.00     0.127 S 
ATOM     64  O   UNL A   1      42.240  19.257  25.304  1.00  0.00    -0.237 OA
ATOM     65  O   UNL A   1      42.122  19.404  27.758  1.00  0.00    -0.237 OA
ATOM     66  O   UNL A   1      40.270  20.255  26.382  1.00  0.00    -0.744 OA
ENDBRANCH  60  63
ENDBRANCH  42  56
BRANCH  43  67
ATOM     67  C   UNL A   1      41.446  31.915  32.276  1.00  0.00     0.023 A 
ATOM     68  C   UNL A   1      41.101  33.261  32.016  1.00  0.00     0.012 A 
ATOM     69  C   UNL A   1      40.510  31.082  32.915  1.00  0.00     0.148 A 
ATOM     70  C   UNL A   1      39.810  33.729  32.263  1.00  0.00     0.002 A 
ATOM     71  C   UNL A   1      39.224  31.556  33.157  1.00  0.00     0.091 A 
ATOM     72  F   UNL A   1      40.856  29.817  33.184  1.00  0.00    -0.205 F 
ATOM     73  C   UNL A   1      38.863  32.864  32.802  1.00  0.00     0.022 A 
BRANCH  71  74
ATOM     74  S   UNL A   1      37.926  30.476  33.777  1.00  0.00     0.127 S 
ATOM     75  O   UNL A   1      38.422  29.165  33.371  1.00  0.00    -0.237 OA
ATOM     76  O   UNL A   1      37.970  30.739  35.215  1.00  0.00    -0.237 OA
ATOM     77  O   UNL A   1      36.711  30.939  33.125  1.00  0.00    -0.744 OA
ENDBRANCH  71  74
ENDBRANCH  43  67
BRANCH  55  78
ATOM     78  C   UNL A   1      45.880  26.257  32.629  1.00  0.00     0.023 A 
ATOM     79  C   UNL A   1      47.278  26.082  32.582  1.00  0.00     0.012 A 
ATOM     80  C   UNL A   1      45.143  25.350  33.431  1.00  0.00     0.148 A 
ATOM     81  C   UNL A   1      47.915  25.078  33.321  1.00  0.00     0.002 A 
ATOM     82  C   UNL A   1      45.769  24.289  34.076  1.00  0.00     0.091 A 
ATOM     83  F   UNL A   1      43.833  25.544  33.620  1.00  0.00    -0.205 F 
ATOM     84  C   UNL A   1      47.159  24.164  34.046  1.00  0.00     0.022 A 
BRANCH  82  85
ATOM     85  S   UNL A   1      44.841  22.959  34.857  1.00  0.00     0.127 S 
ATOM     86  O   UNL A   1      44.263  23.640  36.018  1.00  0.00    -0.237 OA
ATOM     87  O   UNL A   1      43.879  22.612  33.814  1.00  0.00    -0.237 OA
ATOM     88  O   UNL A   1      45.818  21.932  35.188  1.00  0.00    -0.744 OA
ENDBRANCH  82  85
ENDBRANCH  55  78
ENDBRANCH  29  30
ENDBRANCH  21  24
ENDBRANCH  19  20
ENDBRANCH   1  19
TORSDOF 15
ENDMDL
