MODEL 1
REMARK VINA RESULT:     -11.1      0.000      0.000
REMARK SMILES CN(/C=C\C(=O)NCCCNC(=O)c1ccc(-c2c3nc(c(-c4cccc(S(=O)(=O)[O-])c4F)c4ccc([nH]4)c(-c4cccc(S(=O)(=O)[O-])c4F)c4nc(c(-c5cccc(S(=O)(=O)[O-])c5F)c5ccc2[nH]5)C=C4)C=C3)cc1)C[C@@H]1CCCO1
REMARK SMILES IDX 9 1 8 2 7 3 5 4 6 5 4 7 3 8 2 9 1 10 77 11 78 12 79 13 82 14
REMARK SMILES IDX 80 15 81 16 10 17 11 18 12 19 13 21 14 22 15 23 76 24 16 25
REMARK SMILES IDX 75 26 17 27 18 28 19 29 69 30 20 31 74 32 68 33 70 34 21 35
REMARK SMILES IDX 73 36 67 37 66 38 22 40 54 41 34 42 53 43 35 44 38 45 52 46
REMARK SMILES IDX 71 47 36 48 37 49 51 51 72 52 39 53 23 54 24 55 32 56 25 57
REMARK SMILES IDX 27 58 33 59 26 60 28 61 29 62 30 63 31 64 55 65 56 66 64 67
REMARK SMILES IDX 57 68 59 69 65 70 58 71 60 72 61 73 62 74 63 75 40 76 41 77
REMARK SMILES IDX 49 78 42 79 44 80 50 81 43 82 45 83 46 84 47 85 48 86
REMARK H PARENT 7 6 11 20 70 39 38 50
REMARK Flexibility Score: inf
ROOT
ATOM      1  C   UNL A   1      36.734  21.856  23.946  1.00  0.00     0.042 C 
ENDROOT
BRANCH   1   2
ATOM      2  C   UNL A   1      36.503  23.316  23.615  1.00  0.00     0.118 C 
BRANCH   2   3
ATOM      3  N   UNL A   1      35.779  24.049  24.643  1.00  0.00    -0.352 N 
ATOM      4  C   UNL A   1      34.427  24.138  24.797  1.00  0.00     0.245 C 
ATOM      5  O   UNL A   1      33.933  24.752  25.739  1.00  0.00    -0.270 OA
ATOM      6  H   UNL A   1      36.326  24.535  25.302  1.00  0.00     0.163 HD
BRANCH   4   7
ATOM      7  C   UNL A   1      33.564  23.578  23.739  1.00  0.00     0.088 C 
ATOM      8  C   UNL A   1      32.737  22.536  23.884  1.00  0.00     0.086 C 
BRANCH   8   9
ATOM      9  N   UNL A   1      32.370  21.794  25.004  1.00  0.00    -0.378 N 
ATOM     10  C   UNL A   1      31.182  22.203  25.756  1.00  0.00     0.143 C 
BRANCH   9  11
ATOM     11  C   UNL A   1      33.355  20.904  25.670  1.00  0.00     0.147 C 
BRANCH  11  12
ATOM     12  C   UNL A   1      33.262  19.392  25.376  1.00  0.00     0.137 C 
ATOM     13  C   UNL A   1      34.504  18.918  24.626  1.00  0.00     0.036 C 
ATOM     14  O   UNL A   1      32.152  19.034  24.524  1.00  0.00    -0.376 OA
ATOM     15  C   UNL A   1      34.013  17.656  23.971  1.00  0.00     0.031 C 
ATOM     16  C   UNL A   1      32.598  18.032  23.591  1.00  0.00     0.160 C 
ENDBRANCH  11  12
ENDBRANCH   9  11
ENDBRANCH   8   9
ENDBRANCH   4   7
ENDBRANCH   2   3
ENDBRANCH   1   2
BRANCH   1  17
ATOM     17  C   UNL A   1      37.165  21.610  25.381  1.00  0.00     0.118 C 
BRANCH  17  18
ATOM     18  N   UNL A   1      38.375  20.804  25.515  1.00  0.00    -0.352 N 
ATOM     19  C   UNL A   1      39.581  21.074  26.129  1.00  0.00     0.251 C 
ATOM     20  H   UNL A   1      38.322  19.915  25.097  1.00  0.00     0.163 HD
ATOM     21  O   UNL A   1      40.488  20.248  26.113  1.00  0.00    -0.269 OA
BRANCH  19  22
ATOM     22  C   UNL A   1      39.811  22.401  26.745  1.00  0.00     0.039 A 
ATOM     23  C   UNL A   1      40.780  22.521  27.747  1.00  0.00     0.014 A 
ATOM     24  C   UNL A   1      39.158  23.535  26.276  1.00  0.00     0.014 A 
ATOM     25  C   UNL A   1      41.191  23.791  28.162  1.00  0.00     0.010 A 
ATOM     26  C   UNL A   1      39.670  24.790  26.578  1.00  0.00     0.010 A 
ATOM     27  C   UNL A   1      40.702  24.938  27.517  1.00  0.00    -0.014 A 
BRANCH  27  28
ATOM     28  C   UNL A   1      41.264  26.296  27.771  1.00  0.00     0.031 A 
ATOM     29  C   UNL A   1      42.662  26.632  27.310  1.00  0.00     0.074 A 
ATOM     30  C   UNL A   1      40.585  27.173  28.540  1.00  0.00     0.049 A 
ATOM     31  N   UNL A   1      43.389  27.684  27.580  1.00  0.00    -0.248 NA
ATOM     32  C   UNL A   1      43.355  25.627  26.486  1.00  0.00     0.031 C 
ATOM     33  C   UNL A   1      39.276  26.933  29.157  1.00  0.00     0.029 A 
ATOM     34  N   UNL A   1      40.915  28.437  28.966  1.00  0.00    -0.354 N 
ATOM     35  C   UNL A   1      44.642  27.431  27.034  1.00  0.00     0.074 A 
ATOM     36  C   UNL A   1      44.587  26.112  26.445  1.00  0.00     0.031 C 
ATOM     37  C   UNL A   1      38.909  28.016  29.861  1.00  0.00     0.029 A 
ATOM     38  C   UNL A   1      39.966  29.017  29.779  1.00  0.00     0.049 A 
ATOM     39  H   UNL A   1      41.754  28.888  28.712  1.00  0.00     0.167 HD
ATOM     40  C   UNL A   1      45.730  28.236  26.988  1.00  0.00     0.034 A 
ATOM     41  C   UNL A   1      39.948  30.219  30.390  1.00  0.00     0.034 A 
ATOM     42  C   UNL A   1      45.740  29.592  27.460  1.00  0.00     0.049 A 
ATOM     43  C   UNL A   1      41.111  31.153  30.189  1.00  0.00     0.074 A 
ATOM     44  C   UNL A   1      46.739  30.540  27.332  1.00  0.00     0.029 A 
ATOM     45  N   UNL A   1      44.690  30.201  28.129  1.00  0.00    -0.354 N 
ATOM     46  N   UNL A   1      42.220  30.956  29.519  1.00  0.00    -0.248 NA
ATOM     47  C   UNL A   1      41.007  32.489  30.794  1.00  0.00     0.031 C 
ATOM     48  C   UNL A   1      46.291  31.727  27.919  1.00  0.00     0.029 A 
ATOM     49  C   UNL A   1      45.011  31.517  28.410  1.00  0.00     0.049 A 
ATOM     50  H   UNL A   1      43.842  29.764  28.368  1.00  0.00     0.167 HD
ATOM     51  C   UNL A   1      42.928  32.150  29.593  1.00  0.00     0.074 A 
ATOM     52  C   UNL A   1      42.112  33.074  30.351  1.00  0.00     0.031 C 
ATOM     53  C   UNL A   1      44.154  32.446  29.097  1.00  0.00     0.034 A 
BRANCH  40  54
ATOM     54  C   UNL A   1      46.972  27.704  26.324  1.00  0.00     0.023 A 
ATOM     55  C   UNL A   1      47.900  26.962  27.082  1.00  0.00     0.012 A 
ATOM     56  C   UNL A   1      47.192  27.884  24.943  1.00  0.00     0.148 A 
ATOM     57  C   UNL A   1      49.048  26.438  26.488  1.00  0.00     0.002 A 
ATOM     58  C   UNL A   1      48.316  27.320  24.349  1.00  0.00     0.091 A 
ATOM     59  F   UNL A   1      46.308  28.607  24.242  1.00  0.00    -0.205 F 
ATOM     60  C   UNL A   1      49.250  26.608  25.121  1.00  0.00     0.022 A 
BRANCH  58  61
ATOM     61  S   UNL A   1      48.631  27.411  22.582  1.00  0.00     0.127 S 
ATOM     62  O   UNL A   1      47.500  28.215  22.122  1.00  0.00    -0.237 OA
ATOM     63  O   UNL A   1      49.923  28.095  22.536  1.00  0.00    -0.237 OA
ATOM     64  O   UNL A   1      48.653  26.034  22.106  1.00  0.00    -0.744 OA
ENDBRANCH  58  61
ENDBRANCH  40  54
BRANCH  41  65
ATOM     65  C   UNL A   1      38.750  30.649  31.168  1.00  0.00     0.023 A 
ATOM     66  C   UNL A   1      38.718  30.412  32.557  1.00  0.00     0.012 A 
ATOM     67  C   UNL A   1      37.662  31.304  30.561  1.00  0.00     0.148 A 
ATOM     68  C   UNL A   1      37.610  30.784  33.320  1.00  0.00     0.002 A 
ATOM     69  C   UNL A   1      36.583  31.720  31.336  1.00  0.00     0.091 A 
ATOM     70  F   UNL A   1      37.699  31.511  29.238  1.00  0.00    -0.205 F 
ATOM     71  C   UNL A   1      36.547  31.445  32.712  1.00  0.00     0.022 A 
BRANCH  69  72
ATOM     72  S   UNL A   1      35.240  32.696  30.650  1.00  0.00     0.127 S 
ATOM     73  O   UNL A   1      35.926  33.929  30.275  1.00  0.00    -0.237 OA
ATOM     74  O   UNL A   1      34.800  31.871  29.523  1.00  0.00    -0.237 OA
ATOM     75  O   UNL A   1      34.261  32.806  31.722  1.00  0.00    -0.744 OA
ENDBRANCH  69  72
ENDBRANCH  41  65
BRANCH  53  76
ATOM     76  C   UNL A   1      44.682  33.836  29.320  1.00  0.00     0.023 A 
ATOM     77  C   UNL A   1      45.397  34.128  30.497  1.00  0.00     0.012 A 
ATOM     78  C   UNL A   1      44.555  34.822  28.321  1.00  0.00     0.148 A 
ATOM     79  C   UNL A   1      45.958  35.388  30.689  1.00  0.00     0.002 A 
ATOM     80  C   UNL A   1      45.155  36.063  28.501  1.00  0.00     0.091 A 
ATOM     81  F   UNL A   1      43.852  34.530  27.216  1.00  0.00    -0.205 F 
ATOM     82  C   UNL A   1      45.850  36.351  29.687  1.00  0.00     0.022 A 
BRANCH  80  83
ATOM     83  S   UNL A   1      45.143  37.322  27.219  1.00  0.00     0.127 S 
ATOM     84  O   UNL A   1      45.800  38.440  27.894  1.00  0.00    -0.237 OA
ATOM     85  O   UNL A   1      45.937  36.698  26.159  1.00  0.00    -0.237 OA
ATOM     86  O   UNL A   1      43.742  37.527  26.877  1.00  0.00    -0.744 OA
ENDBRANCH  80  83
ENDBRANCH  53  76
ENDBRANCH  27  28
ENDBRANCH  19  22
ENDBRANCH  17  18
ENDBRANCH   1  17
TORSDOF 16
ENDMDL
MODEL 2
REMARK VINA RESULT:     -11.0      1.219      2.531
REMARK SMILES CN(/C=C\C(=O)NCCCNC(=O)c1ccc(-c2c3nc(c(-c4cccc(S(=O)(=O)[O-])c4F)c4ccc([nH]4)c(-c4cccc(S(=O)(=O)[O-])c4F)c4nc(c(-c5cccc(S(=O)(=O)[O-])c5F)c5ccc2[nH]5)C=C4)C=C3)cc1)C[C@@H]1CCCO1
REMARK SMILES IDX 9 1 8 2 7 3 5 4 6 5 4 7 3 8 2 9 1 10 77 11 78 12 79 13 82 14
REMARK SMILES IDX 80 15 81 16 10 17 11 18 12 19 13 21 14 22 15 23 76 24 16 25
REMARK SMILES IDX 75 26 17 27 18 28 19 29 69 30 20 31 74 32 68 33 70 34 21 35
REMARK SMILES IDX 73 36 67 37 66 38 22 40 54 41 34 42 53 43 35 44 38 45 52 46
REMARK SMILES IDX 71 47 36 48 37 49 51 51 72 52 39 53 23 54 24 55 32 56 25 57
REMARK SMILES IDX 27 58 33 59 26 60 28 61 29 62 30 63 31 64 55 65 56 66 64 67
REMARK SMILES IDX 57 68 59 69 65 70 58 71 60 72 61 73 62 74 63 75 40 76 41 77
REMARK SMILES IDX 49 78 42 79 44 80 50 81 43 82 45 83 46 84 47 85 48 86
REMARK H PARENT 7 6 11 20 70 39 38 50
REMARK Flexibility Score: inf
ROOT
ATOM      1  C   UNL A   1      36.169  21.446  25.765  1.00  0.00     0.042 C 
ENDROOT
BRANCH   1   2
ATOM      2  C   UNL A   1      35.403  20.417  24.958  1.00  0.00     0.118 C 
BRANCH   2   3
ATOM      3  N   UNL A   1      34.039  20.200  25.418  1.00  0.00    -0.352 N 
ATOM      4  C   UNL A   1      32.893  20.687  24.863  1.00  0.00     0.245 C 
ATOM      5  O   UNL A   1      31.791  20.392  25.318  1.00  0.00    -0.270 OA
ATOM      6  H   UNL A   1      33.932  19.640  26.220  1.00  0.00     0.163 HD
BRANCH   4   7
ATOM      7  C   UNL A   1      33.009  21.672  23.770  1.00  0.00     0.088 C 
ATOM      8  C   UNL A   1      32.807  22.990  23.889  1.00  0.00     0.086 C 
BRANCH   8   9
ATOM      9  N   UNL A   1      32.564  23.793  25.002  1.00  0.00    -0.378 N 
ATOM     10  C   UNL A   1      33.675  24.081  25.911  1.00  0.00     0.143 C 
BRANCH   9  11
ATOM     11  C   UNL A   1      31.177  23.992  25.494  1.00  0.00     0.147 C 
BRANCH  11  12
ATOM     12  C   UNL A   1      30.665  25.443  25.608  1.00  0.00     0.137 C 
ATOM     13  C   UNL A   1      31.210  26.292  24.461  1.00  0.00     0.036 C 
ATOM     14  O   UNL A   1      31.094  26.120  26.809  1.00  0.00    -0.376 OA
ATOM     15  C   UNL A   1      31.089  27.684  25.015  1.00  0.00     0.031 C 
ATOM     16  C   UNL A   1      31.445  27.475  26.470  1.00  0.00     0.160 C 
ENDBRANCH  11  12
ENDBRANCH   9  11
ENDBRANCH   8   9
ENDBRANCH   4   7
ENDBRANCH   2   3
ENDBRANCH   1   2
BRANCH   1  17
ATOM     17  C   UNL A   1      37.491  21.860  25.141  1.00  0.00     0.118 C 
BRANCH  17  18
ATOM     18  N   UNL A   1      38.613  20.987  25.476  1.00  0.00    -0.352 N 
ATOM     19  C   UNL A   1      39.719  21.198  26.272  1.00  0.00     0.251 C 
ATOM     20  H   UNL A   1      38.574  20.096  25.061  1.00  0.00     0.163 HD
ATOM     21  O   UNL A   1      40.566  20.321  26.410  1.00  0.00    -0.269 OA
BRANCH  19  22
ATOM     22  C   UNL A   1      39.927  22.520  26.906  1.00  0.00     0.039 A 
ATOM     23  C   UNL A   1      40.931  22.657  27.870  1.00  0.00     0.014 A 
ATOM     24  C   UNL A   1      39.215  23.639  26.488  1.00  0.00     0.014 A 
ATOM     25  C   UNL A   1      41.313  23.932  28.295  1.00  0.00     0.010 A 
ATOM     26  C   UNL A   1      39.694  24.905  26.794  1.00  0.00     0.010 A 
ATOM     27  C   UNL A   1      40.758  25.073  27.694  1.00  0.00    -0.014 A 
BRANCH  27  28
ATOM     28  C   UNL A   1      41.282  26.445  27.953  1.00  0.00     0.031 A 
ATOM     29  C   UNL A   1      42.706  26.789  27.592  1.00  0.00     0.074 A 
ATOM     30  C   UNL A   1      40.533  27.333  28.642  1.00  0.00     0.049 A 
ATOM     31  N   UNL A   1      43.397  27.860  27.888  1.00  0.00    -0.248 NA
ATOM     32  C   UNL A   1      43.475  25.773  26.853  1.00  0.00     0.031 C 
ATOM     33  C   UNL A   1      39.184  27.090  29.162  1.00  0.00     0.029 A 
ATOM     34  N   UNL A   1      40.813  28.613  29.057  1.00  0.00    -0.354 N 
ATOM     35  C   UNL A   1      44.692  27.610  27.449  1.00  0.00     0.074 A 
ATOM     36  C   UNL A   1      44.700  26.276  26.894  1.00  0.00     0.031 C 
ATOM     37  C   UNL A   1      38.749  28.186  29.805  1.00  0.00     0.029 A 
ATOM     38  C   UNL A   1      39.797  29.200  29.777  1.00  0.00     0.049 A 
ATOM     39  H   UNL A   1      41.663  29.069  28.857  1.00  0.00     0.167 HD
ATOM     40  C   UNL A   1      45.770  28.429  27.465  1.00  0.00     0.034 A 
ATOM     41  C   UNL A   1      39.715  30.418  30.352  1.00  0.00     0.034 A 
ATOM     42  C   UNL A   1      45.725  29.798  27.898  1.00  0.00     0.049 A 
ATOM     43  C   UNL A   1      40.879  31.363  30.216  1.00  0.00     0.074 A 
ATOM     44  C   UNL A   1      46.720  30.757  27.822  1.00  0.00     0.029 A 
ATOM     45  N   UNL A   1      44.619  30.409  28.467  1.00  0.00    -0.354 N 
ATOM     46  N   UNL A   1      42.039  31.164  29.639  1.00  0.00    -0.248 NA
ATOM     47  C   UNL A   1      40.711  32.713  30.774  1.00  0.00     0.031 C 
ATOM     48  C   UNL A   1      46.212  31.952  28.339  1.00  0.00     0.029 A 
ATOM     49  C   UNL A   1      44.901  31.737  28.735  1.00  0.00     0.049 A 
ATOM     50  H   UNL A   1      43.761  29.966  28.651  1.00  0.00     0.167 HD
ATOM     51  C   UNL A   1      42.724  32.370  29.734  1.00  0.00     0.074 A 
ATOM     52  C   UNL A   1      41.840  33.302  30.401  1.00  0.00     0.031 C 
ATOM     53  C   UNL A   1      43.981  32.671  29.328  1.00  0.00     0.034 A 
BRANCH  40  54
ATOM     54  C   UNL A   1      47.066  27.899  26.914  1.00  0.00     0.023 A 
ATOM     55  C   UNL A   1      48.043  27.399  27.799  1.00  0.00     0.012 A 
ATOM     56  C   UNL A   1      47.295  27.837  25.524  1.00  0.00     0.148 A 
ATOM     57  C   UNL A   1      49.244  26.881  27.316  1.00  0.00     0.002 A 
ATOM     58  C   UNL A   1      48.476  27.276  25.048  1.00  0.00     0.091 A 
ATOM     59  F   UNL A   1      46.363  28.332  24.698  1.00  0.00    -0.205 F 
ATOM     60  C   UNL A   1      49.455  26.810  25.941  1.00  0.00     0.022 A 
BRANCH  58  61
ATOM     61  S   UNL A   1      48.814  27.064  23.296  1.00  0.00     0.127 S 
ATOM     62  O   UNL A   1      48.119  25.809  23.012  1.00  0.00    -0.237 OA
ATOM     63  O   UNL A   1      48.186  28.252  22.716  1.00  0.00    -0.237 OA
ATOM     64  O   UNL A   1      50.264  27.019  23.169  1.00  0.00    -0.744 OA
ENDBRANCH  58  61
ENDBRANCH  40  54
BRANCH  41  65
ATOM     65  C   UNL A   1      38.455  30.850  31.022  1.00  0.00     0.023 A 
ATOM     66  C   UNL A   1      38.302  30.614  32.404  1.00  0.00     0.012 A 
ATOM     67  C   UNL A   1      37.426  31.507  30.323  1.00  0.00     0.148 A 
ATOM     68  C   UNL A   1      37.133  30.989  33.066  1.00  0.00     0.002 A 
ATOM     69  C   UNL A   1      36.284  31.925  31.001  1.00  0.00     0.091 A 
ATOM     70  F   UNL A   1      37.578  31.714  29.007  1.00  0.00    -0.205 F 
ATOM     71  C   UNL A   1      36.128  31.652  32.368  1.00  0.00     0.022 A 
BRANCH  69  72
ATOM     72  S   UNL A   1      35.008  32.905  30.199  1.00  0.00     0.127 S 
ATOM     73  O   UNL A   1      34.466  31.957  29.230  1.00  0.00    -0.237 OA
ATOM     74  O   UNL A   1      34.114  33.223  31.314  1.00  0.00    -0.237 OA
ATOM     75  O   UNL A   1      35.704  34.060  29.649  1.00  0.00    -0.744 OA
ENDBRANCH  69  72
ENDBRANCH  41  65
BRANCH  53  76
ATOM     76  C   UNL A   1      44.473  34.074  29.551  1.00  0.00     0.023 A 
ATOM     77  C   UNL A   1      45.066  34.414  30.782  1.00  0.00     0.012 A 
ATOM     78  C   UNL A   1      44.435  35.023  28.511  1.00  0.00     0.148 A 
ATOM     79  C   UNL A   1      45.595  35.687  30.984  1.00  0.00     0.002 A 
ATOM     80  C   UNL A   1      45.004  36.277  28.705  1.00  0.00     0.091 A 
ATOM     81  F   UNL A   1      43.846  34.686  27.354  1.00  0.00    -0.205 F 
ATOM     82  C   UNL A   1      45.576  36.614  29.942  1.00  0.00     0.022 A 
BRANCH  80  83
ATOM     83  S   UNL A   1      45.106  37.492  27.385  1.00  0.00     0.127 S 
ATOM     84  O   UNL A   1      45.764  38.610  28.059  1.00  0.00    -0.237 OA
ATOM     85  O   UNL A   1      45.934  36.806  26.391  1.00  0.00    -0.237 OA
ATOM     86  O   UNL A   1      43.734  37.732  26.959  1.00  0.00    -0.744 OA
ENDBRANCH  80  83
ENDBRANCH  53  76
ENDBRANCH  27  28
ENDBRANCH  19  22
ENDBRANCH  17  18
ENDBRANCH   1  17
TORSDOF 16
ENDMDL
MODEL 3
REMARK VINA RESULT:     -10.9      5.381     10.616
REMARK SMILES CN(/C=C\C(=O)NCCCNC(=O)c1ccc(-c2c3nc(c(-c4cccc(S(=O)(=O)[O-])c4F)c4ccc([nH]4)c(-c4cccc(S(=O)(=O)[O-])c4F)c4nc(c(-c5cccc(S(=O)(=O)[O-])c5F)c5ccc2[nH]5)C=C4)C=C3)cc1)C[C@@H]1CCCO1
REMARK SMILES IDX 9 1 8 2 7 3 5 4 6 5 4 7 3 8 2 9 1 10 77 11 78 12 79 13 82 14
REMARK SMILES IDX 80 15 81 16 10 17 11 18 12 19 13 21 14 22 15 23 76 24 16 25
REMARK SMILES IDX 75 26 17 27 18 28 19 29 69 30 20 31 74 32 68 33 70 34 21 35
REMARK SMILES IDX 73 36 67 37 66 38 22 40 54 41 34 42 53 43 35 44 38 45 52 46
REMARK SMILES IDX 71 47 36 48 37 49 51 51 72 52 39 53 23 54 24 55 32 56 25 57
REMARK SMILES IDX 27 58 33 59 26 60 28 61 29 62 30 63 31 64 55 65 56 66 64 67
REMARK SMILES IDX 57 68 59 69 65 70 58 71 60 72 61 73 62 74 63 75 40 76 41 77
REMARK SMILES IDX 49 78 42 79 44 80 50 81 43 82 45 83 46 84 47 85 48 86
REMARK H PARENT 7 6 11 20 70 39 38 50
REMARK Flexibility Score: inf
ROOT
ATOM      1  C   UNL A   1      31.474  29.884  25.489  1.00  0.00     0.042 C 
ENDROOT
BRANCH   1   2
ATOM      2  C   UNL A   1      31.604  28.551  24.782  1.00  0.00     0.118 C 
BRANCH   2   3
ATOM      3  N   UNL A   1      31.114  27.420  25.556  1.00  0.00    -0.352 N 
ATOM      4  C   UNL A   1      31.856  26.504  26.240  1.00  0.00     0.245 C 
ATOM      5  O   UNL A   1      31.320  25.616  26.900  1.00  0.00    -0.270 OA
ATOM      6  H   UNL A   1      30.137  27.303  25.588  1.00  0.00     0.163 HD
BRANCH   4   7
ATOM      7  C   UNL A   1      33.322  26.530  26.079  1.00  0.00     0.088 C 
ATOM      8  C   UNL A   1      34.083  25.485  25.729  1.00  0.00     0.086 C 
BRANCH   8   9
ATOM      9  N   UNL A   1      33.753  24.193  25.327  1.00  0.00    -0.378 N 
ATOM     10  C   UNL A   1      34.261  23.065  26.109  1.00  0.00     0.143 C 
BRANCH   9  11
ATOM     11  C   UNL A   1      33.282  23.936  23.941  1.00  0.00     0.147 C 
BRANCH  11  12
ATOM     12  C   UNL A   1      33.035  25.161  23.036  1.00  0.00     0.137 C 
ATOM     13  C   UNL A   1      31.541  25.343  22.781  1.00  0.00     0.036 C 
ATOM     14  O   UNL A   1      33.625  25.042  21.723  1.00  0.00    -0.376 OA
ATOM     15  C   UNL A   1      31.534  26.160  21.519  1.00  0.00     0.031 C 
ATOM     16  C   UNL A   1      32.696  25.566  20.756  1.00  0.00     0.160 C 
ENDBRANCH  11  12
ENDBRANCH   9  11
ENDBRANCH   8   9
ENDBRANCH   4   7
ENDBRANCH   2   3
ENDBRANCH   1   2
BRANCH   1  17
ATOM     17  C   UNL A   1      32.641  30.214  26.404  1.00  0.00     0.118 C 
BRANCH  17  18
ATOM     18  N   UNL A   1      32.611  31.566  26.953  1.00  0.00    -0.352 N 
ATOM     19  C   UNL A   1      33.581  32.304  27.600  1.00  0.00     0.251 C 
ATOM     20  H   UNL A   1      31.752  32.032  26.842  1.00  0.00     0.163 HD
ATOM     21  O   UNL A   1      33.339  33.437  28.001  1.00  0.00    -0.269 OA
BRANCH  19  22
ATOM     22  C   UNL A   1      34.901  31.695  27.883  1.00  0.00     0.039 A 
ATOM     23  C   UNL A   1      35.980  32.531  28.188  1.00  0.00     0.014 A 
ATOM     24  C   UNL A   1      35.058  30.314  27.948  1.00  0.00     0.014 A 
ATOM     25  C   UNL A   1      37.158  31.981  28.700  1.00  0.00     0.010 A 
ATOM     26  C   UNL A   1      36.166  29.784  28.594  1.00  0.00     0.010 A 
ATOM     27  C   UNL A   1      37.230  30.609  28.991  1.00  0.00    -0.014 A 
BRANCH  27  28
ATOM     28  C   UNL A   1      38.376  30.011  29.734  1.00  0.00     0.031 A 
ATOM     29  C   UNL A   1      38.704  30.490  31.127  1.00  0.00     0.074 A 
ATOM     30  C   UNL A   1      39.207  29.151  29.110  1.00  0.00     0.049 A 
ATOM     31  N   UNL A   1      39.749  30.224  31.867  1.00  0.00    -0.248 NA
ATOM     32  C   UNL A   1      37.764  31.440  31.748  1.00  0.00     0.031 C 
ATOM     33  C   UNL A   1      39.081  28.696  27.721  1.00  0.00     0.029 A 
ATOM     34  N   UNL A   1      40.350  28.526  29.551  1.00  0.00    -0.354 N 
ATOM     35  C   UNL A   1      39.634  31.031  32.992  1.00  0.00     0.074 A 
ATOM     36  C   UNL A   1      38.435  31.820  32.826  1.00  0.00     0.031 C 
ATOM     37  C   UNL A   1      40.088  27.855  27.433  1.00  0.00     0.029 A 
ATOM     38  C   UNL A   1      40.954  27.734  28.600  1.00  0.00     0.049 A 
ATOM     39  H   UNL A   1      40.704  28.634  30.464  1.00  0.00     0.167 HD
ATOM     40  C   UNL A   1      40.430  31.085  34.087  1.00  0.00     0.034 A 
ATOM     41  C   UNL A   1      42.079  26.993  28.658  1.00  0.00     0.034 A 
ATOM     42  C   UNL A   1      41.546  30.208  34.306  1.00  0.00     0.049 A 
ATOM     43  C   UNL A   1      42.856  26.955  29.947  1.00  0.00     0.074 A 
ATOM     44  C   UNL A   1      42.328  30.079  35.440  1.00  0.00     0.029 A 
ATOM     45  N   UNL A   1      42.023  29.294  33.381  1.00  0.00    -0.354 N 
ATOM     46  N   UNL A   1      42.629  27.598  31.066  1.00  0.00    -0.248 NA
ATOM     47  C   UNL A   1      44.022  26.060  29.998  1.00  0.00     0.031 C 
ATOM     48  C   UNL A   1      43.277  29.080  35.202  1.00  0.00     0.029 A 
ATOM     49  C   UNL A   1      43.082  28.587  33.921  1.00  0.00     0.049 A 
ATOM     50  H   UNL A   1      41.663  29.166  32.475  1.00  0.00     0.167 HD
ATOM     51  C   UNL A   1      43.599  27.162  31.961  1.00  0.00     0.074 A 
ATOM     52  C   UNL A   1      44.401  26.180  31.263  1.00  0.00     0.031 C 
ATOM     53  C   UNL A   1      43.819  27.557  33.238  1.00  0.00     0.034 A 
BRANCH  40  54
ATOM     54  C   UNL A   1      40.066  32.060  35.175  1.00  0.00     0.023 A 
ATOM     55  C   UNL A   1      40.691  33.324  35.211  1.00  0.00     0.012 A 
ATOM     56  C   UNL A   1      39.067  31.755  36.122  1.00  0.00     0.148 A 
ATOM     57  C   UNL A   1      40.357  34.255  36.193  1.00  0.00     0.002 A 
ATOM     58  C   UNL A   1      38.708  32.707  37.070  1.00  0.00     0.091 A 
ATOM     59  F   UNL A   1      38.496  30.543  36.083  1.00  0.00    -0.205 F 
ATOM     60  C   UNL A   1      39.360  33.951  37.115  1.00  0.00     0.022 A 
BRANCH  58  61
ATOM     61  S   UNL A   1      37.381  32.447  38.254  1.00  0.00     0.127 S 
ATOM     62  O   UNL A   1      36.248  33.067  37.567  1.00  0.00    -0.237 OA
ATOM     63  O   UNL A   1      37.320  30.987  38.332  1.00  0.00    -0.237 OA
ATOM     64  O   UNL A   1      37.803  33.105  39.482  1.00  0.00    -0.744 OA
ENDBRANCH  58  61
ENDBRANCH  40  54
BRANCH  41  65
ATOM     65  C   UNL A   1      42.487  26.151  27.496  1.00  0.00     0.023 A 
ATOM     66  C   UNL A   1      43.303  26.718  26.496  1.00  0.00     0.012 A 
ATOM     67  C   UNL A   1      42.101  24.803  27.381  1.00  0.00     0.148 A 
ATOM     68  C   UNL A   1      43.694  25.970  25.385  1.00  0.00     0.002 A 
ATOM     69  C   UNL A   1      42.538  24.047  26.296  1.00  0.00     0.091 A 
ATOM     70  F   UNL A   1      41.314  24.279  28.332  1.00  0.00    -0.205 F 
ATOM     71  C   UNL A   1      43.320  24.633  25.289  1.00  0.00     0.022 A 
BRANCH  69  72
ATOM     72  S   UNL A   1      42.211  22.284  26.173  1.00  0.00     0.127 S 
ATOM     73  O   UNL A   1      40.757  22.257  26.043  1.00  0.00    -0.237 OA
ATOM     74  O   UNL A   1      42.943  21.916  24.960  1.00  0.00    -0.237 OA
ATOM     75  O   UNL A   1      42.758  21.709  27.393  1.00  0.00    -0.744 OA
ENDBRANCH  69  72
ENDBRANCH  41  65
BRANCH  53  76
ATOM     76  C   UNL A   1      44.948  26.905  33.988  1.00  0.00     0.023 A 
ATOM     77  C   UNL A   1      46.230  27.486  33.956  1.00  0.00     0.012 A 
ATOM     78  C   UNL A   1      44.715  25.777  34.799  1.00  0.00     0.148 A 
ATOM     79  C   UNL A   1      47.272  26.940  34.703  1.00  0.00     0.002 A 
ATOM     80  C   UNL A   1      45.749  25.264  35.576  1.00  0.00     0.091 A 
ATOM     81  F   UNL A   1      43.492  25.227  34.799  1.00  0.00    -0.205 F 
ATOM     82  C   UNL A   1      47.029  25.839  35.522  1.00  0.00     0.022 A 
BRANCH  80  83
ATOM     83  S   UNL A   1      45.494  23.911  36.729  1.00  0.00     0.127 S 
ATOM     84  O   UNL A   1      44.640  24.535  37.737  1.00  0.00    -0.237 OA
ATOM     85  O   UNL A   1      44.823  22.911  35.895  1.00  0.00    -0.237 OA
ATOM     86  O   UNL A   1      46.822  23.519  37.182  1.00  0.00    -0.744 OA
ENDBRANCH  80  83
ENDBRANCH  53  76
ENDBRANCH  27  28
ENDBRANCH  19  22
ENDBRANCH  17  18
ENDBRANCH   1  17
TORSDOF 16
ENDMDL
