MODEL 1
REMARK VINA RESULT:     -11.3      0.000      0.000
REMARK SMILES CCc1ccc(C(=O)NCCCNC(=O)c2ccc(-c3c4nc(c(-c5cccc(S(=O)(=O)[O-])c5F)c5ccc([nH]5)c(-c5cccc(S(=O)(=O)[O-])c5F)c5nc(c(-c6cccc(S(=O)(=O)[O-])c6F)c6ccc3[nH]6)C=C5)C=C4)cc2)cc1S(=O)(=O)C(CC)CC
REMARK SMILES IDX 11 1 10 2 9 3 7 4 8 5 6 7 3 8 4 9 80 10 5 11 79 12 2 13 1 14
REMARK SMILES IDX 81 15 82 16 83 17 84 18 85 19 86 20 87 21 88 22 12 23 13 24
REMARK SMILES IDX 14 25 15 27 16 28 17 29 78 30 18 31 77 32 19 33 20 34 21 35
REMARK SMILES IDX 71 36 22 37 76 38 70 39 72 40 23 41 75 42 69 43 68 44 24 46
REMARK SMILES IDX 56 47 36 48 55 49 37 50 40 51 54 52 73 53 38 54 39 55 53 57
REMARK SMILES IDX 74 58 41 59 25 60 26 61 34 62 27 63 29 64 35 65 28 66 30 67
REMARK SMILES IDX 31 68 32 69 33 70 57 71 58 72 66 73 59 74 61 75 67 76 60 77
REMARK SMILES IDX 62 78 63 79 64 80 65 81 42 82 43 83 51 84 44 85 46 86 52 87
REMARK SMILES IDX 45 88 47 89 48 90 49 91 50 92
REMARK H PARENT 9 6 13 26 72 45 40 56
REMARK Flexibility Score: inf
ROOT
ATOM      1  C   UNL A   1      31.024  31.659  26.017  1.00  0.00     0.042 C 
ENDROOT
BRANCH   1   2
ATOM      2  C   UNL A   1      31.133  30.315  25.291  1.00  0.00     0.118 C 
BRANCH   2   3
ATOM      3  N   UNL A   1      30.576  30.374  23.950  1.00  0.00    -0.352 N 
ATOM      4  C   UNL A   1      30.233  29.420  23.028  1.00  0.00     0.251 C 
ATOM      5  O   UNL A   1      29.681  29.811  21.998  1.00  0.00    -0.269 OA
ATOM      6  H   UNL A   1      30.409  31.293  23.638  1.00  0.00     0.163 HD
BRANCH   4   7
ATOM      7  C   UNL A   1      30.452  27.954  23.204  1.00  0.00     0.041 A 
ATOM      8  C   UNL A   1      30.700  25.109  23.557  1.00  0.00    -0.030 A 
ATOM      9  C   UNL A   1      29.522  25.821  23.889  1.00  0.00     0.006 A 
ATOM     10  C   UNL A   1      31.769  25.863  23.041  1.00  0.00     0.071 A 
ATOM     11  C   UNL A   1      29.408  27.207  23.740  1.00  0.00     0.014 A 
ATOM     12  C   UNL A   1      31.595  27.260  22.829  1.00  0.00     0.034 A 
BRANCH   8  13
ATOM     13  C   UNL A   1      30.640  23.608  23.661  1.00  0.00     0.033 C 
ATOM     14  C   UNL A   1      31.029  22.984  25.001  1.00  0.00     0.009 C 
ENDBRANCH   8  13
BRANCH  10  15
ATOM     15  S   UNL A   1      33.440  25.392  22.576  1.00  0.00     0.181 S 
ATOM     16  O   UNL A   1      33.247  24.470  21.473  1.00  0.00    -0.223 OA
ATOM     17  O   UNL A   1      34.090  26.671  22.303  1.00  0.00    -0.223 OA
BRANCH  15  18
ATOM     18  C   UNL A   1      34.495  24.587  23.738  1.00  0.00     0.113 C 
BRANCH  18  19
ATOM     19  C   UNL A   1      34.262  24.920  25.233  1.00  0.00     0.017 C 
ATOM     20  C   UNL A   1      33.910  26.333  25.662  1.00  0.00     0.005 C 
ENDBRANCH  18  19
BRANCH  18  21
ATOM     21  C   UNL A   1      34.920  23.147  23.397  1.00  0.00     0.017 C 
ATOM     22  C   UNL A   1      36.401  23.022  23.033  1.00  0.00     0.005 C 
ENDBRANCH  18  21
ENDBRANCH  15  18
ENDBRANCH  10  15
ENDBRANCH   4   7
ENDBRANCH   2   3
ENDBRANCH   1   2
BRANCH   1  23
ATOM     23  C   UNL A   1      32.279  32.039  26.802  1.00  0.00     0.118 C 
BRANCH  23  24
ATOM     24  N   UNL A   1      32.282  33.443  27.187  1.00  0.00    -0.352 N 
ATOM     25  C   UNL A   1      33.092  34.114  28.065  1.00  0.00     0.251 C 
ATOM     26  H   UNL A   1      31.595  33.995  26.748  1.00  0.00     0.163 HD
ATOM     27  O   UNL A   1      32.804  35.269  28.372  1.00  0.00    -0.269 OA
BRANCH  25  28
ATOM     28  C   UNL A   1      34.294  33.477  28.650  1.00  0.00     0.039 A 
ATOM     29  C   UNL A   1      34.114  32.430  29.562  1.00  0.00     0.014 A 
ATOM     30  C   UNL A   1      35.583  33.947  28.382  1.00  0.00     0.014 A 
ATOM     31  C   UNL A   1      35.218  31.845  30.189  1.00  0.00     0.010 A 
ATOM     32  C   UNL A   1      36.688  33.331  28.971  1.00  0.00     0.010 A 
ATOM     33  C   UNL A   1      36.515  32.289  29.896  1.00  0.00    -0.014 A 
BRANCH  33  34
ATOM     34  C   UNL A   1      37.698  31.701  30.573  1.00  0.00     0.031 A 
ATOM     35  C   UNL A   1      38.525  30.655  29.873  1.00  0.00     0.074 A 
ATOM     36  C   UNL A   1      37.987  32.052  31.842  1.00  0.00     0.049 A 
ATOM     37  N   UNL A   1      39.556  29.985  30.319  1.00  0.00    -0.248 NA
ATOM     38  C   UNL A   1      38.128  30.298  28.501  1.00  0.00     0.031 C 
ATOM     39  C   UNL A   1      37.220  33.000  32.651  1.00  0.00     0.029 A 
ATOM     40  N   UNL A   1      38.986  31.629  32.682  1.00  0.00    -0.354 N 
ATOM     41  C   UNL A   1      39.901  29.099  29.306  1.00  0.00     0.074 A 
ATOM     42  C   UNL A   1      38.962  29.306  28.225  1.00  0.00     0.031 C 
ATOM     43  C   UNL A   1      37.772  33.082  33.873  1.00  0.00     0.029 A 
ATOM     44  C   UNL A   1      38.922  32.185  33.939  1.00  0.00     0.049 A 
ATOM     45  H   UNL A   1      39.683  30.989  32.411  1.00  0.00     0.167 HD
ATOM     46  C   UNL A   1      40.925  28.213  29.266  1.00  0.00     0.034 A 
ATOM     47  C   UNL A   1      39.706  31.995  35.019  1.00  0.00     0.034 A 
ATOM     48  C   UNL A   1      41.901  28.060  30.309  1.00  0.00     0.049 A 
ATOM     49  C   UNL A   1      40.892  31.073  34.911  1.00  0.00     0.074 A 
ATOM     50  C   UNL A   1      43.024  27.251  30.327  1.00  0.00     0.029 A 
ATOM     51  N   UNL A   1      41.880  28.741  31.516  1.00  0.00    -0.354 N 
ATOM     52  N   UNL A   1      41.293  30.363  33.885  1.00  0.00    -0.248 NA
ATOM     53  C   UNL A   1      41.759  30.962  36.093  1.00  0.00     0.031 C 
ATOM     54  C   UNL A   1      43.686  27.448  31.543  1.00  0.00     0.029 A 
ATOM     55  C   UNL A   1      42.974  28.380  32.281  1.00  0.00     0.049 A 
ATOM     56  H   UNL A   1      41.188  29.387  31.788  1.00  0.00     0.167 HD
ATOM     57  C   UNL A   1      42.476  29.751  34.284  1.00  0.00     0.074 A 
ATOM     58  C   UNL A   1      42.738  30.190  35.639  1.00  0.00     0.031 C 
ATOM     59  C   UNL A   1      43.264  28.888  33.597  1.00  0.00     0.034 A 
BRANCH  46  60
ATOM     60  C   UNL A   1      41.090  27.386  28.019  1.00  0.00     0.023 A 
ATOM     61  C   UNL A   1      41.647  27.981  26.870  1.00  0.00     0.012 A 
ATOM     62  C   UNL A   1      40.766  26.016  28.001  1.00  0.00     0.148 A 
ATOM     63  C   UNL A   1      41.858  27.232  25.713  1.00  0.00     0.002 A 
ATOM     64  C   UNL A   1      41.012  25.266  26.855  1.00  0.00     0.091 A 
ATOM     65  F   UNL A   1      40.216  25.473  29.097  1.00  0.00    -0.205 F 
ATOM     66  C   UNL A   1      41.551  25.875  25.710  1.00  0.00     0.022 A 
BRANCH  64  67
ATOM     67  S   UNL A   1      40.713  23.496  26.774  1.00  0.00     0.127 S 
ATOM     68  O   UNL A   1      41.116  23.067  28.112  1.00  0.00    -0.237 OA
ATOM     69  O   UNL A   1      39.274  23.435  26.522  1.00  0.00    -0.237 OA
ATOM     70  O   UNL A   1      41.540  23.002  25.681  1.00  0.00    -0.744 OA
ENDBRANCH  64  67
ENDBRANCH  46  60
BRANCH  47  71
ATOM     71  C   UNL A   1      39.452  32.769  36.266  1.00  0.00     0.023 A 
ATOM     72  C   UNL A   1      40.078  34.019  36.435  1.00  0.00     0.012 A 
ATOM     73  C   UNL A   1      38.578  32.300  37.264  1.00  0.00     0.148 A 
ATOM     74  C   UNL A   1      39.862  34.775  37.587  1.00  0.00     0.002 A 
ATOM     75  C   UNL A   1      38.330  33.080  38.389  1.00  0.00     0.091 A 
ATOM     76  F   UNL A   1      38.004  31.099  37.100  1.00  0.00    -0.205 F 
ATOM     77  C   UNL A   1      38.980  34.311  38.560  1.00  0.00     0.022 A 
BRANCH  75  78
ATOM     78  S   UNL A   1      37.109  32.595  39.616  1.00  0.00     0.127 S 
ATOM     79  O   UNL A   1      35.881  32.571  38.827  1.00  0.00    -0.237 OA
ATOM     80  O   UNL A   1      37.591  31.281  40.043  1.00  0.00    -0.237 OA
ATOM     81  O   UNL A   1      37.192  33.621  40.649  1.00  0.00    -0.744 OA
ENDBRANCH  75  78
ENDBRANCH  47  71
BRANCH  59  82
ATOM     82  C   UNL A   1      44.506  28.382  34.276  1.00  0.00     0.023 A 
ATOM     83  C   UNL A   1      45.722  29.071  34.098  1.00  0.00     0.012 A 
ATOM     84  C   UNL A   1      44.454  27.284  35.156  1.00  0.00     0.148 A 
ATOM     85  C   UNL A   1      46.871  28.661  34.771  1.00  0.00     0.002 A 
ATOM     86  C   UNL A   1      45.596  26.904  35.853  1.00  0.00     0.091 A 
ATOM     87  F   UNL A   1      43.294  26.624  35.293  1.00  0.00    -0.205 F 
ATOM     88  C   UNL A   1      46.806  27.587  35.657  1.00  0.00     0.022 A 
BRANCH  86  89
ATOM     89  S   UNL A   1      45.562  25.585  37.072  1.00  0.00     0.127 S 
ATOM     90  O   UNL A   1      45.245  24.421  36.248  1.00  0.00    -0.237 OA
ATOM     91  O   UNL A   1      46.927  25.603  37.601  1.00  0.00    -0.237 OA
ATOM     92  O   UNL A   1      44.543  25.976  38.038  1.00  0.00    -0.744 OA
ENDBRANCH  86  89
ENDBRANCH  59  82
ENDBRANCH  33  34
ENDBRANCH  25  28
ENDBRANCH  23  24
ENDBRANCH   1  23
TORSDOF 18
ENDMDL
MODEL 2
REMARK VINA RESULT:     -11.2      1.871      2.332
REMARK SMILES CCc1ccc(C(=O)NCCCNC(=O)c2ccc(-c3c4nc(c(-c5cccc(S(=O)(=O)[O-])c5F)c5ccc([nH]5)c(-c5cccc(S(=O)(=O)[O-])c5F)c5nc(c(-c6cccc(S(=O)(=O)[O-])c6F)c6ccc3[nH]6)C=C5)C=C4)cc2)cc1S(=O)(=O)C(CC)CC
REMARK SMILES IDX 11 1 10 2 9 3 7 4 8 5 6 7 3 8 4 9 80 10 5 11 79 12 2 13 1 14
REMARK SMILES IDX 81 15 82 16 83 17 84 18 85 19 86 20 87 21 88 22 12 23 13 24
REMARK SMILES IDX 14 25 15 27 16 28 17 29 78 30 18 31 77 32 19 33 20 34 21 35
REMARK SMILES IDX 71 36 22 37 76 38 70 39 72 40 23 41 75 42 69 43 68 44 24 46
REMARK SMILES IDX 56 47 36 48 55 49 37 50 40 51 54 52 73 53 38 54 39 55 53 57
REMARK SMILES IDX 74 58 41 59 25 60 26 61 34 62 27 63 29 64 35 65 28 66 30 67
REMARK SMILES IDX 31 68 32 69 33 70 57 71 58 72 66 73 59 74 61 75 67 76 60 77
REMARK SMILES IDX 62 78 63 79 64 80 65 81 42 82 43 83 51 84 44 85 46 86 52 87
REMARK SMILES IDX 45 88 47 89 48 90 49 91 50 92
REMARK H PARENT 9 6 13 26 72 45 40 56
REMARK Flexibility Score: inf
ROOT
ATOM      1  C   UNL A   1      31.364  31.918  26.757  1.00  0.00     0.042 C 
ENDROOT
BRANCH   1   2
ATOM      2  C   UNL A   1      31.552  30.810  25.717  1.00  0.00     0.118 C 
BRANCH   2   3
ATOM      3  N   UNL A   1      30.531  30.855  24.684  1.00  0.00    -0.352 N 
ATOM      4  C   UNL A   1      30.018  29.919  23.824  1.00  0.00     0.251 C 
ATOM      5  O   UNL A   1      29.067  30.268  23.122  1.00  0.00    -0.269 OA
ATOM      6  H   UNL A   1      30.121  31.744  24.581  1.00  0.00     0.163 HD
BRANCH   4   7
ATOM      7  C   UNL A   1      30.509  28.515  23.709  1.00  0.00     0.041 A 
ATOM      8  C   UNL A   1      31.473  25.833  23.313  1.00  0.00    -0.030 A 
ATOM      9  C   UNL A   1      31.001  26.639  22.250  1.00  0.00     0.006 A 
ATOM     10  C   UNL A   1      31.449  26.403  24.599  1.00  0.00     0.071 A 
ATOM     11  C   UNL A   1      30.509  27.934  22.444  1.00  0.00     0.014 A 
ATOM     12  C   UNL A   1      31.015  27.751  24.752  1.00  0.00     0.034 A 
BRANCH   8  13
ATOM     13  C   UNL A   1      32.078  24.504  22.943  1.00  0.00     0.033 C 
ATOM     14  C   UNL A   1      31.283  23.249  23.302  1.00  0.00     0.009 C 
ENDBRANCH   8  13
BRANCH  10  15
ATOM     15  S   UNL A   1      31.867  25.723  26.209  1.00  0.00     0.181 S 
ATOM     16  O   UNL A   1      32.141  26.894  27.019  1.00  0.00    -0.223 OA
ATOM     17  O   UNL A   1      30.703  24.906  26.545  1.00  0.00    -0.223 OA
BRANCH  15  18
ATOM     18  C   UNL A   1      33.247  24.641  26.388  1.00  0.00     0.113 C 
BRANCH  18  19
ATOM     19  C   UNL A   1      32.930  23.139  26.596  1.00  0.00     0.017 C 
ATOM     20  C   UNL A   1      33.349  22.432  27.872  1.00  0.00     0.005 C 
ENDBRANCH  18  19
BRANCH  18  21
ATOM     21  C   UNL A   1      34.501  24.985  25.564  1.00  0.00     0.017 C 
ATOM     22  C   UNL A   1      35.149  23.765  24.906  1.00  0.00     0.005 C 
ENDBRANCH  18  21
ENDBRANCH  15  18
ENDBRANCH  10  15
ENDBRANCH   4   7
ENDBRANCH   2   3
ENDBRANCH   1   2
BRANCH   1  23
ATOM     23  C   UNL A   1      32.677  32.513  27.268  1.00  0.00     0.118 C 
BRANCH  23  24
ATOM     24  N   UNL A   1      32.550  33.926  27.590  1.00  0.00    -0.352 N 
ATOM     25  C   UNL A   1      33.174  34.669  28.559  1.00  0.00     0.251 C 
ATOM     26  H   UNL A   1      31.918  34.426  27.024  1.00  0.00     0.163 HD
ATOM     27  O   UNL A   1      32.784  35.817  28.767  1.00  0.00    -0.269 OA
BRANCH  25  28
ATOM     28  C   UNL A   1      34.294  34.117  29.354  1.00  0.00     0.039 A 
ATOM     29  C   UNL A   1      35.603  34.401  28.943  1.00  0.00     0.014 A 
ATOM     30  C   UNL A   1      34.079  33.263  30.439  1.00  0.00     0.014 A 
ATOM     31  C   UNL A   1      36.690  33.846  29.625  1.00  0.00     0.010 A 
ATOM     32  C   UNL A   1      35.165  32.748  31.149  1.00  0.00     0.010 A 
ATOM     33  C   UNL A   1      36.480  33.017  30.736  1.00  0.00    -0.014 A 
BRANCH  33  34
ATOM     34  C   UNL A   1      37.620  32.395  31.455  1.00  0.00     0.031 A 
ATOM     35  C   UNL A   1      38.385  31.265  30.819  1.00  0.00     0.074 A 
ATOM     36  C   UNL A   1      37.921  32.794  32.707  1.00  0.00     0.049 A 
ATOM     37  N   UNL A   1      39.370  30.557  31.310  1.00  0.00    -0.248 NA
ATOM     38  C   UNL A   1      37.976  30.861  29.464  1.00  0.00     0.031 C 
ATOM     39  C   UNL A   1      37.208  33.829  33.457  1.00  0.00     0.029 A 
ATOM     40  N   UNL A   1      38.887  32.356  33.578  1.00  0.00    -0.354 N 
ATOM     41  C   UNL A   1      39.666  29.600  30.348  1.00  0.00     0.074 A 
ATOM     42  C   UNL A   1      38.749  29.806  29.248  1.00  0.00     0.031 C 
ATOM     43  C   UNL A   1      37.757  33.941  34.679  1.00  0.00     0.029 A 
ATOM     44  C   UNL A   1      38.849  32.980  34.803  1.00  0.00     0.049 A 
ATOM     45  H   UNL A   1      39.545  31.661  33.347  1.00  0.00     0.167 HD
ATOM     46  C   UNL A   1      40.634  28.651  30.364  1.00  0.00     0.034 A 
ATOM     47  C   UNL A   1      39.612  32.800  35.899  1.00  0.00     0.034 A 
ATOM     48  C   UNL A   1      41.592  28.495  31.424  1.00  0.00     0.049 A 
ATOM     49  C   UNL A   1      40.740  31.803  35.851  1.00  0.00     0.074 A 
ATOM     50  C   UNL A   1      42.663  27.620  31.495  1.00  0.00     0.029 A 
ATOM     51  N   UNL A   1      41.605  29.238  32.593  1.00  0.00    -0.354 N 
ATOM     52  N   UNL A   1      41.104  31.017  34.868  1.00  0.00    -0.248 NA
ATOM     53  C   UNL A   1      41.591  31.701  37.046  1.00  0.00     0.031 C 
ATOM     54  C   UNL A   1      43.328  27.841  32.705  1.00  0.00     0.029 A 
ATOM     55  C   UNL A   1      42.669  28.852  33.387  1.00  0.00     0.049 A 
ATOM     56  H   UNL A   1      40.952  29.939  32.824  1.00  0.00     0.167 HD
ATOM     57  C   UNL A   1      42.244  30.355  35.310  1.00  0.00     0.074 A 
ATOM     58  C   UNL A   1      42.523  30.848  36.643  1.00  0.00     0.031 C 
ATOM     59  C   UNL A   1      42.981  29.410  34.677  1.00  0.00     0.034 A 
BRANCH  46  60
ATOM     60  C   UNL A   1      40.756  27.752  29.164  1.00  0.00     0.023 A 
ATOM     61  C   UNL A   1      39.941  26.605  29.080  1.00  0.00     0.012 A 
ATOM     62  C   UNL A   1      41.613  28.072  28.094  1.00  0.00     0.148 A 
ATOM     63  C   UNL A   1      39.994  25.777  27.960  1.00  0.00     0.002 A 
ATOM     64  C   UNL A   1      41.636  27.260  26.964  1.00  0.00     0.091 A 
ATOM     65  F   UNL A   1      42.396  29.154  28.202  1.00  0.00    -0.205 F 
ATOM     66  C   UNL A   1      40.832  26.109  26.900  1.00  0.00     0.022 A 
BRANCH  64  67
ATOM     67  S   UNL A   1      42.631  27.641  25.518  1.00  0.00     0.127 S 
ATOM     68  O   UNL A   1      42.384  26.474  24.674  1.00  0.00    -0.237 OA
ATOM     69  O   UNL A   1      42.021  28.881  25.038  1.00  0.00    -0.237 OA
ATOM     70  O   UNL A   1      43.997  27.788  26.002  1.00  0.00    -0.744 OA
ENDBRANCH  64  67
ENDBRANCH  46  60
BRANCH  47  71
ATOM     71  C   UNL A   1      39.398  33.653  37.101  1.00  0.00     0.023 A 
ATOM     72  C   UNL A   1      39.866  34.982  37.090  1.00  0.00     0.012 A 
ATOM     73  C   UNL A   1      38.713  33.178  38.235  1.00  0.00     0.148 A 
ATOM     74  C   UNL A   1      39.681  35.812  38.195  1.00  0.00     0.002 A 
ATOM     75  C   UNL A   1      38.490  34.026  39.315  1.00  0.00     0.091 A 
ATOM     76  F   UNL A   1      38.289  31.905  38.240  1.00  0.00    -0.205 F 
ATOM     77  C   UNL A   1      38.984  35.338  39.304  1.00  0.00     0.022 A 
BRANCH  75  78
ATOM     78  S   UNL A   1      37.490  33.514  40.718  1.00  0.00     0.127 S 
ATOM     79  O   UNL A   1      38.320  32.475  41.319  1.00  0.00    -0.237 OA
ATOM     80  O   UNL A   1      37.386  34.747  41.500  1.00  0.00    -0.237 OA
ATOM     81  O   UNL A   1      36.227  33.076  40.135  1.00  0.00    -0.744 OA
ENDBRANCH  75  78
ENDBRANCH  47  71
BRANCH  59  82
ATOM     82  C   UNL A   1      44.186  28.866  35.394  1.00  0.00     0.023 A 
ATOM     83  C   UNL A   1      45.441  29.472  35.196  1.00  0.00     0.012 A 
ATOM     84  C   UNL A   1      44.060  27.818  36.325  1.00  0.00     0.148 A 
ATOM     85  C   UNL A   1      46.559  29.029  35.901  1.00  0.00     0.002 A 
ATOM     86  C   UNL A   1      45.172  27.406  37.053  1.00  0.00     0.091 A 
ATOM     87  F   UNL A   1      42.862  27.236  36.482  1.00  0.00    -0.205 F 
ATOM     88  C   UNL A   1      46.422  28.005  36.837  1.00  0.00     0.022 A 
BRANCH  86  89
ATOM     89  S   UNL A   1      45.049  26.153  38.334  1.00  0.00     0.127 S 
ATOM     90  O   UNL A   1      46.426  26.080  38.817  1.00  0.00    -0.237 OA
ATOM     91  O   UNL A   1      44.104  26.752  39.278  1.00  0.00    -0.237 OA
ATOM     92  O   UNL A   1      44.546  24.960  37.665  1.00  0.00    -0.744 OA
ENDBRANCH  86  89
ENDBRANCH  59  82
ENDBRANCH  33  34
ENDBRANCH  25  28
ENDBRANCH  23  24
ENDBRANCH   1  23
TORSDOF 18
ENDMDL
MODEL 3
REMARK VINA RESULT:     -11.2      3.007      8.305
REMARK SMILES CCc1ccc(C(=O)NCCCNC(=O)c2ccc(-c3c4nc(c(-c5cccc(S(=O)(=O)[O-])c5F)c5ccc([nH]5)c(-c5cccc(S(=O)(=O)[O-])c5F)c5nc(c(-c6cccc(S(=O)(=O)[O-])c6F)c6ccc3[nH]6)C=C5)C=C4)cc2)cc1S(=O)(=O)C(CC)CC
REMARK SMILES IDX 11 1 10 2 9 3 7 4 8 5 6 7 3 8 4 9 80 10 5 11 79 12 2 13 1 14
REMARK SMILES IDX 81 15 82 16 83 17 84 18 85 19 86 20 87 21 88 22 12 23 13 24
REMARK SMILES IDX 14 25 15 27 16 28 17 29 78 30 18 31 77 32 19 33 20 34 21 35
REMARK SMILES IDX 71 36 22 37 76 38 70 39 72 40 23 41 75 42 69 43 68 44 24 46
REMARK SMILES IDX 56 47 36 48 55 49 37 50 40 51 54 52 73 53 38 54 39 55 53 57
REMARK SMILES IDX 74 58 41 59 25 60 26 61 34 62 27 63 29 64 35 65 28 66 30 67
REMARK SMILES IDX 31 68 32 69 33 70 57 71 58 72 66 73 59 74 61 75 67 76 60 77
REMARK SMILES IDX 62 78 63 79 64 80 65 81 42 82 43 83 51 84 44 85 46 86 52 87
REMARK SMILES IDX 45 88 47 89 48 90 49 91 50 92
REMARK H PARENT 9 6 13 26 72 45 40 56
REMARK Flexibility Score: inf
ROOT
ATOM      1  C   UNL A   1      33.335  28.735  24.987  1.00  0.00     0.042 C 
ENDROOT
BRANCH   1   2
ATOM      2  C   UNL A   1      32.054  29.560  24.834  1.00  0.00     0.118 C 
BRANCH   2   3
ATOM      3  N   UNL A   1      31.362  29.266  23.591  1.00  0.00    -0.352 N 
ATOM      4  C   UNL A   1      30.846  28.119  23.047  1.00  0.00     0.251 C 
ATOM      5  O   UNL A   1      30.219  28.233  21.992  1.00  0.00    -0.269 OA
ATOM      6  H   UNL A   1      31.238  30.057  23.018  1.00  0.00     0.163 HD
BRANCH   4   7
ATOM      7  C   UNL A   1      30.963  26.763  23.660  1.00  0.00     0.041 A 
ATOM      8  C   UNL A   1      31.039  24.181  24.927  1.00  0.00    -0.030 A 
ATOM      9  C   UNL A   1      30.222  25.238  25.396  1.00  0.00     0.006 A 
ATOM     10  C   UNL A   1      31.831  24.447  23.797  1.00  0.00     0.071 A 
ATOM     11  C   UNL A   1      30.202  26.501  24.795  1.00  0.00     0.014 A 
ATOM     12  C   UNL A   1      31.730  25.718  23.162  1.00  0.00     0.034 A 
BRANCH   8  13
ATOM     13  C   UNL A   1      30.873  22.844  25.600  1.00  0.00     0.033 C 
ATOM     14  C   UNL A   1      30.054  22.807  26.890  1.00  0.00     0.009 C 
ENDBRANCH   8  13
BRANCH  10  15
ATOM     15  S   UNL A   1      33.049  23.445  22.935  1.00  0.00     0.181 S 
ATOM     16  O   UNL A   1      32.291  22.297  22.475  1.00  0.00    -0.223 OA
ATOM     17  O   UNL A   1      33.595  24.359  21.936  1.00  0.00    -0.223 OA
BRANCH  15  18
ATOM     18  C   UNL A   1      34.457  22.820  23.794  1.00  0.00     0.113 C 
BRANCH  18  19
ATOM     19  C   UNL A   1      35.384  23.866  24.462  1.00  0.00     0.017 C 
ATOM     20  C   UNL A   1      34.826  24.861  25.465  1.00  0.00     0.005 C 
ENDBRANCH  18  19
BRANCH  18  21
ATOM     21  C   UNL A   1      34.275  21.476  24.523  1.00  0.00     0.017 C 
ATOM     22  C   UNL A   1      35.482  21.080  25.376  1.00  0.00     0.005 C 
ENDBRANCH  18  21
ENDBRANCH  15  18
ENDBRANCH  10  15
ENDBRANCH   4   7
ENDBRANCH   2   3
ENDBRANCH   1   2
BRANCH   1  23
ATOM     23  C   UNL A   1      34.072  28.979  26.304  1.00  0.00     0.118 C 
BRANCH  23  24
ATOM     24  N   UNL A   1      33.835  30.317  26.825  1.00  0.00    -0.352 N 
ATOM     25  C   UNL A   1      34.513  31.021  27.787  1.00  0.00     0.251 C 
ATOM     26  H   UNL A   1      33.070  30.789  26.424  1.00  0.00     0.163 HD
ATOM     27  O   UNL A   1      34.031  32.075  28.198  1.00  0.00    -0.269 OA
BRANCH  25  28
ATOM     28  C   UNL A   1      35.799  30.536  28.338  1.00  0.00     0.039 A 
ATOM     29  C   UNL A   1      36.982  30.900  27.681  1.00  0.00     0.014 A 
ATOM     30  C   UNL A   1      35.853  29.668  29.431  1.00  0.00     0.014 A 
ATOM     31  C   UNL A   1      38.212  30.411  28.127  1.00  0.00     0.010 A 
ATOM     32  C   UNL A   1      37.087  29.217  29.905  1.00  0.00     0.010 A 
ATOM     33  C   UNL A   1      38.275  29.568  29.246  1.00  0.00    -0.014 A 
BRANCH  33  34
ATOM     34  C   UNL A   1      39.570  29.014  29.717  1.00  0.00     0.031 A 
ATOM     35  C   UNL A   1      40.311  29.684  30.842  1.00  0.00     0.074 A 
ATOM     36  C   UNL A   1      40.114  27.954  29.086  1.00  0.00     0.049 A 
ATOM     37  N   UNL A   1      41.478  29.385  31.354  1.00  0.00    -0.248 NA
ATOM     38  C   UNL A   1      39.670  30.857  31.459  1.00  0.00     0.031 C 
ATOM     39  C   UNL A   1      39.527  27.262  27.938  1.00  0.00     0.029 A 
ATOM     40  N   UNL A   1      41.296  27.293  29.305  1.00  0.00    -0.354 N 
ATOM     41  C   UNL A   1      41.730  30.356  32.316  1.00  0.00     0.074 A 
ATOM     42  C   UNL A   1      40.603  31.262  32.310  1.00  0.00     0.031 C 
ATOM     43  C   UNL A   1      40.355  26.278  27.549  1.00  0.00     0.029 A 
ATOM     44  C   UNL A   1      41.534  26.277  28.409  1.00  0.00     0.049 A 
ATOM     45  H   UNL A   1      41.915  27.523  30.035  1.00  0.00     0.167 HD
ATOM     46  C   UNL A   1      42.792  30.468  33.150  1.00  0.00     0.034 A 
ATOM     47  C   UNL A   1      42.583  25.438  28.298  1.00  0.00     0.034 A 
ATOM     48  C   UNL A   1      43.876  29.526  33.207  1.00  0.00     0.049 A 
ATOM     49  C   UNL A   1      43.703  25.528  29.301  1.00  0.00     0.074 A 
ATOM     50  C   UNL A   1      44.954  29.504  34.075  1.00  0.00     0.029 A 
ATOM     51  N   UNL A   1      44.014  28.430  32.371  1.00  0.00    -0.354 N 
ATOM     52  N   UNL A   1      43.845  26.357  30.306  1.00  0.00    -0.248 NA
ATOM     53  C   UNL A   1      44.785  24.539  29.182  1.00  0.00     0.031 C 
ATOM     54  C   UNL A   1      45.741  28.389  33.767  1.00  0.00     0.029 A 
ATOM     55  C   UNL A   1      45.152  27.719  32.707  1.00  0.00     0.049 A 
ATOM     56  H   UNL A   1      43.394  28.192  31.644  1.00  0.00     0.167 HD
ATOM     57  C   UNL A   1      45.008  25.968  30.961  1.00  0.00     0.074 A 
ATOM     58  C   UNL A   1      45.523  24.815  30.249  1.00  0.00     0.031 C 
ATOM     59  C   UNL A   1      45.606  26.526  32.041  1.00  0.00     0.034 A 
BRANCH  46  60
ATOM     60  C   UNL A   1      42.800  31.612  34.128  1.00  0.00     0.023 A 
ATOM     61  C   UNL A   1      43.367  32.842  33.740  1.00  0.00     0.012 A 
ATOM     62  C   UNL A   1      42.189  31.499  35.392  1.00  0.00     0.148 A 
ATOM     63  C   UNL A   1      43.348  33.937  34.603  1.00  0.00     0.002 A 
ATOM     64  C   UNL A   1      42.142  32.605  36.234  1.00  0.00     0.091 A 
ATOM     65  F   UNL A   1      41.675  30.315  35.752  1.00  0.00    -0.205 F 
ATOM     66  C   UNL A   1      42.727  33.822  35.843  1.00  0.00     0.022 A 
BRANCH  64  67
ATOM     67  S   UNL A   1      41.307  32.577  37.824  1.00  0.00     0.127 S 
ATOM     68  O   UNL A   1      39.961  32.152  37.443  1.00  0.00    -0.237 OA
ATOM     69  O   UNL A   1      42.076  31.575  38.562  1.00  0.00    -0.237 OA
ATOM     70  O   UNL A   1      41.411  33.930  38.354  1.00  0.00    -0.744 OA
ENDBRANCH  64  67
ENDBRANCH  46  60
BRANCH  47  71
ATOM     71  C   UNL A   1      42.575  24.374  27.256  1.00  0.00     0.023 A 
ATOM     72  C   UNL A   1      43.456  24.481  26.161  1.00  0.00     0.012 A 
ATOM     73  C   UNL A   1      41.736  23.249  27.351  1.00  0.00     0.148 A 
ATOM     74  C   UNL A   1      43.480  23.503  25.167  1.00  0.00     0.002 A 
ATOM     75  C   UNL A   1      41.799  22.254  26.381  1.00  0.00     0.091 A 
ATOM     76  F   UNL A   1      40.888  23.168  28.388  1.00  0.00    -0.205 F 
ATOM     77  C   UNL A   1      42.660  22.384  25.282  1.00  0.00     0.022 A 
BRANCH  75  78
ATOM     78  S   UNL A   1      40.860  20.729  26.539  1.00  0.00     0.127 S 
ATOM     79  O   UNL A   1      41.615  19.819  25.683  1.00  0.00    -0.237 OA
ATOM     80  O   UNL A   1      40.954  20.445  27.972  1.00  0.00    -0.237 OA
ATOM     81  O   UNL A   1      39.516  21.072  26.091  1.00  0.00    -0.744 OA
ENDBRANCH  75  78
ENDBRANCH  47  71
BRANCH  59  82
ATOM     82  C   UNL A   1      46.867  25.886  32.552  1.00  0.00     0.023 A 
ATOM     83  C   UNL A   1      46.804  25.025  33.664  1.00  0.00     0.012 A 
ATOM     84  C   UNL A   1      48.092  26.064  31.882  1.00  0.00     0.148 A 
ATOM     85  C   UNL A   1      47.947  24.366  34.114  1.00  0.00     0.002 A 
ATOM     86  C   UNL A   1      49.220  25.375  32.313  1.00  0.00     0.091 A 
ATOM     87  F   UNL A   1      48.139  26.908  30.840  1.00  0.00    -0.205 F 
ATOM     88  C   UNL A   1      49.151  24.531  33.432  1.00  0.00     0.022 A 
BRANCH  86  89
ATOM     89  S   UNL A   1      50.782  25.474  31.430  1.00  0.00     0.127 S 
ATOM     90  O   UNL A   1      51.624  24.564  32.203  1.00  0.00    -0.237 OA
ATOM     91  O   UNL A   1      50.427  24.989  30.096  1.00  0.00    -0.237 OA
ATOM     92  O   UNL A   1      51.162  26.881  31.471  1.00  0.00    -0.744 OA
ENDBRANCH  86  89
ENDBRANCH  59  82
ENDBRANCH  33  34
ENDBRANCH  25  28
ENDBRANCH  23  24
ENDBRANCH   1  23
TORSDOF 18
ENDMDL
