MODEL 1
REMARK VINA RESULT:     -11.6      0.000      0.000
REMARK SMILES Cc1cc(C[N@@H+]2C[C@H](C)[C@H](C(=O)NCCCNC(=O)c3ccc(-c4c5nc(c(-c6cccc(S(=O)(=O)[O-])c6F)c6ccc([nH]6)c(-c6cccc(S(=O)(=O)[O-])c6F)c6nc(c(-c7cccc(S(=O)(=O)[O-])c7F)c7ccc4[nH]7)C=C6)C=C5)cc3)C2)ccc1Br
REMARK SMILES IDX 15 1 14 2 13 3 11 4 12 5 10 7 6 8 7 9 83 10 8 12 9 13 5 14
REMARK SMILES IDX 4 15 1 16 2 17 3 18 86 19 85 20 87 21 84 22 16 23 17 24
REMARK SMILES IDX 18 25 19 27 20 28 21 29 82 30 22 31 81 32 23 33 24 34 25 35
REMARK SMILES IDX 75 36 26 37 80 38 74 39 76 40 27 41 79 42 73 43 72 44 28 46
REMARK SMILES IDX 60 47 40 48 59 49 41 50 44 51 58 52 77 53 42 54 43 55 57 57
REMARK SMILES IDX 78 58 45 59 29 60 30 61 38 62 31 63 33 64 39 65 32 66 34 67
REMARK SMILES IDX 35 68 36 69 37 70 61 71 62 72 70 73 63 74 65 75 71 76 64 77
REMARK SMILES IDX 66 78 67 79 68 80 69 81 46 82 47 83 55 84 48 85 50 86 56 87
REMARK SMILES IDX 49 88 51 89 52 90 53 91 54 92
REMARK H PARENT 13 6 6 11 17 26 76 45 44 56
REMARK Flexibility Score: inf
ROOT
ATOM      1  C   UNL A   1      32.761  28.313  27.489  1.00  0.00     0.042 C 
ENDROOT
BRANCH   1   2
ATOM      2  C   UNL A   1      31.411  28.045  26.845  1.00  0.00     0.117 C 
BRANCH   2   3
ATOM      3  N   UNL A   1      31.070  26.635  26.814  1.00  0.00    -0.356 N 
ATOM      4  C   UNL A   1      31.207  25.694  25.846  1.00  0.00     0.229 C 
ATOM      5  O   UNL A   1      30.787  24.564  26.124  1.00  0.00    -0.275 OA
ATOM      6  H   UNL A   1      30.665  26.301  27.647  1.00  0.00     0.163 HD
BRANCH   4   7
ATOM      7  C   UNL A   1      31.809  25.947  24.469  1.00  0.00     0.142 C 
ATOM      8  N   UNL A   1      32.647  24.989  22.455  1.00  0.00    -0.330 N 
ATOM      9  C   UNL A   1      33.629  25.959  22.914  1.00  0.00     0.266 C 
ATOM     10  C   UNL A   1      31.503  24.947  23.356  1.00  0.00     0.276 C 
ATOM     11  H   UNL A   1      32.288  25.351  21.571  1.00  0.00     0.348 HD
ATOM     12  C   UNL A   1      33.305  26.265  24.378  1.00  0.00     0.059 C 
ATOM     13  C   UNL A   1      34.236  25.533  25.331  1.00  0.00     0.015 C 
BRANCH   8  14
ATOM     14  C   UNL A   1      33.115  23.744  21.856  1.00  0.00     0.299 C 
BRANCH  14  15
ATOM     15  C   UNL A   1      33.069  22.490  22.708  1.00  0.00     0.007 A 
ATOM     16  C   UNL A   1      34.945  21.013  25.692  1.00  0.00     0.045 C 
ATOM     17  C   UNL A   1      33.935  21.158  24.586  1.00  0.00    -0.036 A 
ATOM     18  C   UNL A   1      33.948  22.324  23.793  1.00  0.00     0.014 A 
ATOM     19  C   UNL A   1      33.025  20.140  24.265  1.00  0.00     0.020 A 
ATOM     20  C   UNL A   1      32.124  20.305  23.212  1.00  0.00     0.016 A 
ATOM     21  Br  UNL A   1      32.996  18.480  25.190  1.00  0.00    -0.051 Br
ATOM     22  C   UNL A   1      32.136  21.477  22.452  1.00  0.00     0.011 A 
ENDBRANCH  14  15
ENDBRANCH   8  14
ENDBRANCH   4   7
ENDBRANCH   2   3
ENDBRANCH   1   2
BRANCH   1  23
ATOM     23  C   UNL A   1      33.676  29.212  26.678  1.00  0.00     0.118 C 
BRANCH  23  24
ATOM     24  N   UNL A   1      33.698  30.583  27.168  1.00  0.00    -0.352 N 
ATOM     25  C   UNL A   1      34.557  31.224  28.030  1.00  0.00     0.251 C 
ATOM     26  H   UNL A   1      32.972  31.150  26.822  1.00  0.00     0.163 HD
ATOM     27  O   UNL A   1      34.241  32.337  28.451  1.00  0.00    -0.269 OA
BRANCH  25  28
ATOM     28  C   UNL A   1      35.831  30.605  28.473  1.00  0.00     0.039 A 
ATOM     29  C   UNL A   1      37.012  30.929  27.795  1.00  0.00     0.014 A 
ATOM     30  C   UNL A   1      35.876  29.670  29.507  1.00  0.00     0.014 A 
ATOM     31  C   UNL A   1      38.231  30.369  28.197  1.00  0.00     0.010 A 
ATOM     32  C   UNL A   1      37.100  29.204  29.981  1.00  0.00     0.010 A 
ATOM     33  C   UNL A   1      38.292  29.527  29.318  1.00  0.00    -0.014 A 
BRANCH  33  34
ATOM     34  C   UNL A   1      39.576  28.954  29.803  1.00  0.00     0.031 A 
ATOM     35  C   UNL A   1      40.329  29.625  30.927  1.00  0.00     0.074 A 
ATOM     36  C   UNL A   1      40.116  27.889  29.175  1.00  0.00     0.049 A 
ATOM     37  N   UNL A   1      41.500  29.330  31.428  1.00  0.00    -0.248 NA
ATOM     38  C   UNL A   1      39.698  30.804  31.547  1.00  0.00     0.031 C 
ATOM     39  C   UNL A   1      39.531  27.199  28.024  1.00  0.00     0.029 A 
ATOM     40  N   UNL A   1      41.294  27.220  29.398  1.00  0.00    -0.354 N 
ATOM     41  C   UNL A   1      41.765  30.305  32.382  1.00  0.00     0.074 A 
ATOM     42  C   UNL A   1      40.649  31.223  32.368  1.00  0.00     0.031 C 
ATOM     43  C   UNL A   1      40.351  26.206  27.643  1.00  0.00     0.029 A 
ATOM     44  C   UNL A   1      41.533  26.208  28.498  1.00  0.00     0.049 A 
ATOM     45  H   UNL A   1      41.911  27.444  30.133  1.00  0.00     0.167 HD
ATOM     46  C   UNL A   1      42.826  30.413  33.217  1.00  0.00     0.034 A 
ATOM     47  C   UNL A   1      42.590  25.381  28.367  1.00  0.00     0.034 A 
ATOM     48  C   UNL A   1      43.905  29.466  33.273  1.00  0.00     0.049 A 
ATOM     49  C   UNL A   1      43.729  25.490  29.346  1.00  0.00     0.074 A 
ATOM     50  C   UNL A   1      44.972  29.429  34.155  1.00  0.00     0.029 A 
ATOM     51  N   UNL A   1      44.060  28.392  32.412  1.00  0.00    -0.354 N 
ATOM     52  N   UNL A   1      43.879  26.321  30.350  1.00  0.00    -0.248 NA
ATOM     53  C   UNL A   1      44.828  24.524  29.199  1.00  0.00     0.031 C 
ATOM     54  C   UNL A   1      45.786  28.346  33.808  1.00  0.00     0.029 A 
ATOM     55  C   UNL A   1      45.209  27.691  32.732  1.00  0.00     0.049 A 
ATOM     56  H   UNL A   1      43.443  28.160  31.680  1.00  0.00     0.167 HD
ATOM     57  C   UNL A   1      45.067  25.953  30.974  1.00  0.00     0.074 A 
ATOM     58  C   UNL A   1      45.583  24.811  30.250  1.00  0.00     0.031 C 
ATOM     59  C   UNL A   1      45.683  26.521  32.040  1.00  0.00     0.034 A 
BRANCH  46  60
ATOM     60  C   UNL A   1      42.850  31.567  34.187  1.00  0.00     0.023 A 
ATOM     61  C   UNL A   1      43.437  32.790  33.802  1.00  0.00     0.012 A 
ATOM     62  C   UNL A   1      42.224  31.469  35.446  1.00  0.00     0.148 A 
ATOM     63  C   UNL A   1      43.427  33.887  34.663  1.00  0.00     0.002 A 
ATOM     64  C   UNL A   1      42.176  32.580  36.279  1.00  0.00     0.091 A 
ATOM     65  F   UNL A   1      41.687  30.293  35.801  1.00  0.00    -0.205 F 
ATOM     66  C   UNL A   1      42.787  33.785  35.895  1.00  0.00     0.022 A 
BRANCH  64  67
ATOM     67  S   UNL A   1      41.305  32.581  37.851  1.00  0.00     0.127 S 
ATOM     68  O   UNL A   1      42.077  31.603  38.615  1.00  0.00    -0.237 OA
ATOM     69  O   UNL A   1      41.469  33.966  38.290  1.00  0.00    -0.237 OA
ATOM     70  O   UNL A   1      39.933  32.193  37.552  1.00  0.00    -0.744 OA
ENDBRANCH  64  67
ENDBRANCH  46  60
BRANCH  47  71
ATOM     71  C   UNL A   1      42.600  24.339  27.302  1.00  0.00     0.023 A 
ATOM     72  C   UNL A   1      43.219  24.615  26.067  1.00  0.00     0.012 A 
ATOM     73  C   UNL A   1      42.009  23.076  27.504  1.00  0.00     0.148 A 
ATOM     74  C   UNL A   1      43.214  23.671  25.039  1.00  0.00     0.002 A 
ATOM     75  C   UNL A   1      42.059  22.119  26.497  1.00  0.00     0.091 A 
ATOM     76  F   UNL A   1      41.413  22.834  28.679  1.00  0.00    -0.205 F 
ATOM     77  C   UNL A   1      42.643  22.421  25.257  1.00  0.00     0.022 A 
BRANCH  75  78
ATOM     78  S   UNL A   1      41.467  20.440  26.738  1.00  0.00     0.127 S 
ATOM     79  O   UNL A   1      42.283  19.993  27.863  1.00  0.00    -0.237 OA
ATOM     80  O   UNL A   1      40.054  20.656  27.049  1.00  0.00    -0.237 OA
ATOM     81  O   UNL A   1      41.701  19.757  25.472  1.00  0.00    -0.744 OA
ENDBRANCH  75  78
ENDBRANCH  47  71
BRANCH  59  82
ATOM     82  C   UNL A   1      46.963  25.894  32.524  1.00  0.00     0.023 A 
ATOM     83  C   UNL A   1      48.201  26.354  32.032  1.00  0.00     0.012 A 
ATOM     84  C   UNL A   1      46.942  24.903  33.525  1.00  0.00     0.148 A 
ATOM     85  C   UNL A   1      49.396  25.811  32.503  1.00  0.00     0.002 A 
ATOM     86  C   UNL A   1      48.138  24.404  34.027  1.00  0.00     0.091 A 
ATOM     87  F   UNL A   1      45.754  24.467  33.970  1.00  0.00    -0.205 F 
ATOM     88  C   UNL A   1      49.365  24.847  33.508  1.00  0.00     0.022 A 
BRANCH  86  89
ATOM     89  S   UNL A   1      48.197  23.234  35.389  1.00  0.00     0.127 S 
ATOM     90  O   UNL A   1      47.571  22.054  34.795  1.00  0.00    -0.237 OA
ATOM     91  O   UNL A   1      49.635  23.107  35.627  1.00  0.00    -0.237 OA
ATOM     92  O   UNL A   1      47.456  23.851  36.481  1.00  0.00    -0.744 OA
ENDBRANCH  86  89
ENDBRANCH  59  82
ENDBRANCH  33  34
ENDBRANCH  25  28
ENDBRANCH  23  24
ENDBRANCH   1  23
TORSDOF 15
ENDMDL
MODEL 2
REMARK VINA RESULT:     -11.6      1.355      2.027
REMARK SMILES Cc1cc(C[N@@H+]2C[C@H](C)[C@H](C(=O)NCCCNC(=O)c3ccc(-c4c5nc(c(-c6cccc(S(=O)(=O)[O-])c6F)c6ccc([nH]6)c(-c6cccc(S(=O)(=O)[O-])c6F)c6nc(c(-c7cccc(S(=O)(=O)[O-])c7F)c7ccc4[nH]7)C=C6)C=C5)cc3)C2)ccc1Br
REMARK SMILES IDX 15 1 14 2 13 3 11 4 12 5 10 7 6 8 7 9 83 10 8 12 9 13 5 14
REMARK SMILES IDX 4 15 1 16 2 17 3 18 86 19 85 20 87 21 84 22 16 23 17 24
REMARK SMILES IDX 18 25 19 27 20 28 21 29 82 30 22 31 81 32 23 33 24 34 25 35
REMARK SMILES IDX 75 36 26 37 80 38 74 39 76 40 27 41 79 42 73 43 72 44 28 46
REMARK SMILES IDX 60 47 40 48 59 49 41 50 44 51 58 52 77 53 42 54 43 55 57 57
REMARK SMILES IDX 78 58 45 59 29 60 30 61 38 62 31 63 33 64 39 65 32 66 34 67
REMARK SMILES IDX 35 68 36 69 37 70 61 71 62 72 70 73 63 74 65 75 71 76 64 77
REMARK SMILES IDX 66 78 67 79 68 80 69 81 46 82 47 83 55 84 48 85 50 86 56 87
REMARK SMILES IDX 49 88 51 89 52 90 53 91 54 92
REMARK H PARENT 13 6 6 11 17 26 76 45 44 56
REMARK Flexibility Score: inf
ROOT
ATOM      1  C   UNL A   1      33.254  28.670  24.814  1.00  0.00     0.042 C 
ENDROOT
BRANCH   1   2
ATOM      2  C   UNL A   1      31.773  28.973  24.970  1.00  0.00     0.117 C 
BRANCH   2   3
ATOM      3  N   UNL A   1      31.116  29.244  23.706  1.00  0.00    -0.356 N 
ATOM      4  C   UNL A   1      30.392  28.450  22.877  1.00  0.00     0.229 C 
ATOM      5  O   UNL A   1      29.979  28.981  21.839  1.00  0.00    -0.275 OA
ATOM      6  H   UNL A   1      31.214  30.172  23.392  1.00  0.00     0.163 HD
BRANCH   4   7
ATOM      7  C   UNL A   1      30.085  26.979  23.133  1.00  0.00     0.142 C 
ATOM      8  N   UNL A   1      30.298  25.127  24.617  1.00  0.00    -0.330 N 
ATOM      9  C   UNL A   1      30.710  24.674  23.297  1.00  0.00     0.266 C 
ATOM     10  C   UNL A   1      29.889  26.525  24.577  1.00  0.00     0.276 C 
ATOM     11  H   UNL A   1      29.455  24.599  24.842  1.00  0.00     0.348 HD
ATOM     12  C   UNL A   1      30.967  25.925  22.454  1.00  0.00     0.059 C 
ATOM     13  C   UNL A   1      32.450  26.230  22.327  1.00  0.00     0.015 C 
BRANCH   8  14
ATOM     14  C   UNL A   1      31.022  24.640  25.785  1.00  0.00     0.299 C 
BRANCH  14  15
ATOM     15  C   UNL A   1      32.478  24.256  25.603  1.00  0.00     0.007 A 
ATOM     16  C   UNL A   1      34.527  21.079  25.040  1.00  0.00     0.045 C 
ATOM     17  C   UNL A   1      34.194  22.535  25.219  1.00  0.00    -0.036 A 
ATOM     18  C   UNL A   1      32.846  22.918  25.371  1.00  0.00     0.014 A 
ATOM     19  C   UNL A   1      35.186  23.523  25.315  1.00  0.00     0.020 A 
ATOM     20  C   UNL A   1      34.834  24.859  25.510  1.00  0.00     0.016 A 
ATOM     21  Br  UNL A   1      37.039  23.108  25.241  1.00  0.00    -0.051 Br
ATOM     22  C   UNL A   1      33.490  25.223  25.636  1.00  0.00     0.011 A 
ENDBRANCH  14  15
ENDBRANCH   8  14
ENDBRANCH   4   7
ENDBRANCH   2   3
ENDBRANCH   1   2
BRANCH   1  23
ATOM     23  C   UNL A   1      34.074  28.875  26.074  1.00  0.00     0.118 C 
BRANCH  23  24
ATOM     24  N   UNL A   1      33.856  30.182  26.681  1.00  0.00    -0.352 N 
ATOM     25  C   UNL A   1      34.532  30.841  27.682  1.00  0.00     0.251 C 
ATOM     26  H   UNL A   1      33.092  30.679  26.310  1.00  0.00     0.163 HD
ATOM     27  O   UNL A   1      34.024  31.854  28.161  1.00  0.00    -0.269 OA
BRANCH  25  28
ATOM     28  C   UNL A   1      35.833  30.353  28.202  1.00  0.00     0.039 A 
ATOM     29  C   UNL A   1      35.858  29.657  29.416  1.00  0.00     0.014 A 
ATOM     30  C   UNL A   1      37.035  30.615  27.545  1.00  0.00     0.014 A 
ATOM     31  C   UNL A   1      37.069  29.175  29.926  1.00  0.00     0.010 A 
ATOM     32  C   UNL A   1      38.221  30.038  27.991  1.00  0.00     0.010 A 
ATOM     33  C   UNL A   1      38.260  29.330  29.200  1.00  0.00    -0.014 A 
BRANCH  33  34
ATOM     34  C   UNL A   1      39.556  28.788  29.688  1.00  0.00     0.031 A 
ATOM     35  C   UNL A   1      40.299  29.489  30.801  1.00  0.00     0.074 A 
ATOM     36  C   UNL A   1      40.113  27.724  29.075  1.00  0.00     0.049 A 
ATOM     37  N   UNL A   1      41.478  29.222  31.302  1.00  0.00    -0.248 NA
ATOM     38  C   UNL A   1      39.649  30.665  31.406  1.00  0.00     0.031 C 
ATOM     39  C   UNL A   1      39.538  27.007  27.936  1.00  0.00     0.029 A 
ATOM     40  N   UNL A   1      41.305  27.080  29.304  1.00  0.00    -0.354 N 
ATOM     41  C   UNL A   1      41.728  30.215  32.241  1.00  0.00     0.074 A 
ATOM     42  C   UNL A   1      40.595  31.113  32.218  1.00  0.00     0.031 C 
ATOM     43  C   UNL A   1      40.375  26.023  27.567  1.00  0.00     0.029 A 
ATOM     44  C   UNL A   1      41.559  26.059  28.418  1.00  0.00     0.049 A 
ATOM     45  H   UNL A   1      41.919  27.325  30.034  1.00  0.00     0.167 HD
ATOM     46  C   UNL A   1      42.788  30.355  33.072  1.00  0.00     0.034 A 
ATOM     47  C   UNL A   1      42.630  25.250  28.295  1.00  0.00     0.034 A 
ATOM     48  C   UNL A   1      43.885  29.429  33.138  1.00  0.00     0.049 A 
ATOM     49  C   UNL A   1      43.770  25.394  29.269  1.00  0.00     0.074 A 
ATOM     50  C   UNL A   1      44.954  29.423  34.017  1.00  0.00     0.029 A 
ATOM     51  N   UNL A   1      44.057  28.345  32.292  1.00  0.00    -0.354 N 
ATOM     52  N   UNL A   1      43.908  26.241  30.260  1.00  0.00    -0.248 NA
ATOM     53  C   UNL A   1      44.886  24.446  29.133  1.00  0.00     0.031 C 
ATOM     54  C   UNL A   1      45.788  28.351  33.684  1.00  0.00     0.029 A 
ATOM     55  C   UNL A   1      45.220  27.670  32.619  1.00  0.00     0.049 A 
ATOM     56  H   UNL A   1      43.442  28.092  31.565  1.00  0.00     0.167 HD
ATOM     57  C   UNL A   1      45.104  25.904  30.886  1.00  0.00     0.074 A 
ATOM     58  C   UNL A   1      45.639  24.761  30.177  1.00  0.00     0.031 C 
ATOM     59  C   UNL A   1      45.712  26.499  31.942  1.00  0.00     0.034 A 
BRANCH  46  60
ATOM     60  C   UNL A   1      42.794  31.523  34.024  1.00  0.00     0.023 A 
ATOM     61  C   UNL A   1      43.323  32.762  33.607  1.00  0.00     0.012 A 
ATOM     62  C   UNL A   1      42.206  31.419  35.301  1.00  0.00     0.148 A 
ATOM     63  C   UNL A   1      43.294  33.870  34.453  1.00  0.00     0.002 A 
ATOM     64  C   UNL A   1      42.138  32.540  36.121  1.00  0.00     0.091 A 
ATOM     65  F   UNL A   1      41.725  30.229  35.687  1.00  0.00    -0.205 F 
ATOM     66  C   UNL A   1      42.692  33.762  35.703  1.00  0.00     0.022 A 
BRANCH  64  67
ATOM     67  S   UNL A   1      41.311  32.530  37.716  1.00  0.00     0.127 S 
ATOM     68  O   UNL A   1      41.373  33.943  38.087  1.00  0.00    -0.237 OA
ATOM     69  O   UNL A   1      39.976  32.050  37.364  1.00  0.00    -0.237 OA
ATOM     70  O   UNL A   1      42.081  31.630  38.564  1.00  0.00    -0.744 OA
ENDBRANCH  64  67
ENDBRANCH  46  60
BRANCH  47  71
ATOM     71  C   UNL A   1      42.656  24.192  27.245  1.00  0.00     0.023 A 
ATOM     72  C   UNL A   1      43.314  24.443  26.024  1.00  0.00     0.012 A 
ATOM     73  C   UNL A   1      42.044  22.940  27.448  1.00  0.00     0.148 A 
ATOM     74  C   UNL A   1      43.325  23.485  25.010  1.00  0.00     0.002 A 
ATOM     75  C   UNL A   1      42.109  21.968  26.456  1.00  0.00     0.091 A 
ATOM     76  F   UNL A   1      41.412  22.723  28.608  1.00  0.00    -0.205 F 
ATOM     77  C   UNL A   1      42.731  22.246  25.229  1.00  0.00     0.022 A 
BRANCH  75  78
ATOM     78  S   UNL A   1      41.488  20.301  26.703  1.00  0.00     0.127 S 
ATOM     79  O   UNL A   1      40.055  20.535  26.858  1.00  0.00    -0.237 OA
ATOM     80  O   UNL A   1      41.873  19.643  25.454  1.00  0.00    -0.237 OA
ATOM     81  O   UNL A   1      42.180  19.796  27.881  1.00  0.00    -0.744 OA
ENDBRANCH  75  78
ENDBRANCH  47  71
BRANCH  59  82
ATOM     82  C   UNL A   1      47.005  25.902  32.432  1.00  0.00     0.023 A 
ATOM     83  C   UNL A   1      48.232  26.359  31.910  1.00  0.00     0.012 A 
ATOM     84  C   UNL A   1      47.006  24.944  33.465  1.00  0.00     0.148 A 
ATOM     85  C   UNL A   1      49.438  25.845  32.384  1.00  0.00     0.002 A 
ATOM     86  C   UNL A   1      48.214  24.475  33.968  1.00  0.00     0.091 A 
ATOM     87  F   UNL A   1      45.829  24.510  33.937  1.00  0.00    -0.205 F 
ATOM     88  C   UNL A   1      49.430  24.914  33.420  1.00  0.00     0.022 A 
BRANCH  86  89
ATOM     89  S   UNL A   1      48.301  23.351  35.367  1.00  0.00     0.127 S 
ATOM     90  O   UNL A   1      47.701  22.139  34.813  1.00  0.00    -0.237 OA
ATOM     91  O   UNL A   1      49.743  23.264  35.605  1.00  0.00    -0.237 OA
ATOM     92  O   UNL A   1      47.549  23.986  36.441  1.00  0.00    -0.744 OA
ENDBRANCH  86  89
ENDBRANCH  59  82
ENDBRANCH  33  34
ENDBRANCH  25  28
ENDBRANCH  23  24
ENDBRANCH   1  23
TORSDOF 15
ENDMDL
MODEL 3
REMARK VINA RESULT:     -11.3      4.410      9.482
REMARK SMILES Cc1cc(C[N@@H+]2C[C@H](C)[C@H](C(=O)NCCCNC(=O)c3ccc(-c4c5nc(c(-c6cccc(S(=O)(=O)[O-])c6F)c6ccc([nH]6)c(-c6cccc(S(=O)(=O)[O-])c6F)c6nc(c(-c7cccc(S(=O)(=O)[O-])c7F)c7ccc4[nH]7)C=C6)C=C5)cc3)C2)ccc1Br
REMARK SMILES IDX 15 1 14 2 13 3 11 4 12 5 10 7 6 8 7 9 83 10 8 12 9 13 5 14
REMARK SMILES IDX 4 15 1 16 2 17 3 18 86 19 85 20 87 21 84 22 16 23 17 24
REMARK SMILES IDX 18 25 19 27 20 28 21 29 82 30 22 31 81 32 23 33 24 34 25 35
REMARK SMILES IDX 75 36 26 37 80 38 74 39 76 40 27 41 79 42 73 43 72 44 28 46
REMARK SMILES IDX 60 47 40 48 59 49 41 50 44 51 58 52 77 53 42 54 43 55 57 57
REMARK SMILES IDX 78 58 45 59 29 60 30 61 38 62 31 63 33 64 39 65 32 66 34 67
REMARK SMILES IDX 35 68 36 69 37 70 61 71 62 72 70 73 63 74 65 75 71 76 64 77
REMARK SMILES IDX 66 78 67 79 68 80 69 81 46 82 47 83 55 84 48 85 50 86 56 87
REMARK SMILES IDX 49 88 51 89 52 90 53 91 54 92
REMARK H PARENT 13 6 6 11 17 26 76 45 44 56
REMARK Flexibility Score: inf
ROOT
ATOM      1  C   UNL A   1      36.255  23.138  24.119  1.00  0.00     0.042 C 
ENDROOT
BRANCH   1   2
ATOM      2  C   UNL A   1      34.789  22.759  23.986  1.00  0.00     0.117 C 
BRANCH   2   3
ATOM      3  N   UNL A   1      34.519  21.397  24.405  1.00  0.00    -0.356 N 
ATOM      4  C   UNL A   1      33.398  20.809  24.895  1.00  0.00     0.229 C 
ATOM      5  O   UNL A   1      33.497  19.611  25.189  1.00  0.00    -0.275 OA
ATOM      6  H   UNL A   1      35.288  20.789  24.318  1.00  0.00     0.163 HD
BRANCH   4   7
ATOM      7  C   UNL A   1      32.070  21.523  25.118  1.00  0.00     0.142 C 
ATOM      8  N   UNL A   1      30.749  23.456  24.682  1.00  0.00    -0.330 N 
ATOM      9  C   UNL A   1      30.711  23.222  26.117  1.00  0.00     0.266 C 
ATOM     10  C   UNL A   1      31.552  22.440  24.014  1.00  0.00     0.276 C 
ATOM     11  H   UNL A   1      29.794  23.315  24.351  1.00  0.00     0.348 HD
ATOM     12  C   UNL A   1      31.858  22.262  26.444  1.00  0.00     0.059 C 
ATOM     13  C   UNL A   1      33.053  22.987  27.040  1.00  0.00     0.015 C 
BRANCH   8  14
ATOM     14  C   UNL A   1      30.808  24.830  24.195  1.00  0.00     0.299 C 
BRANCH  14  15
ATOM     15  C   UNL A   1      31.709  25.801  24.933  1.00  0.00     0.007 A 
ATOM     16  C   UNL A   1      31.429  28.322  27.792  1.00  0.00     0.045 C 
ATOM     17  C   UNL A   1      32.032  27.488  26.694  1.00  0.00    -0.036 A 
ATOM     18  C   UNL A   1      31.217  26.565  26.008  1.00  0.00     0.014 A 
ATOM     19  C   UNL A   1      33.362  27.648  26.278  1.00  0.00     0.020 A 
ATOM     20  C   UNL A   1      33.873  26.873  25.236  1.00  0.00     0.016 A 
ATOM     21  Br  UNL A   1      34.517  28.943  27.053  1.00  0.00    -0.051 Br
ATOM     22  C   UNL A   1      33.057  25.946  24.581  1.00  0.00     0.011 A 
ENDBRANCH  14  15
ENDBRANCH   8  14
ENDBRANCH   4   7
ENDBRANCH   2   3
ENDBRANCH   1   2
BRANCH   1  23
ATOM     23  C   UNL A   1      36.730  23.320  25.549  1.00  0.00     0.118 C 
BRANCH  23  24
ATOM     24  N   UNL A   1      37.830  22.430  25.894  1.00  0.00    -0.352 N 
ATOM     25  C   UNL A   1      39.087  22.692  26.388  1.00  0.00     0.251 C 
ATOM     26  H   UNL A   1      37.641  21.475  25.750  1.00  0.00     0.163 HD
ATOM     27  O   UNL A   1      39.912  21.778  26.403  1.00  0.00    -0.269 OA
BRANCH  25  28
ATOM     28  C   UNL A   1      39.472  24.038  26.878  1.00  0.00     0.039 A 
ATOM     29  C   UNL A   1      39.251  24.356  28.223  1.00  0.00     0.014 A 
ATOM     30  C   UNL A   1      39.996  25.011  26.028  1.00  0.00     0.014 A 
ATOM     31  C   UNL A   1      39.615  25.615  28.718  1.00  0.00     0.010 A 
ATOM     32  C   UNL A   1      40.464  26.218  26.543  1.00  0.00     0.010 A 
ATOM     33  C   UNL A   1      40.258  26.547  27.890  1.00  0.00    -0.014 A 
BRANCH  33  34
ATOM     34  C   UNL A   1      40.702  27.873  28.394  1.00  0.00     0.031 A 
ATOM     35  C   UNL A   1      42.175  28.173  28.544  1.00  0.00     0.074 A 
ATOM     36  C   UNL A   1      39.788  28.775  28.808  1.00  0.00     0.049 A 
ATOM     37  N   UNL A   1      42.755  29.233  29.046  1.00  0.00    -0.248 NA
ATOM     38  C   UNL A   1      43.120  27.132  28.104  1.00  0.00     0.031 C 
ATOM     39  C   UNL A   1      38.338  28.577  28.794  1.00  0.00     0.029 A 
ATOM     40  N   UNL A   1      39.946  30.027  29.350  1.00  0.00    -0.354 N 
ATOM     41  C   UNL A   1      44.119  28.969  29.024  1.00  0.00     0.074 A 
ATOM     42  C   UNL A   1      44.282  27.634  28.492  1.00  0.00     0.031 C 
ATOM     43  C   UNL A   1      37.740  29.667  29.302  1.00  0.00     0.029 A 
ATOM     44  C   UNL A   1      38.761  30.627  29.709  1.00  0.00     0.049 A 
ATOM     45  H   UNL A   1      40.825  30.456  29.471  1.00  0.00     0.167 HD
ATOM     46  C   UNL A   1      45.148  29.772  29.385  1.00  0.00     0.034 A 
ATOM     47  C   UNL A   1      38.523  31.810  30.308  1.00  0.00     0.034 A 
ATOM     48  C   UNL A   1      44.988  31.120  29.856  1.00  0.00     0.049 A 
ATOM     49  C   UNL A   1      39.685  32.705  30.647  1.00  0.00     0.074 A 
ATOM     50  C   UNL A   1      45.970  32.051  30.146  1.00  0.00     0.029 A 
ATOM     51  N   UNL A   1      43.771  31.731  30.109  1.00  0.00    -0.354 N 
ATOM     52  N   UNL A   1      40.968  32.500  30.463  1.00  0.00    -0.248 NA
ATOM     53  C   UNL A   1      39.368  34.013  31.242  1.00  0.00     0.031 C 
ATOM     54  C   UNL A   1      45.346  33.217  30.602  1.00  0.00     0.029 A 
ATOM     55  C   UNL A   1      43.974  33.022  30.562  1.00  0.00     0.049 A 
ATOM     56  H   UNL A   1      42.890  31.309  29.983  1.00  0.00     0.167 HD
ATOM     57  C   UNL A   1      41.604  33.664  30.883  1.00  0.00     0.074 A 
ATOM     58  C   UNL A   1      40.565  34.578  31.308  1.00  0.00     0.031 C 
ATOM     59  C   UNL A   1      42.930  33.943  30.928  1.00  0.00     0.034 A 
BRANCH  46  60
ATOM     60  C   UNL A   1      46.550  29.240  29.231  1.00  0.00     0.023 A 
ATOM     61  C   UNL A   1      47.195  28.644  30.334  1.00  0.00     0.012 A 
ATOM     62  C   UNL A   1      47.199  29.259  27.980  1.00  0.00     0.148 A 
ATOM     63  C   UNL A   1      48.472  28.100  30.203  1.00  0.00     0.002 A 
ATOM     64  C   UNL A   1      48.452  28.673  27.846  1.00  0.00     0.091 A 
ATOM     65  F   UNL A   1      46.578  29.847  26.948  1.00  0.00    -0.205 F 
ATOM     66  C   UNL A   1      49.095  28.104  28.959  1.00  0.00     0.022 A 
BRANCH  64  67
ATOM     67  S   UNL A   1      49.306  28.552  26.270  1.00  0.00     0.127 S 
ATOM     68  O   UNL A   1      49.992  29.841  26.207  1.00  0.00    -0.237 OA
ATOM     69  O   UNL A   1      50.185  27.403  26.487  1.00  0.00    -0.237 OA
ATOM     70  O   UNL A   1      48.271  28.348  25.265  1.00  0.00    -0.744 OA
ENDBRANCH  64  67
ENDBRANCH  46  60
BRANCH  47  71
ATOM     71  C   UNL A   1      37.123  32.246  30.579  1.00  0.00     0.023 A 
ATOM     72  C   UNL A   1      36.585  32.089  31.871  1.00  0.00     0.012 A 
ATOM     73  C   UNL A   1      36.325  32.822  29.570  1.00  0.00     0.148 A 
ATOM     74  C   UNL A   1      35.267  32.457  32.144  1.00  0.00     0.002 A 
ATOM     75  C   UNL A   1      35.032  33.240  29.864  1.00  0.00     0.091 A 
ATOM     76  F   UNL A   1      36.848  32.953  28.344  1.00  0.00    -0.205 F 
ATOM     77  C   UNL A   1      34.494  33.040  31.145  1.00  0.00     0.022 A 
BRANCH  75  78
ATOM     78  S   UNL A   1      34.015  34.122  28.675  1.00  0.00     0.127 S 
ATOM     79  O   UNL A   1      33.702  33.070  27.711  1.00  0.00    -0.237 OA
ATOM     80  O   UNL A   1      32.888  34.556  29.500  1.00  0.00    -0.237 OA
ATOM     81  O   UNL A   1      34.846  35.210  28.179  1.00  0.00    -0.744 OA
ENDBRANCH  75  78
ENDBRANCH  47  71
BRANCH  59  82
ATOM     82  C   UNL A   1      43.342  35.308  31.412  1.00  0.00     0.023 A 
ATOM     83  C   UNL A   1      43.657  36.318  30.483  1.00  0.00     0.012 A 
ATOM     84  C   UNL A   1      43.340  35.610  32.789  1.00  0.00     0.148 A 
ATOM     85  C   UNL A   1      43.999  37.598  30.917  1.00  0.00     0.002 A 
ATOM     86  C   UNL A   1      43.632  36.902  33.211  1.00  0.00     0.091 A 
ATOM     87  F   UNL A   1      43.053  34.631  33.659  1.00  0.00    -0.205 F 
ATOM     88  C   UNL A   1      43.974  37.893  32.278  1.00  0.00     0.022 A 
BRANCH  86  89
ATOM     89  S   UNL A   1      43.527  37.397  34.935  1.00  0.00     0.127 S 
ATOM     90  O   UNL A   1      43.806  38.829  34.850  1.00  0.00    -0.237 OA
ATOM     91  O   UNL A   1      42.142  37.064  35.269  1.00  0.00    -0.237 OA
ATOM     92  O   UNL A   1      44.525  36.606  35.642  1.00  0.00    -0.744 OA
ENDBRANCH  86  89
ENDBRANCH  59  82
ENDBRANCH  33  34
ENDBRANCH  25  28
ENDBRANCH  23  24
ENDBRANCH   1  23
TORSDOF 15
ENDMDL
