MODEL 1
REMARK VINA RESULT:     -11.4      0.000      0.000
REMARK SMILES CC(C)(C)OC(=O)[C@]1(C(=O)NCCCNC(=O)c2ccc(-c3c4nc(c(-c5cccc(S(=O)(=O)[O-])c5F)c5ccc([nH]5)c(-c5cccc(S(=O)(=O)[O-])c5F)c5nc(c(-c6cccc(S(=O)(=O)[O-])c6F)c6ccc3[nH]6)C=C5)C=C4)cc2)CC=CC[C@@H]1[NH3+]
REMARK SMILES IDX 13 1 12 2 11 3 9 4 10 5 8 7 81 8 85 9 82 10 84 11 83 12 6 13
REMARK SMILES IDX 7 14 5 15 2 16 1 17 3 18 4 19 86 20 14 24 15 25 16 26 17 28
REMARK SMILES IDX 18 29 19 30 80 31 20 32 79 33 21 34 22 35 23 36 73 37 24 38
REMARK SMILES IDX 78 39 72 40 74 41 25 42 77 43 71 44 70 45 26 47 58 48 38 49
REMARK SMILES IDX 57 50 39 51 42 52 56 53 75 54 40 55 41 56 55 58 76 59 43 60
REMARK SMILES IDX 27 61 28 62 36 63 29 64 31 65 37 66 30 67 32 68 33 69 34 70
REMARK SMILES IDX 35 71 59 72 60 73 68 74 61 75 63 76 69 77 62 78 64 79 65 80
REMARK SMILES IDX 66 81 67 82 44 83 45 84 53 85 46 86 48 87 54 88 47 89 49 90
REMARK SMILES IDX 50 91 51 92 52 93
REMARK H PARENT 11 6 86 21 86 22 86 23 15 27 74 46 42 57
REMARK Flexibility Score: inf
ROOT
ATOM      1  C   UNL A   1      31.660  28.497  26.221  1.00  0.00     0.042 C 
ENDROOT
BRANCH   1   2
ATOM      2  C   UNL A   1      31.198  27.503  25.167  1.00  0.00     0.117 C 
BRANCH   2   3
ATOM      3  N   UNL A   1      32.002  27.534  23.955  1.00  0.00    -0.355 N 
ATOM      4  C   UNL A   1      32.637  26.522  23.289  1.00  0.00     0.244 C 
ATOM      5  O   UNL A   1      33.170  26.840  22.220  1.00  0.00    -0.274 OA
ATOM      6  H   UNL A   1      32.107  28.425  23.550  1.00  0.00     0.163 HD
BRANCH   4   7
ATOM      7  C   UNL A   1      32.811  25.110  23.909  1.00  0.00     0.201 C 
ATOM      8  C   UNL A   1      33.353  25.291  25.370  1.00  0.00     0.062 C 
ATOM      9  C   UNL A   1      31.384  24.454  23.790  1.00  0.00     0.212 C 
ATOM     10  C   UNL A   1      32.646  24.588  26.479  1.00  0.00    -0.029 C 
ATOM     11  C   UNL A   1      30.680  23.983  25.088  1.00  0.00     0.093 C 
ATOM     12  C   UNL A   1      31.455  24.010  26.355  1.00  0.00    -0.025 C 
BRANCH   7  13
ATOM     13  C   UNL A   1      33.999  24.426  23.234  1.00  0.00     0.328 C 
ATOM     14  O   UNL A   1      33.963  24.070  22.058  1.00  0.00    -0.251 OA
BRANCH  13  15
ATOM     15  O   UNL A   1      35.130  24.397  23.991  1.00  0.00    -0.459 OA
BRANCH  15  16
ATOM     16  C   UNL A   1      35.757  23.119  24.295  1.00  0.00     0.104 C 
ATOM     17  C   UNL A   1      36.616  23.371  25.543  1.00  0.00     0.056 C 
ATOM     18  C   UNL A   1      36.675  22.722  23.133  1.00  0.00     0.056 C 
ATOM     19  C   UNL A   1      34.755  22.004  24.637  1.00  0.00     0.056 C 
ENDBRANCH  15  16
ENDBRANCH  13  15
ENDBRANCH   7  13
BRANCH   9  20
ATOM     20  N   UNL A   1      31.233  23.402  22.760  1.00  0.00    -0.353 N 
ATOM     21  H   UNL A   1      31.752  23.668  21.923  1.00  0.00     0.344 HD
ATOM     22  H   UNL A   1      30.246  23.293  22.526  1.00  0.00     0.344 HD
ATOM     23  H   UNL A   1      31.597  22.519  23.118  1.00  0.00     0.344 HD
ENDBRANCH   9  20
ENDBRANCH   4   7
ENDBRANCH   2   3
ENDBRANCH   1   2
BRANCH   1  24
ATOM     24  C   UNL A   1      32.656  29.538  25.727  1.00  0.00     0.118 C 
BRANCH  24  25
ATOM     25  N   UNL A   1      32.335  30.895  26.149  1.00  0.00    -0.352 N 
ATOM     26  C   UNL A   1      32.989  31.718  27.033  1.00  0.00     0.251 C 
ATOM     27  H   UNL A   1      31.526  31.280  25.739  1.00  0.00     0.163 HD
ATOM     28  O   UNL A   1      32.482  32.794  27.348  1.00  0.00    -0.269 OA
BRANCH  26  29
ATOM     29  C   UNL A   1      34.280  31.309  27.632  1.00  0.00     0.039 A 
ATOM     30  C   UNL A   1      35.272  32.277  27.810  1.00  0.00     0.014 A 
ATOM     31  C   UNL A   1      34.522  29.988  28.012  1.00  0.00     0.014 A 
ATOM     32  C   UNL A   1      36.475  31.934  28.435  1.00  0.00     0.010 A 
ATOM     33  C   UNL A   1      35.685  29.667  28.709  1.00  0.00     0.010 A 
ATOM     34  C   UNL A   1      36.677  30.635  28.928  1.00  0.00    -0.014 A 
BRANCH  34  35
ATOM     35  C   UNL A   1      37.903  30.280  29.690  1.00  0.00     0.031 A 
ATOM     36  C   UNL A   1      38.895  29.296  29.131  1.00  0.00     0.074 A 
ATOM     37  C   UNL A   1      38.084  30.782  30.930  1.00  0.00     0.049 A 
ATOM     38  N   UNL A   1      39.988  28.826  29.676  1.00  0.00    -0.248 NA
ATOM     39  C   UNL A   1      38.611  28.747  27.795  1.00  0.00     0.031 C 
ATOM     40  C   UNL A   1      37.161  31.687  31.619  1.00  0.00     0.029 A 
ATOM     41  N   UNL A   1      39.092  30.581  31.841  1.00  0.00    -0.354 N 
ATOM     42  C   UNL A   1      40.502  27.906  28.770  1.00  0.00     0.074 A 
ATOM     43  C   UNL A   1      39.582  27.857  27.654  1.00  0.00     0.031 C 
ATOM     44  C   UNL A   1      37.647  31.965  32.839  1.00  0.00     0.029 A 
ATOM     45  C   UNL A   1      38.892  31.232  33.036  1.00  0.00     0.049 A 
ATOM     46  H   UNL A   1      39.882  30.023  31.656  1.00  0.00     0.167 HD
ATOM     47  C   UNL A   1      41.646  27.185  28.846  1.00  0.00     0.034 A 
ATOM     48  C   UNL A   1      39.621  31.230  34.171  1.00  0.00     0.034 A 
ATOM     49  C   UNL A   1      42.575  27.258  29.943  1.00  0.00     0.049 A 
ATOM     50  C   UNL A   1      40.900  30.439  34.219  1.00  0.00     0.074 A 
ATOM     51  C   UNL A   1      43.802  26.631  30.071  1.00  0.00     0.029 A 
ATOM     52  N   UNL A   1      42.376  27.987  31.104  1.00  0.00    -0.354 N 
ATOM     53  N   UNL A   1      41.447  29.695  33.289  1.00  0.00    -0.248 NA
ATOM     54  C   UNL A   1      41.681  30.515  35.463  1.00  0.00     0.031 C 
ATOM     55  C   UNL A   1      44.329  26.954  31.326  1.00  0.00     0.029 A 
ATOM     56  C   UNL A   1      43.450  27.815  31.962  1.00  0.00     0.049 A 
ATOM     57  H   UNL A   1      41.588  28.546  31.291  1.00  0.00     0.167 HD
ATOM     58  C   UNL A   1      42.652  29.246  33.818  1.00  0.00     0.074 A 
ATOM     59  C   UNL A   1      42.764  29.819  35.144  1.00  0.00     0.031 C 
ATOM     60  C   UNL A   1      43.576  28.426  33.260  1.00  0.00     0.034 A 
BRANCH  47  61
ATOM     61  C   UNL A   1      41.984  26.282  27.687  1.00  0.00     0.023 A 
ATOM     62  C   UNL A   1      42.773  26.770  26.626  1.00  0.00     0.012 A 
ATOM     63  C   UNL A   1      41.573  24.934  27.676  1.00  0.00     0.148 A 
ATOM     64  C   UNL A   1      43.115  25.946  25.554  1.00  0.00     0.002 A 
ATOM     65  C   UNL A   1      41.958  24.105  26.629  1.00  0.00     0.091 A 
ATOM     66  F   UNL A   1      40.808  24.490  28.684  1.00  0.00    -0.205 F 
ATOM     67  C   UNL A   1      42.717  24.612  25.561  1.00  0.00     0.022 A 
BRANCH  65  68
ATOM     68  S   UNL A   1      41.569  22.352  26.585  1.00  0.00     0.127 S 
ATOM     69  O   UNL A   1      40.111  22.376  26.487  1.00  0.00    -0.237 OA
ATOM     70  O   UNL A   1      42.255  21.916  25.368  1.00  0.00    -0.237 OA
ATOM     71  O   UNL A   1      42.103  21.790  27.818  1.00  0.00    -0.744 OA
ENDBRANCH  65  68
ENDBRANCH  47  61
BRANCH  48  72
ATOM     72  C   UNL A   1      39.183  32.045  35.339  1.00  0.00     0.023 A 
ATOM     73  C   UNL A   1      38.285  31.492  36.273  1.00  0.00     0.012 A 
ATOM     74  C   UNL A   1      39.663  33.353  35.540  1.00  0.00     0.148 A 
ATOM     75  C   UNL A   1      37.846  32.240  37.366  1.00  0.00     0.002 A 
ATOM     76  C   UNL A   1      39.267  34.071  36.662  1.00  0.00     0.091 A 
ATOM     77  F   UNL A   1      40.510  33.864  34.635  1.00  0.00    -0.205 F 
ATOM     78  C   UNL A   1      38.344  33.525  37.566  1.00  0.00     0.022 A 
BRANCH  76  79
ATOM     79  S   UNL A   1      39.957  35.680  37.070  1.00  0.00     0.127 S 
ATOM     80  O   UNL A   1      41.371  35.362  37.251  1.00  0.00    -0.237 OA
ATOM     81  O   UNL A   1      39.647  36.453  35.867  1.00  0.00    -0.237 OA
ATOM     82  O   UNL A   1      39.251  36.120  38.266  1.00  0.00    -0.744 OA
ENDBRANCH  76  79
ENDBRANCH  48  72
BRANCH  60  83
ATOM     83  C   UNL A   1      44.820  28.125  34.058  1.00  0.00     0.023 A 
ATOM     84  C   UNL A   1      45.931  28.988  33.987  1.00  0.00     0.012 A 
ATOM     85  C   UNL A   1      44.857  27.021  34.934  1.00  0.00     0.148 A 
ATOM     86  C   UNL A   1      47.073  28.736  34.747  1.00  0.00     0.002 A 
ATOM     87  C   UNL A   1      45.977  26.808  35.728  1.00  0.00     0.091 A 
ATOM     88  F   UNL A   1      43.796  26.202  34.975  1.00  0.00    -0.205 F 
ATOM     89  C   UNL A   1      47.091  27.656  35.626  1.00  0.00     0.022 A 
BRANCH  87  90
ATOM     90  S   UNL A   1      46.052  25.502  36.958  1.00  0.00     0.127 S 
ATOM     91  O   UNL A   1      44.959  25.873  37.855  1.00  0.00    -0.237 OA
ATOM     92  O   UNL A   1      45.801  24.305  36.154  1.00  0.00    -0.237 OA
ATOM     93  O   UNL A   1      47.385  25.571  37.540  1.00  0.00    -0.744 OA
ENDBRANCH  87  90
ENDBRANCH  60  83
ENDBRANCH  34  35
ENDBRANCH  26  29
ENDBRANCH  24  25
ENDBRANCH   1  24
TORSDOF 17
ENDMDL
MODEL 2
REMARK VINA RESULT:     -11.4      5.189      7.884
REMARK SMILES CC(C)(C)OC(=O)[C@]1(C(=O)NCCCNC(=O)c2ccc(-c3c4nc(c(-c5cccc(S(=O)(=O)[O-])c5F)c5ccc([nH]5)c(-c5cccc(S(=O)(=O)[O-])c5F)c5nc(c(-c6cccc(S(=O)(=O)[O-])c6F)c6ccc3[nH]6)C=C5)C=C4)cc2)CC=CC[C@@H]1[NH3+]
REMARK SMILES IDX 13 1 12 2 11 3 9 4 10 5 8 7 81 8 85 9 82 10 84 11 83 12 6 13
REMARK SMILES IDX 7 14 5 15 2 16 1 17 3 18 4 19 86 20 14 24 15 25 16 26 17 28
REMARK SMILES IDX 18 29 19 30 80 31 20 32 79 33 21 34 22 35 23 36 73 37 24 38
REMARK SMILES IDX 78 39 72 40 74 41 25 42 77 43 71 44 70 45 26 47 58 48 38 49
REMARK SMILES IDX 57 50 39 51 42 52 56 53 75 54 40 55 41 56 55 58 76 59 43 60
REMARK SMILES IDX 27 61 28 62 36 63 29 64 31 65 37 66 30 67 32 68 33 69 34 70
REMARK SMILES IDX 35 71 59 72 60 73 68 74 61 75 63 76 69 77 62 78 64 79 65 80
REMARK SMILES IDX 66 81 67 82 44 83 45 84 53 85 46 86 48 87 54 88 47 89 49 90
REMARK SMILES IDX 50 91 51 92 52 93
REMARK H PARENT 11 6 86 21 86 22 86 23 15 27 74 46 42 57
REMARK Flexibility Score: inf
ROOT
ATOM      1  C   UNL A   1      36.790  20.992  24.637  1.00  0.00     0.042 C 
ENDROOT
BRANCH   1   2
ATOM      2  C   UNL A   1      35.380  20.798  25.173  1.00  0.00     0.117 C 
BRANCH   2   3
ATOM      3  N   UNL A   1      35.154  21.462  26.447  1.00  0.00    -0.355 N 
ATOM      4  C   UNL A   1      34.175  22.338  26.826  1.00  0.00     0.244 C 
ATOM      5  O   UNL A   1      34.183  22.664  28.019  1.00  0.00    -0.274 OA
ATOM      6  H   UNL A   1      35.810  21.247  27.149  1.00  0.00     0.163 HD
BRANCH   4   7
ATOM      7  C   UNL A   1      33.218  22.998  25.799  1.00  0.00     0.201 C 
ATOM      8  C   UNL A   1      34.094  23.611  24.651  1.00  0.00     0.062 C 
ATOM      9  C   UNL A   1      32.248  21.835  25.366  1.00  0.00     0.212 C 
ATOM     10  C   UNL A   1      33.750  23.274  23.240  1.00  0.00    -0.029 C 
ATOM     11  C   UNL A   1      32.186  21.449  23.866  1.00  0.00     0.093 C 
ATOM     12  C   UNL A   1      32.903  22.309  22.891  1.00  0.00    -0.025 C 
BRANCH   7  13
ATOM     13  C   UNL A   1      32.626  24.260  26.426  1.00  0.00     0.328 C 
ATOM     14  O   UNL A   1      31.704  24.213  27.238  1.00  0.00    -0.251 OA
BRANCH  13  15
ATOM     15  O   UNL A   1      33.308  25.401  26.134  1.00  0.00    -0.459 OA
BRANCH  15  16
ATOM     16  C   UNL A   1      32.580  26.575  25.673  1.00  0.00     0.104 C 
ATOM     17  C   UNL A   1      33.656  27.581  25.242  1.00  0.00     0.056 C 
ATOM     18  C   UNL A   1      31.789  27.166  26.846  1.00  0.00     0.056 C 
ATOM     19  C   UNL A   1      31.679  26.305  24.457  1.00  0.00     0.056 C 
ENDBRANCH  15  16
ENDBRANCH  13  15
ENDBRANCH   7  13
BRANCH   9  20
ATOM     20  N   UNL A   1      30.868  21.904  25.897  1.00  0.00    -0.353 N 
ATOM     21  H   UNL A   1      30.390  21.020  25.717  1.00  0.00     0.344 HD
ATOM     22  H   UNL A   1      30.364  22.661  25.437  1.00  0.00     0.344 HD
ATOM     23  H   UNL A   1      30.897  22.075  26.902  1.00  0.00     0.344 HD
ENDBRANCH   9  20
ENDBRANCH   4   7
ENDBRANCH   2   3
ENDBRANCH   1   2
BRANCH   1  24
ATOM     24  C   UNL A   1      37.764  21.639  25.612  1.00  0.00     0.118 C 
BRANCH  24  25
ATOM     25  N   UNL A   1      38.857  20.762  26.009  1.00  0.00    -0.352 N 
ATOM     26  C   UNL A   1      40.076  21.072  26.561  1.00  0.00     0.251 C 
ATOM     27  H   UNL A   1      38.699  19.802  25.858  1.00  0.00     0.163 HD
ATOM     28  O   UNL A   1      40.917  20.186  26.711  1.00  0.00    -0.269 OA
BRANCH  26  29
ATOM     29  C   UNL A   1      40.398  22.464  26.947  1.00  0.00     0.039 A 
ATOM     30  C   UNL A   1      41.242  22.679  28.041  1.00  0.00     0.014 A 
ATOM     31  C   UNL A   1      39.875  23.555  26.249  1.00  0.00     0.014 A 
ATOM     32  C   UNL A   1      41.617  23.980  28.386  1.00  0.00     0.010 A 
ATOM     33  C   UNL A   1      40.316  24.844  26.542  1.00  0.00     0.010 A 
ATOM     34  C   UNL A   1      41.191  25.074  27.615  1.00  0.00    -0.014 A 
BRANCH  34  35
ATOM     35  C   UNL A   1      41.666  26.453  27.901  1.00  0.00     0.031 A 
ATOM     36  C   UNL A   1      43.079  26.859  27.575  1.00  0.00     0.074 A 
ATOM     37  C   UNL A   1      40.850  27.319  28.535  1.00  0.00     0.049 A 
ATOM     38  N   UNL A   1      43.683  27.997  27.804  1.00  0.00    -0.248 NA
ATOM     39  C   UNL A   1      43.933  25.849  26.932  1.00  0.00     0.031 C 
ATOM     40  C   UNL A   1      39.483  27.028  28.974  1.00  0.00     0.029 A 
ATOM     41  N   UNL A   1      41.059  28.614  28.945  1.00  0.00    -0.354 N 
ATOM     42  C   UNL A   1      44.992  27.830  27.366  1.00  0.00     0.074 A 
ATOM     43  C   UNL A   1      45.103  26.469  26.889  1.00  0.00     0.031 C 
ATOM     44  C   UNL A   1      38.976  28.110  29.586  1.00  0.00     0.029 A 
ATOM     45  C   UNL A   1      39.990  29.158  29.619  1.00  0.00     0.049 A 
ATOM     46  H   UNL A   1      41.895  29.105  28.773  1.00  0.00     0.167 HD
ATOM     47  C   UNL A   1      46.002  28.732  27.338  1.00  0.00     0.034 A 
ATOM     48  C   UNL A   1      39.844  30.361  30.210  1.00  0.00     0.034 A 
ATOM     49  C   UNL A   1      45.880  30.095  27.785  1.00  0.00     0.049 A 
ATOM     50  C   UNL A   1      40.974  31.353  30.144  1.00  0.00     0.074 A 
ATOM     51  C   UNL A   1      46.820  31.107  27.718  1.00  0.00     0.029 A 
ATOM     52  N   UNL A   1      44.757  30.633  28.393  1.00  0.00    -0.354 N 
ATOM     53  N   UNL A   1      42.153  31.226  29.585  1.00  0.00    -0.248 NA
ATOM     54  C   UNL A   1      40.740  32.667  30.760  1.00  0.00     0.031 C 
ATOM     55  C   UNL A   1      46.279  32.248  28.319  1.00  0.00     0.029 A 
ATOM     56  C   UNL A   1      44.985  31.959  28.721  1.00  0.00     0.049 A 
ATOM     57  H   UNL A   1      43.919  30.145  28.565  1.00  0.00     0.167 HD
ATOM     58  C   UNL A   1      42.787  32.453  29.748  1.00  0.00     0.074 A 
ATOM     59  C   UNL A   1      41.852  33.316  30.440  1.00  0.00     0.031 C 
ATOM     60  C   UNL A   1      44.033  32.826  29.367  1.00  0.00     0.034 A 
BRANCH  47  61
ATOM     61  C   UNL A   1      47.323  28.287  26.765  1.00  0.00     0.023 A 
ATOM     62  C   UNL A   1      48.408  28.029  27.629  1.00  0.00     0.012 A 
ATOM     63  C   UNL A   1      47.476  28.066  25.382  1.00  0.00     0.148 A 
ATOM     64  C   UNL A   1      49.634  27.597  27.123  1.00  0.00     0.002 A 
ATOM     65  C   UNL A   1      48.685  27.588  24.891  1.00  0.00     0.091 A 
ATOM     66  F   UNL A   1      46.440  28.332  24.573  1.00  0.00    -0.205 F 
ATOM     67  C   UNL A   1      49.768  27.366  25.757  1.00  0.00     0.022 A 
BRANCH  65  68
ATOM     68  S   UNL A   1      48.935  27.178  23.160  1.00  0.00     0.127 S 
ATOM     69  O   UNL A   1      48.355  28.343  22.495  1.00  0.00    -0.237 OA
ATOM     70  O   UNL A   1      50.394  27.090  23.073  1.00  0.00    -0.237 OA
ATOM     71  O   UNL A   1      48.237  25.919  22.939  1.00  0.00    -0.744 OA
ENDBRANCH  65  68
ENDBRANCH  47  61
BRANCH  48  72
ATOM     72  C   UNL A   1      38.557  30.713  30.874  1.00  0.00     0.023 A 
ATOM     73  C   UNL A   1      38.359  30.375  32.227  1.00  0.00     0.012 A 
ATOM     74  C   UNL A   1      37.539  31.397  30.181  1.00  0.00     0.148 A 
ATOM     75  C   UNL A   1      37.156  30.678  32.867  1.00  0.00     0.002 A 
ATOM     76  C   UNL A   1      36.368  31.748  30.841  1.00  0.00     0.091 A 
ATOM     77  F   UNL A   1      37.744  31.702  28.892  1.00  0.00    -0.205 F 
ATOM     78  C   UNL A   1      36.166  31.373  32.178  1.00  0.00     0.022 A 
BRANCH  76  79
ATOM     79  S   UNL A   1      35.093  32.755  30.074  1.00  0.00     0.127 S 
ATOM     80  O   UNL A   1      34.568  31.849  29.056  1.00  0.00    -0.237 OA
ATOM     81  O   UNL A   1      34.192  33.007  31.199  1.00  0.00    -0.237 OA
ATOM     82  O   UNL A   1      35.775  33.941  29.573  1.00  0.00    -0.744 OA
ENDBRANCH  76  79
ENDBRANCH  48  72
BRANCH  60  83
ATOM     83  C   UNL A   1      44.456  34.246  29.647  1.00  0.00     0.023 A 
ATOM     84  C   UNL A   1      45.004  34.586  30.899  1.00  0.00     0.012 A 
ATOM     85  C   UNL A   1      44.374  35.227  28.639  1.00  0.00     0.148 A 
ATOM     86  C   UNL A   1      45.430  35.890  31.155  1.00  0.00     0.002 A 
ATOM     87  C   UNL A   1      44.850  36.510  28.883  1.00  0.00     0.091 A 
ATOM     88  F   UNL A   1      43.834  34.888  27.459  1.00  0.00    -0.205 F 
ATOM     89  C   UNL A   1      45.365  36.846  30.145  1.00  0.00     0.022 A 
BRANCH  87  90
ATOM     90  S   UNL A   1      44.898  37.779  27.614  1.00  0.00     0.127 S 
ATOM     91  O   UNL A   1      45.492  38.902  28.338  1.00  0.00    -0.237 OA
ATOM     92  O   UNL A   1      45.769  37.176  26.606  1.00  0.00    -0.237 OA
ATOM     93  O   UNL A   1      43.520  37.974  27.185  1.00  0.00    -0.744 OA
ENDBRANCH  87  90
ENDBRANCH  60  83
ENDBRANCH  34  35
ENDBRANCH  26  29
ENDBRANCH  24  25
ENDBRANCH   1  24
TORSDOF 17
ENDMDL
MODEL 3
REMARK VINA RESULT:     -11.1      1.549      1.863
REMARK SMILES CC(C)(C)OC(=O)[C@]1(C(=O)NCCCNC(=O)c2ccc(-c3c4nc(c(-c5cccc(S(=O)(=O)[O-])c5F)c5ccc([nH]5)c(-c5cccc(S(=O)(=O)[O-])c5F)c5nc(c(-c6cccc(S(=O)(=O)[O-])c6F)c6ccc3[nH]6)C=C5)C=C4)cc2)CC=CC[C@@H]1[NH3+]
REMARK SMILES IDX 13 1 12 2 11 3 9 4 10 5 8 7 81 8 85 9 82 10 84 11 83 12 6 13
REMARK SMILES IDX 7 14 5 15 2 16 1 17 3 18 4 19 86 20 14 24 15 25 16 26 17 28
REMARK SMILES IDX 18 29 19 30 80 31 20 32 79 33 21 34 22 35 23 36 73 37 24 38
REMARK SMILES IDX 78 39 72 40 74 41 25 42 77 43 71 44 70 45 26 47 58 48 38 49
REMARK SMILES IDX 57 50 39 51 42 52 56 53 75 54 40 55 41 56 55 58 76 59 43 60
REMARK SMILES IDX 27 61 28 62 36 63 29 64 31 65 37 66 30 67 32 68 33 69 34 70
REMARK SMILES IDX 35 71 59 72 60 73 68 74 61 75 63 76 69 77 62 78 64 79 65 80
REMARK SMILES IDX 66 81 67 82 44 83 45 84 53 85 46 86 48 87 54 88 47 89 49 90
REMARK SMILES IDX 50 91 51 92 52 93
REMARK H PARENT 11 6 86 21 86 22 86 23 15 27 74 46 42 57
REMARK Flexibility Score: inf
ROOT
ATOM      1  C   UNL A   1      32.799  29.352  24.578  1.00  0.00     0.042 C 
ENDROOT
BRANCH   1   2
ATOM      2  C   UNL A   1      33.855  28.262  24.485  1.00  0.00     0.117 C 
BRANCH   2   3
ATOM      3  N   UNL A   1      33.943  27.659  23.164  1.00  0.00    -0.355 N 
ATOM      4  C   UNL A   1      33.529  26.432  22.722  1.00  0.00     0.244 C 
ATOM      5  O   UNL A   1      33.651  26.234  21.508  1.00  0.00    -0.274 OA
ATOM      6  H   UNL A   1      34.368  28.223  22.478  1.00  0.00     0.163 HD
BRANCH   4   7
ATOM      7  C   UNL A   1      33.085  25.312  23.700  1.00  0.00     0.201 C 
ATOM      8  C   UNL A   1      33.558  25.716  25.140  1.00  0.00     0.062 C 
ATOM      9  C   UNL A   1      31.526  25.215  23.499  1.00  0.00     0.212 C 
ATOM     10  C   UNL A   1      32.560  25.688  26.247  1.00  0.00    -0.029 C 
ATOM     11  C   UNL A   1      30.610  25.449  24.728  1.00  0.00     0.093 C 
ATOM     12  C   UNL A   1      31.248  25.573  26.063  1.00  0.00    -0.025 C 
BRANCH   7  13
ATOM     13  C   UNL A   1      33.943  24.074  23.443  1.00  0.00     0.328 C 
ATOM     14  O   UNL A   1      34.054  23.580  22.322  1.00  0.00    -0.251 OA
BRANCH  13  15
ATOM     15  O   UNL A   1      34.685  23.677  24.512  1.00  0.00    -0.459 OA
BRANCH  15  16
ATOM     16  C   UNL A   1      34.493  22.344  25.065  1.00  0.00     0.104 C 
ATOM     17  C   UNL A   1      34.549  22.521  26.589  1.00  0.00     0.056 C 
ATOM     18  C   UNL A   1      35.656  21.447  24.626  1.00  0.00     0.056 C 
ATOM     19  C   UNL A   1      33.130  21.722  24.717  1.00  0.00     0.056 C 
ENDBRANCH  15  16
ENDBRANCH  13  15
ENDBRANCH   7  13
BRANCH   9  20
ATOM     20  N   UNL A   1      31.035  24.031  22.759  1.00  0.00    -0.353 N 
ATOM     21  H   UNL A   1      30.039  23.906  22.940  1.00  0.00     0.344 HD
ATOM     22  H   UNL A   1      31.543  23.203  23.066  1.00  0.00     0.344 HD
ATOM     23  H   UNL A   1      31.182  24.169  21.759  1.00  0.00     0.344 HD
ENDBRANCH   9  20
ENDBRANCH   4   7
ENDBRANCH   2   3
ENDBRANCH   1   2
BRANCH   1  24
ATOM     24  C   UNL A   1      32.246  29.593  25.976  1.00  0.00     0.118 C 
BRANCH  24  25
ATOM     25  N   UNL A   1      31.997  30.998  26.268  1.00  0.00    -0.352 N 
ATOM     26  C   UNL A   1      32.713  31.875  27.045  1.00  0.00     0.251 C 
ATOM     27  H   UNL A   1      31.192  31.376  25.844  1.00  0.00     0.163 HD
ATOM     28  O   UNL A   1      32.263  32.998  27.264  1.00  0.00    -0.269 OA
BRANCH  26  29
ATOM     29  C   UNL A   1      34.005  31.470  27.645  1.00  0.00     0.039 A 
ATOM     30  C   UNL A   1      34.956  32.457  27.917  1.00  0.00     0.014 A 
ATOM     31  C   UNL A   1      34.288  30.134  27.936  1.00  0.00     0.014 A 
ATOM     32  C   UNL A   1      36.157  32.113  28.545  1.00  0.00     0.010 A 
ATOM     33  C   UNL A   1      35.446  29.805  28.637  1.00  0.00     0.010 A 
ATOM     34  C   UNL A   1      36.396  30.789  28.949  1.00  0.00    -0.014 A 
BRANCH  34  35
ATOM     35  C   UNL A   1      37.617  30.425  29.714  1.00  0.00     0.031 A 
ATOM     36  C   UNL A   1      38.623  29.464  29.139  1.00  0.00     0.074 A 
ATOM     37  C   UNL A   1      37.781  30.894  30.968  1.00  0.00     0.049 A 
ATOM     38  N   UNL A   1      39.714  28.988  29.682  1.00  0.00    -0.248 NA
ATOM     39  C   UNL A   1      38.357  28.948  27.786  1.00  0.00     0.031 C 
ATOM     40  C   UNL A   1      36.844  31.773  31.672  1.00  0.00     0.029 A 
ATOM     41  N   UNL A   1      38.782  30.677  31.884  1.00  0.00    -0.354 N 
ATOM     42  C   UNL A   1      40.246  28.097  28.758  1.00  0.00     0.074 A 
ATOM     43  C   UNL A   1      39.338  28.071  27.631  1.00  0.00     0.031 C 
ATOM     44  C   UNL A   1      37.315  32.022  32.904  1.00  0.00     0.029 A 
ATOM     45  C   UNL A   1      38.564  31.294  33.095  1.00  0.00     0.049 A 
ATOM     46  H   UNL A   1      39.578  30.131  31.693  1.00  0.00     0.167 HD
ATOM     47  C   UNL A   1      41.395  27.384  28.826  1.00  0.00     0.034 A 
ATOM     48  C   UNL A   1      39.282  31.267  34.236  1.00  0.00     0.034 A 
ATOM     49  C   UNL A   1      42.312  27.434  29.934  1.00  0.00     0.049 A 
ATOM     50  C   UNL A   1      40.567  30.486  34.276  1.00  0.00     0.074 A 
ATOM     51  C   UNL A   1      43.543  26.815  30.059  1.00  0.00     0.029 A 
ATOM     52  N   UNL A   1      42.095  28.130  31.112  1.00  0.00    -0.354 N 
ATOM     53  N   UNL A   1      41.129  29.772  33.333  1.00  0.00    -0.248 NA
ATOM     54  C   UNL A   1      41.334  30.535  35.530  1.00  0.00     0.031 C 
ATOM     55  C   UNL A   1      44.054  27.108  31.327  1.00  0.00     0.029 A 
ATOM     56  C   UNL A   1      43.161  27.944  31.977  1.00  0.00     0.049 A 
ATOM     57  H   UNL A   1      41.300  28.678  31.306  1.00  0.00     0.167 HD
ATOM     58  C   UNL A   1      42.333  29.319  33.862  1.00  0.00     0.074 A 
ATOM     59  C   UNL A   1      42.426  29.856  35.204  1.00  0.00     0.031 C 
ATOM     60  C   UNL A   1      43.269  28.521  33.292  1.00  0.00     0.034 A 
BRANCH  47  61
ATOM     61  C   UNL A   1      41.752  26.514  27.647  1.00  0.00     0.023 A 
ATOM     62  C   UNL A   1      42.448  27.070  26.554  1.00  0.00     0.012 A 
ATOM     63  C   UNL A   1      41.454  25.137  27.647  1.00  0.00     0.148 A 
ATOM     64  C   UNL A   1      42.806  26.280  25.462  1.00  0.00     0.002 A 
ATOM     65  C   UNL A   1      41.858  24.346  26.577  1.00  0.00     0.091 A 
ATOM     66  F   UNL A   1      40.777  24.628  28.686  1.00  0.00    -0.205 F 
ATOM     67  C   UNL A   1      42.521  24.918  25.479  1.00  0.00     0.022 A 
BRANCH  65  68
ATOM     68  S   UNL A   1      41.614  22.567  26.540  1.00  0.00     0.127 S 
ATOM     69  O   UNL A   1      42.287  22.203  25.295  1.00  0.00    -0.237 OA
ATOM     70  O   UNL A   1      42.306  22.137  27.756  1.00  0.00    -0.237 OA
ATOM     71  O   UNL A   1      40.173  22.357  26.555  1.00  0.00    -0.744 OA
ENDBRANCH  65  68
ENDBRANCH  47  61
BRANCH  48  72
ATOM     72  C   UNL A   1      38.824  32.048  35.421  1.00  0.00     0.023 A 
ATOM     73  C   UNL A   1      38.963  33.450  35.423  1.00  0.00     0.012 A 
ATOM     74  C   UNL A   1      38.235  31.414  36.532  1.00  0.00     0.148 A 
ATOM     75  C   UNL A   1      38.558  34.202  36.527  1.00  0.00     0.002 A 
ATOM     76  C   UNL A   1      37.781  32.175  37.602  1.00  0.00     0.091 A 
ATOM     77  F   UNL A   1      38.120  30.078  36.512  1.00  0.00    -0.205 F 
ATOM     78  C   UNL A   1      37.958  33.566  37.610  1.00  0.00     0.022 A 
BRANCH  76  79
ATOM     79  S   UNL A   1      36.879  31.458  38.981  1.00  0.00     0.127 S 
ATOM     80  O   UNL A   1      35.696  32.311  39.040  1.00  0.00    -0.237 OA
ATOM     81  O   UNL A   1      36.634  30.096  38.503  1.00  0.00    -0.237 OA
ATOM     82  O   UNL A   1      37.776  31.541  40.126  1.00  0.00    -0.744 OA
ENDBRANCH  76  79
ENDBRANCH  48  72
BRANCH  60  83
ATOM     83  C   UNL A   1      44.507  28.209  34.094  1.00  0.00     0.023 A 
ATOM     84  C   UNL A   1      45.621  29.070  34.039  1.00  0.00     0.012 A 
ATOM     85  C   UNL A   1      44.536  27.096  34.959  1.00  0.00     0.148 A 
ATOM     86  C   UNL A   1      46.758  28.808  34.804  1.00  0.00     0.002 A 
ATOM     87  C   UNL A   1      45.651  26.872  35.758  1.00  0.00     0.091 A 
ATOM     88  F   UNL A   1      43.473  26.279  34.985  1.00  0.00    -0.205 F 
ATOM     89  C   UNL A   1      46.767  27.718  35.672  1.00  0.00     0.022 A 
BRANCH  87  90
ATOM     90  S   UNL A   1      45.715  25.553  36.975  1.00  0.00     0.127 S 
ATOM     91  O   UNL A   1      47.022  24.957  36.699  1.00  0.00    -0.237 OA
ATOM     92  O   UNL A   1      45.636  26.291  38.236  1.00  0.00    -0.237 OA
ATOM     93  O   UNL A   1      44.570  24.696  36.702  1.00  0.00    -0.744 OA
ENDBRANCH  87  90
ENDBRANCH  60  83
ENDBRANCH  34  35
ENDBRANCH  26  29
ENDBRANCH  24  25
ENDBRANCH   1  24
TORSDOF 17
ENDMDL
