MODEL 1
REMARK VINA RESULT:     -12.6      0.000      0.000
REMARK SMILES O=C(NCCCNC(=O)[C@H]1[NH2+]CC[C@H]1c1cccc(Oc2ccccc2)c1)c1ccc(-c2c3nc(c(-c4cccc(S(=O)(=O)[O-])c4F)c4ccc([nH]4)c(-c4cccc(S(=O)(=O)[O-])c4F)c4nc(c(-c5cccc(S(=O)(=O)[O-])c5F)c5ccc2[nH]5)C=C4)C=C3)cc1
REMARK SMILES IDX 5 1 4 2 3 3 1 4 2 5 28 7 29 8 90 9 30 10 89 11 31 12 32 13
REMARK SMILES IDX 33 14 83 15 34 16 88 17 82 18 84 19 35 20 87 21 81 22 80 23
REMARK SMILES IDX 36 25 68 26 48 27 67 28 49 29 52 30 66 31 85 32 50 33 51 34
REMARK SMILES IDX 65 36 86 37 53 38 37 39 38 40 46 41 39 42 41 43 47 44 40 45
REMARK SMILES IDX 42 46 43 47 44 48 45 49 69 50 70 51 78 52 71 53 73 54 79 55
REMARK SMILES IDX 72 56 74 57 75 58 76 59 77 60 54 61 55 62 63 63 56 64 58 65
REMARK SMILES IDX 64 66 57 67 59 68 60 69 61 70 62 71 6 72 7 73 8 74 9 76
REMARK SMILES IDX 10 77 11 78 14 79 12 80 13 83 15 84 16 85 27 86 17 87 19 88
REMARK SMILES IDX 18 89 20 90 21 91 22 92 26 93 23 94 25 95 24 96
REMARK H PARENT 3 6 84 24 52 35 7 75 11 81 11 82
REMARK Flexibility Score: inf
ROOT
ATOM      1  C   UNL A   1      38.165  19.497  25.033  1.00  0.00     0.042 C 
ENDROOT
BRANCH   1   2
ATOM      2  C   UNL A   1      39.157  19.935  26.102  1.00  0.00     0.118 C 
BRANCH   2   3
ATOM      3  N   UNL A   1      40.390  19.159  26.062  1.00  0.00    -0.352 N 
ATOM      4  O   UNL A   1      42.590  18.801  25.771  1.00  0.00    -0.269 OA
ATOM      5  C   UNL A   1      41.692  19.589  26.062  1.00  0.00     0.251 C 
ATOM      6  H   UNL A   1      40.270  18.183  26.028  1.00  0.00     0.163 HD
BRANCH   5   7
ATOM      7  C   UNL A   1      42.006  20.993  26.400  1.00  0.00     0.039 A 
ATOM      8  C   UNL A   1      42.282  21.356  27.720  1.00  0.00     0.014 A 
ATOM      9  C   UNL A   1      42.055  21.953  25.385  1.00  0.00     0.014 A 
ATOM     10  C   UNL A   1      42.462  22.693  28.050  1.00  0.00     0.010 A 
ATOM     11  C   UNL A   1      42.340  23.284  25.706  1.00  0.00     0.010 A 
ATOM     12  C   UNL A   1      42.528  23.666  27.043  1.00  0.00    -0.014 A 
BRANCH  12  13
ATOM     13  C   UNL A   1      42.917  25.052  27.403  1.00  0.00     0.031 A 
ATOM     14  C   UNL A   1      41.951  25.993  28.064  1.00  0.00     0.074 A 
ATOM     15  C   UNL A   1      44.163  25.461  27.092  1.00  0.00     0.049 A 
ATOM     16  N   UNL A   1      42.136  27.238  28.418  1.00  0.00    -0.248 NA
ATOM     17  C   UNL A   1      40.603  25.480  28.360  1.00  0.00     0.031 C 
ATOM     18  C   UNL A   1      45.169  24.644  26.406  1.00  0.00     0.029 A 
ATOM     19  N   UNL A   1      44.793  26.662  27.290  1.00  0.00    -0.354 N 
ATOM     20  C   UNL A   1      40.921  27.676  28.932  1.00  0.00     0.074 A 
ATOM     21  C   UNL A   1      40.005  26.558  28.852  1.00  0.00     0.031 C 
ATOM     22  C   UNL A   1      46.289  25.362  26.247  1.00  0.00     0.029 A 
ATOM     23  C   UNL A   1      46.061  26.707  26.757  1.00  0.00     0.049 A 
ATOM     24  H   UNL A   1      44.381  27.418  27.767  1.00  0.00     0.167 HD
ATOM     25  C   UNL A   1      40.607  28.896  29.429  1.00  0.00     0.034 A 
ATOM     26  C   UNL A   1      46.933  27.728  26.650  1.00  0.00     0.034 A 
ATOM     27  C   UNL A   1      41.540  29.988  29.533  1.00  0.00     0.049 A 
ATOM     28  C   UNL A   1      46.553  29.064  27.214  1.00  0.00     0.074 A 
ATOM     29  C   UNL A   1      41.345  31.229  30.113  1.00  0.00     0.029 A 
ATOM     30  N   UNL A   1      42.830  29.984  29.026  1.00  0.00    -0.354 N 
ATOM     31  N   UNL A   1      45.456  29.409  27.844  1.00  0.00    -0.248 NA
ATOM     32  C   UNL A   1      47.536  30.146  27.076  1.00  0.00     0.031 C 
ATOM     33  C   UNL A   1      42.501  31.991  29.918  1.00  0.00     0.029 A 
ATOM     34  C   UNL A   1      43.431  31.211  29.249  1.00  0.00     0.049 A 
ATOM     35  H   UNL A   1      43.256  29.220  28.573  1.00  0.00     0.167 HD
ATOM     36  C   UNL A   1      45.625  30.742  28.196  1.00  0.00     0.074 A 
ATOM     37  C   UNL A   1      46.942  31.132  27.736  1.00  0.00     0.031 C 
ATOM     38  C   UNL A   1      44.759  31.573  28.824  1.00  0.00     0.034 A 
BRANCH  25  39
ATOM     39  C   UNL A   1      39.202  29.128  29.920  1.00  0.00     0.023 A 
ATOM     40  C   UNL A   1      38.847  28.762  31.233  1.00  0.00     0.012 A 
ATOM     41  C   UNL A   1      38.265  29.803  29.111  1.00  0.00     0.148 A 
ATOM     42  C   UNL A   1      37.573  29.046  31.727  1.00  0.00     0.002 A 
ATOM     43  C   UNL A   1      37.013  30.120  29.626  1.00  0.00     0.091 A 
ATOM     44  F   UNL A   1      38.618  30.128  27.859  1.00  0.00    -0.205 F 
ATOM     45  C   UNL A   1      36.663  29.734  30.930  1.00  0.00     0.022 A 
BRANCH  43  46
ATOM     46  S   UNL A   1      35.799  31.074  28.707  1.00  0.00     0.127 S 
ATOM     47  O   UNL A   1      36.649  32.047  28.021  1.00  0.00    -0.237 OA
ATOM     48  O   UNL A   1      35.208  30.060  27.835  1.00  0.00    -0.237 OA
ATOM     49  O   UNL A   1      34.890  31.631  29.698  1.00  0.00    -0.744 OA
ENDBRANCH  43  46
ENDBRANCH  25  39
BRANCH  26  50
ATOM     50  C   UNL A   1      48.245  27.514  25.978  1.00  0.00     0.023 A 
ATOM     51  C   UNL A   1      49.374  27.172  26.746  1.00  0.00     0.012 A 
ATOM     52  C   UNL A   1      48.370  27.616  24.579  1.00  0.00     0.148 A 
ATOM     53  C   UNL A   1      50.611  26.968  26.134  1.00  0.00     0.002 A 
ATOM     54  C   UNL A   1      49.589  27.351  23.970  1.00  0.00     0.091 A 
ATOM     55  F   UNL A   1      47.285  27.957  23.867  1.00  0.00    -0.205 F 
ATOM     56  C   UNL A   1      50.717  27.046  24.747  1.00  0.00     0.022 A 
BRANCH  54  57
ATOM     57  S   UNL A   1      49.775  27.288  22.185  1.00  0.00     0.127 S 
ATOM     58  O   UNL A   1      48.783  26.282  21.817  1.00  0.00    -0.237 OA
ATOM     59  O   UNL A   1      49.438  28.658  21.796  1.00  0.00    -0.237 OA
ATOM     60  O   UNL A   1      51.166  26.926  21.950  1.00  0.00    -0.744 OA
ENDBRANCH  54  57
ENDBRANCH  26  50
BRANCH  38  61
ATOM     61  C   UNL A   1      45.212  32.986  29.076  1.00  0.00     0.023 A 
ATOM     62  C   UNL A   1      45.907  33.295  30.262  1.00  0.00     0.012 A 
ATOM     63  C   UNL A   1      45.017  33.987  28.106  1.00  0.00     0.148 A 
ATOM     64  C   UNL A   1      46.375  34.588  30.491  1.00  0.00     0.002 A 
ATOM     65  C   UNL A   1      45.531  35.260  28.316  1.00  0.00     0.091 A 
ATOM     66  F   UNL A   1      44.338  33.673  26.993  1.00  0.00    -0.205 F 
ATOM     67  C   UNL A   1      46.200  35.565  29.514  1.00  0.00     0.022 A 
BRANCH  65  68
ATOM     68  S   UNL A   1      45.438  36.557  27.078  1.00  0.00     0.127 S 
ATOM     69  O   UNL A   1      44.003  36.608  26.806  1.00  0.00    -0.237 OA
ATOM     70  O   UNL A   1      45.963  37.714  27.805  1.00  0.00    -0.237 OA
ATOM     71  O   UNL A   1      46.266  36.113  25.965  1.00  0.00    -0.744 OA
ENDBRANCH  65  68
ENDBRANCH  38  61
ENDBRANCH  12  13
ENDBRANCH   5   7
ENDBRANCH   2   3
ENDBRANCH   1   2
BRANCH   1  72
ATOM     72  C   UNL A   1      36.973  20.435  24.898  1.00  0.00     0.118 C 
BRANCH  72  73
ATOM     73  N   UNL A   1      37.318  21.601  24.105  1.00  0.00    -0.351 N 
ATOM     74  C   UNL A   1      36.657  22.774  23.940  1.00  0.00     0.278 C 
ATOM     75  H   UNL A   1      38.165  21.530  23.608  1.00  0.00     0.163 HD
ATOM     76  O   UNL A   1      36.822  23.353  22.859  1.00  0.00    -0.268 OA
BRANCH  74  77
ATOM     77  C   UNL A   1      35.733  23.387  24.990  1.00  0.00     0.280 C 
ATOM     78  N   UNL A   1      35.056  24.665  24.660  1.00  0.00    -0.335 N 
ATOM     79  C   UNL A   1      34.543  22.492  25.416  1.00  0.00     0.093 C 
ATOM     80  C   UNL A   1      34.067  24.846  25.734  1.00  0.00     0.262 C 
ATOM     81  H   UNL A   1      34.594  24.604  23.752  1.00  0.00     0.346 HD
ATOM     82  H   UNL A   1      35.709  25.446  24.597  1.00  0.00     0.346 HD
ATOM     83  C   UNL A   1      33.883  23.477  26.393  1.00  0.00     0.076 C 
BRANCH  79  84
ATOM     84  C   UNL A   1      33.624  21.991  24.285  1.00  0.00    -0.034 A 
ATOM     85  C   UNL A   1      33.090  22.819  23.285  1.00  0.00     0.004 A 
ATOM     86  C   UNL A   1      33.244  20.635  24.256  1.00  0.00     0.051 A 
ATOM     87  C   UNL A   1      32.231  22.311  22.304  1.00  0.00     0.004 A 
ATOM     88  C   UNL A   1      32.402  20.108  23.269  1.00  0.00     0.127 A 
ATOM     89  C   UNL A   1      31.893  20.960  22.293  1.00  0.00     0.047 A 
BRANCH  88  90
ATOM     90  O   UNL A   1      32.002  18.789  23.161  1.00  0.00    -0.457 OA
BRANCH  90  91
ATOM     91  C   UNL A   1      32.704  17.823  23.841  1.00  0.00     0.127 A 
ATOM     92  C   UNL A   1      33.812  17.248  23.218  1.00  0.00     0.047 A 
ATOM     93  C   UNL A   1      32.282  17.363  25.090  1.00  0.00     0.047 A 
ATOM     94  C   UNL A   1      34.541  16.257  23.879  1.00  0.00     0.004 A 
ATOM     95  C   UNL A   1      33.029  16.395  25.760  1.00  0.00     0.004 A 
ATOM     96  C   UNL A   1      34.160  15.845  25.156  1.00  0.00     0.000 A 
ENDBRANCH  90  91
ENDBRANCH  88  90
ENDBRANCH  79  84
ENDBRANCH  74  77
ENDBRANCH  72  73
ENDBRANCH   1  72
TORSDOF 16
ENDMDL
MODEL 2
REMARK VINA RESULT:     -12.5      1.386      3.304
REMARK SMILES O=C(NCCCNC(=O)[C@H]1[NH2+]CC[C@H]1c1cccc(Oc2ccccc2)c1)c1ccc(-c2c3nc(c(-c4cccc(S(=O)(=O)[O-])c4F)c4ccc([nH]4)c(-c4cccc(S(=O)(=O)[O-])c4F)c4nc(c(-c5cccc(S(=O)(=O)[O-])c5F)c5ccc2[nH]5)C=C4)C=C3)cc1
REMARK SMILES IDX 5 1 4 2 3 3 1 4 2 5 28 7 29 8 90 9 30 10 89 11 31 12 32 13
REMARK SMILES IDX 33 14 83 15 34 16 88 17 82 18 84 19 35 20 87 21 81 22 80 23
REMARK SMILES IDX 36 25 68 26 48 27 67 28 49 29 52 30 66 31 85 32 50 33 51 34
REMARK SMILES IDX 65 36 86 37 53 38 37 39 38 40 46 41 39 42 41 43 47 44 40 45
REMARK SMILES IDX 42 46 43 47 44 48 45 49 69 50 70 51 78 52 71 53 73 54 79 55
REMARK SMILES IDX 72 56 74 57 75 58 76 59 77 60 54 61 55 62 63 63 56 64 58 65
REMARK SMILES IDX 64 66 57 67 59 68 60 69 61 70 62 71 6 72 7 73 8 74 9 76
REMARK SMILES IDX 10 77 11 78 14 79 12 80 13 83 15 84 16 85 27 86 17 87 19 88
REMARK SMILES IDX 18 89 20 90 21 91 22 92 26 93 23 94 25 95 24 96
REMARK H PARENT 3 6 84 24 52 35 7 75 11 81 11 82
REMARK Flexibility Score: inf
ROOT
ATOM      1  C   UNL A   1      38.192  20.011  24.794  1.00  0.00     0.042 C 
ENDROOT
BRANCH   1   2
ATOM      2  C   UNL A   1      38.919  19.995  26.132  1.00  0.00     0.118 C 
BRANCH   2   3
ATOM      3  N   UNL A   1      40.137  19.196  26.087  1.00  0.00    -0.352 N 
ATOM      4  O   UNL A   1      42.330  18.797  25.786  1.00  0.00    -0.269 OA
ATOM      5  C   UNL A   1      41.447  19.603  26.079  1.00  0.00     0.251 C 
ATOM      6  H   UNL A   1      40.000  18.222  26.057  1.00  0.00     0.163 HD
BRANCH   5   7
ATOM      7  C   UNL A   1      41.788  21.002  26.411  1.00  0.00     0.039 A 
ATOM      8  C   UNL A   1      42.101  21.359  27.725  1.00  0.00     0.014 A 
ATOM      9  C   UNL A   1      41.827  21.962  25.396  1.00  0.00     0.014 A 
ATOM     10  C   UNL A   1      42.307  22.693  28.051  1.00  0.00     0.010 A 
ATOM     11  C   UNL A   1      42.138  23.288  25.711  1.00  0.00     0.010 A 
ATOM     12  C   UNL A   1      42.362  23.666  27.044  1.00  0.00    -0.014 A 
BRANCH  12  13
ATOM     13  C   UNL A   1      42.779  25.047  27.396  1.00  0.00     0.031 A 
ATOM     14  C   UNL A   1      41.831  26.011  28.049  1.00  0.00     0.074 A 
ATOM     15  C   UNL A   1      44.033  25.428  27.085  1.00  0.00     0.049 A 
ATOM     16  N   UNL A   1      42.040  27.255  28.395  1.00  0.00    -0.248 NA
ATOM     17  C   UNL A   1      40.472  25.528  28.345  1.00  0.00     0.031 C 
ATOM     18  C   UNL A   1      45.024  24.586  26.407  1.00  0.00     0.029 A 
ATOM     19  N   UNL A   1      44.688  26.617  27.277  1.00  0.00    -0.354 N 
ATOM     20  C   UNL A   1      40.834  27.720  28.904  1.00  0.00     0.074 A 
ATOM     21  C   UNL A   1      39.895  26.621  28.829  1.00  0.00     0.031 C 
ATOM     22  C   UNL A   1      46.159  25.279  26.246  1.00  0.00     0.029 A 
ATOM     23  C   UNL A   1      45.957  26.632  26.747  1.00  0.00     0.049 A 
ATOM     24  H   UNL A   1      44.290  27.384  27.749  1.00  0.00     0.167 HD
ATOM     25  C   UNL A   1      40.544  28.950  29.392  1.00  0.00     0.034 A 
ATOM     26  C   UNL A   1      46.850  27.634  26.635  1.00  0.00     0.034 A 
ATOM     27  C   UNL A   1      41.498  30.023  29.491  1.00  0.00     0.049 A 
ATOM     28  C   UNL A   1      46.496  28.982  27.190  1.00  0.00     0.074 A 
ATOM     29  C   UNL A   1      41.327  31.272  30.063  1.00  0.00     0.029 A 
ATOM     30  N   UNL A   1      42.790  29.989  28.987  1.00  0.00    -0.354 N 
ATOM     31  N   UNL A   1      45.406  29.353  27.815  1.00  0.00    -0.248 NA
ATOM     32  C   UNL A   1      47.501  30.043  27.047  1.00  0.00     0.031 C 
ATOM     33  C   UNL A   1      42.499  32.008  29.865  1.00  0.00     0.029 A 
ATOM     34  C   UNL A   1      43.415  31.205  29.204  1.00  0.00     0.049 A 
ATOM     35  H   UNL A   1      43.201  29.214  28.540  1.00  0.00     0.167 HD
ATOM     36  C   UNL A   1      45.601  30.685  28.159  1.00  0.00     0.074 A 
ATOM     37  C   UNL A   1      46.927  31.045  27.699  1.00  0.00     0.031 C 
ATOM     38  C   UNL A   1      44.751  31.537  28.779  1.00  0.00     0.034 A 
BRANCH  25  39
ATOM     39  C   UNL A   1      39.143  29.213  29.878  1.00  0.00     0.023 A 
ATOM     40  C   UNL A   1      38.784  28.885  31.200  1.00  0.00     0.012 A 
ATOM     41  C   UNL A   1      38.214  29.882  29.054  1.00  0.00     0.148 A 
ATOM     42  C   UNL A   1      37.515  29.198  31.688  1.00  0.00     0.002 A 
ATOM     43  C   UNL A   1      36.968  30.229  29.562  1.00  0.00     0.091 A 
ATOM     44  F   UNL A   1      38.571  30.171  27.794  1.00  0.00    -0.205 F 
ATOM     45  C   UNL A   1      36.613  29.881  30.875  1.00  0.00     0.022 A 
BRANCH  43  46
ATOM     46  S   UNL A   1      35.767  31.178  28.621  1.00  0.00     0.127 S 
ATOM     47  O   UNL A   1      36.599  32.251  28.079  1.00  0.00    -0.237 OA
ATOM     48  O   UNL A   1      35.311  30.202  27.632  1.00  0.00    -0.237 OA
ATOM     49  O   UNL A   1      34.750  31.600  29.574  1.00  0.00    -0.744 OA
ENDBRANCH  43  46
ENDBRANCH  25  39
BRANCH  26  50
ATOM     50  C   UNL A   1      48.159  27.389  25.968  1.00  0.00     0.023 A 
ATOM     51  C   UNL A   1      49.256  26.939  26.727  1.00  0.00     0.012 A 
ATOM     52  C   UNL A   1      48.312  27.570  24.579  1.00  0.00     0.148 A 
ATOM     53  C   UNL A   1      50.489  26.705  26.119  1.00  0.00     0.002 A 
ATOM     54  C   UNL A   1      49.524  27.275  23.970  1.00  0.00     0.091 A 
ATOM     55  F   UNL A   1      47.259  28.013  23.876  1.00  0.00    -0.205 F 
ATOM     56  C   UNL A   1      50.621  26.861  24.741  1.00  0.00     0.022 A 
BRANCH  54  57
ATOM     57  S   UNL A   1      49.734  27.310  22.187  1.00  0.00     0.127 S 
ATOM     58  O   UNL A   1      48.728  26.348  21.749  1.00  0.00    -0.237 OA
ATOM     59  O   UNL A   1      49.430  28.707  21.873  1.00  0.00    -0.237 OA
ATOM     60  O   UNL A   1      51.121  26.934  21.950  1.00  0.00    -0.744 OA
ENDBRANCH  54  57
ENDBRANCH  26  50
BRANCH  38  61
ATOM     61  C   UNL A   1      45.233  32.943  29.024  1.00  0.00     0.023 A 
ATOM     62  C   UNL A   1      45.965  33.236  30.191  1.00  0.00     0.012 A 
ATOM     63  C   UNL A   1      45.024  33.950  28.063  1.00  0.00     0.148 A 
ATOM     64  C   UNL A   1      46.459  34.521  30.410  1.00  0.00     0.002 A 
ATOM     65  C   UNL A   1      45.563  35.214  28.263  1.00  0.00     0.091 A 
ATOM     66  F   UNL A   1      44.309  33.651  26.968  1.00  0.00    -0.205 F 
ATOM     67  C   UNL A   1      46.271  35.504  29.442  1.00  0.00     0.022 A 
BRANCH  65  68
ATOM     68  S   UNL A   1      45.455  36.517  27.033  1.00  0.00     0.127 S 
ATOM     69  O   UNL A   1      46.189  37.603  27.683  1.00  0.00    -0.237 OA
ATOM     70  O   UNL A   1      46.140  35.917  25.888  1.00  0.00    -0.237 OA
ATOM     71  O   UNL A   1      44.035  36.765  26.829  1.00  0.00    -0.744 OA
ENDBRANCH  65  68
ENDBRANCH  38  61
ENDBRANCH  12  13
ENDBRANCH   5   7
ENDBRANCH   2   3
ENDBRANCH   1   2
BRANCH   1  72
ATOM     72  C   UNL A   1      37.430  21.306  24.540  1.00  0.00     0.118 C 
BRANCH  72  73
ATOM     73  N   UNL A   1      36.733  21.740  25.737  1.00  0.00    -0.351 N 
ATOM     74  C   UNL A   1      35.431  21.597  26.092  1.00  0.00     0.278 C 
ATOM     75  H   UNL A   1      37.291  22.214  26.394  1.00  0.00     0.163 HD
ATOM     76  O   UNL A   1      34.961  22.474  26.828  1.00  0.00    -0.268 OA
BRANCH  74  77
ATOM     77  C   UNL A   1      34.543  20.445  25.628  1.00  0.00     0.280 C 
ATOM     78  N   UNL A   1      33.289  20.189  26.378  1.00  0.00    -0.335 N 
ATOM     79  C   UNL A   1      34.029  20.562  24.172  1.00  0.00     0.093 C 
ATOM     80  C   UNL A   1      32.555  19.220  25.549  1.00  0.00     0.262 C 
ATOM     81  H   UNL A   1      32.752  21.049  26.488  1.00  0.00     0.346 HD
ATOM     82  H   UNL A   1      33.464  19.839  27.320  1.00  0.00     0.346 HD
ATOM     83  C   UNL A   1      33.175  19.285  24.151  1.00  0.00     0.076 C 
BRANCH  79  84
ATOM     84  C   UNL A   1      33.267  21.854  23.816  1.00  0.00    -0.034 A 
ATOM     85  C   UNL A   1      31.873  21.990  23.904  1.00  0.00     0.004 A 
ATOM     86  C   UNL A   1      33.984  22.965  23.328  1.00  0.00     0.051 A 
ATOM     87  C   UNL A   1      31.235  23.179  23.532  1.00  0.00     0.004 A 
ATOM     88  C   UNL A   1      33.362  24.168  22.972  1.00  0.00     0.127 A 
ATOM     89  C   UNL A   1      31.977  24.265  23.073  1.00  0.00     0.047 A 
BRANCH  88  90
ATOM     90  O   UNL A   1      33.996  25.304  22.507  1.00  0.00    -0.457 OA
BRANCH  90  91
ATOM     91  C   UNL A   1      33.762  26.502  23.138  1.00  0.00     0.127 A 
ATOM     92  C   UNL A   1      33.444  27.612  22.354  1.00  0.00     0.047 A 
ATOM     93  C   UNL A   1      33.915  26.637  24.519  1.00  0.00     0.047 A 
ATOM     94  C   UNL A   1      33.210  28.846  22.964  1.00  0.00     0.004 A 
ATOM     95  C   UNL A   1      33.651  27.863  25.128  1.00  0.00     0.004 A 
ATOM     96  C   UNL A   1      33.295  28.966  24.352  1.00  0.00     0.000 A 
ENDBRANCH  90  91
ENDBRANCH  88  90
ENDBRANCH  79  84
ENDBRANCH  74  77
ENDBRANCH  72  73
ENDBRANCH   1  72
TORSDOF 16
ENDMDL
MODEL 3
REMARK VINA RESULT:     -12.3      5.247      8.281
REMARK SMILES O=C(NCCCNC(=O)[C@H]1[NH2+]CC[C@H]1c1cccc(Oc2ccccc2)c1)c1ccc(-c2c3nc(c(-c4cccc(S(=O)(=O)[O-])c4F)c4ccc([nH]4)c(-c4cccc(S(=O)(=O)[O-])c4F)c4nc(c(-c5cccc(S(=O)(=O)[O-])c5F)c5ccc2[nH]5)C=C4)C=C3)cc1
REMARK SMILES IDX 5 1 4 2 3 3 1 4 2 5 28 7 29 8 90 9 30 10 89 11 31 12 32 13
REMARK SMILES IDX 33 14 83 15 34 16 88 17 82 18 84 19 35 20 87 21 81 22 80 23
REMARK SMILES IDX 36 25 68 26 48 27 67 28 49 29 52 30 66 31 85 32 50 33 51 34
REMARK SMILES IDX 65 36 86 37 53 38 37 39 38 40 46 41 39 42 41 43 47 44 40 45
REMARK SMILES IDX 42 46 43 47 44 48 45 49 69 50 70 51 78 52 71 53 73 54 79 55
REMARK SMILES IDX 72 56 74 57 75 58 76 59 77 60 54 61 55 62 63 63 56 64 58 65
REMARK SMILES IDX 64 66 57 67 59 68 60 69 61 70 62 71 6 72 7 73 8 74 9 76
REMARK SMILES IDX 10 77 11 78 14 79 12 80 13 83 15 84 16 85 27 86 17 87 19 88
REMARK SMILES IDX 18 89 20 90 21 91 22 92 26 93 23 94 25 95 24 96
REMARK H PARENT 3 6 84 24 52 35 7 75 11 81 11 82
REMARK Flexibility Score: inf
ROOT
ATOM      1  C   UNL A   1      33.740  28.107  24.813  1.00  0.00     0.042 C 
ENDROOT
BRANCH   1   2
ATOM      2  C   UNL A   1      34.107  28.391  26.263  1.00  0.00     0.118 C 
BRANCH   2   3
ATOM      3  N   UNL A   1      33.880  29.784  26.626  1.00  0.00    -0.352 N 
ATOM      4  O   UNL A   1      34.062  31.643  27.878  1.00  0.00    -0.269 OA
ATOM      5  C   UNL A   1      34.554  30.573  27.523  1.00  0.00     0.251 C 
ATOM      6  H   UNL A   1      33.132  30.222  26.161  1.00  0.00     0.163 HD
BRANCH   5   7
ATOM      7  C   UNL A   1      35.857  30.131  28.062  1.00  0.00     0.039 A 
ATOM      8  C   UNL A   1      35.938  29.572  29.340  1.00  0.00     0.014 A 
ATOM      9  C   UNL A   1      37.006  30.247  27.275  1.00  0.00     0.014 A 
ATOM     10  C   UNL A   1      37.177  29.264  29.886  1.00  0.00     0.010 A 
ATOM     11  C   UNL A   1      38.240  29.839  27.789  1.00  0.00     0.010 A 
ATOM     12  C   UNL A   1      38.337  29.362  29.106  1.00  0.00    -0.014 A 
BRANCH  12  13
ATOM     13  C   UNL A   1      39.618  28.842  29.647  1.00  0.00     0.031 A 
ATOM     14  C   UNL A   1      40.325  29.523  30.782  1.00  0.00     0.074 A 
ATOM     15  C   UNL A   1      40.152  27.748  29.069  1.00  0.00     0.049 A 
ATOM     16  N   UNL A   1      41.460  29.203  31.348  1.00  0.00    -0.248 NA
ATOM     17  C   UNL A   1      39.689  30.722  31.354  1.00  0.00     0.031 C 
ATOM     18  C   UNL A   1      39.572  27.032  27.927  1.00  0.00     0.029 A 
ATOM     19  N   UNL A   1      41.303  27.055  29.341  1.00  0.00    -0.354 N 
ATOM     20  C   UNL A   1      41.701  30.180  32.306  1.00  0.00     0.074 A 
ATOM     21  C   UNL A   1      40.588  31.104  32.252  1.00  0.00     0.031 C 
ATOM     22  C   UNL A   1      40.363  26.002  27.602  1.00  0.00     0.029 A 
ATOM     23  C   UNL A   1      41.536  26.021  28.465  1.00  0.00     0.049 A 
ATOM     24  H   UNL A   1      41.902  27.275  30.090  1.00  0.00     0.167 HD
ATOM     25  C   UNL A   1      42.752  30.288  33.153  1.00  0.00     0.034 A 
ATOM     26  C   UNL A   1      42.597  25.201  28.338  1.00  0.00     0.034 A 
ATOM     27  C   UNL A   1      43.835  29.341  33.219  1.00  0.00     0.049 A 
ATOM     28  C   UNL A   1      43.741  25.346  29.296  1.00  0.00     0.074 A 
ATOM     29  C   UNL A   1      44.892  29.310  34.110  1.00  0.00     0.029 A 
ATOM     30  N   UNL A   1      44.016  28.278  32.347  1.00  0.00    -0.354 N 
ATOM     31  N   UNL A   1      43.872  26.177  30.301  1.00  0.00    -0.248 NA
ATOM     32  C   UNL A   1      44.874  24.429  29.121  1.00  0.00     0.031 C 
ATOM     33  C   UNL A   1      45.737  28.255  33.752  1.00  0.00     0.029 A 
ATOM     34  C   UNL A   1      45.185  27.605  32.659  1.00  0.00     0.049 A 
ATOM     35  H   UNL A   1      43.404  28.038  31.615  1.00  0.00     0.167 HD
ATOM     36  C   UNL A   1      45.091  25.871  30.891  1.00  0.00     0.074 A 
ATOM     37  C   UNL A   1      45.645  24.756  30.149  1.00  0.00     0.031 C 
ATOM     38  C   UNL A   1      45.705  26.471  31.938  1.00  0.00     0.034 A 
BRANCH  25  39
ATOM     39  C   UNL A   1      42.789  31.459  34.100  1.00  0.00     0.023 A 
ATOM     40  C   UNL A   1      43.372  32.675  33.693  1.00  0.00     0.012 A 
ATOM     41  C   UNL A   1      42.154  31.382  35.357  1.00  0.00     0.148 A 
ATOM     42  C   UNL A   1      43.340  33.791  34.530  1.00  0.00     0.002 A 
ATOM     43  C   UNL A   1      42.089  32.510  36.166  1.00  0.00     0.091 A 
ATOM     44  F   UNL A   1      41.620  30.211  35.732  1.00  0.00    -0.205 F 
ATOM     45  C   UNL A   1      42.689  33.712  35.758  1.00  0.00     0.022 A 
BRANCH  43  46
ATOM     46  S   UNL A   1      41.204  32.534  37.730  1.00  0.00     0.127 S 
ATOM     47  O   UNL A   1      42.033  31.651  38.550  1.00  0.00    -0.237 OA
ATOM     48  O   UNL A   1      41.271  33.948  38.099  1.00  0.00    -0.237 OA
ATOM     49  O   UNL A   1      39.865  32.042  37.444  1.00  0.00    -0.744 OA
ENDBRANCH  43  46
ENDBRANCH  25  39
BRANCH  26  50
ATOM     50  C   UNL A   1      42.615  24.174  27.258  1.00  0.00     0.023 A 
ATOM     51  C   UNL A   1      43.269  24.450  26.043  1.00  0.00     0.012 A 
ATOM     52  C   UNL A   1      42.013  22.914  27.444  1.00  0.00     0.148 A 
ATOM     53  C   UNL A   1      43.296  23.501  25.022  1.00  0.00     0.002 A 
ATOM     54  C   UNL A   1      42.096  21.951  26.448  1.00  0.00     0.091 A 
ATOM     55  F   UNL A   1      41.381  22.676  28.604  1.00  0.00    -0.205 F 
ATOM     56  C   UNL A   1      42.721  22.249  25.227  1.00  0.00     0.022 A 
BRANCH  54  57
ATOM     57  S   UNL A   1      41.510  20.271  26.687  1.00  0.00     0.127 S 
ATOM     58  O   UNL A   1      41.911  19.634  25.437  1.00  0.00    -0.237 OA
ATOM     59  O   UNL A   1      42.269  19.850  27.866  1.00  0.00    -0.237 OA
ATOM     60  O   UNL A   1      40.076  20.386  26.912  1.00  0.00    -0.744 OA
ENDBRANCH  54  57
ENDBRANCH  26  50
BRANCH  38  61
ATOM     61  C   UNL A   1      47.040  25.923  32.367  1.00  0.00     0.023 A 
ATOM     62  C   UNL A   1      48.221  26.440  31.799  1.00  0.00     0.012 A 
ATOM     63  C   UNL A   1      47.126  24.954  33.384  1.00  0.00     0.148 A 
ATOM     64  C   UNL A   1      49.468  25.978  32.218  1.00  0.00     0.002 A 
ATOM     65  C   UNL A   1      48.372  24.536  33.834  1.00  0.00     0.091 A 
ATOM     66  F   UNL A   1      45.988  24.465  33.898  1.00  0.00    -0.205 F 
ATOM     67  C   UNL A   1      49.543  25.038  33.243  1.00  0.00     0.022 A 
BRANCH  65  68
ATOM     68  S   UNL A   1      48.572  23.402  35.211  1.00  0.00     0.127 S 
ATOM     69  O   UNL A   1      50.022  23.206  35.228  1.00  0.00    -0.237 OA
ATOM     70  O   UNL A   1      48.048  24.183  36.332  1.00  0.00    -0.237 OA
ATOM     71  O   UNL A   1      47.791  22.219  34.878  1.00  0.00    -0.744 OA
ENDBRANCH  65  68
ENDBRANCH  38  61
ENDBRANCH  12  13
ENDBRANCH   5   7
ENDBRANCH   2   3
ENDBRANCH   1   2
BRANCH   1  72
ATOM     72  C   UNL A   1      32.241  27.954  24.592  1.00  0.00     0.118 C 
BRANCH  72  73
ATOM     73  N   UNL A   1      31.967  26.958  23.571  1.00  0.00    -0.351 N 
ATOM     74  C   UNL A   1      31.862  25.609  23.670  1.00  0.00     0.278 C 
ATOM     75  H   UNL A   1      31.838  27.317  22.664  1.00  0.00     0.163 HD
ATOM     76  O   UNL A   1      32.173  24.956  22.666  1.00  0.00    -0.268 OA
BRANCH  74  77
ATOM     77  C   UNL A   1      31.405  24.880  24.932  1.00  0.00     0.280 C 
ATOM     78  N   UNL A   1      30.750  23.559  24.772  1.00  0.00    -0.335 N 
ATOM     79  C   UNL A   1      32.531  24.561  25.946  1.00  0.00     0.093 C 
ATOM     80  C   UNL A   1      30.673  23.019  26.139  1.00  0.00     0.262 C 
ATOM     81  H   UNL A   1      31.308  22.949  24.175  1.00  0.00     0.346 HD
ATOM     82  H   UNL A   1      29.833  23.631  24.331  1.00  0.00     0.346 HD
ATOM     83  C   UNL A   1      31.673  23.816  26.980  1.00  0.00     0.076 C 
BRANCH  79  84
ATOM     84  C   UNL A   1      33.732  23.759  25.407  1.00  0.00    -0.034 A 
ATOM     85  C   UNL A   1      34.767  24.319  24.642  1.00  0.00     0.004 A 
ATOM     86  C   UNL A   1      33.796  22.372  25.643  1.00  0.00     0.051 A 
ATOM     87  C   UNL A   1      35.813  23.531  24.150  1.00  0.00     0.004 A 
ATOM     88  C   UNL A   1      34.847  21.574  25.176  1.00  0.00     0.127 A 
ATOM     89  C   UNL A   1      35.856  22.165  24.421  1.00  0.00     0.047 A 
BRANCH  88  90
ATOM     90  O   UNL A   1      34.991  20.215  25.383  1.00  0.00    -0.457 OA
BRANCH  90  91
ATOM     91  C   UNL A   1      34.268  19.343  24.605  1.00  0.00     0.127 A 
ATOM     92  C   UNL A   1      34.822  18.095  24.319  1.00  0.00     0.047 A 
ATOM     93  C   UNL A   1      33.045  19.715  24.043  1.00  0.00     0.047 A 
ATOM     94  C   UNL A   1      34.117  17.190  23.523  1.00  0.00     0.004 A 
ATOM     95  C   UNL A   1      32.329  18.798  23.275  1.00  0.00     0.004 A 
ATOM     96  C   UNL A   1      32.863  17.535  23.017  1.00  0.00     0.000 A 
ENDBRANCH  90  91
ENDBRANCH  88  90
ENDBRANCH  79  84
ENDBRANCH  74  77
ENDBRANCH  72  73
ENDBRANCH   1  72
TORSDOF 16
ENDMDL
