MODEL 1
REMARK VINA RESULT:     -13.5      0.000      0.000
REMARK SMILES O=C(NCCCNC(=O)[C@@H](Cc1ccccc1)/N=C1\C(=O)c2ccccc2C(=O)[C@H]1Cl)c1ccc(-c2c3nc(c(-c4cccc(S(=O)(=O)[O-])c4F)c4ccc([nH]4)c(-c4cccc(S(=O)(=O)[O-])c4F)c4nc(c(-c5cccc(S(=O)(=O)[O-])c5F)c5ccc2[nH]5)C=C4)C=C3)cc1
REMARK SMILES IDX 4 1 3 2 1 3 2 4 32 6 33 7 94 8 34 9 93 10 35 11 36 12 37 13
REMARK SMILES IDX 87 14 38 15 92 16 86 17 88 18 39 19 91 20 85 21 84 22 40 24
REMARK SMILES IDX 72 25 52 26 71 27 53 28 56 29 70 30 89 31 54 32 55 33 69 35
REMARK SMILES IDX 90 36 57 37 41 38 42 39 50 40 43 41 45 42 51 43 44 44 46 45
REMARK SMILES IDX 47 46 48 47 49 48 73 49 74 50 82 51 75 52 77 53 83 54 76 55
REMARK SMILES IDX 78 56 79 57 80 58 81 59 58 60 59 61 67 62 60 63 62 64 68 65
REMARK SMILES IDX 61 66 63 67 64 68 65 69 66 70 5 71 6 72 7 73 8 74 9 76 10 77
REMARK SMILES IDX 11 78 12 79 13 80 17 81 14 82 16 83 15 84 18 85 19 86 20 87
REMARK SMILES IDX 30 88 21 89 22 90 28 91 31 92 23 93 27 94 29 95 24 96 26 97
REMARK SMILES IDX 25 98
REMARK H PARENT 3 5 88 23 56 34 7 75
REMARK Flexibility Score: inf
ROOT
ATOM      1  C   UNL A   1      33.513  29.094  24.638  1.00  0.00     0.118 C 
ENDROOT
BRANCH   1   2
ATOM      2  N   UNL A   1      32.834  30.155  25.372  1.00  0.00    -0.352 N 
ATOM      3  O   UNL A   1      32.228  31.618  26.936  1.00  0.00    -0.269 OA
ATOM      4  C   UNL A   1      33.090  30.826  26.546  1.00  0.00     0.251 C 
ATOM      5  H   UNL A   1      32.008  30.458  24.930  1.00  0.00     0.163 HD
BRANCH   4   6
ATOM      6  C   UNL A   1      34.304  30.618  27.385  1.00  0.00     0.039 A 
ATOM      7  C   UNL A   1      34.689  29.376  27.876  1.00  0.00     0.014 A 
ATOM      8  C   UNL A   1      35.152  31.714  27.626  1.00  0.00     0.014 A 
ATOM      9  C   UNL A   1      35.781  29.255  28.733  1.00  0.00     0.010 A 
ATOM     10  C   UNL A   1      36.330  31.569  28.377  1.00  0.00     0.010 A 
ATOM     11  C   UNL A   1      36.642  30.338  28.963  1.00  0.00    -0.014 A 
BRANCH  11  12
ATOM     12  C   UNL A   1      37.913  30.082  29.696  1.00  0.00     0.031 A 
ATOM     13  C   UNL A   1      38.138  30.562  31.102  1.00  0.00     0.074 A 
ATOM     14  C   UNL A   1      38.864  29.350  29.078  1.00  0.00     0.049 A 
ATOM     15  N   UNL A   1      39.120  30.273  31.917  1.00  0.00    -0.248 NA
ATOM     16  C   UNL A   1      37.149  31.494  31.667  1.00  0.00     0.031 C 
ATOM     17  C   UNL A   1      38.793  28.889  27.687  1.00  0.00     0.029 A 
ATOM     18  N   UNL A   1      40.048  28.830  29.534  1.00  0.00    -0.354 N 
ATOM     19  C   UNL A   1      38.896  31.014  33.071  1.00  0.00     0.074 A 
ATOM     20  C   UNL A   1      37.683  31.773  32.849  1.00  0.00     0.031 C 
ATOM     21  C   UNL A   1      39.839  28.094  27.430  1.00  0.00     0.029 A 
ATOM     22  C   UNL A   1      40.687  28.030  28.613  1.00  0.00     0.049 A 
ATOM     23  H   UNL A   1      40.408  29.012  30.432  1.00  0.00     0.167 HD
ATOM     24  C   UNL A   1      39.626  31.047  34.212  1.00  0.00     0.034 A 
ATOM     25  C   UNL A   1      41.823  27.312  28.708  1.00  0.00     0.034 A 
ATOM     26  C   UNL A   1      40.811  30.258  34.438  1.00  0.00     0.049 A 
ATOM     27  C   UNL A   1      42.569  27.311  30.010  1.00  0.00     0.074 A 
ATOM     28  C   UNL A   1      41.578  30.167  35.586  1.00  0.00     0.029 A 
ATOM     29  N   UNL A   1      41.405  29.431  33.497  1.00  0.00    -0.354 N 
ATOM     30  N   UNL A   1      42.256  27.900  31.138  1.00  0.00    -0.248 NA
ATOM     31  C   UNL A   1      43.811  26.528  30.061  1.00  0.00     0.031 C 
ATOM     32  C   UNL A   1      42.648  29.300  35.333  1.00  0.00     0.029 A 
ATOM     33  C   UNL A   1      42.534  28.833  34.033  1.00  0.00     0.049 A 
ATOM     34  H   UNL A   1      41.074  29.289  32.580  1.00  0.00     0.167 HD
ATOM     35  C   UNL A   1      43.246  27.538  32.042  1.00  0.00     0.074 A 
ATOM     36  C   UNL A   1      44.153  26.656  31.336  1.00  0.00     0.031 C 
ATOM     37  C   UNL A   1      43.398  27.917  33.335  1.00  0.00     0.034 A 
BRANCH  24  38
ATOM     38  C   UNL A   1      39.149  31.944  35.327  1.00  0.00     0.023 A 
ATOM     39  C   UNL A   1      38.207  31.460  36.257  1.00  0.00     0.012 A 
ATOM     40  C   UNL A   1      39.680  33.239  35.492  1.00  0.00     0.148 A 
ATOM     41  C   UNL A   1      37.776  32.262  37.315  1.00  0.00     0.002 A 
ATOM     42  C   UNL A   1      39.274  34.018  36.571  1.00  0.00     0.091 A 
ATOM     43  F   UNL A   1      40.558  33.691  34.586  1.00  0.00    -0.205 F 
ATOM     44  C   UNL A   1      38.316  33.535  37.477  1.00  0.00     0.022 A 
BRANCH  42  45
ATOM     45  S   UNL A   1      39.969  35.642  36.900  1.00  0.00     0.127 S 
ATOM     46  O   UNL A   1      39.281  36.012  38.135  1.00  0.00    -0.237 OA
ATOM     47  O   UNL A   1      41.393  35.344  37.062  1.00  0.00    -0.237 OA
ATOM     48  O   UNL A   1      39.652  36.452  35.733  1.00  0.00    -0.744 OA
ENDBRANCH  42  45
ENDBRANCH  24  38
BRANCH  25  49
ATOM     49  C   UNL A   1      42.266  26.474  27.558  1.00  0.00     0.023 A 
ATOM     50  C   UNL A   1      43.147  27.018  26.602  1.00  0.00     0.012 A 
ATOM     51  C   UNL A   1      41.871  25.128  27.437  1.00  0.00     0.148 A 
ATOM     52  C   UNL A   1      43.609  26.243  25.538  1.00  0.00     0.002 A 
ATOM     53  C   UNL A   1      42.384  24.344  26.411  1.00  0.00     0.091 A 
ATOM     54  F   UNL A   1      41.020  24.632  28.346  1.00  0.00    -0.205 F 
ATOM     55  C   UNL A   1      43.240  24.904  25.450  1.00  0.00     0.022 A 
BRANCH  53  56
ATOM     56  S   UNL A   1      42.080  22.576  26.315  1.00  0.00     0.127 S 
ATOM     57  O   UNL A   1      42.651  22.105  27.574  1.00  0.00    -0.237 OA
ATOM     58  O   UNL A   1      40.620  22.522  26.240  1.00  0.00    -0.237 OA
ATOM     59  O   UNL A   1      42.756  22.131  25.103  1.00  0.00    -0.744 OA
ENDBRANCH  53  56
ENDBRANCH  25  49
BRANCH  37  60
ATOM     60  C   UNL A   1      44.578  27.355  34.082  1.00  0.00     0.023 A 
ATOM     61  C   UNL A   1      45.816  28.028  34.045  1.00  0.00     0.012 A 
ATOM     62  C   UNL A   1      44.446  26.191  34.863  1.00  0.00     0.148 A 
ATOM     63  C   UNL A   1      46.913  27.531  34.747  1.00  0.00     0.002 A 
ATOM     64  C   UNL A   1      45.532  25.728  35.597  1.00  0.00     0.091 A 
ATOM     65  F   UNL A   1      43.268  25.549  34.865  1.00  0.00    -0.205 F 
ATOM     66  C   UNL A   1      46.768  26.389  35.531  1.00  0.00     0.022 A 
BRANCH  64  67
ATOM     67  S   UNL A   1      45.400  24.319  36.704  1.00  0.00     0.127 S 
ATOM     68  O   UNL A   1      44.347  24.757  37.620  1.00  0.00    -0.237 OA
ATOM     69  O   UNL A   1      45.007  23.241  35.795  1.00  0.00    -0.237 OA
ATOM     70  O   UNL A   1      46.721  24.155  37.293  1.00  0.00    -0.744 OA
ENDBRANCH  64  67
ENDBRANCH  37  60
ENDBRANCH  11  12
ENDBRANCH   4   6
ENDBRANCH   1   2
BRANCH   1  71
ATOM     71  C   UNL A   1      33.571  29.301  23.130  1.00  0.00     0.042 C 
BRANCH  71  72
ATOM     72  C   UNL A   1      34.104  28.097  22.348  1.00  0.00     0.117 C 
BRANCH  72  73
ATOM     73  N   UNL A   1      33.050  27.317  21.707  1.00  0.00    -0.354 N 
ATOM     74  C   UNL A   1      31.933  26.631  22.009  1.00  0.00     0.245 C 
ATOM     75  H   UNL A   1      33.210  27.278  20.736  1.00  0.00     0.163 HD
ATOM     76  O   UNL A   1      31.403  26.168  20.975  1.00  0.00    -0.273 OA
BRANCH  74  77
ATOM     77  C   UNL A   1      31.268  26.267  23.359  1.00  0.00     0.199 C 
BRANCH  77  78
ATOM     78  C   UNL A   1      30.483  27.364  24.117  1.00  0.00     0.073 C 
BRANCH  78  79
ATOM     79  C   UNL A   1      29.560  28.289  23.371  1.00  0.00    -0.045 A 
ATOM     80  C   UNL A   1      28.180  28.049  23.362  1.00  0.00     0.004 A 
ATOM     81  C   UNL A   1      30.061  29.409  22.690  1.00  0.00     0.004 A 
ATOM     82  C   UNL A   1      27.309  28.954  22.753  1.00  0.00     0.000 A 
ATOM     83  C   UNL A   1      29.188  30.319  22.090  1.00  0.00     0.000 A 
ATOM     84  C   UNL A   1      27.812  30.098  22.134  1.00  0.00     0.000 A 
ENDBRANCH  78  79
ENDBRANCH  77  78
BRANCH  77  85
ATOM     85  N   UNL A   1      31.068  24.855  23.770  1.00  0.00    -0.270 NA
ATOM     86  C   UNL A   1      31.937  24.007  24.191  1.00  0.00     0.109 C 
ATOM     87  C   UNL A   1      33.346  24.318  24.551  1.00  0.00     0.209 C 
ATOM     88  C   UNL A   1      31.558  22.559  24.340  1.00  0.00     0.205 C 
ATOM     89  O   UNL A   1      33.726  25.473  24.504  1.00  0.00    -0.287 OA
ATOM     90  C   UNL A   1      34.291  23.276  24.922  1.00  0.00     0.035 A 
ATOM     91  C   UNL A   1      32.691  21.590  24.075  1.00  0.00     0.187 C 
ATOM     92  Cl  UNL A   1      30.980  22.299  26.007  1.00  0.00    -0.107 Cl
ATOM     93  C   UNL A   1      35.502  23.643  25.520  1.00  0.00     0.013 A 
ATOM     94  C   UNL A   1      34.027  21.956  24.595  1.00  0.00     0.031 A 
ATOM     95  O   UNL A   1      32.527  20.511  23.513  1.00  0.00    -0.292 OA
ATOM     96  C   UNL A   1      36.473  22.680  25.753  1.00  0.00     0.001 A 
ATOM     97  C   UNL A   1      35.023  20.994  24.782  1.00  0.00     0.012 A 
ATOM     98  C   UNL A   1      36.246  21.362  25.358  1.00  0.00     0.001 A 
ENDBRANCH  77  85
ENDBRANCH  74  77
ENDBRANCH  72  73
ENDBRANCH  71  72
ENDBRANCH   1  71
TORSDOF 16
ENDMDL
MODEL 2
REMARK VINA RESULT:     -13.5      1.341      2.185
REMARK SMILES O=C(NCCCNC(=O)[C@@H](Cc1ccccc1)/N=C1\C(=O)c2ccccc2C(=O)[C@H]1Cl)c1ccc(-c2c3nc(c(-c4cccc(S(=O)(=O)[O-])c4F)c4ccc([nH]4)c(-c4cccc(S(=O)(=O)[O-])c4F)c4nc(c(-c5cccc(S(=O)(=O)[O-])c5F)c5ccc2[nH]5)C=C4)C=C3)cc1
REMARK SMILES IDX 4 1 3 2 1 3 2 4 32 6 33 7 94 8 34 9 93 10 35 11 36 12 37 13
REMARK SMILES IDX 87 14 38 15 92 16 86 17 88 18 39 19 91 20 85 21 84 22 40 24
REMARK SMILES IDX 72 25 52 26 71 27 53 28 56 29 70 30 89 31 54 32 55 33 69 35
REMARK SMILES IDX 90 36 57 37 41 38 42 39 50 40 43 41 45 42 51 43 44 44 46 45
REMARK SMILES IDX 47 46 48 47 49 48 73 49 74 50 82 51 75 52 77 53 83 54 76 55
REMARK SMILES IDX 78 56 79 57 80 58 81 59 58 60 59 61 67 62 60 63 62 64 68 65
REMARK SMILES IDX 61 66 63 67 64 68 65 69 66 70 5 71 6 72 7 73 8 74 9 76 10 77
REMARK SMILES IDX 11 78 12 79 13 80 17 81 14 82 16 83 15 84 18 85 19 86 20 87
REMARK SMILES IDX 30 88 21 89 22 90 28 91 31 92 23 93 27 94 29 95 24 96 26 97
REMARK SMILES IDX 25 98
REMARK H PARENT 3 5 88 23 56 34 7 75
REMARK Flexibility Score: inf
ROOT
ATOM      1  C   UNL A   1      32.478  29.869  25.627  1.00  0.00     0.118 C 
ENDROOT
BRANCH   1   2
ATOM      2  N   UNL A   1      32.272  31.206  26.172  1.00  0.00    -0.352 N 
ATOM      3  O   UNL A   1      32.433  33.064  27.386  1.00  0.00    -0.269 OA
ATOM      4  C   UNL A   1      32.960  31.996  27.064  1.00  0.00     0.251 C 
ATOM      5  H   UNL A   1      31.458  31.639  25.825  1.00  0.00     0.163 HD
BRANCH   4   6
ATOM      6  C   UNL A   1      34.258  31.620  27.691  1.00  0.00     0.039 A 
ATOM      7  C   UNL A   1      35.260  32.538  27.983  1.00  0.00     0.014 A 
ATOM      8  C   UNL A   1      34.453  30.284  28.087  1.00  0.00     0.014 A 
ATOM      9  C   UNL A   1      36.491  32.116  28.484  1.00  0.00     0.010 A 
ATOM     10  C   UNL A   1      35.641  29.879  28.718  1.00  0.00     0.010 A 
ATOM     11  C   UNL A   1      36.686  30.791  28.899  1.00  0.00    -0.014 A 
BRANCH  11  12
ATOM     12  C   UNL A   1      37.937  30.462  29.637  1.00  0.00     0.031 A 
ATOM     13  C   UNL A   1      38.167  30.898  31.056  1.00  0.00     0.074 A 
ATOM     14  C   UNL A   1      38.862  29.705  29.010  1.00  0.00     0.049 A 
ATOM     15  N   UNL A   1      39.128  30.547  31.873  1.00  0.00    -0.248 NA
ATOM     16  C   UNL A   1      37.214  31.858  31.635  1.00  0.00     0.031 C 
ATOM     17  C   UNL A   1      38.785  29.281  27.607  1.00  0.00     0.029 A 
ATOM     18  N   UNL A   1      40.018  29.123  29.464  1.00  0.00    -0.354 N 
ATOM     19  C   UNL A   1      38.923  31.269  33.043  1.00  0.00     0.074 A 
ATOM     20  C   UNL A   1      37.747  32.085  32.829  1.00  0.00     0.031 C 
ATOM     21  C   UNL A   1      39.799  28.448  27.341  1.00  0.00     0.029 A 
ATOM     22  C   UNL A   1      40.631  28.319  28.530  1.00  0.00     0.049 A 
ATOM     23  H   UNL A   1      40.376  29.268  30.369  1.00  0.00     0.167 HD
ATOM     24  C   UNL A   1      39.643  31.243  34.191  1.00  0.00     0.034 A 
ATOM     25  C   UNL A   1      41.734  27.550  28.618  1.00  0.00     0.034 A 
ATOM     26  C   UNL A   1      40.790  30.399  34.409  1.00  0.00     0.049 A 
ATOM     27  C   UNL A   1      42.466  27.486  29.926  1.00  0.00     0.074 A 
ATOM     28  C   UNL A   1      41.541  30.247  35.562  1.00  0.00     0.029 A 
ATOM     29  N   UNL A   1      41.358  29.569  33.454  1.00  0.00    -0.354 N 
ATOM     30  N   UNL A   1      42.167  28.060  31.065  1.00  0.00    -0.248 NA
ATOM     31  C   UNL A   1      43.672  26.649  29.970  1.00  0.00     0.031 C 
ATOM     32  C   UNL A   1      42.575  29.341  35.297  1.00  0.00     0.029 A 
ATOM     33  C   UNL A   1      42.455  28.911  33.985  1.00  0.00     0.049 A 
ATOM     34  H   UNL A   1      41.030  29.464  32.531  1.00  0.00     0.167 HD
ATOM     35  C   UNL A   1      43.131  27.634  31.970  1.00  0.00     0.074 A 
ATOM     36  C   UNL A   1      44.007  26.731  31.251  1.00  0.00     0.031 C 
ATOM     37  C   UNL A   1      43.286  27.975  33.273  1.00  0.00     0.034 A 
BRANCH  24  38
ATOM     38  C   UNL A   1      39.193  32.133  35.323  1.00  0.00     0.023 A 
ATOM     39  C   UNL A   1      38.260  31.650  36.262  1.00  0.00     0.012 A 
ATOM     40  C   UNL A   1      39.742  33.419  35.495  1.00  0.00     0.148 A 
ATOM     41  C   UNL A   1      37.854  32.443  37.335  1.00  0.00     0.002 A 
ATOM     42  C   UNL A   1      39.361  34.191  36.589  1.00  0.00     0.091 A 
ATOM     43  F   UNL A   1      40.612  33.872  34.581  1.00  0.00    -0.205 F 
ATOM     44  C   UNL A   1      38.411  33.708  37.504  1.00  0.00     0.022 A 
BRANCH  42  45
ATOM     45  S   UNL A   1      40.081  35.803  36.926  1.00  0.00     0.127 S 
ATOM     46  O   UNL A   1      39.680  36.558  35.741  1.00  0.00    -0.237 OA
ATOM     47  O   UNL A   1      39.398  36.197  38.159  1.00  0.00    -0.237 OA
ATOM     48  O   UNL A   1      41.511  35.574  37.076  1.00  0.00    -0.744 OA
ENDBRANCH  42  45
ENDBRANCH  24  38
BRANCH  25  49
ATOM     49  C   UNL A   1      42.152  26.722  27.452  1.00  0.00     0.023 A 
ATOM     50  C   UNL A   1      42.940  27.301  26.437  1.00  0.00     0.012 A 
ATOM     51  C   UNL A   1      41.828  25.354  27.371  1.00  0.00     0.148 A 
ATOM     52  C   UNL A   1      43.379  26.538  25.355  1.00  0.00     0.002 A 
ATOM     53  C   UNL A   1      42.321  24.586  26.323  1.00  0.00     0.091 A 
ATOM     54  F   UNL A   1      41.065  24.824  28.337  1.00  0.00    -0.205 F 
ATOM     55  C   UNL A   1      43.082  25.179  25.305  1.00  0.00     0.022 A 
BRANCH  53  56
ATOM     56  S   UNL A   1      42.114  22.802  26.266  1.00  0.00     0.127 S 
ATOM     57  O   UNL A   1      42.823  22.379  27.471  1.00  0.00    -0.237 OA
ATOM     58  O   UNL A   1      40.658  22.663  26.325  1.00  0.00    -0.237 OA
ATOM     59  O   UNL A   1      42.701  22.383  25.000  1.00  0.00    -0.744 OA
ENDBRANCH  53  56
ENDBRANCH  25  49
BRANCH  37  60
ATOM     60  C   UNL A   1      44.433  27.344  34.017  1.00  0.00     0.023 A 
ATOM     61  C   UNL A   1      45.702  27.957  33.997  1.00  0.00     0.012 A 
ATOM     62  C   UNL A   1      44.239  26.177  34.779  1.00  0.00     0.148 A 
ATOM     63  C   UNL A   1      46.770  27.396  34.696  1.00  0.00     0.002 A 
ATOM     64  C   UNL A   1      45.297  25.650  35.511  1.00  0.00     0.091 A 
ATOM     65  F   UNL A   1      43.031  25.594  34.765  1.00  0.00    -0.205 F 
ATOM     66  C   UNL A   1      46.564  26.251  35.461  1.00  0.00     0.022 A 
BRANCH  64  67
ATOM     67  S   UNL A   1      45.090  24.233  36.595  1.00  0.00     0.127 S 
ATOM     68  O   UNL A   1      46.453  24.029  37.083  1.00  0.00    -0.237 OA
ATOM     69  O   UNL A   1      44.152  24.739  37.598  1.00  0.00    -0.237 OA
ATOM     70  O   UNL A   1      44.554  23.169  35.756  1.00  0.00    -0.744 OA
ENDBRANCH  64  67
ENDBRANCH  37  60
ENDBRANCH  11  12
ENDBRANCH   4   6
ENDBRANCH   1   2
BRANCH   1  71
ATOM     71  C   UNL A   1      31.455  28.834  26.077  1.00  0.00     0.042 C 
BRANCH  71  72
ATOM     72  C   UNL A   1      32.042  27.688  26.906  1.00  0.00     0.117 C 
BRANCH  72  73
ATOM     73  N   UNL A   1      31.218  26.483  26.884  1.00  0.00    -0.354 N 
ATOM     74  C   UNL A   1      31.020  25.372  26.152  1.00  0.00     0.245 C 
ATOM     75  H   UNL A   1      30.607  26.485  27.656  1.00  0.00     0.163 HD
ATOM     76  O   UNL A   1      30.142  24.649  26.673  1.00  0.00    -0.273 OA
BRANCH  74  77
ATOM     77  C   UNL A   1      31.605  24.899  24.799  1.00  0.00     0.199 C 
BRANCH  77  78
ATOM     78  C   UNL A   1      30.841  25.248  23.500  1.00  0.00     0.073 C 
BRANCH  78  79
ATOM     79  C   UNL A   1      30.372  26.656  23.251  1.00  0.00    -0.045 A 
ATOM     80  C   UNL A   1      31.234  27.591  22.663  1.00  0.00     0.004 A 
ATOM     81  C   UNL A   1      29.067  27.049  23.585  1.00  0.00     0.004 A 
ATOM     82  C   UNL A   1      30.778  28.870  22.343  1.00  0.00     0.000 A 
ATOM     83  C   UNL A   1      28.608  28.326  23.254  1.00  0.00     0.000 A 
ATOM     84  C   UNL A   1      29.459  29.230  22.620  1.00  0.00     0.000 A 
ENDBRANCH  78  79
ENDBRANCH  77  78
BRANCH  77  85
ATOM     85  N   UNL A   1      33.010  24.436  24.680  1.00  0.00    -0.270 NA
ATOM     86  C   UNL A   1      33.455  23.241  24.526  1.00  0.00     0.109 C 
ATOM     87  C   UNL A   1      32.628  22.040  24.233  1.00  0.00     0.209 C 
ATOM     88  C   UNL A   1      34.929  22.969  24.654  1.00  0.00     0.205 C 
ATOM     89  O   UNL A   1      31.430  22.175  24.067  1.00  0.00    -0.287 OA
ATOM     90  C   UNL A   1      33.205  20.707  24.174  1.00  0.00     0.035 A 
ATOM     91  C   UNL A   1      35.262  21.603  25.216  1.00  0.00     0.187 C 
ATOM     92  Cl  UNL A   1      35.667  23.101  23.035  1.00  0.00    -0.107 Cl
ATOM     93  C   UNL A   1      32.450  19.667  23.621  1.00  0.00     0.013 A 
ATOM     94  C   UNL A   1      34.442  20.463  24.749  1.00  0.00     0.031 A 
ATOM     95  O   UNL A   1      36.205  21.407  25.977  1.00  0.00    -0.292 OA
ATOM     96  C   UNL A   1      32.925  18.364  23.683  1.00  0.00     0.001 A 
ATOM     97  C   UNL A   1      34.898  19.147  24.857  1.00  0.00     0.012 A 
ATOM     98  C   UNL A   1      34.133  18.100  24.326  1.00  0.00     0.001 A 
ENDBRANCH  77  85
ENDBRANCH  74  77
ENDBRANCH  72  73
ENDBRANCH  71  72
ENDBRANCH   1  71
TORSDOF 16
ENDMDL
MODEL 3
REMARK VINA RESULT:     -13.4      5.123     10.134
REMARK SMILES O=C(NCCCNC(=O)[C@@H](Cc1ccccc1)/N=C1\C(=O)c2ccccc2C(=O)[C@H]1Cl)c1ccc(-c2c3nc(c(-c4cccc(S(=O)(=O)[O-])c4F)c4ccc([nH]4)c(-c4cccc(S(=O)(=O)[O-])c4F)c4nc(c(-c5cccc(S(=O)(=O)[O-])c5F)c5ccc2[nH]5)C=C4)C=C3)cc1
REMARK SMILES IDX 4 1 3 2 1 3 2 4 32 6 33 7 94 8 34 9 93 10 35 11 36 12 37 13
REMARK SMILES IDX 87 14 38 15 92 16 86 17 88 18 39 19 91 20 85 21 84 22 40 24
REMARK SMILES IDX 72 25 52 26 71 27 53 28 56 29 70 30 89 31 54 32 55 33 69 35
REMARK SMILES IDX 90 36 57 37 41 38 42 39 50 40 43 41 45 42 51 43 44 44 46 45
REMARK SMILES IDX 47 46 48 47 49 48 73 49 74 50 82 51 75 52 77 53 83 54 76 55
REMARK SMILES IDX 78 56 79 57 80 58 81 59 58 60 59 61 67 62 60 63 62 64 68 65
REMARK SMILES IDX 61 66 63 67 64 68 65 69 66 70 5 71 6 72 7 73 8 74 9 76 10 77
REMARK SMILES IDX 11 78 12 79 13 80 17 81 14 82 16 83 15 84 18 85 19 86 20 87
REMARK SMILES IDX 30 88 21 89 22 90 28 91 31 92 23 93 27 94 29 95 24 96 26 97
REMARK SMILES IDX 25 98
REMARK H PARENT 3 5 88 23 56 34 7 75
REMARK Flexibility Score: inf
ROOT
ATOM      1  C   UNL A   1      35.380  22.281  26.572  1.00  0.00     0.118 C 
ENDROOT
BRANCH   1   2
ATOM      2  N   UNL A   1      36.359  21.374  25.986  1.00  0.00    -0.352 N 
ATOM      3  O   UNL A   1      38.219  20.510  25.121  1.00  0.00    -0.269 OA
ATOM      4  C   UNL A   1      37.712  21.448  25.742  1.00  0.00     0.251 C 
ATOM      5  H   UNL A   1      35.965  20.518  25.700  1.00  0.00     0.163 HD
BRANCH   4   6
ATOM      6  C   UNL A   1      38.574  22.599  26.132  1.00  0.00     0.039 A 
ATOM      7  C   UNL A   1      38.274  23.919  25.817  1.00  0.00     0.014 A 
ATOM      8  C   UNL A   1      39.705  22.352  26.931  1.00  0.00     0.014 A 
ATOM      9  C   UNL A   1      39.164  24.946  26.127  1.00  0.00     0.010 A 
ATOM     10  C   UNL A   1      40.532  23.402  27.362  1.00  0.00     0.010 A 
ATOM     11  C   UNL A   1      40.283  24.712  26.939  1.00  0.00    -0.014 A 
BRANCH  11  12
ATOM     12  C   UNL A   1      41.059  25.887  27.422  1.00  0.00     0.031 A 
ATOM     13  C   UNL A   1      42.460  26.169  26.958  1.00  0.00     0.074 A 
ATOM     14  C   UNL A   1      40.448  26.744  28.269  1.00  0.00     0.049 A 
ATOM     15  N   UNL A   1      43.190  27.235  27.164  1.00  0.00    -0.248 NA
ATOM     16  C   UNL A   1      43.139  25.124  26.176  1.00  0.00     0.031 C 
ATOM     17  C   UNL A   1      39.116  26.541  28.849  1.00  0.00     0.029 A 
ATOM     18  N   UNL A   1      40.834  27.966  28.758  1.00  0.00    -0.354 N 
ATOM     19  C   UNL A   1      44.423  26.978  26.578  1.00  0.00     0.074 A 
ATOM     20  C   UNL A   1      44.346  25.649  26.010  1.00  0.00     0.031 C 
ATOM     21  C   UNL A   1      38.766  27.629  29.545  1.00  0.00     0.029 A 
ATOM     22  C   UNL A   1      39.865  28.586  29.512  1.00  0.00     0.049 A 
ATOM     23  H   UNL A   1      41.720  28.360  28.588  1.00  0.00     0.167 HD
ATOM     24  C   UNL A   1      45.512  27.782  26.509  1.00  0.00     0.034 A 
ATOM     25  C   UNL A   1      39.849  29.796  30.105  1.00  0.00     0.034 A 
ATOM     26  C   UNL A   1      45.568  29.119  27.044  1.00  0.00     0.049 A 
ATOM     27  C   UNL A   1      41.042  30.691  29.948  1.00  0.00     0.074 A 
ATOM     28  C   UNL A   1      46.600  30.037  26.961  1.00  0.00     0.029 A 
ATOM     29  N   UNL A   1      44.553  29.727  27.767  1.00  0.00    -0.354 N 
ATOM     30  N   UNL A   1      42.139  30.487  29.261  1.00  0.00    -0.248 NA
ATOM     31  C   UNL A   1      40.987  31.993  30.626  1.00  0.00     0.031 C 
ATOM     32  C   UNL A   1      46.216  31.193  27.650  1.00  0.00     0.029 A 
ATOM     33  C   UNL A   1      44.936  31.003  28.145  1.00  0.00     0.049 A 
ATOM     34  H   UNL A   1      43.686  29.311  27.982  1.00  0.00     0.167 HD
ATOM     35  C   UNL A   1      42.895  31.644  29.400  1.00  0.00     0.074 A 
ATOM     36  C   UNL A   1      42.117  32.555  30.214  1.00  0.00     0.031 C 
ATOM     37  C   UNL A   1      44.130  31.918  28.911  1.00  0.00     0.034 A 
BRANCH  24  38
ATOM     38  C   UNL A   1      46.734  27.251  25.800  1.00  0.00     0.023 A 
ATOM     39  C   UNL A   1      47.556  26.303  26.440  1.00  0.00     0.012 A 
ATOM     40  C   UNL A   1      47.030  27.641  24.479  1.00  0.00     0.148 A 
ATOM     41  C   UNL A   1      48.672  25.775  25.791  1.00  0.00     0.002 A 
ATOM     42  C   UNL A   1      48.123  27.082  23.824  1.00  0.00     0.091 A 
ATOM     43  F   UNL A   1      46.251  28.560  23.892  1.00  0.00    -0.205 F 
ATOM     44  C   UNL A   1      48.950  26.156  24.481  1.00  0.00     0.022 A 
BRANCH  42  45
ATOM     45  S   UNL A   1      48.515  27.460  22.111  1.00  0.00     0.127 S 
ATOM     46  O   UNL A   1      49.763  28.206  22.252  1.00  0.00    -0.237 OA
ATOM     47  O   UNL A   1      48.665  26.127  21.524  1.00  0.00    -0.237 OA
ATOM     48  O   UNL A   1      47.380  28.217  21.603  1.00  0.00    -0.744 OA
ENDBRANCH  42  45
ENDBRANCH  24  38
BRANCH  25  49
ATOM     49  C   UNL A   1      38.626  30.250  30.826  1.00  0.00     0.023 A 
ATOM     50  C   UNL A   1      38.512  30.018  32.211  1.00  0.00     0.012 A 
ATOM     51  C   UNL A   1      37.607  30.961  30.164  1.00  0.00     0.148 A 
ATOM     52  C   UNL A   1      37.396  30.468  32.918  1.00  0.00     0.002 A 
ATOM     53  C   UNL A   1      36.530  31.462  30.886  1.00  0.00     0.091 A 
ATOM     54  F   UNL A   1      37.725  31.159  28.844  1.00  0.00    -0.205 F 
ATOM     55  C   UNL A   1      36.413  31.201  32.259  1.00  0.00     0.022 A 
BRANCH  53  56
ATOM     56  S   UNL A   1      35.302  32.543  30.143  1.00  0.00     0.127 S 
ATOM     57  O   UNL A   1      34.752  31.694  29.091  1.00  0.00    -0.237 OA
ATOM     58  O   UNL A   1      34.401  32.798  31.268  1.00  0.00    -0.237 OA
ATOM     59  O   UNL A   1      36.040  33.717  29.694  1.00  0.00    -0.744 OA
ENDBRANCH  53  56
ENDBRANCH  25  49
BRANCH  37  60
ATOM     60  C   UNL A   1      44.706  33.274  29.221  1.00  0.00     0.023 A 
ATOM     61  C   UNL A   1      45.391  33.483  30.435  1.00  0.00     0.012 A 
ATOM     62  C   UNL A   1      44.616  34.323  28.288  1.00  0.00     0.148 A 
ATOM     63  C   UNL A   1      45.948  34.727  30.729  1.00  0.00     0.002 A 
ATOM     64  C   UNL A   1      45.214  35.547  28.567  1.00  0.00     0.091 A 
ATOM     65  F   UNL A   1      43.938  34.114  27.149  1.00  0.00    -0.205 F 
ATOM     66  C   UNL A   1      45.869  35.754  29.792  1.00  0.00     0.022 A 
BRANCH  64  67
ATOM     67  S   UNL A   1      45.238  36.888  27.374  1.00  0.00     0.127 S 
ATOM     68  O   UNL A   1      45.995  36.295  26.272  1.00  0.00    -0.237 OA
ATOM     69  O   UNL A   1      43.815  37.089  27.097  1.00  0.00    -0.237 OA
ATOM     70  O   UNL A   1      45.881  38.007  28.050  1.00  0.00    -0.744 OA
ENDBRANCH  64  67
ENDBRANCH  37  60
ENDBRANCH  11  12
ENDBRANCH   4   6
ENDBRANCH   1   2
BRANCH   1  71
ATOM     71  C   UNL A   1      34.363  21.613  27.489  1.00  0.00     0.042 C 
BRANCH  71  72
ATOM     72  C   UNL A   1      33.174  22.501  27.866  1.00  0.00     0.117 C 
BRANCH  72  73
ATOM     73  N   UNL A   1      31.975  22.216  27.085  1.00  0.00    -0.354 N 
ATOM     74  C   UNL A   1      31.539  22.209  25.812  1.00  0.00     0.245 C 
ATOM     75  H   UNL A   1      31.246  21.939  27.686  1.00  0.00     0.163 HD
ATOM     76  O   UNL A   1      30.349  21.828  25.753  1.00  0.00    -0.273 OA
BRANCH  74  77
ATOM     77  C   UNL A   1      32.200  22.648  24.483  1.00  0.00     0.199 C 
BRANCH  77  78
ATOM     78  C   UNL A   1      33.269  21.728  23.848  1.00  0.00     0.073 C 
BRANCH  78  79
ATOM     79  C   UNL A   1      33.059  20.238  23.807  1.00  0.00    -0.045 A 
ATOM     80  C   UNL A   1      32.274  19.666  22.798  1.00  0.00     0.004 A 
ATOM     81  C   UNL A   1      33.657  19.400  24.762  1.00  0.00     0.004 A 
ATOM     82  C   UNL A   1      32.152  18.280  22.696  1.00  0.00     0.000 A 
ATOM     83  C   UNL A   1      33.542  18.013  24.653  1.00  0.00     0.000 A 
ATOM     84  C   UNL A   1      32.802  17.454  23.612  1.00  0.00     0.000 A 
ENDBRANCH  78  79
ENDBRANCH  77  78
BRANCH  77  85
ATOM     85  N   UNL A   1      31.613  23.719  23.640  1.00  0.00    -0.270 NA
ATOM     86  C   UNL A   1      31.713  24.994  23.769  1.00  0.00     0.109 C 
ATOM     87  C   UNL A   1      32.625  25.699  24.709  1.00  0.00     0.209 C 
ATOM     88  C   UNL A   1      30.851  25.901  22.935  1.00  0.00     0.205 C 
ATOM     89  O   UNL A   1      33.392  25.044  25.391  1.00  0.00    -0.287 OA
ATOM     90  C   UNL A   1      32.600  27.145  24.862  1.00  0.00     0.035 A 
ATOM     91  C   UNL A   1      30.459  27.191  23.623  1.00  0.00     0.187 C 
ATOM     92  Cl  UNL A   1      31.745  26.311  21.446  1.00  0.00    -0.107 Cl
ATOM     93  C   UNL A   1      33.656  27.772  25.533  1.00  0.00     0.013 A 
ATOM     94  C   UNL A   1      31.498  27.867  24.432  1.00  0.00     0.031 A 
ATOM     95  O   UNL A   1      29.358  27.714  23.482  1.00  0.00    -0.292 OA
ATOM     96  C   UNL A   1      33.584  29.130  25.811  1.00  0.00     0.001 A 
ATOM     97  C   UNL A   1      31.401  29.223  24.756  1.00  0.00     0.012 A 
ATOM     98  C   UNL A   1      32.445  29.849  25.450  1.00  0.00     0.001 A 
ENDBRANCH  77  85
ENDBRANCH  74  77
ENDBRANCH  72  73
ENDBRANCH  71  72
ENDBRANCH   1  71
TORSDOF 16
ENDMDL
