MODEL 1
REMARK VINA RESULT:     -12.1      0.000      0.000
REMARK SMILES CS(=O)(=O)c1ccc(N2N=C(C(=O)NCCCNC(=O)c3ccc(-c4c5nc(c(-c6cccc(S(=O)(=O)[O-])c6F)c6ccc([nH]6)c(-c6cccc(S(=O)(=O)[O-])c6F)c6nc(c(-c7cccc(S(=O)(=O)[O-])c7F)c7ccc4[nH]7)C=C6)C=C5)cc3)C[C@H]2c2cccs2)cc1
REMARK SMILES IDX 16 1 15 2 14 3 12 4 13 5 11 7 9 8 10 9 85 10 84 11 8 12 5 13
REMARK SMILES IDX 6 14 92 15 7 16 91 17 2 18 1 19 3 20 4 21 86 22 87 23 90 24
REMARK SMILES IDX 88 25 89 26 17 27 18 28 19 29 20 31 21 32 22 33 83 34 23 35
REMARK SMILES IDX 82 36 24 37 25 38 26 39 76 40 27 41 81 42 75 43 77 44 28 45
REMARK SMILES IDX 80 46 74 47 73 48 29 50 61 51 41 52 60 53 42 54 45 55 59 56
REMARK SMILES IDX 78 57 43 58 44 59 58 61 79 62 46 63 30 64 31 65 39 66 32 67
REMARK SMILES IDX 34 68 40 69 33 70 35 71 36 72 37 73 38 74 62 75 63 76 71 77
REMARK SMILES IDX 64 78 66 79 72 80 65 81 67 82 68 83 69 84 70 85 47 86 48 87
REMARK SMILES IDX 56 88 49 89 51 90 57 91 50 92 52 93 53 94 54 95 55 96
REMARK H PARENT 14 6 18 30 77 49 45 60
REMARK Flexibility Score: inf
ROOT
ATOM      1  C   UNL A   1      35.219  23.110  25.243  1.00  0.00     0.042 C 
ENDROOT
BRANCH   1   2
ATOM      2  C   UNL A   1      34.947  23.511  23.799  1.00  0.00     0.118 C 
BRANCH   2   3
ATOM      3  N   UNL A   1      33.680  22.982  23.337  1.00  0.00    -0.351 N 
ATOM      4  C   UNL A   1      32.370  23.345  23.495  1.00  0.00     0.267 C 
ATOM      5  O   UNL A   1      31.522  22.599  23.007  1.00  0.00    -0.268 OA
ATOM      6  H   UNL A   1      33.786  22.177  22.781  1.00  0.00     0.163 HD
BRANCH   4   7
ATOM      7  C   UNL A   1      31.900  24.622  24.173  1.00  0.00     0.128 C 
ATOM      8  N   UNL A   1      31.104  26.590  24.305  1.00  0.00    -0.256 N 
ATOM      9  N   UNL A   1      31.379  25.574  23.456  1.00  0.00    -0.171 NA
ATOM     10  C   UNL A   1      31.470  26.337  25.694  1.00  0.00     0.154 C 
ATOM     11  C   UNL A   1      31.903  24.864  25.650  1.00  0.00     0.097 C 
BRANCH   8  12
ATOM     12  C   UNL A   1      30.359  27.677  23.888  1.00  0.00     0.060 A 
ATOM     13  C   UNL A   1      28.817  29.854  23.014  1.00  0.00     0.067 A 
ATOM     14  C   UNL A   1      30.138  30.057  23.426  1.00  0.00     0.022 A 
ATOM     15  C   UNL A   1      28.258  28.579  23.043  1.00  0.00     0.022 A 
ATOM     16  C   UNL A   1      30.898  28.970  23.873  1.00  0.00     0.029 A 
ATOM     17  C   UNL A   1      29.032  27.504  23.478  1.00  0.00     0.029 A 
BRANCH  13  18
ATOM     18  S   UNL A   1      27.892  31.260  22.455  1.00  0.00     0.175 S 
ATOM     19  C   UNL A   1      28.983  32.654  22.522  1.00  0.00     0.163 C 
ATOM     20  O   UNL A   1      26.848  31.494  23.429  1.00  0.00    -0.224 OA
ATOM     21  O   UNL A   1      27.577  31.025  21.054  1.00  0.00    -0.224 OA
ENDBRANCH  13  18
ENDBRANCH   8  12
BRANCH  10  22
ATOM     22  C   UNL A   1      32.509  27.290  26.274  1.00  0.00     0.030 A 
ATOM     23  C   UNL A   1      33.847  27.364  25.920  1.00  0.00     0.017 A 
ATOM     24  S   UNL A   1      32.165  28.376  27.563  1.00  0.00    -0.147 S 
ATOM     25  C   UNL A   1      34.567  28.333  26.674  1.00  0.00     0.012 A 
ATOM     26  C   UNL A   1      33.759  28.989  27.573  1.00  0.00     0.065 A 
ENDBRANCH  10  22
ENDBRANCH   4   7
ENDBRANCH   2   3
ENDBRANCH   1   2
BRANCH   1  27
ATOM     27  C   UNL A   1      36.522  23.697  25.776  1.00  0.00     0.118 C 
BRANCH  27  28
ATOM     28  N   UNL A   1      37.489  22.657  26.114  1.00  0.00    -0.352 N 
ATOM     29  C   UNL A   1      38.802  22.762  26.502  1.00  0.00     0.251 C 
ATOM     30  H   UNL A   1      37.147  21.736  26.054  1.00  0.00     0.163 HD
ATOM     31  O   UNL A   1      39.517  21.763  26.489  1.00  0.00    -0.269 OA
BRANCH  29  32
ATOM     32  C   UNL A   1      39.350  24.065  26.927  1.00  0.00     0.039 A 
ATOM     33  C   UNL A   1      39.970  24.887  25.984  1.00  0.00     0.014 A 
ATOM     34  C   UNL A   1      39.271  24.466  28.263  1.00  0.00     0.014 A 
ATOM     35  C   UNL A   1      40.452  26.140  26.370  1.00  0.00     0.010 A 
ATOM     36  C   UNL A   1      39.661  25.750  28.624  1.00  0.00     0.010 A 
ATOM     37  C   UNL A   1      40.267  26.596  27.685  1.00  0.00    -0.014 A 
BRANCH  37  38
ATOM     38  C   UNL A   1      40.699  27.951  28.109  1.00  0.00     0.031 A 
ATOM     39  C   UNL A   1      42.164  28.301  28.139  1.00  0.00     0.074 A 
ATOM     40  C   UNL A   1      39.783  28.827  28.567  1.00  0.00     0.049 A 
ATOM     41  N   UNL A   1      42.741  29.393  28.564  1.00  0.00    -0.248 NA
ATOM     42  C   UNL A   1      43.107  27.274  27.661  1.00  0.00     0.031 C 
ATOM     43  C   UNL A   1      38.344  28.573  28.669  1.00  0.00     0.029 A 
ATOM     44  N   UNL A   1      39.929  30.098  29.063  1.00  0.00    -0.354 N 
ATOM     45  C   UNL A   1      44.108  29.171  28.448  1.00  0.00     0.074 A 
ATOM     46  C   UNL A   1      44.277  27.826  27.946  1.00  0.00     0.031 C 
ATOM     47  C   UNL A   1      37.741  29.652  29.191  1.00  0.00     0.029 A 
ATOM     48  C   UNL A   1      38.750  30.661  29.492  1.00  0.00     0.049 A 
ATOM     49  H   UNL A   1      40.796  30.563  29.109  1.00  0.00     0.167 HD
ATOM     50  C   UNL A   1      45.131  30.020  28.706  1.00  0.00     0.034 A 
ATOM     51  C   UNL A   1      38.509  31.855  30.071  1.00  0.00     0.034 A 
ATOM     52  C   UNL A   1      44.954  31.375  29.152  1.00  0.00     0.049 A 
ATOM     53  C   UNL A   1      39.659  32.800  30.294  1.00  0.00     0.074 A 
ATOM     54  C   UNL A   1      45.917  32.348  29.347  1.00  0.00     0.029 A 
ATOM     55  N   UNL A   1      43.734  31.948  29.475  1.00  0.00    -0.354 N 
ATOM     56  N   UNL A   1      40.930  32.630  30.024  1.00  0.00    -0.248 NA
ATOM     57  C   UNL A   1      39.337  34.117  30.862  1.00  0.00     0.031 C 
ATOM     58  C   UNL A   1      45.281  33.504  29.810  1.00  0.00     0.029 A 
ATOM     59  C   UNL A   1      43.918  33.259  29.874  1.00  0.00     0.049 A 
ATOM     60  H   UNL A   1      42.864  31.488  29.427  1.00  0.00     0.167 HD
ATOM     61  C   UNL A   1      41.553  33.829  30.352  1.00  0.00     0.074 A 
ATOM     62  C   UNL A   1      40.517  34.722  30.823  1.00  0.00     0.031 C 
ATOM     63  C   UNL A   1      42.868  34.155  30.282  1.00  0.00     0.034 A 
BRANCH  50  64
ATOM     64  C   UNL A   1      46.533  29.529  28.457  1.00  0.00     0.023 A 
ATOM     65  C   UNL A   1      47.145  29.775  27.210  1.00  0.00     0.012 A 
ATOM     66  C   UNL A   1      47.268  28.885  29.471  1.00  0.00     0.148 A 
ATOM     67  C   UNL A   1      48.453  29.358  26.965  1.00  0.00     0.002 A 
ATOM     68  C   UNL A   1      48.587  28.514  29.236  1.00  0.00     0.091 A 
ATOM     69  F   UNL A   1      46.663  28.641  30.643  1.00  0.00    -0.205 F 
ATOM     70  C   UNL A   1      49.176  28.739  27.980  1.00  0.00     0.022 A 
BRANCH  68  71
ATOM     71  S   UNL A   1      49.631  27.786  30.502  1.00  0.00     0.127 S 
ATOM     72  O   UNL A   1      49.579  28.805  31.549  1.00  0.00    -0.237 OA
ATOM     73  O   UNL A   1      48.914  26.550  30.818  1.00  0.00    -0.237 OA
ATOM     74  O   UNL A   1      50.935  27.590  29.884  1.00  0.00    -0.744 OA
ENDBRANCH  68  71
ENDBRANCH  50  64
BRANCH  51  75
ATOM     75  C   UNL A   1      37.115  32.248  30.417  1.00  0.00     0.023 A 
ATOM     76  C   UNL A   1      36.637  32.025  31.724  1.00  0.00     0.012 A 
ATOM     77  C   UNL A   1      36.269  32.865  29.474  1.00  0.00     0.148 A 
ATOM     78  C   UNL A   1      35.333  32.375  32.076  1.00  0.00     0.002 A 
ATOM     79  C   UNL A   1      34.990  33.263  29.847  1.00  0.00     0.091 A 
ATOM     80  F   UNL A   1      36.737  33.060  28.234  1.00  0.00    -0.205 F 
ATOM     81  C   UNL A   1      34.514  33.002  31.142  1.00  0.00     0.022 A 
BRANCH  79  82
ATOM     82  S   UNL A   1      33.918  34.200  28.752  1.00  0.00     0.127 S 
ATOM     83  O   UNL A   1      33.567  33.200  27.748  1.00  0.00    -0.237 OA
ATOM     84  O   UNL A   1      32.828  34.583  29.650  1.00  0.00    -0.237 OA
ATOM     85  O   UNL A   1      34.723  35.320  28.281  1.00  0.00    -0.744 OA
ENDBRANCH  79  82
ENDBRANCH  51  75
BRANCH  63  86
ATOM     86  C   UNL A   1      43.263  35.552  30.678  1.00  0.00     0.023 A 
ATOM     87  C   UNL A   1      43.698  35.814  31.992  1.00  0.00     0.012 A 
ATOM     88  C   UNL A   1      43.285  36.586  29.720  1.00  0.00     0.148 A 
ATOM     89  C   UNL A   1      44.119  37.093  32.355  1.00  0.00     0.002 A 
ATOM     90  C   UNL A   1      43.755  37.844  30.077  1.00  0.00     0.091 A 
ATOM     91  F   UNL A   1      42.851  36.318  28.480  1.00  0.00    -0.205 F 
ATOM     92  C   UNL A   1      44.159  38.103  31.395  1.00  0.00     0.022 A 
BRANCH  90  93
ATOM     93  S   UNL A   1      43.936  39.175  28.884  1.00  0.00     0.127 S 
ATOM     94  O   UNL A   1      44.778  38.548  27.865  1.00  0.00    -0.237 OA
ATOM     95  O   UNL A   1      42.553  39.412  28.471  1.00  0.00    -0.237 OA
ATOM     96  O   UNL A   1      44.549  40.282  29.607  1.00  0.00    -0.744 OA
ENDBRANCH  90  93
ENDBRANCH  63  86
ENDBRANCH  37  38
ENDBRANCH  29  32
ENDBRANCH  27  28
ENDBRANCH   1  27
TORSDOF 16
ENDMDL
MODEL 2
REMARK VINA RESULT:     -11.8      2.253      8.078
REMARK SMILES CS(=O)(=O)c1ccc(N2N=C(C(=O)NCCCNC(=O)c3ccc(-c4c5nc(c(-c6cccc(S(=O)(=O)[O-])c6F)c6ccc([nH]6)c(-c6cccc(S(=O)(=O)[O-])c6F)c6nc(c(-c7cccc(S(=O)(=O)[O-])c7F)c7ccc4[nH]7)C=C6)C=C5)cc3)C[C@H]2c2cccs2)cc1
REMARK SMILES IDX 16 1 15 2 14 3 12 4 13 5 11 7 9 8 10 9 85 10 84 11 8 12 5 13
REMARK SMILES IDX 6 14 92 15 7 16 91 17 2 18 1 19 3 20 4 21 86 22 87 23 90 24
REMARK SMILES IDX 88 25 89 26 17 27 18 28 19 29 20 31 21 32 22 33 83 34 23 35
REMARK SMILES IDX 82 36 24 37 25 38 26 39 76 40 27 41 81 42 75 43 77 44 28 45
REMARK SMILES IDX 80 46 74 47 73 48 29 50 61 51 41 52 60 53 42 54 45 55 59 56
REMARK SMILES IDX 78 57 43 58 44 59 58 61 79 62 46 63 30 64 31 65 39 66 32 67
REMARK SMILES IDX 34 68 40 69 33 70 35 71 36 72 37 73 38 74 62 75 63 76 71 77
REMARK SMILES IDX 64 78 66 79 72 80 65 81 67 82 68 83 69 84 70 85 47 86 48 87
REMARK SMILES IDX 56 88 49 89 51 90 57 91 50 92 52 93 53 94 54 95 55 96
REMARK H PARENT 14 6 18 30 77 49 45 60
REMARK Flexibility Score: inf
ROOT
ATOM      1  C   UNL A   1      34.690  21.983  26.805  1.00  0.00     0.042 C 
ENDROOT
BRANCH   1   2
ATOM      2  C   UNL A   1      33.385  21.710  26.070  1.00  0.00     0.118 C 
BRANCH   2   3
ATOM      3  N   UNL A   1      32.252  22.247  26.795  1.00  0.00    -0.351 N 
ATOM      4  C   UNL A   1      31.544  23.417  26.746  1.00  0.00     0.267 C 
ATOM      5  O   UNL A   1      30.660  23.570  27.588  1.00  0.00    -0.268 OA
ATOM      6  H   UNL A   1      31.912  21.627  27.481  1.00  0.00     0.163 HD
BRANCH   4   7
ATOM      7  C   UNL A   1      31.733  24.502  25.699  1.00  0.00     0.128 C 
ATOM      8  N   UNL A   1      31.187  26.133  24.448  1.00  0.00    -0.256 N 
ATOM      9  N   UNL A   1      30.758  25.322  25.440  1.00  0.00    -0.171 NA
ATOM     10  C   UNL A   1      32.537  25.851  23.973  1.00  0.00     0.154 C 
ATOM     11  C   UNL A   1      33.009  24.778  24.966  1.00  0.00     0.097 C 
BRANCH   8  12
ATOM     12  C   UNL A   1      30.455  27.247  24.079  1.00  0.00     0.060 A 
ATOM     13  C   UNL A   1      28.944  29.479  23.297  1.00  0.00     0.067 A 
ATOM     14  C   UNL A   1      30.206  29.659  23.872  1.00  0.00     0.022 A 
ATOM     15  C   UNL A   1      28.428  28.198  23.117  1.00  0.00     0.022 A 
ATOM     16  C   UNL A   1      30.949  28.543  24.272  1.00  0.00     0.029 A 
ATOM     17  C   UNL A   1      29.186  27.096  23.508  1.00  0.00     0.029 A 
BRANCH  13  18
ATOM     18  S   UNL A   1      28.038  30.922  22.804  1.00  0.00     0.175 S 
ATOM     19  C   UNL A   1      29.128  32.305  22.997  1.00  0.00     0.163 C 
ATOM     20  O   UNL A   1      26.965  31.094  23.760  1.00  0.00    -0.224 OA
ATOM     21  O   UNL A   1      27.765  30.781  21.382  1.00  0.00    -0.224 OA
ENDBRANCH  13  18
ENDBRANCH   8  12
BRANCH  10  22
ATOM     22  C   UNL A   1      32.637  25.449  22.506  1.00  0.00     0.030 A 
ATOM     23  C   UNL A   1      32.385  26.260  21.411  1.00  0.00     0.017 A 
ATOM     24  S   UNL A   1      32.996  23.845  21.998  1.00  0.00    -0.147 S 
ATOM     25  C   UNL A   1      32.529  25.577  20.170  1.00  0.00     0.012 A 
ATOM     26  C   UNL A   1      32.903  24.266  20.346  1.00  0.00     0.065 A 
ENDBRANCH  10  22
ENDBRANCH   4   7
ENDBRANCH   2   3
ENDBRANCH   1   2
BRANCH   1  27
ATOM     27  C   UNL A   1      35.823  22.367  25.859  1.00  0.00     0.118 C 
BRANCH  27  28
ATOM     28  N   UNL A   1      36.805  21.297  25.721  1.00  0.00    -0.352 N 
ATOM     29  C   UNL A   1      38.177  21.341  25.772  1.00  0.00     0.251 C 
ATOM     30  H   UNL A   1      36.425  20.401  25.568  1.00  0.00     0.163 HD
ATOM     31  O   UNL A   1      38.827  20.378  25.376  1.00  0.00    -0.269 OA
BRANCH  29  32
ATOM     32  C   UNL A   1      38.863  22.539  26.296  1.00  0.00     0.039 A 
ATOM     33  C   UNL A   1      39.965  22.383  27.139  1.00  0.00     0.014 A 
ATOM     34  C   UNL A   1      38.403  23.818  25.971  1.00  0.00     0.014 A 
ATOM     35  C   UNL A   1      40.645  23.512  27.602  1.00  0.00     0.010 A 
ATOM     36  C   UNL A   1      39.138  24.934  26.353  1.00  0.00     0.010 A 
ATOM     37  C   UNL A   1      40.258  24.794  27.183  1.00  0.00    -0.014 A 
BRANCH  37  38
ATOM     38  C   UNL A   1      41.005  26.009  27.596  1.00  0.00     0.031 A 
ATOM     39  C   UNL A   1      40.306  27.100  28.363  1.00  0.00     0.074 A 
ATOM     40  C   UNL A   1      42.279  26.175  27.189  1.00  0.00     0.049 A 
ATOM     41  N   UNL A   1      40.759  28.269  28.731  1.00  0.00    -0.248 NA
ATOM     42  C   UNL A   1      38.900  26.861  28.735  1.00  0.00     0.031 C 
ATOM     43  C   UNL A   1      43.037  25.228  26.367  1.00  0.00     0.029 A 
ATOM     44  N   UNL A   1      43.153  27.215  27.383  1.00  0.00    -0.354 N 
ATOM     45  C   UNL A   1      39.689  28.919  29.334  1.00  0.00     0.074 A 
ATOM     46  C   UNL A   1      38.553  28.030  29.253  1.00  0.00     0.031 C 
ATOM     47  C   UNL A   1      44.260  25.728  26.132  1.00  0.00     0.029 A 
ATOM     48  C   UNL A   1      44.364  27.043  26.754  1.00  0.00     0.049 A 
ATOM     49  H   UNL A   1      42.933  28.010  27.921  1.00  0.00     0.167 HD
ATOM     50  C   UNL A   1      39.663  30.134  29.931  1.00  0.00     0.034 A 
ATOM     51  C   UNL A   1      45.436  27.858  26.680  1.00  0.00     0.034 A 
ATOM     52  C   UNL A   1      40.811  30.990  30.058  1.00  0.00     0.049 A 
ATOM     53  C   UNL A   1      45.396  29.178  27.401  1.00  0.00     0.074 A 
ATOM     54  C   UNL A   1      40.914  32.194  30.730  1.00  0.00     0.029 A 
ATOM     55  N   UNL A   1      42.053  30.734  29.499  1.00  0.00    -0.354 N 
ATOM     56  N   UNL A   1      44.425  29.704  28.106  1.00  0.00    -0.248 NA
ATOM     57  C   UNL A   1      46.614  30.000  27.350  1.00  0.00     0.031 C 
ATOM     58  C   UNL A   1      42.215  32.678  30.558  1.00  0.00     0.029 A 
ATOM     59  C   UNL A   1      42.929  31.760  29.804  1.00  0.00     0.049 A 
ATOM     60  H   UNL A   1      42.278  29.939  28.963  1.00  0.00     0.167 HD
ATOM     61  C   UNL A   1      44.926  30.897  28.615  1.00  0.00     0.074 A 
ATOM     62  C   UNL A   1      46.293  31.007  28.152  1.00  0.00     0.031 C 
ATOM     63  C   UNL A   1      44.305  31.824  29.386  1.00  0.00     0.034 A 
BRANCH  50  64
ATOM     64  C   UNL A   1      38.364  30.588  30.546  1.00  0.00     0.023 A 
ATOM     65  C   UNL A   1      38.105  30.314  31.905  1.00  0.00     0.012 A 
ATOM     66  C   UNL A   1      37.432  31.338  29.803  1.00  0.00     0.148 A 
ATOM     67  C   UNL A   1      36.924  30.749  32.505  1.00  0.00     0.002 A 
ATOM     68  C   UNL A   1      36.280  31.810  30.420  1.00  0.00     0.091 A 
ATOM     69  F   UNL A   1      37.686  31.571  28.507  1.00  0.00    -0.205 F 
ATOM     70  C   UNL A   1      36.019  31.506  31.767  1.00  0.00     0.022 A 
BRANCH  68  71
ATOM     71  S   UNL A   1      35.090  32.862  29.581  1.00  0.00     0.127 S 
ATOM     72  O   UNL A   1      35.946  33.941  29.090  1.00  0.00    -0.237 OA
ATOM     73  O   UNL A   1      34.573  31.972  28.542  1.00  0.00    -0.237 OA
ATOM     74  O   UNL A   1      34.114  33.249  30.591  1.00  0.00    -0.744 OA
ENDBRANCH  68  71
ENDBRANCH  50  64
BRANCH  51  75
ATOM     75  C   UNL A   1      46.658  27.417  25.951  1.00  0.00     0.023 A 
ATOM     76  C   UNL A   1      46.778  27.690  24.574  1.00  0.00     0.012 A 
ATOM     77  C   UNL A   1      47.711  26.758  26.614  1.00  0.00     0.148 A 
ATOM     78  C   UNL A   1      47.907  27.283  23.863  1.00  0.00     0.002 A 
ATOM     79  C   UNL A   1      48.858  26.405  25.911  1.00  0.00     0.091 A 
ATOM     80  F   UNL A   1      47.575  26.499  27.921  1.00  0.00    -0.205 F 
ATOM     81  C   UNL A   1      48.950  26.650  24.532  1.00  0.00     0.022 A 
BRANCH  79  82
ATOM     82  S   UNL A   1      50.306  25.714  26.720  1.00  0.00     0.127 S 
ATOM     83  O   UNL A   1      50.603  26.732  27.724  1.00  0.00    -0.237 OA
ATOM     84  O   UNL A   1      49.782  24.455  27.253  1.00  0.00    -0.237 OA
ATOM     85  O   UNL A   1      51.300  25.547  25.668  1.00  0.00    -0.744 OA
ENDBRANCH  79  82
ENDBRANCH  51  75
BRANCH  63  86
ATOM     86  C   UNL A   1      45.107  33.021  29.823  1.00  0.00     0.023 A 
ATOM     87  C   UNL A   1      45.869  32.962  31.007  1.00  0.00     0.012 A 
ATOM     88  C   UNL A   1      45.171  34.172  29.013  1.00  0.00     0.148 A 
ATOM     89  C   UNL A   1      46.659  34.044  31.393  1.00  0.00     0.002 A 
ATOM     90  C   UNL A   1      45.999  35.225  29.378  1.00  0.00     0.091 A 
ATOM     91  F   UNL A   1      44.423  34.213  27.900  1.00  0.00    -0.205 F 
ATOM     92  C   UNL A   1      46.734  35.169  30.573  1.00  0.00     0.022 A 
BRANCH  90  93
ATOM     93  S   UNL A   1      46.235  36.669  28.335  1.00  0.00     0.127 S 
ATOM     94  O   UNL A   1      44.870  37.183  28.226  1.00  0.00    -0.237 OA
ATOM     95  O   UNL A   1      47.135  37.492  29.143  1.00  0.00    -0.237 OA
ATOM     96  O   UNL A   1      46.819  36.177  27.094  1.00  0.00    -0.744 OA
ENDBRANCH  90  93
ENDBRANCH  63  86
ENDBRANCH  37  38
ENDBRANCH  29  32
ENDBRANCH  27  28
ENDBRANCH   1  27
TORSDOF 16
ENDMDL
MODEL 3
REMARK VINA RESULT:     -11.7      2.793      4.246
REMARK SMILES CS(=O)(=O)c1ccc(N2N=C(C(=O)NCCCNC(=O)c3ccc(-c4c5nc(c(-c6cccc(S(=O)(=O)[O-])c6F)c6ccc([nH]6)c(-c6cccc(S(=O)(=O)[O-])c6F)c6nc(c(-c7cccc(S(=O)(=O)[O-])c7F)c7ccc4[nH]7)C=C6)C=C5)cc3)C[C@H]2c2cccs2)cc1
REMARK SMILES IDX 16 1 15 2 14 3 12 4 13 5 11 7 9 8 10 9 85 10 84 11 8 12 5 13
REMARK SMILES IDX 6 14 92 15 7 16 91 17 2 18 1 19 3 20 4 21 86 22 87 23 90 24
REMARK SMILES IDX 88 25 89 26 17 27 18 28 19 29 20 31 21 32 22 33 83 34 23 35
REMARK SMILES IDX 82 36 24 37 25 38 26 39 76 40 27 41 81 42 75 43 77 44 28 45
REMARK SMILES IDX 80 46 74 47 73 48 29 50 61 51 41 52 60 53 42 54 45 55 59 56
REMARK SMILES IDX 78 57 43 58 44 59 58 61 79 62 46 63 30 64 31 65 39 66 32 67
REMARK SMILES IDX 34 68 40 69 33 70 35 71 36 72 37 73 38 74 62 75 63 76 71 77
REMARK SMILES IDX 64 78 66 79 72 80 65 81 67 82 68 83 69 84 70 85 47 86 48 87
REMARK SMILES IDX 56 88 49 89 51 90 57 91 50 92 52 93 53 94 54 95 55 96
REMARK H PARENT 14 6 18 30 77 49 45 60
REMARK Flexibility Score: inf
ROOT
ATOM      1  C   UNL A   1      35.374  21.967  26.121  1.00  0.00     0.042 C 
ENDROOT
BRANCH   1   2
ATOM      2  C   UNL A   1      34.327  22.760  25.351  1.00  0.00     0.118 C 
BRANCH   2   3
ATOM      3  N   UNL A   1      33.127  22.950  26.139  1.00  0.00    -0.351 N 
ATOM      4  C   UNL A   1      32.354  24.030  26.469  1.00  0.00     0.267 C 
ATOM      5  O   UNL A   1      31.419  23.830  27.244  1.00  0.00    -0.268 OA
ATOM      6  H   UNL A   1      32.790  22.110  26.525  1.00  0.00     0.163 HD
BRANCH   4   7
ATOM      7  C   UNL A   1      32.532  25.430  25.905  1.00  0.00     0.128 C 
ATOM      8  N   UNL A   1      32.746  27.546  25.948  1.00  0.00    -0.256 N 
ATOM      9  N   UNL A   1      32.655  26.438  26.718  1.00  0.00    -0.171 NA
ATOM     10  C   UNL A   1      32.665  27.297  24.513  1.00  0.00     0.154 C 
ATOM     11  C   UNL A   1      32.666  25.762  24.452  1.00  0.00     0.097 C 
BRANCH   8  12
ATOM     12  C   UNL A   1      33.085  28.766  26.503  1.00  0.00     0.060 A 
ATOM     13  C   UNL A   1      33.734  31.264  27.605  1.00  0.00     0.067 A 
ATOM     14  C   UNL A   1      34.722  30.283  27.473  1.00  0.00     0.022 A 
ATOM     15  C   UNL A   1      32.427  31.007  27.200  1.00  0.00     0.022 A 
ATOM     16  C   UNL A   1      34.390  29.035  26.936  1.00  0.00     0.029 A 
ATOM     17  C   UNL A   1      32.115  29.763  26.653  1.00  0.00     0.029 A 
BRANCH  13  18
ATOM     18  S   UNL A   1      34.200  32.832  28.291  1.00  0.00     0.175 S 
ATOM     19  C   UNL A   1      32.948  33.993  27.819  1.00  0.00     0.163 C 
ATOM     20  O   UNL A   1      35.422  33.236  27.629  1.00  0.00    -0.224 OA
ATOM     21  O   UNL A   1      34.137  32.693  29.738  1.00  0.00    -0.224 OA
ENDBRANCH  13  18
ENDBRANCH   8  12
BRANCH  10  22
ATOM     22  C   UNL A   1      31.490  27.962  23.806  1.00  0.00     0.030 A 
ATOM     23  C   UNL A   1      30.152  27.622  23.933  1.00  0.00     0.017 A 
ATOM     24  S   UNL A   1      31.686  29.209  22.637  1.00  0.00    -0.147 S 
ATOM     25  C   UNL A   1      29.299  28.408  23.108  1.00  0.00     0.012 A 
ATOM     26  C   UNL A   1      30.003  29.342  22.385  1.00  0.00     0.065 A 
ENDBRANCH  10  22
ENDBRANCH   4   7
ENDBRANCH   2   3
ENDBRANCH   1   2
BRANCH   1  27
ATOM     27  C   UNL A   1      36.791  22.471  25.870  1.00  0.00     0.118 C 
BRANCH  27  28
ATOM     28  N   UNL A   1      37.786  21.421  26.064  1.00  0.00    -0.352 N 
ATOM     29  C   UNL A   1      39.141  21.512  26.268  1.00  0.00     0.251 C 
ATOM     30  H   UNL A   1      37.430  20.503  26.046  1.00  0.00     0.163 HD
ATOM     31  O   UNL A   1      39.838  20.508  26.150  1.00  0.00    -0.269 OA
BRANCH  29  32
ATOM     32  C   UNL A   1      39.754  22.808  26.623  1.00  0.00     0.039 A 
ATOM     33  C   UNL A   1      40.715  22.855  27.634  1.00  0.00     0.014 A 
ATOM     34  C   UNL A   1      39.362  23.980  25.971  1.00  0.00     0.014 A 
ATOM     35  C   UNL A   1      41.332  24.070  27.945  1.00  0.00     0.010 A 
ATOM     36  C   UNL A   1      40.044  25.166  26.213  1.00  0.00     0.010 A 
ATOM     37  C   UNL A   1      41.026  25.227  27.211  1.00  0.00    -0.014 A 
BRANCH  37  38
ATOM     38  C   UNL A   1      41.717  26.517  27.465  1.00  0.00     0.031 A 
ATOM     39  C   UNL A   1      43.154  26.695  27.055  1.00  0.00     0.074 A 
ATOM     40  C   UNL A   1      41.083  27.484  28.157  1.00  0.00     0.049 A 
ATOM     41  N   UNL A   1      43.953  27.707  27.272  1.00  0.00    -0.248 NA
ATOM     42  C   UNL A   1      43.790  25.576  26.338  1.00  0.00     0.031 C 
ATOM     43  C   UNL A   1      39.719  27.394  28.684  1.00  0.00     0.029 A 
ATOM     44  N   UNL A   1      41.514  28.721  28.567  1.00  0.00    -0.354 N 
ATOM     45  C   UNL A   1      45.190  27.331  26.761  1.00  0.00     0.074 A 
ATOM     46  C   UNL A   1      45.048  25.985  26.255  1.00  0.00     0.031 C 
ATOM     47  C   UNL A   1      39.425  28.526  29.342  1.00  0.00     0.029 A 
ATOM     48  C   UNL A   1      40.587  29.408  29.315  1.00  0.00     0.049 A 
ATOM     49  H   UNL A   1      42.404  29.082  28.347  1.00  0.00     0.167 HD
ATOM     50  C   UNL A   1      46.333  28.052  26.691  1.00  0.00     0.034 A 
ATOM     51  C   UNL A   1      40.667  30.611  29.919  1.00  0.00     0.034 A 
ATOM     52  C   UNL A   1      46.453  29.411  27.146  1.00  0.00     0.049 A 
ATOM     53  C   UNL A   1      41.932  31.414  29.775  1.00  0.00     0.074 A 
ATOM     54  C   UNL A   1      47.536  30.263  27.031  1.00  0.00     0.029 A 
ATOM     55  N   UNL A   1      45.457  30.114  27.805  1.00  0.00    -0.354 N 
ATOM     56  N   UNL A   1      43.038  31.104  29.145  1.00  0.00    -0.248 NA
ATOM     57  C   UNL A   1      41.945  32.748  30.391  1.00  0.00     0.031 C 
ATOM     58  C   UNL A   1      47.202  31.476  27.641  1.00  0.00     0.029 A 
ATOM     59  C   UNL A   1      45.900  31.388  28.109  1.00  0.00     0.049 A 
ATOM     60  H   UNL A   1      44.565  29.758  28.024  1.00  0.00     0.167 HD
ATOM     61  C   UNL A   1      43.864  32.217  29.254  1.00  0.00     0.074 A 
ATOM     62  C   UNL A   1      43.122  33.215  29.995  1.00  0.00     0.031 C 
ATOM     63  C   UNL A   1      45.127  32.391  28.794  1.00  0.00     0.034 A 
BRANCH  50  64
ATOM     64  C   UNL A   1      47.534  27.408  26.047  1.00  0.00     0.023 A 
ATOM     65  C   UNL A   1      47.767  27.593  24.669  1.00  0.00     0.012 A 
ATOM     66  C   UNL A   1      48.463  26.677  26.812  1.00  0.00     0.148 A 
ATOM     67  C   UNL A   1      48.887  27.033  24.056  1.00  0.00     0.002 A 
ATOM     68  C   UNL A   1      49.602  26.162  26.204  1.00  0.00     0.091 A 
ATOM     69  F   UNL A   1      48.215  26.494  28.117  1.00  0.00    -0.205 F 
ATOM     70  C   UNL A   1      49.808  26.328  24.824  1.00  0.00     0.022 A 
BRANCH  68  71
ATOM     71  S   UNL A   1      50.891  25.310  27.119  1.00  0.00     0.127 S 
ATOM     72  O   UNL A   1      50.135  24.234  27.760  1.00  0.00    -0.237 OA
ATOM     73  O   UNL A   1      51.788  24.872  26.050  1.00  0.00    -0.237 OA
ATOM     74  O   UNL A   1      51.461  26.298  28.024  1.00  0.00    -0.744 OA
ENDBRANCH  68  71
ENDBRANCH  50  64
BRANCH  51  75
ATOM     75  C   UNL A   1      39.491  31.155  30.654  1.00  0.00     0.023 A 
ATOM     76  C   UNL A   1      38.392  31.653  29.928  1.00  0.00     0.012 A 
ATOM     77  C   UNL A   1      39.441  31.158  32.062  1.00  0.00     0.148 A 
ATOM     78  C   UNL A   1      37.279  32.177  30.588  1.00  0.00     0.002 A 
ATOM     79  C   UNL A   1      38.306  31.629  32.713  1.00  0.00     0.091 A 
ATOM     80  F   UNL A   1      40.500  30.689  32.736  1.00  0.00    -0.205 F 
ATOM     81  C   UNL A   1      37.233  32.157  31.979  1.00  0.00     0.022 A 
BRANCH  79  82
ATOM     82  S   UNL A   1      38.103  31.511  34.494  1.00  0.00     0.127 S 
ATOM     83  O   UNL A   1      36.814  32.166  34.693  1.00  0.00    -0.237 OA
ATOM     84  O   UNL A   1      38.099  30.063  34.703  1.00  0.00    -0.237 OA
ATOM     85  O   UNL A   1      39.258  32.192  35.066  1.00  0.00    -0.744 OA
ENDBRANCH  79  82
ENDBRANCH  51  75
BRANCH  63  86
ATOM     86  C   UNL A   1      45.780  33.727  29.031  1.00  0.00     0.023 A 
ATOM     87  C   UNL A   1      46.596  33.920  30.163  1.00  0.00     0.012 A 
ATOM     88  C   UNL A   1      45.651  34.763  28.083  1.00  0.00     0.148 A 
ATOM     89  C   UNL A   1      47.249  35.134  30.364  1.00  0.00     0.002 A 
ATOM     90  C   UNL A   1      46.346  35.951  28.265  1.00  0.00     0.091 A 
ATOM     91  F   UNL A   1      44.855  34.563  27.023  1.00  0.00    -0.205 F 
ATOM     92  C   UNL A   1      47.135  36.144  29.410  1.00  0.00     0.022 A 
BRANCH  90  93
ATOM     93  S   UNL A   1      46.338  37.266  27.041  1.00  0.00     0.127 S 
ATOM     94  O   UNL A   1      46.891  36.585  25.870  1.00  0.00    -0.237 OA
ATOM     95  O   UNL A   1      44.915  37.589  26.943  1.00  0.00    -0.237 OA
ATOM     96  O   UNL A   1      47.163  38.333  27.591  1.00  0.00    -0.744 OA
ENDBRANCH  90  93
ENDBRANCH  63  86
ENDBRANCH  37  38
ENDBRANCH  29  32
ENDBRANCH  27  28
ENDBRANCH   1  27
TORSDOF 16
ENDMDL
