MODEL 1
REMARK VINA RESULT:     -12.9      0.000      0.000
REMARK SMILES O=C(NCCCNC(=O)c1cc(/N=C/c2ccc([N+](=O)[O-])cc2)ccc1O)c1ccc(-c2c3nc(c(-c4cccc(S(=O)(=O)[O-])c4F)c4ccc([nH]4)c(-c4cccc(S(=O)(=O)[O-])c4F)c4nc(c(-c5cccc(S(=O)(=O)[O-])c5F)c5ccc2[nH]5)C=C4)C=C3)cc1
REMARK SMILES IDX 5 1 4 2 3 3 1 4 2 5 28 7 29 8 90 9 30 10 89 11 31 12 32 13
REMARK SMILES IDX 33 14 83 15 34 16 88 17 82 18 84 19 35 20 87 21 81 22 80 23
REMARK SMILES IDX 36 25 68 26 48 27 67 28 49 29 52 30 66 31 85 32 50 33 51 34
REMARK SMILES IDX 65 36 86 37 53 38 37 39 38 40 46 41 39 42 41 43 47 44 40 45
REMARK SMILES IDX 42 46 43 47 44 48 45 49 69 50 70 51 78 52 71 53 73 54 79 55
REMARK SMILES IDX 72 56 74 57 75 58 76 59 77 60 54 61 55 62 63 63 56 64 58 65
REMARK SMILES IDX 64 66 57 67 59 68 60 69 61 70 62 71 6 72 7 73 8 74 9 76
REMARK SMILES IDX 10 77 11 78 26 79 12 80 25 81 24 82 27 83 13 85 14 86 15 87
REMARK SMILES IDX 16 88 23 89 17 90 22 91 18 92 19 93 20 94 21 95
REMARK H PARENT 3 6 84 24 52 35 7 75 27 84
REMARK Flexibility Score: inf
ROOT
ATOM      1  C   UNL A   1      33.413  29.088  23.845  1.00  0.00     0.042 C 
ENDROOT
BRANCH   1   2
ATOM      2  C   UNL A   1      33.178  29.076  25.347  1.00  0.00     0.118 C 
BRANCH   2   3
ATOM      3  N   UNL A   1      32.676  30.351  25.850  1.00  0.00    -0.352 N 
ATOM      4  O   UNL A   1      32.426  32.091  27.251  1.00  0.00    -0.269 OA
ATOM      5  C   UNL A   1      33.123  31.150  26.876  1.00  0.00     0.251 C 
ATOM      6  H   UNL A   1      31.885  30.697  25.375  1.00  0.00     0.163 HD
BRANCH   5   7
ATOM      7  C   UNL A   1      34.414  30.868  27.545  1.00  0.00     0.039 A 
ATOM      8  C   UNL A   1      34.716  29.587  28.001  1.00  0.00     0.014 A 
ATOM      9  C   UNL A   1      35.351  31.897  27.703  1.00  0.00     0.014 A 
ATOM     10  C   UNL A   1      35.844  29.379  28.784  1.00  0.00     0.010 A 
ATOM     11  C   UNL A   1      36.550  31.652  28.385  1.00  0.00     0.010 A 
ATOM     12  C   UNL A   1      36.787  30.401  28.971  1.00  0.00    -0.014 A 
BRANCH  12  13
ATOM     13  C   UNL A   1      38.035  30.086  29.719  1.00  0.00     0.031 A 
ATOM     14  C   UNL A   1      38.270  30.587  31.118  1.00  0.00     0.074 A 
ATOM     15  C   UNL A   1      38.943  29.283  29.129  1.00  0.00     0.049 A 
ATOM     16  N   UNL A   1      39.261  30.312  31.927  1.00  0.00    -0.248 NA
ATOM     17  C   UNL A   1      37.283  31.521  31.680  1.00  0.00     0.031 C 
ATOM     18  C   UNL A   1      38.857  28.787  27.752  1.00  0.00     0.029 A 
ATOM     19  N   UNL A   1      40.100  28.723  29.607  1.00  0.00    -0.354 N 
ATOM     20  C   UNL A   1      39.036  31.057  33.080  1.00  0.00     0.074 A 
ATOM     21  C   UNL A   1      37.821  31.812  32.859  1.00  0.00     0.031 C 
ATOM     22  C   UNL A   1      39.881  27.956  27.515  1.00  0.00     0.029 A 
ATOM     23  C   UNL A   1      40.729  27.902  28.699  1.00  0.00     0.049 A 
ATOM     24  H   UNL A   1      40.447  28.892  30.513  1.00  0.00     0.167 HD
ATOM     25  C   UNL A   1      39.761  31.091  34.224  1.00  0.00     0.034 A 
ATOM     26  C   UNL A   1      41.864  27.185  28.802  1.00  0.00     0.034 A 
ATOM     27  C   UNL A   1      40.950  30.310  34.453  1.00  0.00     0.049 A 
ATOM     28  C   UNL A   1      42.610  27.195  30.103  1.00  0.00     0.074 A 
ATOM     29  C   UNL A   1      41.736  30.253  35.592  1.00  0.00     0.029 A 
ATOM     30  N   UNL A   1      41.523  29.448  33.531  1.00  0.00    -0.354 N 
ATOM     31  N   UNL A   1      42.312  27.818  31.217  1.00  0.00    -0.248 NA
ATOM     32  C   UNL A   1      43.832  26.383  30.172  1.00  0.00     0.031 C 
ATOM     33  C   UNL A   1      42.786  29.359  35.355  1.00  0.00     0.029 A 
ATOM     34  C   UNL A   1      42.648  28.850  34.075  1.00  0.00     0.049 A 
ATOM     35  H   UNL A   1      41.180  29.284  32.623  1.00  0.00     0.167 HD
ATOM     36  C   UNL A   1      43.304  27.468  32.124  1.00  0.00     0.074 A 
ATOM     37  C   UNL A   1      44.185  26.541  31.441  1.00  0.00     0.031 C 
ATOM     38  C   UNL A   1      43.488  27.897  33.396  1.00  0.00     0.034 A 
BRANCH  25  39
ATOM     39  C   UNL A   1      39.259  31.958  35.351  1.00  0.00     0.023 A 
ATOM     40  C   UNL A   1      39.430  33.355  35.272  1.00  0.00     0.012 A 
ATOM     41  C   UNL A   1      38.554  31.410  36.440  1.00  0.00     0.148 A 
ATOM     42  C   UNL A   1      38.927  34.191  36.268  1.00  0.00     0.002 A 
ATOM     43  C   UNL A   1      38.023  32.252  37.411  1.00  0.00     0.091 A 
ATOM     44  F   UNL A   1      38.417  30.078  36.509  1.00  0.00    -0.205 F 
ATOM     45  C   UNL A   1      38.214  33.642  37.330  1.00  0.00     0.022 A 
BRANCH  43  46
ATOM     46  S   UNL A   1      37.029  31.651  38.783  1.00  0.00     0.127 S 
ATOM     47  O   UNL A   1      37.921  31.887  39.918  1.00  0.00    -0.237 OA
ATOM     48  O   UNL A   1      35.864  32.535  38.732  1.00  0.00    -0.237 OA
ATOM     49  O   UNL A   1      36.744  30.254  38.489  1.00  0.00    -0.744 OA
ENDBRANCH  43  46
ENDBRANCH  25  39
BRANCH  26  50
ATOM     50  C   UNL A   1      42.322  26.365  27.646  1.00  0.00     0.023 A 
ATOM     51  C   UNL A   1      43.240  26.904  26.725  1.00  0.00     0.012 A 
ATOM     52  C   UNL A   1      41.897  25.031  27.489  1.00  0.00     0.148 A 
ATOM     53  C   UNL A   1      43.709  26.137  25.658  1.00  0.00     0.002 A 
ATOM     54  C   UNL A   1      42.417  24.253  26.462  1.00  0.00     0.091 A 
ATOM     55  F   UNL A   1      41.004  24.539  28.360  1.00  0.00    -0.205 F 
ATOM     56  C   UNL A   1      43.311  24.808  25.536  1.00  0.00     0.022 A 
BRANCH  54  57
ATOM     57  S   UNL A   1      42.071  22.493  26.353  1.00  0.00     0.127 S 
ATOM     58  O   UNL A   1      40.614  22.479  26.268  1.00  0.00    -0.237 OA
ATOM     59  O   UNL A   1      42.764  22.115  25.120  1.00  0.00    -0.237 OA
ATOM     60  O   UNL A   1      42.652  21.919  27.559  1.00  0.00    -0.744 OA
ENDBRANCH  54  57
ENDBRANCH  26  50
BRANCH  38  61
ATOM     61  C   UNL A   1      44.690  27.368  34.129  1.00  0.00     0.023 A 
ATOM     62  C   UNL A   1      45.915  28.059  34.038  1.00  0.00     0.012 A 
ATOM     63  C   UNL A   1      44.603  26.218  34.935  1.00  0.00     0.148 A 
ATOM     64  C   UNL A   1      47.045  27.592  34.709  1.00  0.00     0.002 A 
ATOM     65  C   UNL A   1      45.722  25.782  35.635  1.00  0.00     0.091 A 
ATOM     66  F   UNL A   1      43.435  25.559  34.990  1.00  0.00    -0.205 F 
ATOM     67  C   UNL A   1      46.945  26.460  35.515  1.00  0.00     0.022 A 
BRANCH  65  68
ATOM     68  S   UNL A   1      45.657  24.382  36.759  1.00  0.00     0.127 S 
ATOM     69  O   UNL A   1      45.343  23.283  35.849  1.00  0.00    -0.237 OA
ATOM     70  O   UNL A   1      47.016  24.352  37.304  1.00  0.00    -0.237 OA
ATOM     71  O   UNL A   1      44.627  24.708  37.736  1.00  0.00    -0.744 OA
ENDBRANCH  65  68
ENDBRANCH  38  61
ENDBRANCH  12  13
ENDBRANCH   5   7
ENDBRANCH   2   3
ENDBRANCH   1   2
BRANCH   1  72
ATOM     72  C   UNL A   1      33.760  27.723  23.275  1.00  0.00     0.118 C 
BRANCH  72  73
ATOM     73  N   UNL A   1      32.977  27.399  22.091  1.00  0.00    -0.352 N 
ATOM     74  C   UNL A   1      31.892  26.566  21.975  1.00  0.00     0.255 C 
ATOM     75  H   UNL A   1      33.268  27.835  21.258  1.00  0.00     0.163 HD
ATOM     76  O   UNL A   1      31.403  26.327  20.874  1.00  0.00    -0.269 OA
BRANCH  74  77
ATOM     77  C   UNL A   1      31.348  25.902  23.174  1.00  0.00     0.083 A 
ATOM     78  C   UNL A   1      31.667  24.553  23.366  1.00  0.00     0.046 A 
ATOM     79  C   UNL A   1      30.558  26.578  24.109  1.00  0.00     0.128 A 
ATOM     80  C   UNL A   1      31.253  23.889  24.522  1.00  0.00     0.064 A 
ATOM     81  C   UNL A   1      30.167  25.937  25.279  1.00  0.00     0.049 A 
ATOM     82  C   UNL A   1      30.535  24.605  25.491  1.00  0.00     0.032 A 
BRANCH  79  83
ATOM     83  O   UNL A   1      30.191  27.878  23.895  1.00  0.00    -0.507 OA
ATOM     84  H   UNL A   1      30.842  28.523  23.698  1.00  0.00     0.293 HD
ENDBRANCH  79  83
BRANCH  80  85
ATOM     85  N   UNL A   1      31.633  22.548  24.693  1.00  0.00    -0.256 NA
ATOM     86  C   UNL A   1      32.428  22.019  23.822  1.00  0.00     0.119 C 
BRANCH  86  87
ATOM     87  C   UNL A   1      32.897  20.624  23.936  1.00  0.00    -0.007 A 
ATOM     88  C   UNL A   1      32.153  19.617  23.313  1.00  0.00     0.017 A 
ATOM     89  C   UNL A   1      34.075  20.313  24.625  1.00  0.00     0.017 A 
ATOM     90  C   UNL A   1      32.593  18.292  23.367  1.00  0.00     0.086 A 
ATOM     91  C   UNL A   1      34.524  18.989  24.679  1.00  0.00     0.086 A 
ATOM     92  C   UNL A   1      33.783  17.983  24.043  1.00  0.00     0.269 A 
BRANCH  92  93
ATOM     93  N   UNL A   1      34.262  16.595  24.067  1.00  0.00     0.062 N 
ATOM     94  O   UNL A   1      34.624  16.132  25.158  1.00  0.00    -0.258 OA
ATOM     95  O   UNL A   1      34.266  15.965  23.000  1.00  0.00    -0.258 OA
ENDBRANCH  92  93
ENDBRANCH  86  87
ENDBRANCH  80  85
ENDBRANCH  74  77
ENDBRANCH  72  73
ENDBRANCH   1  72
TORSDOF 17
ENDMDL
MODEL 2
REMARK VINA RESULT:     -12.6      5.428     10.728
REMARK SMILES O=C(NCCCNC(=O)c1cc(/N=C/c2ccc([N+](=O)[O-])cc2)ccc1O)c1ccc(-c2c3nc(c(-c4cccc(S(=O)(=O)[O-])c4F)c4ccc([nH]4)c(-c4cccc(S(=O)(=O)[O-])c4F)c4nc(c(-c5cccc(S(=O)(=O)[O-])c5F)c5ccc2[nH]5)C=C4)C=C3)cc1
REMARK SMILES IDX 5 1 4 2 3 3 1 4 2 5 28 7 29 8 90 9 30 10 89 11 31 12 32 13
REMARK SMILES IDX 33 14 83 15 34 16 88 17 82 18 84 19 35 20 87 21 81 22 80 23
REMARK SMILES IDX 36 25 68 26 48 27 67 28 49 29 52 30 66 31 85 32 50 33 51 34
REMARK SMILES IDX 65 36 86 37 53 38 37 39 38 40 46 41 39 42 41 43 47 44 40 45
REMARK SMILES IDX 42 46 43 47 44 48 45 49 69 50 70 51 78 52 71 53 73 54 79 55
REMARK SMILES IDX 72 56 74 57 75 58 76 59 77 60 54 61 55 62 63 63 56 64 58 65
REMARK SMILES IDX 64 66 57 67 59 68 60 69 61 70 62 71 6 72 7 73 8 74 9 76
REMARK SMILES IDX 10 77 11 78 26 79 12 80 25 81 24 82 27 83 13 85 14 86 15 87
REMARK SMILES IDX 16 88 23 89 17 90 22 91 18 92 19 93 20 94 21 95
REMARK H PARENT 3 6 84 24 52 35 7 75 27 84
REMARK Flexibility Score: inf
ROOT
ATOM      1  C   UNL A   1      35.099  22.067  25.240  1.00  0.00     0.042 C 
ENDROOT
BRANCH   1   2
ATOM      2  C   UNL A   1      36.435  22.531  25.800  1.00  0.00     0.118 C 
BRANCH   2   3
ATOM      3  N   UNL A   1      37.440  21.473  25.812  1.00  0.00    -0.352 N 
ATOM      4  O   UNL A   1      39.481  20.532  25.838  1.00  0.00    -0.269 OA
ATOM      5  C   UNL A   1      38.789  21.520  26.077  1.00  0.00     0.251 C 
ATOM      6  H   UNL A   1      37.096  20.577  25.594  1.00  0.00     0.163 HD
BRANCH   5   7
ATOM      7  C   UNL A   1      39.410  22.751  26.618  1.00  0.00     0.039 A 
ATOM      8  C   UNL A   1      39.015  24.007  26.164  1.00  0.00     0.014 A 
ATOM      9  C   UNL A   1      40.392  22.652  27.611  1.00  0.00     0.014 A 
ATOM     10  C   UNL A   1      39.729  25.136  26.543  1.00  0.00     0.010 A 
ATOM     11  C   UNL A   1      41.025  23.808  28.086  1.00  0.00     0.010 A 
ATOM     12  C   UNL A   1      40.730  25.058  27.524  1.00  0.00    -0.014 A 
BRANCH  12  13
ATOM     13  C   UNL A   1      41.379  26.318  27.977  1.00  0.00     0.031 A 
ATOM     14  C   UNL A   1      42.805  26.646  27.629  1.00  0.00     0.074 A 
ATOM     15  C   UNL A   1      40.633  27.202  28.671  1.00  0.00     0.049 A 
ATOM     16  N   UNL A   1      43.471  27.747  27.869  1.00  0.00    -0.248 NA
ATOM     17  C   UNL A   1      43.592  25.613  26.938  1.00  0.00     0.031 C 
ATOM     18  C   UNL A   1      39.258  26.969  29.123  1.00  0.00     0.029 A 
ATOM     19  N   UNL A   1      40.908  28.475  29.099  1.00  0.00    -0.354 N 
ATOM     20  C   UNL A   1      44.758  27.533  27.388  1.00  0.00     0.074 A 
ATOM     21  C   UNL A   1      44.786  26.186  26.856  1.00  0.00     0.031 C 
ATOM     22  C   UNL A   1      38.793  28.077  29.714  1.00  0.00     0.029 A 
ATOM     23  C   UNL A   1      39.848  29.081  29.735  1.00  0.00     0.049 A 
ATOM     24  H   UNL A   1      41.780  28.914  28.964  1.00  0.00     0.167 HD
ATOM     25  C   UNL A   1      45.810  28.386  27.369  1.00  0.00     0.034 A 
ATOM     26  C   UNL A   1      39.735  30.307  30.280  1.00  0.00     0.034 A 
ATOM     27  C   UNL A   1      45.767  29.737  27.866  1.00  0.00     0.049 A 
ATOM     28  C   UNL A   1      40.898  31.249  30.188  1.00  0.00     0.074 A 
ATOM     29  C   UNL A   1      46.774  30.689  27.862  1.00  0.00     0.029 A 
ATOM     30  N   UNL A   1      44.660  30.332  28.450  1.00  0.00    -0.354 N 
ATOM     31  N   UNL A   1      42.067  31.061  29.624  1.00  0.00    -0.248 NA
ATOM     32  C   UNL A   1      40.720  32.581  30.780  1.00  0.00     0.031 C 
ATOM     33  C   UNL A   1      46.275  31.857  28.448  1.00  0.00     0.029 A 
ATOM     34  C   UNL A   1      44.955  31.638  28.806  1.00  0.00     0.049 A 
ATOM     35  H   UNL A   1      43.791  29.892  28.592  1.00  0.00     0.167 HD
ATOM     36  C   UNL A   1      42.761  32.252  29.785  1.00  0.00     0.074 A 
ATOM     37  C   UNL A   1      41.864  33.171  30.459  1.00  0.00     0.031 C 
ATOM     38  C   UNL A   1      44.037  32.552  29.437  1.00  0.00     0.034 A 
BRANCH  25  39
ATOM     39  C   UNL A   1      47.093  27.909  26.735  1.00  0.00     0.023 A 
ATOM     40  C   UNL A   1      48.101  27.358  27.553  1.00  0.00     0.012 A 
ATOM     41  C   UNL A   1      47.273  27.928  25.338  1.00  0.00     0.148 A 
ATOM     42  C   UNL A   1      49.274  26.853  26.994  1.00  0.00     0.002 A 
ATOM     43  C   UNL A   1      48.430  27.391  24.785  1.00  0.00     0.091 A 
ATOM     44  F   UNL A   1      46.313  28.474  24.577  1.00  0.00    -0.205 F 
ATOM     45  C   UNL A   1      49.434  26.859  25.611  1.00  0.00     0.022 A 
BRANCH  43  46
ATOM     46  S   UNL A   1      48.702  27.286  23.011  1.00  0.00     0.127 S 
ATOM     47  O   UNL A   1      47.851  28.370  22.519  1.00  0.00    -0.237 OA
ATOM     48  O   UNL A   1      50.138  27.545  22.902  1.00  0.00    -0.237 OA
ATOM     49  O   UNL A   1      48.295  25.944  22.621  1.00  0.00    -0.744 OA
ENDBRANCH  43  46
ENDBRANCH  25  39
BRANCH  26  50
ATOM     50  C   UNL A   1      38.450  30.714  30.913  1.00  0.00     0.023 A 
ATOM     51  C   UNL A   1      38.260  30.526  32.295  1.00  0.00     0.012 A 
ATOM     52  C   UNL A   1      37.437  31.340  30.161  1.00  0.00     0.148 A 
ATOM     53  C   UNL A   1      37.077  30.937  32.911  1.00  0.00     0.002 A 
ATOM     54  C   UNL A   1      36.290  31.805  30.792  1.00  0.00     0.091 A 
ATOM     55  F   UNL A   1      37.622  31.491  28.841  1.00  0.00    -0.205 F 
ATOM     56  C   UNL A   1      36.100  31.589  32.164  1.00  0.00     0.022 A 
BRANCH  54  57
ATOM     57  S   UNL A   1      35.075  32.797  29.916  1.00  0.00     0.127 S 
ATOM     58  O   UNL A   1      34.193  33.218  30.999  1.00  0.00    -0.237 OA
ATOM     59  O   UNL A   1      35.899  33.864  29.342  1.00  0.00    -0.237 OA
ATOM     60  O   UNL A   1      34.498  31.899  28.925  1.00  0.00    -0.744 OA
ENDBRANCH  54  57
ENDBRANCH  26  50
BRANCH  38  61
ATOM     61  C   UNL A   1      44.535  33.928  29.781  1.00  0.00     0.023 A 
ATOM     62  C   UNL A   1      45.120  34.157  31.042  1.00  0.00     0.012 A 
ATOM     63  C   UNL A   1      44.462  34.982  28.850  1.00  0.00     0.148 A 
ATOM     64  C   UNL A   1      45.593  35.423  31.386  1.00  0.00     0.002 A 
ATOM     65  C   UNL A   1      44.974  36.230  29.184  1.00  0.00     0.091 A 
ATOM     66  F   UNL A   1      43.880  34.752  27.663  1.00  0.00    -0.205 F 
ATOM     67  C   UNL A   1      45.529  36.456  30.454  1.00  0.00     0.022 A 
BRANCH  65  68
ATOM     68  S   UNL A   1      45.005  37.592  28.013  1.00  0.00     0.127 S 
ATOM     69  O   UNL A   1      45.712  36.996  26.881  1.00  0.00    -0.237 OA
ATOM     70  O   UNL A   1      43.580  37.839  27.780  1.00  0.00    -0.237 OA
ATOM     71  O   UNL A   1      45.699  38.679  28.690  1.00  0.00    -0.744 OA
ENDBRANCH  65  68
ENDBRANCH  38  61
ENDBRANCH  12  13
ENDBRANCH   5   7
ENDBRANCH   2   3
ENDBRANCH   1   2
BRANCH   1  72
ATOM     72  C   UNL A   1      34.590  22.929  24.096  1.00  0.00     0.118 C 
BRANCH  72  73
ATOM     73  N   UNL A   1      33.628  22.229  23.257  1.00  0.00    -0.352 N 
ATOM     74  C   UNL A   1      32.256  22.264  23.304  1.00  0.00     0.255 C 
ATOM     75  H   UNL A   1      34.015  21.650  22.562  1.00  0.00     0.163 HD
ATOM     76  O   UNL A   1      31.589  21.531  22.578  1.00  0.00    -0.269 OA
BRANCH  74  77
ATOM     77  C   UNL A   1      31.579  23.139  24.278  1.00  0.00     0.083 A 
ATOM     78  C   UNL A   1      31.356  24.470  23.904  1.00  0.00     0.046 A 
ATOM     79  C   UNL A   1      31.149  22.677  25.525  1.00  0.00     0.128 A 
ATOM     80  C   UNL A   1      30.647  25.328  24.746  1.00  0.00     0.064 A 
ATOM     81  C   UNL A   1      30.414  23.513  26.358  1.00  0.00     0.049 A 
ATOM     82  C   UNL A   1      30.147  24.825  25.956  1.00  0.00     0.032 A 
BRANCH  79  83
ATOM     83  O   UNL A   1      31.419  21.396  25.921  1.00  0.00    -0.507 OA
ATOM     84  H   UNL A   1      31.350  20.692  25.306  1.00  0.00     0.293 HD
ENDBRANCH  79  83
BRANCH  80  85
ATOM     85  N   UNL A   1      30.409  26.642  24.312  1.00  0.00    -0.256 NA
ATOM     86  C   UNL A   1      29.400  26.859  23.533  1.00  0.00     0.119 C 
BRANCH  86  87
ATOM     87  C   UNL A   1      29.061  28.211  23.049  1.00  0.00    -0.007 A 
ATOM     88  C   UNL A   1      30.054  28.958  22.407  1.00  0.00     0.017 A 
ATOM     89  C   UNL A   1      27.770  28.730  23.201  1.00  0.00     0.017 A 
ATOM     90  C   UNL A   1      29.754  30.225  21.900  1.00  0.00     0.086 A 
ATOM     91  C   UNL A   1      27.461  29.996  22.692  1.00  0.00     0.086 A 
ATOM     92  C   UNL A   1      28.455  30.736  22.036  1.00  0.00     0.269 A 
BRANCH  92  93
ATOM     93  N   UNL A   1      28.133  32.052  21.470  1.00  0.00     0.062 N 
ATOM     94  O   UNL A   1      28.005  33.001  22.259  1.00  0.00    -0.258 OA
ATOM     95  O   UNL A   1      28.019  32.142  20.240  1.00  0.00    -0.258 OA
ENDBRANCH  92  93
ENDBRANCH  86  87
ENDBRANCH  80  85
ENDBRANCH  74  77
ENDBRANCH  72  73
ENDBRANCH   1  72
TORSDOF 17
ENDMDL
MODEL 3
REMARK VINA RESULT:     -12.4      1.426      1.778
REMARK SMILES O=C(NCCCNC(=O)c1cc(/N=C/c2ccc([N+](=O)[O-])cc2)ccc1O)c1ccc(-c2c3nc(c(-c4cccc(S(=O)(=O)[O-])c4F)c4ccc([nH]4)c(-c4cccc(S(=O)(=O)[O-])c4F)c4nc(c(-c5cccc(S(=O)(=O)[O-])c5F)c5ccc2[nH]5)C=C4)C=C3)cc1
REMARK SMILES IDX 5 1 4 2 3 3 1 4 2 5 28 7 29 8 90 9 30 10 89 11 31 12 32 13
REMARK SMILES IDX 33 14 83 15 34 16 88 17 82 18 84 19 35 20 87 21 81 22 80 23
REMARK SMILES IDX 36 25 68 26 48 27 67 28 49 29 52 30 66 31 85 32 50 33 51 34
REMARK SMILES IDX 65 36 86 37 53 38 37 39 38 40 46 41 39 42 41 43 47 44 40 45
REMARK SMILES IDX 42 46 43 47 44 48 45 49 69 50 70 51 78 52 71 53 73 54 79 55
REMARK SMILES IDX 72 56 74 57 75 58 76 59 77 60 54 61 55 62 63 63 56 64 58 65
REMARK SMILES IDX 64 66 57 67 59 68 60 69 61 70 62 71 6 72 7 73 8 74 9 76
REMARK SMILES IDX 10 77 11 78 26 79 12 80 25 81 24 82 27 83 13 85 14 86 15 87
REMARK SMILES IDX 16 88 23 89 17 90 22 91 18 92 19 93 20 94 21 95
REMARK H PARENT 3 6 84 24 52 35 7 75 27 84
REMARK Flexibility Score: inf
ROOT
ATOM      1  C   UNL A   1      33.239  28.761  24.554  1.00  0.00     0.042 C 
ENDROOT
BRANCH   1   2
ATOM      2  C   UNL A   1      32.580  29.047  25.895  1.00  0.00     0.118 C 
BRANCH   2   3
ATOM      3  N   UNL A   1      32.298  30.465  26.094  1.00  0.00    -0.352 N 
ATOM      4  O   UNL A   1      32.401  32.503  27.037  1.00  0.00    -0.269 OA
ATOM      5  C   UNL A   1      32.932  31.405  26.872  1.00  0.00     0.251 C 
ATOM      6  H   UNL A   1      31.526  30.805  25.586  1.00  0.00     0.163 HD
BRANCH   5   7
ATOM      7  C   UNL A   1      34.223  31.097  27.528  1.00  0.00     0.039 A 
ATOM      8  C   UNL A   1      34.503  29.809  27.980  1.00  0.00     0.014 A 
ATOM      9  C   UNL A   1      35.181  32.106  27.680  1.00  0.00     0.014 A 
ATOM     10  C   UNL A   1      35.633  29.577  28.752  1.00  0.00     0.010 A 
ATOM     11  C   UNL A   1      36.381  31.836  28.351  1.00  0.00     0.010 A 
ATOM     12  C   UNL A   1      36.599  30.580  28.932  1.00  0.00    -0.014 A 
BRANCH  12  13
ATOM     13  C   UNL A   1      37.847  30.238  29.668  1.00  0.00     0.031 A 
ATOM     14  C   UNL A   1      38.100  30.724  31.070  1.00  0.00     0.074 A 
ATOM     15  C   UNL A   1      38.738  29.426  29.065  1.00  0.00     0.049 A 
ATOM     16  N   UNL A   1      39.092  30.426  31.870  1.00  0.00    -0.248 NA
ATOM     17  C   UNL A   1      37.131  31.668  31.648  1.00  0.00     0.031 C 
ATOM     18  C   UNL A   1      38.633  28.943  27.685  1.00  0.00     0.029 A 
ATOM     19  N   UNL A   1      39.888  28.843  29.530  1.00  0.00    -0.354 N 
ATOM     20  C   UNL A   1      38.887  31.164  33.031  1.00  0.00     0.074 A 
ATOM     21  C   UNL A   1      37.682  31.940  32.824  1.00  0.00     0.031 C 
ATOM     22  C   UNL A   1      39.642  28.098  27.434  1.00  0.00     0.029 A 
ATOM     23  C   UNL A   1      40.498  28.020  28.611  1.00  0.00     0.049 A 
ATOM     24  H   UNL A   1      40.245  28.999  30.435  1.00  0.00     0.167 HD
ATOM     25  C   UNL A   1      39.621  31.176  34.169  1.00  0.00     0.034 A 
ATOM     26  C   UNL A   1      41.622  27.284  28.699  1.00  0.00     0.034 A 
ATOM     27  C   UNL A   1      40.798  30.375  34.383  1.00  0.00     0.049 A 
ATOM     28  C   UNL A   1      42.377  27.271  29.995  1.00  0.00     0.074 A 
ATOM     29  C   UNL A   1      41.591  30.295  35.516  1.00  0.00     0.029 A 
ATOM     30  N   UNL A   1      41.350  29.511  33.450  1.00  0.00    -0.354 N 
ATOM     31  N   UNL A   1      42.097  27.889  31.117  1.00  0.00    -0.248 NA
ATOM     32  C   UNL A   1      43.586  26.439  30.048  1.00  0.00     0.031 C 
ATOM     33  C   UNL A   1      42.624  29.386  35.264  1.00  0.00     0.029 A 
ATOM     34  C   UNL A   1      42.470  28.891  33.981  1.00  0.00     0.049 A 
ATOM     35  H   UNL A   1      40.999  29.361  32.543  1.00  0.00     0.167 HD
ATOM     36  C   UNL A   1      43.090  27.515  32.013  1.00  0.00     0.074 A 
ATOM     37  C   UNL A   1      43.951  26.580  31.316  1.00  0.00     0.031 C 
ATOM     38  C   UNL A   1      43.290  27.931  33.287  1.00  0.00     0.034 A 
BRANCH  25  39
ATOM     39  C   UNL A   1      39.140  32.041  35.307  1.00  0.00     0.023 A 
ATOM     40  C   UNL A   1      38.197  31.520  36.217  1.00  0.00     0.012 A 
ATOM     41  C   UNL A   1      39.672  33.327  35.527  1.00  0.00     0.148 A 
ATOM     42  C   UNL A   1      37.776  32.270  37.314  1.00  0.00     0.002 A 
ATOM     43  C   UNL A   1      39.274  34.056  36.642  1.00  0.00     0.091 A 
ATOM     44  F   UNL A   1      40.552  33.815  34.641  1.00  0.00    -0.205 F 
ATOM     45  C   UNL A   1      38.321  33.532  37.533  1.00  0.00     0.022 A 
BRANCH  43  46
ATOM     46  S   UNL A   1      39.968  35.662  37.053  1.00  0.00     0.127 S 
ATOM     47  O   UNL A   1      41.387  35.338  37.209  1.00  0.00    -0.237 OA
ATOM     48  O   UNL A   1      39.653  36.450  35.861  1.00  0.00    -0.237 OA
ATOM     49  O   UNL A   1      39.288  36.096  38.265  1.00  0.00    -0.744 OA
ENDBRANCH  43  46
ENDBRANCH  25  39
BRANCH  26  50
ATOM     50  C   UNL A   1      42.058  26.467  27.533  1.00  0.00     0.023 A 
ATOM     51  C   UNL A   1      42.897  27.035  26.555  1.00  0.00     0.012 A 
ATOM     52  C   UNL A   1      41.694  25.111  27.421  1.00  0.00     0.148 A 
ATOM     53  C   UNL A   1      43.347  26.272  25.476  1.00  0.00     0.002 A 
ATOM     54  C   UNL A   1      42.198  24.341  26.380  1.00  0.00     0.091 A 
ATOM     55  F   UNL A   1      40.876  24.591  28.347  1.00  0.00    -0.205 F 
ATOM     56  C   UNL A   1      43.011  24.923  25.397  1.00  0.00     0.022 A 
BRANCH  54  57
ATOM     57  S   UNL A   1      41.937  22.565  26.317  1.00  0.00     0.127 S 
ATOM     58  O   UNL A   1      42.611  22.205  25.074  1.00  0.00    -0.237 OA
ATOM     59  O   UNL A   1      42.608  22.108  27.537  1.00  0.00    -0.237 OA
ATOM     60  O   UNL A   1      40.490  22.395  26.340  1.00  0.00    -0.744 OA
ENDBRANCH  54  57
ENDBRANCH  26  50
BRANCH  38  61
ATOM     61  C   UNL A   1      44.488  27.376  34.007  1.00  0.00     0.023 A 
ATOM     62  C   UNL A   1      45.718  28.061  33.933  1.00  0.00     0.012 A 
ATOM     63  C   UNL A   1      44.393  26.207  34.785  1.00  0.00     0.148 A 
ATOM     64  C   UNL A   1      46.844  27.571  34.593  1.00  0.00     0.002 A 
ATOM     65  C   UNL A   1      45.510  25.748  35.475  1.00  0.00     0.091 A 
ATOM     66  F   UNL A   1      43.221  25.555  34.824  1.00  0.00    -0.205 F 
ATOM     67  C   UNL A   1      46.737  26.421  35.371  1.00  0.00     0.022 A 
BRANCH  65  68
ATOM     68  S   UNL A   1      45.436  24.321  36.563  1.00  0.00     0.127 S 
ATOM     69  O   UNL A   1      46.849  24.094  36.856  1.00  0.00    -0.237 OA
ATOM     70  O   UNL A   1      44.653  24.827  37.693  1.00  0.00    -0.237 OA
ATOM     71  O   UNL A   1      44.773  23.274  35.797  1.00  0.00    -0.744 OA
ENDBRANCH  65  68
ENDBRANCH  38  61
ENDBRANCH  12  13
ENDBRANCH   5   7
ENDBRANCH   2   3
ENDBRANCH   1   2
BRANCH   1  72
ATOM     72  C   UNL A   1      33.668  27.312  24.387  1.00  0.00     0.118 C 
BRANCH  72  73
ATOM     73  N   UNL A   1      33.265  26.757  23.103  1.00  0.00    -0.352 N 
ATOM     74  C   UNL A   1      32.429  25.699  22.845  1.00  0.00     0.255 C 
ATOM     75  H   UNL A   1      33.645  27.200  22.311  1.00  0.00     0.163 HD
ATOM     76  O   UNL A   1      32.268  25.297  21.695  1.00  0.00    -0.269 OA
BRANCH  74  77
ATOM     77  C   UNL A   1      31.769  24.998  23.962  1.00  0.00     0.083 A 
ATOM     78  C   UNL A   1      32.168  23.682  24.225  1.00  0.00     0.046 A 
ATOM     79  C   UNL A   1      30.793  25.610  24.755  1.00  0.00     0.128 A 
ATOM     80  C   UNL A   1      31.642  22.993  25.319  1.00  0.00     0.064 A 
ATOM     81  C   UNL A   1      30.286  24.945  25.866  1.00  0.00     0.049 A 
ATOM     82  C   UNL A   1      30.729  23.650  26.155  1.00  0.00     0.032 A 
BRANCH  79  83
ATOM     83  O   UNL A   1      30.355  26.872  24.465  1.00  0.00    -0.507 OA
ATOM     84  H   UNL A   1      30.030  27.070  23.607  1.00  0.00     0.293 HD
ENDBRANCH  79  83
BRANCH  80  85
ATOM     85  N   UNL A   1      32.103  21.690  25.570  1.00  0.00    -0.256 NA
ATOM     86  C   UNL A   1      32.526  20.985  24.571  1.00  0.00     0.119 C 
BRANCH  86  87
ATOM     87  C   UNL A   1      33.050  19.617  24.746  1.00  0.00    -0.007 A 
ATOM     88  C   UNL A   1      34.389  19.369  24.424  1.00  0.00     0.017 A 
ATOM     89  C   UNL A   1      32.240  18.592  25.249  1.00  0.00     0.017 A 
ATOM     90  C   UNL A   1      34.927  18.094  24.618  1.00  0.00     0.086 A 
ATOM     91  C   UNL A   1      32.774  17.315  25.449  1.00  0.00     0.086 A 
ATOM     92  C   UNL A   1      34.119  17.073  25.139  1.00  0.00     0.269 A 
BRANCH  92  93
ATOM     93  N   UNL A   1      34.697  15.744  25.375  1.00  0.00     0.062 N 
ATOM     94  O   UNL A   1      35.919  15.676  25.572  1.00  0.00    -0.258 OA
ATOM     95  O   UNL A   1      33.931  14.770  25.376  1.00  0.00    -0.258 OA
ENDBRANCH  92  93
ENDBRANCH  86  87
ENDBRANCH  80  85
ENDBRANCH  74  77
ENDBRANCH  72  73
ENDBRANCH   1  72
TORSDOF 17
ENDMDL
