MODEL 1
REMARK VINA RESULT:     -11.7      0.000      0.000
REMARK SMILES C[C@H]1CCC[C@H](S[C@@H]2CCC[C@]([NH3+])(C(=O)NCCCNC(=O)c3ccc(-c4c5nc(c(-c6cccc(S(=O)(=O)[O-])c6F)c6ccc([nH]6)c(-c6cccc(S(=O)(=O)[O-])c6F)c6nc(c(-c7cccc(S(=O)(=O)[O-])c7F)c7ccc4[nH]7)C=C6)C=C5)cc3)C2)C1
REMARK SMILES IDX 18 1 17 2 16 3 14 4 15 5 12 7 8 8 9 9 86 10 10 11 11 12 7 13
REMARK SMILES IDX 6 14 1 15 2 16 3 17 87 18 4 19 5 20 13 21 19 25 20 26 21 27
REMARK SMILES IDX 22 29 23 30 24 31 85 32 25 33 84 34 26 35 27 36 28 37 78 38
REMARK SMILES IDX 29 39 83 40 77 41 79 42 30 43 82 44 76 45 75 46 31 48 63 49
REMARK SMILES IDX 43 50 62 51 44 52 47 53 61 54 80 55 45 56 46 57 60 59 81 60
REMARK SMILES IDX 48 61 32 62 33 63 41 64 34 65 36 66 42 67 35 68 37 69 38 70
REMARK SMILES IDX 39 71 40 72 64 73 65 74 73 75 66 76 68 77 74 78 67 79 69 80
REMARK SMILES IDX 70 81 71 82 72 83 49 84 50 85 58 86 51 87 53 88 59 89 52 90
REMARK SMILES IDX 54 91 55 92 56 93 57 94
REMARK H PARENT 16 6 13 22 13 23 13 24 20 28 79 47 47 58
REMARK Flexibility Score: inf
ROOT
ATOM      1  C   UNL A   1      31.521  31.883  26.819  1.00  0.00     0.042 C 
ENDROOT
BRANCH   1   2
ATOM      2  C   UNL A   1      31.748  30.604  26.028  1.00  0.00     0.118 C 
BRANCH   2   3
ATOM      3  N   UNL A   1      32.973  29.943  26.422  1.00  0.00    -0.351 N 
ATOM      4  C   UNL A   1      33.312  28.634  26.523  1.00  0.00     0.281 C 
ATOM      5  O   UNL A   1      34.418  28.419  27.033  1.00  0.00    -0.268 OA
ATOM      6  H   UNL A   1      33.700  30.562  26.662  1.00  0.00     0.163 HD
BRANCH   4   7
ATOM      7  C   UNL A   1      32.361  27.471  26.073  1.00  0.00     0.175 C 
ATOM      8  C   UNL A   1      32.443  24.871  25.920  1.00  0.00     0.053 C 
ATOM      9  C   UNL A   1      31.862  24.909  24.501  1.00  0.00     0.015 C 
ATOM     10  C   UNL A   1      33.121  26.157  26.328  1.00  0.00     0.093 C 
ATOM     11  C   UNL A   1      31.246  26.264  24.119  1.00  0.00     0.008 C 
ATOM     12  C   UNL A   1      32.061  27.483  24.562  1.00  0.00     0.079 C 
BRANCH   8  13
ATOM     13  S   UNL A   1      33.507  23.378  26.288  1.00  0.00    -0.155 SA
BRANCH  13  14
ATOM     14  C   UNL A   1      34.759  23.055  24.928  1.00  0.00     0.047 C 
ATOM     15  C   UNL A   1      37.073  19.834  24.866  1.00  0.00     0.007 C 
ATOM     16  C   UNL A   1      36.520  21.181  25.326  1.00  0.00    -0.013 C 
ATOM     17  C   UNL A   1      37.621  22.253  25.288  1.00  0.00     0.003 C 
ATOM     18  C   UNL A   1      35.235  21.615  24.615  1.00  0.00     0.017 C 
ATOM     19  C   UNL A   1      37.159  23.690  25.518  1.00  0.00     0.001 C 
ATOM     20  C   UNL A   1      35.891  24.065  24.769  1.00  0.00     0.014 C 
ENDBRANCH  13  14
ENDBRANCH   8  13
BRANCH   7  21
ATOM     21  N   UNL A   1      31.137  27.493  26.894  1.00  0.00    -0.345 N 
ATOM     22  H   UNL A   1      30.912  26.544  27.195  1.00  0.00     0.345 HD
ATOM     23  H   UNL A   1      30.364  27.866  26.343  1.00  0.00     0.345 HD
ATOM     24  H   UNL A   1      31.288  28.083  27.713  1.00  0.00     0.345 HD
ENDBRANCH   7  21
ENDBRANCH   4   7
ENDBRANCH   2   3
ENDBRANCH   1   2
BRANCH   1  25
ATOM     25  C   UNL A   1      32.809  32.584  27.225  1.00  0.00     0.118 C 
BRANCH  25  26
ATOM     26  N   UNL A   1      32.598  33.989  27.554  1.00  0.00    -0.352 N 
ATOM     27  C   UNL A   1      33.125  34.750  28.571  1.00  0.00     0.251 C 
ATOM     28  H   UNL A   1      31.983  34.468  26.953  1.00  0.00     0.163 HD
ATOM     29  O   UNL A   1      32.636  35.844  28.826  1.00  0.00    -0.269 OA
BRANCH  27  30
ATOM     30  C   UNL A   1      34.267  34.238  29.360  1.00  0.00     0.039 A 
ATOM     31  C   UNL A   1      34.024  33.545  30.548  1.00  0.00     0.014 A 
ATOM     32  C   UNL A   1      35.578  34.450  28.931  1.00  0.00     0.014 A 
ATOM     33  C   UNL A   1      35.095  33.005  31.263  1.00  0.00     0.010 A 
ATOM     34  C   UNL A   1      36.629  33.815  29.578  1.00  0.00     0.010 A 
ATOM     35  C   UNL A   1      36.404  33.101  30.762  1.00  0.00    -0.014 A 
BRANCH  35  36
ATOM     36  C   UNL A   1      37.554  32.474  31.462  1.00  0.00     0.031 A 
ATOM     37  C   UNL A   1      38.302  31.336  30.817  1.00  0.00     0.074 A 
ATOM     38  C   UNL A   1      37.868  32.867  32.713  1.00  0.00     0.049 A 
ATOM     39  N   UNL A   1      39.283  30.618  31.295  1.00  0.00    -0.248 NA
ATOM     40  C   UNL A   1      37.865  30.925  29.470  1.00  0.00     0.031 C 
ATOM     41  C   UNL A   1      37.164  33.898  33.480  1.00  0.00     0.029 A 
ATOM     42  N   UNL A   1      38.844  32.426  33.572  1.00  0.00    -0.354 N 
ATOM     43  C   UNL A   1      39.553  29.653  30.333  1.00  0.00     0.074 A 
ATOM     44  C   UNL A   1      38.603  29.845  29.261  1.00  0.00     0.031 C 
ATOM     45  C   UNL A   1      37.739  34.020  34.687  1.00  0.00     0.029 A 
ATOM     46  C   UNL A   1      38.827  33.052  34.797  1.00  0.00     0.049 A 
ATOM     47  H   UNL A   1      39.496  31.727  33.333  1.00  0.00     0.167 HD
ATOM     48  C   UNL A   1      40.526  28.711  30.323  1.00  0.00     0.034 A 
ATOM     49  C   UNL A   1      39.594  32.863  35.887  1.00  0.00     0.034 A 
ATOM     50  C   UNL A   1      41.499  28.554  31.368  1.00  0.00     0.049 A 
ATOM     51  C   UNL A   1      40.695  31.838  35.833  1.00  0.00     0.074 A 
ATOM     52  C   UNL A   1      42.582  27.695  31.414  1.00  0.00     0.029 A 
ATOM     53  N   UNL A   1      41.503  29.267  32.557  1.00  0.00    -0.354 N 
ATOM     54  N   UNL A   1      41.035  31.044  34.848  1.00  0.00    -0.248 NA
ATOM     55  C   UNL A   1      41.541  31.711  37.029  1.00  0.00     0.031 C 
ATOM     56  C   UNL A   1      43.223  27.867  32.645  1.00  0.00     0.029 A 
ATOM     57  C   UNL A   1      42.562  28.859  33.349  1.00  0.00     0.049 A 
ATOM     58  H   UNL A   1      40.849  29.960  32.802  1.00  0.00     0.167 HD
ATOM     59  C   UNL A   1      42.156  30.350  35.288  1.00  0.00     0.074 A 
ATOM     60  C   UNL A   1      42.450  30.835  36.621  1.00  0.00     0.031 C 
ATOM     61  C   UNL A   1      42.871  29.390  34.652  1.00  0.00     0.034 A 
BRANCH  48  62
ATOM     62  C   UNL A   1      40.619  27.810  29.117  1.00  0.00     0.023 A 
ATOM     63  C   UNL A   1      39.747  26.708  29.001  1.00  0.00     0.012 A 
ATOM     64  C   UNL A   1      41.528  28.084  28.078  1.00  0.00     0.148 A 
ATOM     65  C   UNL A   1      39.803  25.870  27.888  1.00  0.00     0.002 A 
ATOM     66  C   UNL A   1      41.544  27.273  26.948  1.00  0.00     0.091 A 
ATOM     67  F   UNL A   1      42.363  29.123  28.215  1.00  0.00    -0.205 F 
ATOM     68  C   UNL A   1      40.693  26.160  26.858  1.00  0.00     0.022 A 
BRANCH  66  69
ATOM     69  S   UNL A   1      42.593  27.609  25.529  1.00  0.00     0.127 S 
ATOM     70  O   UNL A   1      42.337  26.439  24.690  1.00  0.00    -0.237 OA
ATOM     71  O   UNL A   1      42.029  28.859  25.020  1.00  0.00    -0.237 OA
ATOM     72  O   UNL A   1      43.950  27.719  26.047  1.00  0.00    -0.744 OA
ENDBRANCH  66  69
ENDBRANCH  48  62
BRANCH  49  73
ATOM     73  C   UNL A   1      39.389  33.704  37.100  1.00  0.00     0.023 A 
ATOM     74  C   UNL A   1      39.866  35.030  37.114  1.00  0.00     0.012 A 
ATOM     75  C   UNL A   1      38.709  33.209  38.230  1.00  0.00     0.148 A 
ATOM     76  C   UNL A   1      39.703  35.834  38.243  1.00  0.00     0.002 A 
ATOM     77  C   UNL A   1      38.500  34.033  39.329  1.00  0.00     0.091 A 
ATOM     78  F   UNL A   1      38.271  31.943  38.200  1.00  0.00    -0.205 F 
ATOM     79  C   UNL A   1      39.013  35.339  39.346  1.00  0.00     0.022 A 
BRANCH  77  80
ATOM     80  S   UNL A   1      37.508  33.526  40.738  1.00  0.00     0.127 S 
ATOM     81  O   UNL A   1      38.358  32.507  41.350  1.00  0.00    -0.237 OA
ATOM     82  O   UNL A   1      37.399  34.774  41.493  1.00  0.00    -0.237 OA
ATOM     83  O   UNL A   1      36.249  33.050  40.182  1.00  0.00    -0.744 OA
ENDBRANCH  77  80
ENDBRANCH  49  73
BRANCH  61  84
ATOM     84  C   UNL A   1      44.072  28.825  35.366  1.00  0.00     0.023 A 
ATOM     85  C   UNL A   1      45.342  29.406  35.179  1.00  0.00     0.012 A 
ATOM     86  C   UNL A   1      43.925  27.761  36.278  1.00  0.00     0.148 A 
ATOM     87  C   UNL A   1      46.453  28.913  35.861  1.00  0.00     0.002 A 
ATOM     88  C   UNL A   1      45.025  27.311  36.995  1.00  0.00     0.091 A 
ATOM     89  F   UNL A   1      42.710  27.211  36.428  1.00  0.00    -0.205 F 
ATOM     90  C   UNL A   1      46.293  27.875  36.778  1.00  0.00     0.022 A 
BRANCH  88  91
ATOM     91  S   UNL A   1      44.895  26.050  38.267  1.00  0.00     0.127 S 
ATOM     92  O   UNL A   1      46.285  25.920  38.701  1.00  0.00    -0.237 OA
ATOM     93  O   UNL A   1      44.008  26.686  39.243  1.00  0.00    -0.237 OA
ATOM     94  O   UNL A   1      44.333  24.875  37.615  1.00  0.00    -0.744 OA
ENDBRANCH  88  91
ENDBRANCH  61  84
ENDBRANCH  35  36
ENDBRANCH  27  30
ENDBRANCH  25  26
ENDBRANCH   1  25
TORSDOF 16
ENDMDL
MODEL 2
REMARK VINA RESULT:     -11.7      6.413     11.767
REMARK SMILES C[C@H]1CCC[C@H](S[C@@H]2CCC[C@]([NH3+])(C(=O)NCCCNC(=O)c3ccc(-c4c5nc(c(-c6cccc(S(=O)(=O)[O-])c6F)c6ccc([nH]6)c(-c6cccc(S(=O)(=O)[O-])c6F)c6nc(c(-c7cccc(S(=O)(=O)[O-])c7F)c7ccc4[nH]7)C=C6)C=C5)cc3)C2)C1
REMARK SMILES IDX 18 1 17 2 16 3 14 4 15 5 12 7 8 8 9 9 86 10 10 11 11 12 7 13
REMARK SMILES IDX 6 14 1 15 2 16 3 17 87 18 4 19 5 20 13 21 19 25 20 26 21 27
REMARK SMILES IDX 22 29 23 30 24 31 85 32 25 33 84 34 26 35 27 36 28 37 78 38
REMARK SMILES IDX 29 39 83 40 77 41 79 42 30 43 82 44 76 45 75 46 31 48 63 49
REMARK SMILES IDX 43 50 62 51 44 52 47 53 61 54 80 55 45 56 46 57 60 59 81 60
REMARK SMILES IDX 48 61 32 62 33 63 41 64 34 65 36 66 42 67 35 68 37 69 38 70
REMARK SMILES IDX 39 71 40 72 64 73 65 74 73 75 66 76 68 77 74 78 67 79 69 80
REMARK SMILES IDX 70 81 71 82 72 83 49 84 50 85 58 86 51 87 53 88 59 89 52 90
REMARK SMILES IDX 54 91 55 92 56 93 57 94
REMARK H PARENT 16 6 13 22 13 23 13 24 20 28 79 47 47 58
REMARK Flexibility Score: inf
ROOT
ATOM      1  C   UNL A   1      37.308  19.426  24.996  1.00  0.00     0.042 C 
ENDROOT
BRANCH   1   2
ATOM      2  C   UNL A   1      36.049  20.277  24.991  1.00  0.00     0.118 C 
BRANCH   2   3
ATOM      3  N   UNL A   1      36.216  21.484  25.772  1.00  0.00    -0.351 N 
ATOM      4  C   UNL A   1      35.805  22.761  25.578  1.00  0.00     0.281 C 
ATOM      5  O   UNL A   1      36.249  23.582  26.390  1.00  0.00    -0.268 OA
ATOM      6  H   UNL A   1      36.725  21.351  26.606  1.00  0.00     0.163 HD
BRANCH   4   7
ATOM      7  C   UNL A   1      34.874  23.185  24.389  1.00  0.00     0.175 C 
ATOM      8  C   UNL A   1      33.733  25.362  23.522  1.00  0.00     0.053 C 
ATOM      9  C   UNL A   1      32.402  24.622  23.337  1.00  0.00     0.015 C 
ATOM     10  C   UNL A   1      34.655  24.703  24.521  1.00  0.00     0.093 C 
ATOM     11  C   UNL A   1      32.532  23.092  23.378  1.00  0.00     0.008 C 
ATOM     12  C   UNL A   1      33.468  22.560  24.467  1.00  0.00     0.079 C 
BRANCH   8  13
ATOM     13  S   UNL A   1      33.569  27.198  23.835  1.00  0.00    -0.155 SA
BRANCH  13  14
ATOM     14  C   UNL A   1      31.996  27.615  24.767  1.00  0.00     0.047 C 
ATOM     15  C   UNL A   1      31.100  31.302  25.921  1.00  0.00     0.007 C 
ATOM     16  C   UNL A   1      31.832  29.963  25.876  1.00  0.00    -0.013 C 
ATOM     17  C   UNL A   1      31.775  29.275  27.249  1.00  0.00     0.003 C 
ATOM     18  C   UNL A   1      31.406  29.046  24.726  1.00  0.00     0.017 C 
ATOM     19  C   UNL A   1      32.280  27.834  27.293  1.00  0.00     0.001 C 
ATOM     20  C   UNL A   1      31.806  26.971  26.137  1.00  0.00     0.014 C 
ENDBRANCH  13  14
ENDBRANCH   8  13
BRANCH   7  21
ATOM     21  N   UNL A   1      35.551  22.900  23.111  1.00  0.00    -0.345 N 
ATOM     22  H   UNL A   1      35.800  21.912  23.071  1.00  0.00     0.345 HD
ATOM     23  H   UNL A   1      36.397  23.466  23.041  1.00  0.00     0.345 HD
ATOM     24  H   UNL A   1      34.926  23.126  22.338  1.00  0.00     0.345 HD
ENDBRANCH   7  21
ENDBRANCH   4   7
ENDBRANCH   2   3
ENDBRANCH   1   2
BRANCH   1  25
ATOM     25  C   UNL A   1      38.548  20.178  25.458  1.00  0.00     0.118 C 
BRANCH  25  26
ATOM     26  N   UNL A   1      39.651  19.282  25.788  1.00  0.00    -0.352 N 
ATOM     27  C   UNL A   1      40.949  19.567  26.141  1.00  0.00     0.251 C 
ATOM     28  H   UNL A   1      39.431  18.323  25.754  1.00  0.00     0.163 HD
ATOM     29  O   UNL A   1      41.788  18.674  26.140  1.00  0.00    -0.269 OA
BRANCH  27  30
ATOM     30  C   UNL A   1      41.328  20.950  26.506  1.00  0.00     0.039 A 
ATOM     31  C   UNL A   1      42.138  21.166  27.624  1.00  0.00     0.014 A 
ATOM     32  C   UNL A   1      40.879  22.032  25.749  1.00  0.00     0.014 A 
ATOM     33  C   UNL A   1      42.551  22.463  27.936  1.00  0.00     0.010 A 
ATOM     34  C   UNL A   1      41.385  23.302  25.990  1.00  0.00     0.010 A 
ATOM     35  C   UNL A   1      42.211  23.538  27.097  1.00  0.00    -0.014 A 
BRANCH  35  36
ATOM     36  C   UNL A   1      42.696  24.916  27.361  1.00  0.00     0.031 A 
ATOM     37  C   UNL A   1      41.783  25.926  28.008  1.00  0.00     0.074 A 
ATOM     38  C   UNL A   1      43.922  25.286  26.937  1.00  0.00     0.049 A 
ATOM     39  N   UNL A   1      41.999  27.191  28.257  1.00  0.00    -0.248 NA
ATOM     40  C   UNL A   1      40.438  25.464  28.393  1.00  0.00     0.031 C 
ATOM     41  C   UNL A   1      44.866  24.425  26.220  1.00  0.00     0.029 A 
ATOM     42  N   UNL A   1      44.574  26.490  27.024  1.00  0.00    -0.354 N 
ATOM     43  C   UNL A   1      40.812  27.682  28.787  1.00  0.00     0.074 A 
ATOM     44  C   UNL A   1      39.863  26.592  28.783  1.00  0.00     0.031 C 
ATOM     45  C   UNL A   1      45.979  25.123  25.946  1.00  0.00     0.029 A 
ATOM     46  C   UNL A   1      45.816  26.489  26.432  1.00  0.00     0.049 A 
ATOM     47  H   UNL A   1      44.190  27.280  27.470  1.00  0.00     0.167 HD
ATOM     48  C   UNL A   1      40.543  28.918  29.268  1.00  0.00     0.034 A 
ATOM     49  C   UNL A   1      46.717  27.480  26.289  1.00  0.00     0.034 A 
ATOM     50  C   UNL A   1      41.504  29.986  29.315  1.00  0.00     0.049 A 
ATOM     51  C   UNL A   1      46.409  28.834  26.870  1.00  0.00     0.074 A 
ATOM     52  C   UNL A   1      41.362  31.247  29.865  1.00  0.00     0.029 A 
ATOM     53  N   UNL A   1      42.782  29.922  28.783  1.00  0.00    -0.354 N 
ATOM     54  N   UNL A   1      45.338  29.232  27.511  1.00  0.00    -0.248 NA
ATOM     55  C   UNL A   1      47.450  29.864  26.739  1.00  0.00     0.031 C 
ATOM     56  C   UNL A   1      42.547  31.955  29.639  1.00  0.00     0.029 A 
ATOM     57  C   UNL A   1      43.438  31.124  28.982  1.00  0.00     0.049 A 
ATOM     58  H   UNL A   1      43.167  29.136  28.331  1.00  0.00     0.167 HD
ATOM     59  C   UNL A   1      45.589  30.544  27.895  1.00  0.00     0.074 A 
ATOM     60  C   UNL A   1      46.923  30.865  27.431  1.00  0.00     0.031 C 
ATOM     61  C   UNL A   1      44.785  31.409  28.559  1.00  0.00     0.034 A 
BRANCH  48  62
ATOM     62  C   UNL A   1      39.166  29.169  29.831  1.00  0.00     0.023 A 
ATOM     63  C   UNL A   1      38.875  28.789  31.157  1.00  0.00     0.012 A 
ATOM     64  C   UNL A   1      38.183  29.829  29.069  1.00  0.00     0.148 A 
ATOM     65  C   UNL A   1      37.614  29.026  31.704  1.00  0.00     0.002 A 
ATOM     66  C   UNL A   1      36.944  30.106  29.638  1.00  0.00     0.091 A 
ATOM     67  F   UNL A   1      38.471  30.164  27.804  1.00  0.00    -0.205 F 
ATOM     68  C   UNL A   1      36.654  29.693  30.949  1.00  0.00     0.022 A 
BRANCH  66  69
ATOM     69  S   UNL A   1      35.669  31.034  28.780  1.00  0.00     0.127 S 
ATOM     70  O   UNL A   1      36.466  31.989  28.011  1.00  0.00    -0.237 OA
ATOM     71  O   UNL A   1      35.023  29.995  27.977  1.00  0.00    -0.237 OA
ATOM     72  O   UNL A   1      34.826  31.615  29.815  1.00  0.00    -0.744 OA
ENDBRANCH  66  69
ENDBRANCH  48  62
BRANCH  49  73
ATOM     73  C   UNL A   1      48.023  27.212  25.621  1.00  0.00     0.023 A 
ATOM     74  C   UNL A   1      49.106  26.731  26.383  1.00  0.00     0.012 A 
ATOM     75  C   UNL A   1      48.192  27.410  24.237  1.00  0.00     0.148 A 
ATOM     76  C   UNL A   1      50.344  26.489  25.787  1.00  0.00     0.002 A 
ATOM     77  C   UNL A   1      49.411  27.111  23.640  1.00  0.00     0.091 A 
ATOM     78  F   UNL A   1      47.152  27.875  23.532  1.00  0.00    -0.205 F 
ATOM     79  C   UNL A   1      50.494  26.670  24.415  1.00  0.00     0.022 A 
BRANCH  77  80
ATOM     80  S   UNL A   1      49.655  27.186  21.862  1.00  0.00     0.127 S 
ATOM     81  O   UNL A   1      48.653  26.237  21.382  1.00  0.00    -0.237 OA
ATOM     82  O   UNL A   1      49.359  28.591  21.578  1.00  0.00    -0.237 OA
ATOM     83  O   UNL A   1      51.043  26.809  21.638  1.00  0.00    -0.744 OA
ENDBRANCH  77  80
ENDBRANCH  49  73
BRANCH  61  84
ATOM     84  C   UNL A   1      45.335  32.777  28.870  1.00  0.00     0.023 A 
ATOM     85  C   UNL A   1      46.083  32.987  30.045  1.00  0.00     0.012 A 
ATOM     86  C   UNL A   1      45.170  33.837  27.956  1.00  0.00     0.148 A 
ATOM     87  C   UNL A   1      46.626  34.241  30.324  1.00  0.00     0.002 A 
ATOM     88  C   UNL A   1      45.759  35.068  28.214  1.00  0.00     0.091 A 
ATOM     89  F   UNL A   1      44.440  33.620  26.852  1.00  0.00    -0.205 F 
ATOM     90  C   UNL A   1      46.475  35.276  29.404  1.00  0.00     0.022 A 
BRANCH  88  91
ATOM     91  S   UNL A   1      45.703  36.426  27.041  1.00  0.00     0.127 S 
ATOM     92  O   UNL A   1      46.507  37.440  27.722  1.00  0.00    -0.237 OA
ATOM     93  O   UNL A   1      46.335  35.839  25.858  1.00  0.00    -0.237 OA
ATOM     94  O   UNL A   1      44.294  36.756  26.872  1.00  0.00    -0.744 OA
ENDBRANCH  88  91
ENDBRANCH  61  84
ENDBRANCH  35  36
ENDBRANCH  27  30
ENDBRANCH  25  26
ENDBRANCH   1  25
TORSDOF 16
ENDMDL
MODEL 3
REMARK VINA RESULT:     -11.7      5.675      9.069
REMARK SMILES C[C@H]1CCC[C@H](S[C@@H]2CCC[C@]([NH3+])(C(=O)NCCCNC(=O)c3ccc(-c4c5nc(c(-c6cccc(S(=O)(=O)[O-])c6F)c6ccc([nH]6)c(-c6cccc(S(=O)(=O)[O-])c6F)c6nc(c(-c7cccc(S(=O)(=O)[O-])c7F)c7ccc4[nH]7)C=C6)C=C5)cc3)C2)C1
REMARK SMILES IDX 18 1 17 2 16 3 14 4 15 5 12 7 8 8 9 9 86 10 10 11 11 12 7 13
REMARK SMILES IDX 6 14 1 15 2 16 3 17 87 18 4 19 5 20 13 21 19 25 20 26 21 27
REMARK SMILES IDX 22 29 23 30 24 31 85 32 25 33 84 34 26 35 27 36 28 37 78 38
REMARK SMILES IDX 29 39 83 40 77 41 79 42 30 43 82 44 76 45 75 46 31 48 63 49
REMARK SMILES IDX 43 50 62 51 44 52 47 53 61 54 80 55 45 56 46 57 60 59 81 60
REMARK SMILES IDX 48 61 32 62 33 63 41 64 34 65 36 66 42 67 35 68 37 69 38 70
REMARK SMILES IDX 39 71 40 72 64 73 65 74 73 75 66 76 68 77 74 78 67 79 69 80
REMARK SMILES IDX 70 81 71 82 72 83 49 84 50 85 58 86 51 87 53 88 59 89 52 90
REMARK SMILES IDX 54 91 55 92 56 93 57 94
REMARK H PARENT 16 6 13 22 13 23 13 24 20 28 79 47 47 58
REMARK Flexibility Score: inf
ROOT
ATOM      1  C   UNL A   1      36.211  22.372  24.331  1.00  0.00     0.042 C 
ENDROOT
BRANCH   1   2
ATOM      2  C   UNL A   1      35.359  23.626  24.207  1.00  0.00     0.118 C 
BRANCH   2   3
ATOM      3  N   UNL A   1      34.733  23.720  22.907  1.00  0.00    -0.351 N 
ATOM      4  C   UNL A   1      33.444  23.595  22.503  1.00  0.00     0.281 C 
ATOM      5  O   UNL A   1      33.278  23.597  21.278  1.00  0.00    -0.268 OA
ATOM      6  H   UNL A   1      35.362  23.913  22.174  1.00  0.00     0.163 HD
BRANCH   4   7
ATOM      7  C   UNL A   1      32.251  23.413  23.506  1.00  0.00     0.175 C 
ATOM      8  C   UNL A   1      31.057  24.818  25.347  1.00  0.00     0.053 C 
ATOM      9  C   UNL A   1      31.090  23.629  26.314  1.00  0.00     0.015 C 
ATOM     10  C   UNL A   1      32.108  24.745  24.265  1.00  0.00     0.093 C 
ATOM     11  C   UNL A   1      31.411  22.287  25.637  1.00  0.00     0.008 C 
ATOM     12  C   UNL A   1      32.525  22.352  24.588  1.00  0.00     0.079 C 
BRANCH   8  13
ATOM     13  S   UNL A   1      31.028  26.496  26.173  1.00  0.00    -0.155 SA
BRANCH  13  14
ATOM     14  C   UNL A   1      32.231  27.694  25.375  1.00  0.00     0.047 C 
ATOM     15  C   UNL A   1      35.303  29.268  27.328  1.00  0.00     0.007 C 
ATOM     16  C   UNL A   1      33.852  29.001  26.935  1.00  0.00    -0.013 C 
ATOM     17  C   UNL A   1      33.166  30.305  26.501  1.00  0.00     0.003 C 
ATOM     18  C   UNL A   1      33.667  27.861  25.929  1.00  0.00     0.017 C 
ATOM     19  C   UNL A   1      31.778  30.153  25.880  1.00  0.00     0.001 C 
ATOM     20  C   UNL A   1      31.666  29.020  24.875  1.00  0.00     0.014 C 
ENDBRANCH  13  14
ENDBRANCH   8  13
BRANCH   7  21
ATOM     21  N   UNL A   1      31.014  23.148  22.751  1.00  0.00    -0.345 N 
ATOM     22  H   UNL A   1      30.379  23.941  22.849  1.00  0.00     0.345 HD
ATOM     23  H   UNL A   1      30.565  22.308  23.117  1.00  0.00     0.345 HD
ATOM     24  H   UNL A   1      31.239  23.011  21.766  1.00  0.00     0.345 HD
ENDBRANCH   7  21
ENDBRANCH   4   7
ENDBRANCH   2   3
ENDBRANCH   1   2
BRANCH   1  25
ATOM     25  C   UNL A   1      36.481  21.959  25.770  1.00  0.00     0.118 C 
BRANCH  25  26
ATOM     26  N   UNL A   1      37.539  20.961  25.873  1.00  0.00    -0.352 N 
ATOM     27  C   UNL A   1      38.890  21.118  26.074  1.00  0.00     0.251 C 
ATOM     28  H   UNL A   1      37.238  20.027  25.788  1.00  0.00     0.163 HD
ATOM     29  O   UNL A   1      39.646  20.172  25.885  1.00  0.00    -0.269 OA
BRANCH  27  30
ATOM     30  C   UNL A   1      39.425  22.429  26.501  1.00  0.00     0.039 A 
ATOM     31  C   UNL A   1      40.436  22.476  27.464  1.00  0.00     0.014 A 
ATOM     32  C   UNL A   1      38.924  23.612  25.956  1.00  0.00     0.014 A 
ATOM     33  C   UNL A   1      40.989  23.707  27.824  1.00  0.00     0.010 A 
ATOM     34  C   UNL A   1      39.553  24.820  26.227  1.00  0.00     0.010 A 
ATOM     35  C   UNL A   1      40.579  24.886  27.178  1.00  0.00    -0.014 A 
BRANCH  35  36
ATOM     36  C   UNL A   1      41.199  26.200  27.487  1.00  0.00     0.031 A 
ATOM     37  C   UNL A   1      42.617  26.484  27.063  1.00  0.00     0.074 A 
ATOM     38  C   UNL A   1      40.521  27.100  28.227  1.00  0.00     0.049 A 
ATOM     39  N   UNL A   1      43.352  27.538  27.297  1.00  0.00    -0.248 NA
ATOM     40  C   UNL A   1      43.314  25.428  26.305  1.00  0.00     0.031 C 
ATOM     41  C   UNL A   1      39.175  26.909  28.772  1.00  0.00     0.029 A 
ATOM     42  N   UNL A   1      40.882  28.348  28.671  1.00  0.00    -0.354 N 
ATOM     43  C   UNL A   1      44.602  27.259  26.756  1.00  0.00     0.074 A 
ATOM     44  C   UNL A   1      44.542  25.919  26.220  1.00  0.00     0.031 C 
ATOM     45  C   UNL A   1      38.819  28.002  29.464  1.00  0.00     0.029 A 
ATOM     46  C   UNL A   1      39.922  28.958  29.446  1.00  0.00     0.049 A 
ATOM     47  H   UNL A   1      41.747  28.767  28.456  1.00  0.00     0.167 HD
ATOM     48  C   UNL A   1      45.692  28.058  26.680  1.00  0.00     0.034 A 
ATOM     49  C   UNL A   1      39.933  30.148  30.076  1.00  0.00     0.034 A 
ATOM     50  C   UNL A   1      45.732  29.408  27.172  1.00  0.00     0.049 A 
ATOM     51  C   UNL A   1      41.142  31.033  29.939  1.00  0.00     0.074 A 
ATOM     52  C   UNL A   1      46.755  30.333  27.062  1.00  0.00     0.029 A 
ATOM     53  N   UNL A   1      44.708  30.023  27.875  1.00  0.00    -0.354 N 
ATOM     54  N   UNL A   1      42.256  30.812  29.285  1.00  0.00    -0.248 NA
ATOM     55  C   UNL A   1      41.081  32.346  30.597  1.00  0.00     0.031 C 
ATOM     56  C   UNL A   1      46.359  31.498  27.726  1.00  0.00     0.029 A 
ATOM     57  C   UNL A   1      45.078  31.312  28.216  1.00  0.00     0.049 A 
ATOM     58  H   UNL A   1      43.846  29.605  28.098  1.00  0.00     0.167 HD
ATOM     59  C   UNL A   1      43.012  31.971  29.418  1.00  0.00     0.074 A 
ATOM     60  C   UNL A   1      42.219  32.898  30.199  1.00  0.00     0.031 C 
ATOM     61  C   UNL A   1      44.255  32.240  28.949  1.00  0.00     0.034 A 
BRANCH  48  62
ATOM     62  C   UNL A   1      46.917  27.510  25.992  1.00  0.00     0.023 A 
ATOM     63  C   UNL A   1      47.099  27.728  24.611  1.00  0.00     0.012 A 
ATOM     64  C   UNL A   1      47.912  26.829  26.721  1.00  0.00     0.148 A 
ATOM     65  C   UNL A   1      48.232  27.245  23.958  1.00  0.00     0.002 A 
ATOM     66  C   UNL A   1      49.062  26.394  26.072  1.00  0.00     0.091 A 
ATOM     67  F   UNL A   1      47.712  26.613  28.028  1.00  0.00    -0.205 F 
ATOM     68  C   UNL A   1      49.217  26.588  24.690  1.00  0.00     0.022 A 
BRANCH  66  69
ATOM     69  S   UNL A   1      50.427  25.613  26.939  1.00  0.00     0.127 S 
ATOM     70  O   UNL A   1      50.815  26.661  27.883  1.00  0.00    -0.237 OA
ATOM     71  O   UNL A   1      49.778  24.453  27.551  1.00  0.00    -0.237 OA
ATOM     72  O   UNL A   1      51.419  25.290  25.923  1.00  0.00    -0.744 OA
ENDBRANCH  66  69
ENDBRANCH  48  62
BRANCH  49  73
ATOM     73  C   UNL A   1      38.736  30.599  30.841  1.00  0.00     0.023 A 
ATOM     74  C   UNL A   1      38.650  30.324  32.220  1.00  0.00     0.012 A 
ATOM     75  C   UNL A   1      37.694  31.313  30.218  1.00  0.00     0.148 A 
ATOM     76  C   UNL A   1      37.532  30.719  32.957  1.00  0.00     0.002 A 
ATOM     77  C   UNL A   1      36.611  31.754  30.969  1.00  0.00     0.091 A 
ATOM     78  F   UNL A   1      37.791  31.557  28.904  1.00  0.00    -0.205 F 
ATOM     79  C   UNL A   1      36.518  31.441  32.334  1.00  0.00     0.022 A 
BRANCH  77  80
ATOM     80  S   UNL A   1      35.326  32.803  30.281  1.00  0.00     0.127 S 
ATOM     81  O   UNL A   1      36.097  33.952  29.812  1.00  0.00    -0.237 OA
ATOM     82  O   UNL A   1      34.780  31.953  29.223  1.00  0.00    -0.237 OA
ATOM     83  O   UNL A   1      34.403  33.064  31.376  1.00  0.00    -0.744 OA
ENDBRANCH  77  80
ENDBRANCH  49  73
BRANCH  61  84
ATOM     84  C   UNL A   1      44.825  33.607  29.223  1.00  0.00     0.023 A 
ATOM     85  C   UNL A   1      45.543  33.847  30.412  1.00  0.00     0.012 A 
ATOM     86  C   UNL A   1      44.710  34.634  28.265  1.00  0.00     0.148 A 
ATOM     87  C   UNL A   1      46.104  35.100  30.659  1.00  0.00     0.002 A 
ATOM     88  C   UNL A   1      45.318  35.861  28.493  1.00  0.00     0.091 A 
ATOM     89  F   UNL A   1      44.008  34.389  27.148  1.00  0.00    -0.205 F 
ATOM     90  C   UNL A   1      46.003  36.101  29.695  1.00  0.00     0.022 A 
BRANCH  88  91
ATOM     91  S   UNL A   1      45.326  37.174  27.267  1.00  0.00     0.127 S 
ATOM     92  O   UNL A   1      46.036  38.238  27.975  1.00  0.00    -0.237 OA
ATOM     93  O   UNL A   1      46.077  36.565  26.168  1.00  0.00    -0.237 OA
ATOM     94  O   UNL A   1      43.928  37.451  26.963  1.00  0.00    -0.744 OA
ENDBRANCH  88  91
ENDBRANCH  61  84
ENDBRANCH  35  36
ENDBRANCH  27  30
ENDBRANCH  25  26
ENDBRANCH   1  25
TORSDOF 16
ENDMDL
