MODEL 1
REMARK VINA RESULT:     -12.4      0.000      0.000
REMARK SMILES C[C@H](Nc1ccc2c(c1)Cc1ccccc1-2)[C@@H](C)C(=O)NCCCNC(=O)c1ccc(-c2c3nc(c(-c4cccc(S(=O)(=O)[O-])c4F)c4ccc([nH]4)c(-c4cccc(S(=O)(=O)[O-])c4F)c4nc(c(-c5cccc(S(=O)(=O)[O-])c5F)c5ccc2[nH]5)C=C4)C=C3)cc1
REMARK SMILES IDX 23 1 22 2 21 3 19 4 20 5 17 7 18 8 2 9 1 10 3 11 4 13 5 14
REMARK SMILES IDX 9 15 6 16 8 17 7 18 10 19 16 20 11 21 15 22 12 23 14 24
REMARK SMILES IDX 13 25 24 26 25 27 26 28 27 30 28 31 29 32 90 33 30 34 89 35
REMARK SMILES IDX 31 36 32 37 33 38 83 39 34 40 88 41 82 42 84 43 35 44 87 45
REMARK SMILES IDX 81 46 80 47 36 49 68 50 48 51 67 52 49 53 52 54 66 55 85 56
REMARK SMILES IDX 50 57 51 58 65 60 86 61 53 62 37 63 38 64 46 65 39 66 41 67
REMARK SMILES IDX 47 68 40 69 42 70 43 71 44 72 45 73 69 74 70 75 78 76 71 77
REMARK SMILES IDX 73 78 79 79 72 80 74 81 75 82 76 83 77 84 54 85 55 86 63 87
REMARK SMILES IDX 56 88 58 89 64 90 57 91 59 92 60 93 61 94 62 95
REMARK H PARENT 21 6 3 12 25 29 84 48 52 59
REMARK Flexibility Score: inf
ROOT
ATOM      1  C   UNL A   1      35.649  22.220  24.290  1.00  0.00     0.042 C 
ENDROOT
BRANCH   1   2
ATOM      2  C   UNL A   1      35.605  23.707  23.952  1.00  0.00     0.117 C 
BRANCH   2   3
ATOM      3  N   UNL A   1      34.904  24.476  24.970  1.00  0.00    -0.356 N 
ATOM      4  C   UNL A   1      33.937  25.429  24.876  1.00  0.00     0.224 C 
ATOM      5  O   UNL A   1      33.545  25.942  25.928  1.00  0.00    -0.275 OA
ATOM      6  H   UNL A   1      35.180  24.272  25.892  1.00  0.00     0.163 HD
BRANCH   4   7
ATOM      7  C   UNL A   1      33.310  25.830  23.545  1.00  0.00     0.097 C 
ATOM      8  C   UNL A   1      33.536  27.326  23.331  1.00  0.00     0.020 C 
BRANCH   7   9
ATOM      9  C   UNL A   1      31.872  25.284  23.404  1.00  0.00     0.088 C 
ATOM     10  C   UNL A   1      30.866  26.449  23.445  1.00  0.00     0.031 C 
BRANCH   9  11
ATOM     11  N   UNL A   1      31.521  24.329  24.469  1.00  0.00    -0.382 N 
ATOM     12  H   UNL A   1      31.054  24.613  25.288  1.00  0.00     0.160 HD
BRANCH  11  13
ATOM     13  C   UNL A   1      31.889  22.993  24.250  1.00  0.00     0.035 A 
ATOM     14  C   UNL A   1      31.921  22.467  22.942  1.00  0.00     0.026 A 
ATOM     15  C   UNL A   1      32.121  22.131  25.331  1.00  0.00     0.030 A 
ATOM     16  C   UNL A   1      32.206  21.124  22.683  1.00  0.00     0.011 A 
ATOM     17  C   UNL A   1      32.408  20.795  25.072  1.00  0.00    -0.034 A 
ATOM     18  C   UNL A   1      32.457  20.294  23.755  1.00  0.00    -0.014 A 
ATOM     19  C   UNL A   1      32.701  19.680  26.062  1.00  0.00     0.072 C 
ATOM     20  C   UNL A   1      32.800  18.891  23.793  1.00  0.00    -0.015 A 
ATOM     21  C   UNL A   1      32.963  18.503  25.140  1.00  0.00    -0.036 A 
ATOM     22  C   UNL A   1      32.980  17.977  22.767  1.00  0.00     0.009 A 
ATOM     23  C   UNL A   1      33.309  17.206  25.477  1.00  0.00     0.005 A 
ATOM     24  C   UNL A   1      33.334  16.667  23.099  1.00  0.00     0.001 A 
ATOM     25  C   UNL A   1      33.498  16.286  24.441  1.00  0.00     0.000 A 
ENDBRANCH  11  13
ENDBRANCH   9  11
ENDBRANCH   7   9
ENDBRANCH   4   7
ENDBRANCH   2   3
ENDBRANCH   1   2
BRANCH   1  26
ATOM     26  C   UNL A   1      36.217  21.920  25.670  1.00  0.00     0.118 C 
BRANCH  26  27
ATOM     27  N   UNL A   1      37.186  20.832  25.648  1.00  0.00    -0.352 N 
ATOM     28  C   UNL A   1      38.550  20.869  25.793  1.00  0.00     0.251 C 
ATOM     29  H   UNL A   1      36.805  19.935  25.508  1.00  0.00     0.163 HD
ATOM     30  O   UNL A   1      39.213  19.865  25.533  1.00  0.00    -0.269 OA
BRANCH  28  31
ATOM     31  C   UNL A   1      39.221  22.105  26.246  1.00  0.00     0.039 A 
ATOM     32  C   UNL A   1      40.328  22.007  27.092  1.00  0.00     0.014 A 
ATOM     33  C   UNL A   1      38.754  23.361  25.849  1.00  0.00     0.014 A 
ATOM     34  C   UNL A   1      41.001  23.165  27.490  1.00  0.00     0.010 A 
ATOM     35  C   UNL A   1      39.477  24.503  26.170  1.00  0.00     0.010 A 
ATOM     36  C   UNL A   1      40.602  24.421  27.004  1.00  0.00    -0.014 A 
BRANCH  36  37
ATOM     37  C   UNL A   1      41.340  25.662  27.356  1.00  0.00     0.031 A 
ATOM     38  C   UNL A   1      40.657  26.745  28.151  1.00  0.00     0.074 A 
ATOM     39  C   UNL A   1      42.592  25.848  26.894  1.00  0.00     0.049 A 
ATOM     40  N   UNL A   1      41.103  27.928  28.486  1.00  0.00    -0.248 NA
ATOM     41  C   UNL A   1      39.283  26.474  28.606  1.00  0.00     0.031 C 
ATOM     42  C   UNL A   1      43.339  24.902  26.062  1.00  0.00     0.029 A 
ATOM     43  N   UNL A   1      43.451  26.910  27.037  1.00  0.00    -0.354 N 
ATOM     44  C   UNL A   1      40.061  28.550  29.163  1.00  0.00     0.074 A 
ATOM     45  C   UNL A   1      38.943  27.633  29.152  1.00  0.00     0.031 C 
ATOM     46  C   UNL A   1      44.544  25.420  25.776  1.00  0.00     0.029 A 
ATOM     47  C   UNL A   1      44.644  26.749  26.369  1.00  0.00     0.049 A 
ATOM     48  H   UNL A   1      43.234  27.710  27.567  1.00  0.00     0.167 HD
ATOM     49  C   UNL A   1      40.044  29.760  29.771  1.00  0.00     0.034 A 
ATOM     50  C   UNL A   1      45.694  27.584  26.240  1.00  0.00     0.034 A 
ATOM     51  C   UNL A   1      41.168  30.655  29.808  1.00  0.00     0.049 A 
ATOM     52  C   UNL A   1      45.648  28.922  26.929  1.00  0.00     0.074 A 
ATOM     53  C   UNL A   1      41.272  31.880  30.445  1.00  0.00     0.029 A 
ATOM     54  N   UNL A   1      42.382  30.426  29.180  1.00  0.00    -0.354 N 
ATOM     55  N   UNL A   1      44.702  29.436  27.678  1.00  0.00    -0.248 NA
ATOM     56  C   UNL A   1      46.831  29.783  26.786  1.00  0.00     0.031 C 
ATOM     57  C   UNL A   1      42.543  32.401  30.182  1.00  0.00     0.029 A 
ATOM     58  C   UNL A   1      43.241  31.486  29.412  1.00  0.00     0.049 A 
ATOM     59  H   UNL A   1      42.602  29.627  28.649  1.00  0.00     0.167 HD
ATOM     60  C   UNL A   1      45.193  30.654  28.132  1.00  0.00     0.074 A 
ATOM     61  C   UNL A   1      46.528  30.794  27.589  1.00  0.00     0.031 C 
ATOM     62  C   UNL A   1      44.591  31.580  28.917  1.00  0.00     0.034 A 
BRANCH  49  63
ATOM     63  C   UNL A   1      38.786  30.163  30.497  1.00  0.00     0.023 A 
ATOM     64  C   UNL A   1      38.644  29.846  31.865  1.00  0.00     0.012 A 
ATOM     65  C   UNL A   1      37.775  30.902  29.852  1.00  0.00     0.148 A 
ATOM     66  C   UNL A   1      37.504  30.228  32.570  1.00  0.00     0.002 A 
ATOM     67  C   UNL A   1      36.663  31.321  30.574  1.00  0.00     0.091 A 
ATOM     68  F   UNL A   1      37.918  31.179  28.549  1.00  0.00    -0.205 F 
ATOM     69  C   UNL A   1      36.519  30.974  31.928  1.00  0.00     0.022 A 
BRANCH  67  70
ATOM     70  S   UNL A   1      35.376  32.353  29.865  1.00  0.00     0.127 S 
ATOM     71  O   UNL A   1      34.849  31.486  28.810  1.00  0.00    -0.237 OA
ATOM     72  O   UNL A   1      34.476  32.544  31.002  1.00  0.00    -0.237 OA
ATOM     73  O   UNL A   1      36.038  33.563  29.400  1.00  0.00    -0.744 OA
ENDBRANCH  67  70
ENDBRANCH  49  63
BRANCH  50  74
ATOM     74  C   UNL A   1      46.905  27.164  25.477  1.00  0.00     0.023 A 
ATOM     75  C   UNL A   1      47.832  26.291  26.080  1.00  0.00     0.012 A 
ATOM     76  C   UNL A   1      47.151  27.627  24.170  1.00  0.00     0.148 A 
ATOM     77  C   UNL A   1      49.003  25.925  25.416  1.00  0.00     0.002 A 
ATOM     78  C   UNL A   1      48.292  27.213  23.491  1.00  0.00     0.091 A 
ATOM     79  F   UNL A   1      46.265  28.465  23.615  1.00  0.00    -0.205 F 
ATOM     80  C   UNL A   1      49.230  26.379  24.120  1.00  0.00     0.022 A 
BRANCH  78  81
ATOM     81  S   UNL A   1      48.602  27.647  21.777  1.00  0.00     0.127 S 
ATOM     82  O   UNL A   1      49.280  26.452  21.283  1.00  0.00    -0.237 OA
ATOM     83  O   UNL A   1      47.246  27.842  21.262  1.00  0.00    -0.237 OA
ATOM     84  O   UNL A   1      49.406  28.861  21.816  1.00  0.00    -0.744 OA
ENDBRANCH  78  81
ENDBRANCH  50  74
BRANCH  62  85
ATOM     85  C   UNL A   1      45.386  32.803  29.295  1.00  0.00     0.023 A 
ATOM     86  C   UNL A   1      46.204  32.788  30.442  1.00  0.00     0.012 A 
ATOM     87  C   UNL A   1      45.380  33.942  28.464  1.00  0.00     0.148 A 
ATOM     88  C   UNL A   1      46.973  33.902  30.777  1.00  0.00     0.002 A 
ATOM     89  C   UNL A   1      46.191  35.025  28.774  1.00  0.00     0.091 A 
ATOM     90  F   UNL A   1      44.584  33.941  27.385  1.00  0.00    -0.205 F 
ATOM     91  C   UNL A   1      46.977  35.013  29.938  1.00  0.00     0.022 A 
BRANCH  89  92
ATOM     92  S   UNL A   1      46.339  36.458  27.701  1.00  0.00     0.127 S 
ATOM     93  O   UNL A   1      46.845  35.855  26.469  1.00  0.00    -0.237 OA
ATOM     94  O   UNL A   1      44.956  36.932  27.626  1.00  0.00    -0.237 OA
ATOM     95  O   UNL A   1      47.256  37.370  28.369  1.00  0.00    -0.744 OA
ENDBRANCH  89  92
ENDBRANCH  62  85
ENDBRANCH  36  37
ENDBRANCH  28  31
ENDBRANCH  26  27
ENDBRANCH   1  26
TORSDOF 16
ENDMDL
MODEL 2
REMARK VINA RESULT:     -12.2      6.586     10.997
REMARK SMILES C[C@H](Nc1ccc2c(c1)Cc1ccccc1-2)[C@@H](C)C(=O)NCCCNC(=O)c1ccc(-c2c3nc(c(-c4cccc(S(=O)(=O)[O-])c4F)c4ccc([nH]4)c(-c4cccc(S(=O)(=O)[O-])c4F)c4nc(c(-c5cccc(S(=O)(=O)[O-])c5F)c5ccc2[nH]5)C=C4)C=C3)cc1
REMARK SMILES IDX 23 1 22 2 21 3 19 4 20 5 17 7 18 8 2 9 1 10 3 11 4 13 5 14
REMARK SMILES IDX 9 15 6 16 8 17 7 18 10 19 16 20 11 21 15 22 12 23 14 24
REMARK SMILES IDX 13 25 24 26 25 27 26 28 27 30 28 31 29 32 90 33 30 34 89 35
REMARK SMILES IDX 31 36 32 37 33 38 83 39 34 40 88 41 82 42 84 43 35 44 87 45
REMARK SMILES IDX 81 46 80 47 36 49 68 50 48 51 67 52 49 53 52 54 66 55 85 56
REMARK SMILES IDX 50 57 51 58 65 60 86 61 53 62 37 63 38 64 46 65 39 66 41 67
REMARK SMILES IDX 47 68 40 69 42 70 43 71 44 72 45 73 69 74 70 75 78 76 71 77
REMARK SMILES IDX 73 78 79 79 72 80 74 81 75 82 76 83 77 84 54 85 55 86 63 87
REMARK SMILES IDX 56 88 58 89 64 90 57 91 59 92 60 93 61 94 62 95
REMARK H PARENT 21 6 3 12 25 29 84 48 52 59
REMARK Flexibility Score: inf
ROOT
ATOM      1  C   UNL A   1      34.831  34.343  29.007  1.00  0.00     0.042 C 
ENDROOT
BRANCH   1   2
ATOM      2  C   UNL A   1      34.330  33.973  30.400  1.00  0.00     0.117 C 
BRANCH   2   3
ATOM      3  N   UNL A   1      34.573  35.034  31.365  1.00  0.00    -0.356 N 
ATOM      4  C   UNL A   1      35.035  35.003  32.645  1.00  0.00     0.224 C 
ATOM      5  O   UNL A   1      35.110  36.079  33.246  1.00  0.00    -0.275 OA
ATOM      6  H   UNL A   1      34.366  35.937  31.034  1.00  0.00     0.163 HD
BRANCH   4   7
ATOM      7  C   UNL A   1      35.495  33.714  33.318  1.00  0.00     0.097 C 
ATOM      8  C   UNL A   1      35.689  33.984  34.809  1.00  0.00     0.020 C 
BRANCH   7   9
ATOM      9  C   UNL A   1      36.652  33.047  32.542  1.00  0.00     0.088 C 
ATOM     10  C   UNL A   1      36.639  31.527  32.791  1.00  0.00     0.031 C 
BRANCH   9  11
ATOM     11  N   UNL A   1      37.973  33.569  32.933  1.00  0.00    -0.382 N 
ATOM     12  H   UNL A   1      38.272  33.575  33.871  1.00  0.00     0.160 HD
BRANCH  11  13
ATOM     13  C   UNL A   1      38.779  34.056  31.894  1.00  0.00     0.035 A 
ATOM     14  C   UNL A   1      38.237  34.267  30.609  1.00  0.00     0.026 A 
ATOM     15  C   UNL A   1      40.157  34.236  32.084  1.00  0.00     0.030 A 
ATOM     16  C   UNL A   1      39.018  34.677  29.526  1.00  0.00     0.011 A 
ATOM     17  C   UNL A   1      40.933  34.646  31.006  1.00  0.00    -0.034 A 
ATOM     18  C   UNL A   1      40.367  34.873  29.735  1.00  0.00    -0.014 A 
ATOM     19  C   UNL A   1      42.428  34.914  30.964  1.00  0.00     0.072 C 
ATOM     20  C   UNL A   1      41.401  35.313  28.827  1.00  0.00    -0.015 A 
ATOM     21  C   UNL A   1      42.625  35.359  29.526  1.00  0.00    -0.036 A 
ATOM     22  C   UNL A   1      41.336  35.669  27.489  1.00  0.00     0.009 A 
ATOM     23  C   UNL A   1      43.794  35.763  28.902  1.00  0.00     0.005 A 
ATOM     24  C   UNL A   1      42.511  36.082  26.854  1.00  0.00     0.001 A 
ATOM     25  C   UNL A   1      43.727  36.130  27.555  1.00  0.00     0.000 A 
ENDBRANCH  11  13
ENDBRANCH   9  11
ENDBRANCH   7   9
ENDBRANCH   4   7
ENDBRANCH   2   3
ENDBRANCH   1   2
BRANCH   1  26
ATOM     26  C   UNL A   1      35.479  33.186  28.259  1.00  0.00     0.118 C 
BRANCH  26  27
ATOM     27  N   UNL A   1      34.531  32.121  27.954  1.00  0.00    -0.352 N 
ATOM     28  C   UNL A   1      34.741  30.772  27.820  1.00  0.00     0.251 C 
ATOM     29  H   UNL A   1      33.600  32.414  27.826  1.00  0.00     0.163 HD
ATOM     30  O   UNL A   1      33.848  30.065  27.352  1.00  0.00    -0.269 OA
BRANCH  28  31
ATOM     31  C   UNL A   1      36.029  30.171  28.221  1.00  0.00     0.039 A 
ATOM     32  C   UNL A   1      37.105  30.210  27.330  1.00  0.00     0.014 A 
ATOM     33  C   UNL A   1      36.176  29.557  29.468  1.00  0.00     0.014 A 
ATOM     34  C   UNL A   1      38.342  29.687  27.715  1.00  0.00     0.010 A 
ATOM     35  C   UNL A   1      37.429  29.121  29.883  1.00  0.00     0.010 A 
ATOM     36  C   UNL A   1      38.525  29.170  29.008  1.00  0.00    -0.014 A 
BRANCH  36  37
ATOM     37  C   UNL A   1      39.846  28.669  29.466  1.00  0.00     0.031 A 
ATOM     38  C   UNL A   1      40.590  29.393  30.558  1.00  0.00     0.074 A 
ATOM     39  C   UNL A   1      40.412  27.615  28.846  1.00  0.00     0.049 A 
ATOM     40  N   UNL A   1      41.785  29.161  31.036  1.00  0.00    -0.248 NA
ATOM     41  C   UNL A   1      39.914  30.547  31.176  1.00  0.00     0.031 C 
ATOM     42  C   UNL A   1      39.820  26.868  27.733  1.00  0.00     0.029 A 
ATOM     43  N   UNL A   1      41.624  27.002  29.046  1.00  0.00    -0.354 N 
ATOM     44  C   UNL A   1      42.014  30.150  31.986  1.00  0.00     0.074 A 
ATOM     45  C   UNL A   1      40.854  31.013  31.984  1.00  0.00     0.031 C 
ATOM     46  C   UNL A   1      40.665  25.895  27.356  1.00  0.00     0.029 A 
ATOM     47  C   UNL A   1      41.873  25.970  28.170  1.00  0.00     0.049 A 
ATOM     48  H   UNL A   1      42.255  27.275  29.750  1.00  0.00     0.167 HD
ATOM     49  C   UNL A   1      43.076  30.307  32.811  1.00  0.00     0.034 A 
ATOM     50  C   UNL A   1      42.958  25.182  28.031  1.00  0.00     0.034 A 
ATOM     51  C   UNL A   1      44.213  29.428  32.832  1.00  0.00     0.049 A 
ATOM     52  C   UNL A   1      44.124  25.379  28.964  1.00  0.00     0.074 A 
ATOM     53  C   UNL A   1      45.316  29.467  33.668  1.00  0.00     0.029 A 
ATOM     54  N   UNL A   1      44.396  28.352  31.978  1.00  0.00    -0.354 N 
ATOM     55  N   UNL A   1      44.263  26.238  29.945  1.00  0.00    -0.248 NA
ATOM     56  C   UNL A   1      45.269  24.473  28.794  1.00  0.00     0.031 C 
ATOM     57  C   UNL A   1      46.177  28.427  33.302  1.00  0.00     0.029 A 
ATOM     58  C   UNL A   1      45.594  27.720  32.263  1.00  0.00     0.049 A 
ATOM     59  H   UNL A   1      43.767  28.076  31.273  1.00  0.00     0.167 HD
ATOM     60  C   UNL A   1      45.486  25.944  30.539  1.00  0.00     0.074 A 
ATOM     61  C   UNL A   1      46.039  24.817  29.817  1.00  0.00     0.031 C 
ATOM     62  C   UNL A   1      46.101  26.559  31.577  1.00  0.00     0.034 A 
BRANCH  49  63
ATOM     63  C   UNL A   1      43.034  31.443  33.802  1.00  0.00     0.023 A 
ATOM     64  C   UNL A   1      43.538  32.707  33.429  1.00  0.00     0.012 A 
ATOM     65  C   UNL A   1      42.445  31.282  35.071  1.00  0.00     0.148 A 
ATOM     66  C   UNL A   1      43.488  33.782  34.314  1.00  0.00     0.002 A 
ATOM     67  C   UNL A   1      42.356  32.372  35.931  1.00  0.00     0.091 A 
ATOM     68  F   UNL A   1      41.987  30.070  35.415  1.00  0.00    -0.205 F 
ATOM     69  C   UNL A   1      42.889  33.618  35.559  1.00  0.00     0.022 A 
BRANCH  67  70
ATOM     70  S   UNL A   1      41.532  32.289  37.524  1.00  0.00     0.127 S 
ATOM     71  O   UNL A   1      40.189  31.855  37.139  1.00  0.00    -0.237 OA
ATOM     72  O   UNL A   1      42.322  31.276  38.224  1.00  0.00    -0.237 OA
ATOM     73  O   UNL A   1      41.614  33.626  38.091  1.00  0.00    -0.744 OA
ENDBRANCH  67  70
ENDBRANCH  49  63
BRANCH  50  74
ATOM     74  C   UNL A   1      42.977  24.096  27.009  1.00  0.00     0.023 A 
ATOM     75  C   UNL A   1      43.674  24.298  25.801  1.00  0.00     0.012 A 
ATOM     76  C   UNL A   1      42.307  22.875  27.218  1.00  0.00     0.148 A 
ATOM     77  C   UNL A   1      43.663  23.325  24.801  1.00  0.00     0.002 A 
ATOM     78  C   UNL A   1      42.349  21.886  26.240  1.00  0.00     0.091 A 
ATOM     79  F   UNL A   1      41.641  22.703  28.368  1.00  0.00    -0.205 F 
ATOM     80  C   UNL A   1      43.008  22.117  25.023  1.00  0.00     0.022 A 
BRANCH  78  81
ATOM     81  S   UNL A   1      41.640  20.255  26.491  1.00  0.00     0.127 S 
ATOM     82  O   UNL A   1      42.226  19.868  27.772  1.00  0.00    -0.237 OA
ATOM     83  O   UNL A   1      40.207  20.549  26.534  1.00  0.00    -0.237 OA
ATOM     84  O   UNL A   1      42.054  19.464  25.340  1.00  0.00    -0.744 OA
ENDBRANCH  78  81
ENDBRANCH  50  74
BRANCH  62  85
ATOM     85  C   UNL A   1      47.417  25.994  32.046  1.00  0.00     0.023 A 
ATOM     86  C   UNL A   1      48.619  26.398  31.433  1.00  0.00     0.012 A 
ATOM     87  C   UNL A   1      47.462  25.117  33.149  1.00  0.00     0.148 A 
ATOM     88  C   UNL A   1      49.844  25.909  31.886  1.00  0.00     0.002 A 
ATOM     89  C   UNL A   1      48.689  24.678  33.629  1.00  0.00     0.091 A 
ATOM     90  F   UNL A   1      46.306  24.733  33.708  1.00  0.00    -0.205 F 
ATOM     91  C   UNL A   1      49.880  25.061  32.991  1.00  0.00     0.022 A 
BRANCH  89  92
ATOM     92  S   UNL A   1      48.841  23.667  35.105  1.00  0.00     0.127 S 
ATOM     93  O   UNL A   1      50.284  23.703  35.343  1.00  0.00    -0.237 OA
ATOM     94  O   UNL A   1      48.043  24.416  36.077  1.00  0.00    -0.237 OA
ATOM     95  O   UNL A   1      48.301  22.359  34.758  1.00  0.00    -0.744 OA
ENDBRANCH  89  92
ENDBRANCH  62  85
ENDBRANCH  36  37
ENDBRANCH  28  31
ENDBRANCH  26  27
ENDBRANCH   1  26
TORSDOF 16
ENDMDL
MODEL 3
REMARK VINA RESULT:     -12.2      2.485      4.624
REMARK SMILES C[C@H](Nc1ccc2c(c1)Cc1ccccc1-2)[C@@H](C)C(=O)NCCCNC(=O)c1ccc(-c2c3nc(c(-c4cccc(S(=O)(=O)[O-])c4F)c4ccc([nH]4)c(-c4cccc(S(=O)(=O)[O-])c4F)c4nc(c(-c5cccc(S(=O)(=O)[O-])c5F)c5ccc2[nH]5)C=C4)C=C3)cc1
REMARK SMILES IDX 23 1 22 2 21 3 19 4 20 5 17 7 18 8 2 9 1 10 3 11 4 13 5 14
REMARK SMILES IDX 9 15 6 16 8 17 7 18 10 19 16 20 11 21 15 22 12 23 14 24
REMARK SMILES IDX 13 25 24 26 25 27 26 28 27 30 28 31 29 32 90 33 30 34 89 35
REMARK SMILES IDX 31 36 32 37 33 38 83 39 34 40 88 41 82 42 84 43 35 44 87 45
REMARK SMILES IDX 81 46 80 47 36 49 68 50 48 51 67 52 49 53 52 54 66 55 85 56
REMARK SMILES IDX 50 57 51 58 65 60 86 61 53 62 37 63 38 64 46 65 39 66 41 67
REMARK SMILES IDX 47 68 40 69 42 70 43 71 44 72 45 73 69 74 70 75 78 76 71 77
REMARK SMILES IDX 73 78 79 79 72 80 74 81 75 82 76 83 77 84 54 85 55 86 63 87
REMARK SMILES IDX 56 88 58 89 64 90 57 91 59 92 60 93 61 94 62 95
REMARK H PARENT 21 6 3 12 25 29 84 48 52 59
REMARK Flexibility Score: inf
ROOT
ATOM      1  C   UNL A   1      38.073  19.948  24.938  1.00  0.00     0.042 C 
ENDROOT
BRANCH   1   2
ATOM      2  C   UNL A   1      36.724  20.536  25.341  1.00  0.00     0.117 C 
BRANCH   2   3
ATOM      3  N   UNL A   1      36.831  21.938  25.715  1.00  0.00    -0.356 N 
ATOM      4  C   UNL A   1      36.087  23.024  25.370  1.00  0.00     0.224 C 
ATOM      5  O   UNL A   1      36.438  24.117  25.824  1.00  0.00    -0.275 OA
ATOM      6  H   UNL A   1      37.575  22.138  26.327  1.00  0.00     0.163 HD
BRANCH   4   7
ATOM      7  C   UNL A   1      34.839  22.919  24.501  1.00  0.00     0.097 C 
ATOM      8  C   UNL A   1      35.228  23.200  23.050  1.00  0.00     0.020 C 
BRANCH   7   9
ATOM      9  C   UNL A   1      33.656  23.709  25.103  1.00  0.00     0.088 C 
ATOM     10  C   UNL A   1      33.397  23.239  26.546  1.00  0.00     0.031 C 
BRANCH   9  11
ATOM     11  N   UNL A   1      32.412  23.544  24.331  1.00  0.00    -0.382 N 
ATOM     12  H   UNL A   1      32.028  22.656  24.148  1.00  0.00     0.160 HD
BRANCH  11  13
ATOM     13  C   UNL A   1      31.806  24.723  23.872  1.00  0.00     0.035 A 
ATOM     14  C   UNL A   1      32.577  25.723  23.245  1.00  0.00     0.026 A 
ATOM     15  C   UNL A   1      30.450  24.975  24.128  1.00  0.00     0.030 A 
ATOM     16  C   UNL A   1      32.031  26.945  22.842  1.00  0.00     0.011 A 
ATOM     17  C   UNL A   1      29.908  26.189  23.724  1.00  0.00    -0.034 A 
ATOM     18  C   UNL A   1      30.691  27.168  23.078  1.00  0.00    -0.014 A 
ATOM     19  C   UNL A   1      28.480  26.687  23.878  1.00  0.00     0.072 C 
ATOM     20  C   UNL A   1      29.860  28.304  22.755  1.00  0.00    -0.015 A 
ATOM     21  C   UNL A   1      28.548  28.045  23.203  1.00  0.00    -0.036 A 
ATOM     22  C   UNL A   1      30.166  29.494  22.112  1.00  0.00     0.009 A 
ATOM     23  C   UNL A   1      27.529  28.964  23.014  1.00  0.00     0.005 A 
ATOM     24  C   UNL A   1      29.142  30.423  21.913  1.00  0.00     0.001 A 
ATOM     25  C   UNL A   1      27.836  30.159  22.358  1.00  0.00     0.000 A 
ENDBRANCH  11  13
ENDBRANCH   9  11
ENDBRANCH   7   9
ENDBRANCH   4   7
ENDBRANCH   2   3
ENDBRANCH   1   2
BRANCH   1  26
ATOM     26  C   UNL A   1      39.211  20.324  25.876  1.00  0.00     0.118 C 
BRANCH  26  27
ATOM     27  N   UNL A   1      40.220  19.276  25.973  1.00  0.00    -0.352 N 
ATOM     28  C   UNL A   1      41.583  19.379  26.087  1.00  0.00     0.251 C 
ATOM     29  H   UNL A   1      39.870  18.356  25.956  1.00  0.00     0.163 HD
ATOM     30  O   UNL A   1      42.280  18.374  25.944  1.00  0.00    -0.269 OA
BRANCH  28  31
ATOM     31  C   UNL A   1      42.215  20.686  26.366  1.00  0.00     0.039 A 
ATOM     32  C   UNL A   1      42.564  21.515  25.297  1.00  0.00     0.014 A 
ATOM     33  C   UNL A   1      42.476  21.089  27.678  1.00  0.00     0.014 A 
ATOM     34  C   UNL A   1      43.119  22.772  25.548  1.00  0.00     0.010 A 
ATOM     35  C   UNL A   1      42.942  22.375  27.928  1.00  0.00     0.010 A 
ATOM     36  C   UNL A   1      43.280  23.228  26.867  1.00  0.00    -0.014 A 
BRANCH  36  37
ATOM     37  C   UNL A   1      43.804  24.586  27.162  1.00  0.00     0.031 A 
ATOM     38  C   UNL A   1      42.882  25.652  27.693  1.00  0.00     0.074 A 
ATOM     39  C   UNL A   1      45.088  24.882  26.877  1.00  0.00     0.049 A 
ATOM     40  N   UNL A   1      43.131  26.914  27.933  1.00  0.00    -0.248 NA
ATOM     41  C   UNL A   1      41.489  25.256  27.964  1.00  0.00     0.031 C 
ATOM     42  C   UNL A   1      46.065  23.954  26.301  1.00  0.00     0.029 A 
ATOM     43  N   UNL A   1      45.788  26.056  27.009  1.00  0.00    -0.354 N 
ATOM     44  C   UNL A   1      41.927  27.466  28.355  1.00  0.00     0.074 A 
ATOM     45  C   UNL A   1      40.936  26.414  28.294  1.00  0.00     0.031 C 
ATOM     46  C   UNL A   1      47.236  24.591  26.138  1.00  0.00     0.029 A 
ATOM     47  C   UNL A   1      47.087  25.979  26.559  1.00  0.00     0.049 A 
ATOM     48  H   UNL A   1      45.397  26.875  27.389  1.00  0.00     0.167 HD
ATOM     49  C   UNL A   1      41.673  28.723  28.788  1.00  0.00     0.034 A 
ATOM     50  C   UNL A   1      48.044  26.925  26.484  1.00  0.00     0.034 A 
ATOM     51  C   UNL A   1      42.669  29.756  28.879  1.00  0.00     0.049 A 
ATOM     52  C   UNL A   1      47.734  28.314  26.975  1.00  0.00     0.074 A 
ATOM     53  C   UNL A   1      42.527  31.048  29.358  1.00  0.00     0.029 A 
ATOM     54  N   UNL A   1      43.989  29.620  28.480  1.00  0.00    -0.354 N 
ATOM     55  N   UNL A   1      46.624  28.780  27.495  1.00  0.00    -0.248 NA
ATOM     56  C   UNL A   1      48.821  29.301  26.902  1.00  0.00     0.031 C 
ATOM     57  C   UNL A   1      43.758  31.698  29.226  1.00  0.00     0.029 A 
ATOM     58  C   UNL A   1      44.674  30.802  28.700  1.00  0.00     0.049 A 
ATOM     59  H   UNL A   1      44.382  28.802  28.099  1.00  0.00     0.167 HD
ATOM     60  C   UNL A   1      46.894  30.096  27.855  1.00  0.00     0.074 A 
ATOM     61  C   UNL A   1      48.277  30.347  27.510  1.00  0.00     0.031 C 
ATOM     62  C   UNL A   1      46.068  31.016  28.409  1.00  0.00     0.034 A 
BRANCH  49  63
ATOM     63  C   UNL A   1      40.274  29.037  29.254  1.00  0.00     0.023 A 
ATOM     64  C   UNL A   1      39.304  29.435  28.310  1.00  0.00     0.012 A 
ATOM     65  C   UNL A   1      39.901  28.881  30.603  1.00  0.00     0.148 A 
ATOM     66  C   UNL A   1      37.995  29.707  28.707  1.00  0.00     0.002 A 
ATOM     67  C   UNL A   1      38.583  29.107  30.983  1.00  0.00     0.091 A 
ATOM     68  F   UNL A   1      40.840  28.519  31.489  1.00  0.00    -0.205 F 
ATOM     69  C   UNL A   1      37.633  29.533  30.039  1.00  0.00     0.022 A 
BRANCH  67  70
ATOM     70  S   UNL A   1      37.993  28.835  32.656  1.00  0.00     0.127 S 
ATOM     71  O   UNL A   1      36.624  29.345  32.573  1.00  0.00    -0.237 OA
ATOM     72  O   UNL A   1      38.095  27.381  32.784  1.00  0.00    -0.237 OA
ATOM     73  O   UNL A   1      38.884  29.588  33.527  1.00  0.00    -0.744 OA
ENDBRANCH  67  70
ENDBRANCH  49  63
BRANCH  50  74
ATOM     74  C   UNL A   1      49.405  26.584  25.977  1.00  0.00     0.023 A 
ATOM     75  C   UNL A   1      50.260  25.797  26.774  1.00  0.00     0.012 A 
ATOM     76  C   UNL A   1      49.862  27.040  24.726  1.00  0.00     0.148 A 
ATOM     77  C   UNL A   1      51.559  25.509  26.355  1.00  0.00     0.002 A 
ATOM     78  C   UNL A   1      51.138  26.701  24.288  1.00  0.00     0.091 A 
ATOM     79  F   UNL A   1      49.040  27.796  23.986  1.00  0.00    -0.205 F 
ATOM     80  C   UNL A   1      51.996  25.954  25.111  1.00  0.00     0.022 A 
BRANCH  78  81
ATOM     81  S   UNL A   1      51.737  27.125  22.649  1.00  0.00     0.127 S 
ATOM     82  O   UNL A   1      52.930  26.289  22.542  1.00  0.00    -0.237 OA
ATOM     83  O   UNL A   1      50.619  26.713  21.800  1.00  0.00    -0.237 OA
ATOM     84  O   UNL A   1      51.971  28.563  22.674  1.00  0.00    -0.744 OA
ENDBRANCH  78  81
ENDBRANCH  50  74
BRANCH  62  85
ATOM     85  C   UNL A   1      46.648  32.367  28.740  1.00  0.00     0.023 A 
ATOM     86  C   UNL A   1      47.212  32.603  30.009  1.00  0.00     0.012 A 
ATOM     87  C   UNL A   1      46.701  33.379  27.760  1.00  0.00     0.148 A 
ATOM     88  C   UNL A   1      47.785  33.838  30.311  1.00  0.00     0.002 A 
ATOM     89  C   UNL A   1      47.322  34.587  28.050  1.00  0.00     0.091 A 
ATOM     90  F   UNL A   1      46.145  33.139  26.564  1.00  0.00    -0.205 F 
ATOM     91  C   UNL A   1      47.852  34.823  29.328  1.00  0.00     0.022 A 
BRANCH  89  92
ATOM     92  S   UNL A   1      47.547  35.875  26.819  1.00  0.00     0.127 S 
ATOM     93  O   UNL A   1      46.246  36.544  26.849  1.00  0.00    -0.237 OA
ATOM     94  O   UNL A   1      48.648  36.655  27.385  1.00  0.00    -0.237 OA
ATOM     95  O   UNL A   1      47.866  35.193  25.573  1.00  0.00    -0.744 OA
ENDBRANCH  89  92
ENDBRANCH  62  85
ENDBRANCH  36  37
ENDBRANCH  28  31
ENDBRANCH  26  27
ENDBRANCH   1  26
TORSDOF 16
ENDMDL
