MODEL 1
REMARK VINA RESULT:      -9.5      0.000      0.000
REMARK SMILES Cc1c(CC(=O)N[C@H](CO)C(=O)NCCCNC(=O)c2ccc(-c3c4nc(c(-c5cccc(S(=O)(=O)[O-])c5F)c5ccc([nH]5)c(-c5cccc(S(=O)(=O)[O-])c5F)c5nc(c(-c6cccc(S(=O)(=O)[O-])c6F)c6ccc3[nH]6)C=C5)C=C4)cc2)cc(-c2ccc(S(C)(=O)=O)cc2)n1-c1cccc(F)c1
REMARK SMILES IDX 14 1 13 2 11 3 12 4 8 6 7 7 5 8 6 9 4 11 3 12 1 13 2 14
REMARK SMILES IDX 95 15 83 16 84 17 96 18 97 19 102 20 98 21 100 22 99 23
REMARK SMILES IDX 101 24 85 25 86 26 94 27 87 28 93 29 88 30 89 31 90 32 91 33
REMARK SMILES IDX 92 34 9 35 10 36 15 38 16 39 17 40 18 41 19 43 20 44 21 45
REMARK SMILES IDX 82 46 22 47 81 48 23 49 24 50 25 51 75 52 26 53 80 54 74 55
REMARK SMILES IDX 76 56 27 57 79 58 73 59 72 60 28 62 60 63 40 64 59 65 41 66
REMARK SMILES IDX 44 67 58 68 77 69 42 70 43 71 57 73 78 74 45 75 29 76 30 77
REMARK SMILES IDX 38 78 31 79 33 80 39 81 32 82 34 83 35 84 36 85 37 86 61 87
REMARK SMILES IDX 62 88 70 89 63 90 65 91 71 92 64 93 66 94 67 95 68 96 69 97
REMARK SMILES IDX 46 98 47 99 55 100 48 101 50 102 56 103 49 104 51 105 52 106
REMARK SMILES IDX 53 107 54 108
REMARK H PARENT 13 5 7 10 10 37 17 42 76 61 44 72
REMARK Flexibility Score: inf
ROOT
ATOM      1  C   UNL A   1      45.356  28.221  36.735  1.00  0.00     0.117 C 
ENDROOT
BRANCH   1   2
ATOM      2  N   UNL A   1      45.595  26.755  36.772  1.00  0.00    -0.354 N 
ATOM      3  C   UNL A   1      45.424  25.636  36.007  1.00  0.00     0.244 C 
ATOM      4  O   UNL A   1      46.191  24.714  36.352  1.00  0.00    -0.273 OA
ATOM      5  H   UNL A   1      46.013  26.509  37.629  1.00  0.00     0.163 HD
BRANCH   3   6
ATOM      6  C   UNL A   1      44.338  25.233  34.939  1.00  0.00     0.197 C 
BRANCH   6   7
ATOM      7  N   UNL A   1      42.888  25.179  35.172  1.00  0.00    -0.342 N 
ATOM      8  C   UNL A   1      41.902  26.085  34.938  1.00  0.00     0.225 C 
ATOM      9  O   UNL A   1      40.813  25.914  35.492  1.00  0.00    -0.275 OA
ATOM     10  H   UNL A   1      42.574  24.335  35.569  1.00  0.00     0.164 HD
BRANCH   8  11
ATOM     11  C   UNL A   1      42.149  27.238  33.993  1.00  0.00     0.137 C 
BRANCH  11  12
ATOM     12  C   UNL A   1      41.134  28.325  34.052  1.00  0.00    -0.017 A 
ATOM     13  C   UNL A   1      41.866  29.626  36.160  1.00  0.00     0.065 C 
ATOM     14  C   UNL A   1      41.049  29.392  34.931  1.00  0.00     0.024 A 
ATOM     15  N   UNL A   1      40.003  30.213  34.512  1.00  0.00    -0.313 N 
ATOM     16  C   UNL A   1      40.034  28.435  33.161  1.00  0.00     0.033 A 
ATOM     17  C   UNL A   1      39.432  29.660  33.360  1.00  0.00     0.053 A 
BRANCH  15  18
ATOM     18  C   UNL A   1      39.585  31.419  35.137  1.00  0.00     0.049 A 
ATOM     19  C   UNL A   1      40.187  32.631  34.770  1.00  0.00     0.027 A 
ATOM     20  C   UNL A   1      38.625  31.387  36.152  1.00  0.00     0.065 A 
ATOM     21  C   UNL A   1      39.827  33.812  35.418  1.00  0.00     0.005 A 
ATOM     22  C   UNL A   1      38.284  32.571  36.792  1.00  0.00     0.125 A 
ATOM     23  C   UNL A   1      38.874  33.781  36.435  1.00  0.00     0.039 A 
ATOM     24  F   UNL A   1      37.386  32.547  37.785  1.00  0.00    -0.207 F 
ENDBRANCH  15  18
BRANCH  17  25
ATOM     25  C   UNL A   1      38.479  30.326  32.458  1.00  0.00    -0.001 A 
ATOM     26  C   UNL A   1      37.109  30.361  32.764  1.00  0.00     0.011 A 
ATOM     27  C   UNL A   1      38.930  30.979  31.302  1.00  0.00     0.011 A 
ATOM     28  C   UNL A   1      36.195  30.943  31.887  1.00  0.00     0.021 A 
ATOM     29  C   UNL A   1      38.022  31.575  30.422  1.00  0.00     0.021 A 
ATOM     30  C   UNL A   1      36.658  31.520  30.703  1.00  0.00     0.067 A 
BRANCH  30  31
ATOM     31  S   UNL A   1      35.460  32.177  29.566  1.00  0.00     0.175 S 
ATOM     32  C   UNL A   1      36.238  33.657  28.967  1.00  0.00     0.163 C 
ATOM     33  O   UNL A   1      35.331  31.257  28.486  1.00  0.00    -0.224 OA
ATOM     34  O   UNL A   1      34.296  32.607  30.361  1.00  0.00    -0.224 OA
ENDBRANCH  30  31
ENDBRANCH  17  25
ENDBRANCH  11  12
ENDBRANCH   8  11
ENDBRANCH   6   7
BRANCH   6  35
ATOM     35  C   UNL A   1      44.850  24.077  34.035  1.00  0.00     0.191 C 
BRANCH  35  36
ATOM     36  O   UNL A   1      46.132  24.349  33.455  1.00  0.00    -0.394 OA
ATOM     37  H   UNL A   1      46.805  24.376  34.154  1.00  0.00     0.210 HD
ENDBRANCH  35  36
ENDBRANCH   6  35
ENDBRANCH   3   6
ENDBRANCH   1   2
BRANCH   1  38
ATOM     38  C   UNL A   1      46.615  29.195  36.901  1.00  0.00     0.042 C 
BRANCH  38  39
ATOM     39  C   UNL A   1      46.565  30.666  37.625  1.00  0.00     0.118 C 
BRANCH  39  40
ATOM     40  N   UNL A   1      46.315  31.865  36.679  1.00  0.00    -0.352 N 
ATOM     41  C   UNL A   1      45.879  32.292  35.382  1.00  0.00     0.251 C 
ATOM     42  H   UNL A   1      46.559  32.676  37.179  1.00  0.00     0.163 HD
ATOM     43  O   UNL A   1      46.026  33.521  35.239  1.00  0.00    -0.269 OA
BRANCH  41  44
ATOM     44  C   UNL A   1      45.248  31.595  34.124  1.00  0.00     0.039 A 
ATOM     45  C   UNL A   1      45.930  31.185  32.919  1.00  0.00     0.014 A 
ATOM     46  C   UNL A   1      43.920  31.484  33.903  1.00  0.00     0.014 A 
ATOM     47  C   UNL A   1      45.315  30.463  31.653  1.00  0.00     0.010 A 
ATOM     48  C   UNL A   1      43.394  30.887  32.624  1.00  0.00     0.010 A 
ATOM     49  C   UNL A   1      43.939  30.186  31.439  1.00  0.00    -0.014 A 
BRANCH  49  50
ATOM     50  C   UNL A   1      43.286  28.548  30.873  1.00  0.00     0.031 A 
ATOM     51  C   UNL A   1      42.019  29.076  30.298  1.00  0.00     0.074 A 
ATOM     52  C   UNL A   1      43.475  27.103  30.456  1.00  0.00     0.049 A 
ATOM     53  N   UNL A   1      42.168  30.239  29.719  1.00  0.00    -0.248 NA
ATOM     54  C   UNL A   1      40.958  28.329  29.672  1.00  0.00     0.031 C 
ATOM     55  C   UNL A   1      44.623  26.168  30.644  1.00  0.00     0.029 A 
ATOM     56  N   UNL A   1      42.636  26.095  29.561  1.00  0.00    -0.354 N 
ATOM     57  C   UNL A   1      42.314  29.796  28.451  1.00  0.00     0.074 A 
ATOM     58  C   UNL A   1      41.117  28.884  28.455  1.00  0.00     0.031 C 
ATOM     59  C   UNL A   1      44.489  24.946  30.017  1.00  0.00     0.029 A 
ATOM     60  C   UNL A   1      43.217  24.749  29.252  1.00  0.00     0.049 A 
ATOM     61  H   UNL A   1      41.749  26.350  29.217  1.00  0.00     0.167 HD
ATOM     62  C   UNL A   1      43.514  29.660  27.740  1.00  0.00     0.034 A 
ATOM     63  C   UNL A   1      42.966  23.516  28.484  1.00  0.00     0.034 A 
ATOM     64  C   UNL A   1      43.264  29.312  26.391  1.00  0.00     0.049 A 
ATOM     65  C   UNL A   1      43.289  24.261  27.220  1.00  0.00     0.074 A 
ATOM     66  C   UNL A   1      42.124  29.061  25.681  1.00  0.00     0.029 A 
ATOM     67  N   UNL A   1      44.271  28.714  25.664  1.00  0.00    -0.354 N 
ATOM     68  N   UNL A   1      44.409  24.228  26.555  1.00  0.00    -0.248 NA
ATOM     69  C   UNL A   1      42.144  24.854  26.512  1.00  0.00     0.031 C 
ATOM     70  C   UNL A   1      42.382  27.687  25.495  1.00  0.00     0.029 A 
ATOM     71  C   UNL A   1      43.779  27.451  25.508  1.00  0.00     0.049 A 
ATOM     72  H   UNL A   1      45.120  29.096  25.344  1.00  0.00     0.167 HD
ATOM     73  C   UNL A   1      44.107  25.104  25.539  1.00  0.00     0.074 A 
ATOM     74  C   UNL A   1      42.697  24.962  25.305  1.00  0.00     0.031 C 
ATOM     75  C   UNL A   1      44.693  26.329  25.585  1.00  0.00     0.034 A 
BRANCH  62  76
ATOM     76  C   UNL A   1      45.096  29.802  28.075  1.00  0.00     0.023 A 
ATOM     77  C   UNL A   1      45.984  28.844  28.670  1.00  0.00     0.012 A 
ATOM     78  C   UNL A   1      45.714  31.048  27.833  1.00  0.00     0.148 A 
ATOM     79  C   UNL A   1      47.260  29.170  29.201  1.00  0.00     0.002 A 
ATOM     80  C   UNL A   1      47.034  31.327  28.226  1.00  0.00     0.091 A 
ATOM     81  F   UNL A   1      44.977  31.999  27.242  1.00  0.00    -0.205 F 
ATOM     82  C   UNL A   1      47.786  30.426  28.981  1.00  0.00     0.022 A 
BRANCH  80  83
ATOM     83  S   UNL A   1      47.820  32.851  27.710  1.00  0.00     0.127 S 
ATOM     84  O   UNL A   1      47.738  32.752  26.254  1.00  0.00    -0.237 OA
ATOM     85  O   UNL A   1      46.979  33.887  28.305  1.00  0.00    -0.237 OA
ATOM     86  O   UNL A   1      49.162  32.778  28.275  1.00  0.00    -0.744 OA
ENDBRANCH  80  83
ENDBRANCH  62  76
BRANCH  63  87
ATOM     87  C   UNL A   1      42.364  22.156  27.519  1.00  0.00     0.023 A 
ATOM     88  C   UNL A   1      40.976  21.853  27.636  1.00  0.00     0.012 A 
ATOM     89  C   UNL A   1      43.044  21.078  26.754  1.00  0.00     0.148 A 
ATOM     90  C   UNL A   1      40.347  20.680  27.067  1.00  0.00     0.002 A 
ATOM     91  C   UNL A   1      42.425  19.876  26.266  1.00  0.00     0.091 A 
ATOM     92  F   UNL A   1      44.320  21.197  26.376  1.00  0.00    -0.205 F 
ATOM     93  C   UNL A   1      41.063  19.686  26.403  1.00  0.00     0.022 A 
BRANCH  91  94
ATOM     94  S   UNL A   1      43.372  18.516  25.463  1.00  0.00     0.127 S 
ATOM     95  O   UNL A   1      42.459  17.371  25.527  1.00  0.00    -0.237 OA
ATOM     96  O   UNL A   1      43.574  19.037  24.111  1.00  0.00    -0.237 OA
ATOM     97  O   UNL A   1      44.576  18.355  26.268  1.00  0.00    -0.744 OA
ENDBRANCH  91  94
ENDBRANCH  63  87
BRANCH  75  98
ATOM     98  C   UNL A   1      46.162  26.233  25.968  1.00  0.00     0.023 A 
ATOM     99  C   UNL A   1      46.387  25.592  27.201  1.00  0.00     0.012 A 
ATOM    100  C   UNL A   1      47.248  26.961  25.413  1.00  0.00     0.148 A 
ATOM    101  C   UNL A   1      47.614  25.670  27.860  1.00  0.00     0.002 A 
ATOM    102  C   UNL A   1      48.492  27.027  26.066  1.00  0.00     0.091 A 
ATOM    103  F   UNL A   1      47.034  27.648  24.292  1.00  0.00    -0.205 F 
ATOM    104  C   UNL A   1      48.665  26.379  27.295  1.00  0.00     0.022 A 
BRANCH 102 105
ATOM    105  S   UNL A   1      49.903  28.033  25.526  1.00  0.00     0.127 S 
ATOM    106  O   UNL A   1      49.534  29.375  25.988  1.00  0.00    -0.237 OA
ATOM    107  O   UNL A   1      51.024  27.442  26.252  1.00  0.00    -0.237 OA
ATOM    108  O   UNL A   1      49.977  27.911  24.077  1.00  0.00    -0.744 OA
ENDBRANCH 102 105
ENDBRANCH  75  98
ENDBRANCH  49  50
ENDBRANCH  41  44
ENDBRANCH  39  40
ENDBRANCH  38  39
ENDBRANCH   1  38
TORSDOF 21
ENDMDL
MODEL 2
REMARK VINA RESULT:      -9.1      5.696     11.109
REMARK SMILES Cc1c(CC(=O)N[C@H](CO)C(=O)NCCCNC(=O)c2ccc(-c3c4nc(c(-c5cccc(S(=O)(=O)[O-])c5F)c5ccc([nH]5)c(-c5cccc(S(=O)(=O)[O-])c5F)c5nc(c(-c6cccc(S(=O)(=O)[O-])c6F)c6ccc3[nH]6)C=C5)C=C4)cc2)cc(-c2ccc(S(C)(=O)=O)cc2)n1-c1cccc(F)c1
REMARK SMILES IDX 14 1 13 2 11 3 12 4 8 6 7 7 5 8 6 9 4 11 3 12 1 13 2 14
REMARK SMILES IDX 95 15 83 16 84 17 96 18 97 19 102 20 98 21 100 22 99 23
REMARK SMILES IDX 101 24 85 25 86 26 94 27 87 28 93 29 88 30 89 31 90 32 91 33
REMARK SMILES IDX 92 34 9 35 10 36 15 38 16 39 17 40 18 41 19 43 20 44 21 45
REMARK SMILES IDX 82 46 22 47 81 48 23 49 24 50 25 51 75 52 26 53 80 54 74 55
REMARK SMILES IDX 76 56 27 57 79 58 73 59 72 60 28 62 60 63 40 64 59 65 41 66
REMARK SMILES IDX 44 67 58 68 77 69 42 70 43 71 57 73 78 74 45 75 29 76 30 77
REMARK SMILES IDX 38 78 31 79 33 80 39 81 32 82 34 83 35 84 36 85 37 86 61 87
REMARK SMILES IDX 62 88 70 89 63 90 65 91 71 92 64 93 66 94 67 95 68 96 69 97
REMARK SMILES IDX 46 98 47 99 55 100 48 101 50 102 56 103 49 104 51 105 52 106
REMARK SMILES IDX 53 107 54 108
REMARK H PARENT 13 5 7 10 10 37 17 42 76 61 44 72
REMARK Flexibility Score: inf
ROOT
ATOM      1  C   UNL A   1      39.657  20.938  26.120  1.00  0.00     0.117 C 
ENDROOT
BRANCH   1   2
ATOM      2  N   UNL A   1      39.218  22.348  25.947  1.00  0.00    -0.354 N 
ATOM      3  C   UNL A   1      38.097  23.124  26.029  1.00  0.00     0.244 C 
ATOM      4  O   UNL A   1      38.374  24.328  26.196  1.00  0.00    -0.273 OA
ATOM      5  H   UNL A   1      39.987  22.906  25.691  1.00  0.00     0.163 HD
BRANCH   3   6
ATOM      6  C   UNL A   1      36.573  22.823  25.759  1.00  0.00     0.197 C 
BRANCH   6   7
ATOM      7  N   UNL A   1      35.547  22.612  26.791  1.00  0.00    -0.342 N 
ATOM      8  C   UNL A   1      34.219  22.901  26.815  1.00  0.00     0.225 C 
ATOM      9  O   UNL A   1      33.643  22.893  27.906  1.00  0.00    -0.275 OA
ATOM     10  H   UNL A   1      35.882  22.183  27.611  1.00  0.00     0.164 HD
BRANCH   8  11
ATOM     11  C   UNL A   1      33.488  23.185  25.524  1.00  0.00     0.137 C 
BRANCH  11  12
ATOM     12  C   UNL A   1      33.281  24.629  25.225  1.00  0.00    -0.017 A 
ATOM     13  C   UNL A   1      31.547  24.535  23.312  1.00  0.00     0.065 C 
ATOM     14  C   UNL A   1      32.401  25.217  24.333  1.00  0.00     0.024 A 
ATOM     15  N   UNL A   1      32.481  26.599  24.495  1.00  0.00    -0.313 N 
ATOM     16  C   UNL A   1      34.003  25.680  25.847  1.00  0.00     0.033 A 
ATOM     17  C   UNL A   1      33.414  26.878  25.500  1.00  0.00     0.053 A 
BRANCH  15  18
ATOM     18  C   UNL A   1      31.734  27.570  23.775  1.00  0.00     0.049 A 
ATOM     19  C   UNL A   1      32.401  28.453  22.913  1.00  0.00     0.027 A 
ATOM     20  C   UNL A   1      30.355  27.681  23.970  1.00  0.00     0.065 A 
ATOM     21  C   UNL A   1      31.686  29.448  22.247  1.00  0.00     0.005 A 
ATOM     22  C   UNL A   1      29.661  28.682  23.303  1.00  0.00     0.125 A 
ATOM     23  C   UNL A   1      30.311  29.564  22.445  1.00  0.00     0.039 A 
ATOM     24  F   UNL A   1      28.344  28.815  23.506  1.00  0.00    -0.207 F 
ENDBRANCH  15  18
BRANCH  17  25
ATOM     25  C   UNL A   1      33.618  28.179  26.157  1.00  0.00    -0.001 A 
ATOM     26  C   UNL A   1      32.557  29.089  26.290  1.00  0.00     0.011 A 
ATOM     27  C   UNL A   1      34.865  28.513  26.705  1.00  0.00     0.011 A 
ATOM     28  C   UNL A   1      32.757  30.344  26.863  1.00  0.00     0.021 A 
ATOM     29  C   UNL A   1      35.073  29.765  27.291  1.00  0.00     0.021 A 
ATOM     30  C   UNL A   1      34.027  30.685  27.332  1.00  0.00     0.067 A 
BRANCH  30  31
ATOM     31  S   UNL A   1      34.270  32.323  27.977  1.00  0.00     0.175 S 
ATOM     32  C   UNL A   1      34.578  32.037  29.703  1.00  0.00     0.163 C 
ATOM     33  O   UNL A   1      35.449  32.857  27.383  1.00  0.00    -0.224 OA
ATOM     34  O   UNL A   1      32.975  33.021  27.892  1.00  0.00    -0.224 OA
ENDBRANCH  30  31
ENDBRANCH  17  25
ENDBRANCH  11  12
ENDBRANCH   8  11
ENDBRANCH   6   7
BRANCH   6  35
ATOM     35  C   UNL A   1      36.402  21.883  24.533  1.00  0.00     0.191 C 
BRANCH  35  36
ATOM     36  O   UNL A   1      36.314  22.596  23.293  1.00  0.00    -0.394 OA
ATOM     37  H   UNL A   1      35.658  22.170  22.720  1.00  0.00     0.210 HD
ENDBRANCH  35  36
ENDBRANCH   6  35
ENDBRANCH   3   6
ENDBRANCH   1   2
BRANCH   1  38
ATOM     38  C   UNL A   1      41.227  20.638  26.163  1.00  0.00     0.042 C 
BRANCH  38  39
ATOM     39  C   UNL A   1      41.887  19.138  26.249  1.00  0.00     0.118 C 
BRANCH  39  40
ATOM     40  N   UNL A   1      43.236  18.961  25.514  1.00  0.00    -0.352 N 
ATOM     41  C   UNL A   1      44.422  19.601  25.023  1.00  0.00     0.251 C 
ATOM     42  H   UNL A   1      43.313  18.007  25.286  1.00  0.00     0.163 HD
ATOM     43  O   UNL A   1      45.134  18.802  24.385  1.00  0.00    -0.269 OA
BRANCH  41  44
ATOM     44  C   UNL A   1      45.041  21.041  25.116  1.00  0.00     0.039 A 
ATOM     45  C   UNL A   1      44.729  22.064  26.088  1.00  0.00     0.014 A 
ATOM     46  C   UNL A   1      45.796  21.608  24.151  1.00  0.00     0.014 A 
ATOM     47  C   UNL A   1      45.355  23.511  26.210  1.00  0.00     0.010 A 
ATOM     48  C   UNL A   1      46.271  23.032  24.274  1.00  0.00     0.010 A 
ATOM     49  C   UNL A   1      46.273  24.100  25.301  1.00  0.00    -0.014 A 
BRANCH  49  50
ATOM     50  C   UNL A   1      47.824  24.975  25.811  1.00  0.00     0.031 A 
ATOM     51  C   UNL A   1      47.814  25.968  24.703  1.00  0.00     0.074 A 
ATOM     52  C   UNL A   1      48.859  25.371  26.846  1.00  0.00     0.049 A 
ATOM     53  N   UNL A   1      46.610  26.370  24.391  1.00  0.00    -0.248 NA
ATOM     54  C   UNL A   1      48.780  27.004  24.442  1.00  0.00     0.031 C 
ATOM     55  C   UNL A   1      49.171  24.804  28.191  1.00  0.00     0.029 A 
ATOM     56  N   UNL A   1      49.876  26.582  26.979  1.00  0.00    -0.354 N 
ATOM     57  C   UNL A   1      46.597  27.503  25.126  1.00  0.00     0.074 A 
ATOM     58  C   UNL A   1      47.926  28.025  24.650  1.00  0.00     0.031 C 
ATOM     59  C   UNL A   1      50.112  25.505  28.915  1.00  0.00     0.029 A 
ATOM     60  C   UNL A   1      50.673  26.719  28.241  1.00  0.00     0.049 A 
ATOM     61  H   UNL A   1      49.982  27.232  26.246  1.00  0.00     0.167 HD
ATOM     62  C   UNL A   1      45.978  27.693  26.369  1.00  0.00     0.034 A 
ATOM     63  C   UNL A   1      51.642  27.598  28.921  1.00  0.00     0.034 A 
ATOM     64  C   UNL A   1      46.047  29.049  26.765  1.00  0.00     0.049 A 
ATOM     65  C   UNL A   1      50.539  28.585  29.175  1.00  0.00     0.074 A 
ATOM     66  C   UNL A   1      46.607  30.165  26.207  1.00  0.00     0.029 A 
ATOM     67  N   UNL A   1      45.906  29.358  28.101  1.00  0.00    -0.354 N 
ATOM     68  N   UNL A   1      49.882  28.757  30.287  1.00  0.00    -0.248 NA
ATOM     69  C   UNL A   1      50.384  29.648  28.170  1.00  0.00     0.031 C 
ATOM     70  C   UNL A   1      47.608  30.317  27.188  1.00  0.00     0.029 A 
ATOM     71  C   UNL A   1      47.167  29.770  28.419  1.00  0.00     0.049 A 
ATOM     72  H   UNL A   1      45.108  29.295  28.674  1.00  0.00     0.167 HD
ATOM     73  C   UNL A   1      49.018  29.756  29.899  1.00  0.00     0.074 A 
ATOM     74  C   UNL A   1      49.730  30.533  28.923  1.00  0.00     0.031 C 
ATOM     75  C   UNL A   1      47.718  29.409  29.710  1.00  0.00     0.034 A 
BRANCH  62  76
ATOM     76  C   UNL A   1      45.212  26.755  27.450  1.00  0.00     0.023 A 
ATOM     77  C   UNL A   1      45.748  26.065  28.589  1.00  0.00     0.012 A 
ATOM     78  C   UNL A   1      43.840  26.493  27.243  1.00  0.00     0.148 A 
ATOM     79  C   UNL A   1      45.063  25.033  29.283  1.00  0.00     0.002 A 
ATOM     80  C   UNL A   1      43.118  25.577  28.027  1.00  0.00     0.091 A 
ATOM     81  F   UNL A   1      43.237  27.123  26.226  1.00  0.00    -0.205 F 
ATOM     82  C   UNL A   1      43.737  24.784  28.994  1.00  0.00     0.022 A 
BRANCH  80  83
ATOM     83  S   UNL A   1      41.343  25.443  27.842  1.00  0.00     0.127 S 
ATOM     84  O   UNL A   1      41.134  24.004  27.987  1.00  0.00    -0.237 OA
ATOM     85  O   UNL A   1      40.823  26.255  28.940  1.00  0.00    -0.237 OA
ATOM     86  O   UNL A   1      41.072  25.991  26.518  1.00  0.00    -0.744 OA
ENDBRANCH  80  83
ENDBRANCH  62  76
BRANCH  63  87
ATOM     87  C   UNL A   1      52.831  28.801  29.450  1.00  0.00     0.023 A 
ATOM     88  C   UNL A   1      53.719  29.304  28.454  1.00  0.00     0.012 A 
ATOM     89  C   UNL A   1      53.277  29.264  30.790  1.00  0.00     0.148 A 
ATOM     90  C   UNL A   1      54.860  30.152  28.732  1.00  0.00     0.002 A 
ATOM     91  C   UNL A   1      54.458  30.036  31.062  1.00  0.00     0.091 A 
ATOM     92  F   UNL A   1      52.529  29.055  31.878  1.00  0.00    -0.205 F 
ATOM     93  C   UNL A   1      55.243  30.503  30.024  1.00  0.00     0.022 A 
BRANCH  91  94
ATOM     94  S   UNL A   1      55.024  30.435  32.769  1.00  0.00     0.127 S 
ATOM     95  O   UNL A   1      53.941  31.263  33.310  1.00  0.00    -0.237 OA
ATOM     96  O   UNL A   1      55.118  29.110  33.381  1.00  0.00    -0.237 OA
ATOM     97  O   UNL A   1      56.284  31.148  32.602  1.00  0.00    -0.744 OA
ENDBRANCH  91  94
ENDBRANCH  63  87
BRANCH  75  98
ATOM     98  C   UNL A   1      47.219  28.486  30.810  1.00  0.00     0.023 A 
ATOM     99  C   UNL A   1      48.012  27.338  30.993  1.00  0.00     0.012 A 
ATOM    100  C   UNL A   1      45.937  28.487  31.422  1.00  0.00     0.148 A 
ATOM    101  C   UNL A   1      47.565  26.242  31.731  1.00  0.00     0.002 A 
ATOM    102  C   UNL A   1      45.489  27.390  32.181  1.00  0.00     0.091 A 
ATOM    103  F   UNL A   1      45.133  29.523  31.191  1.00  0.00    -0.205 F 
ATOM    104  C   UNL A   1      46.311  26.267  32.328  1.00  0.00     0.022 A 
BRANCH 102 105
ATOM    105  S   UNL A   1      43.827  27.220  32.891  1.00  0.00     0.127 S 
ATOM    106  O   UNL A   1      43.810  25.822  33.332  1.00  0.00    -0.237 OA
ATOM    107  O   UNL A   1      43.837  28.188  33.984  1.00  0.00    -0.237 OA
ATOM    108  O   UNL A   1      42.881  27.510  31.822  1.00  0.00    -0.744 OA
ENDBRANCH 102 105
ENDBRANCH  75  98
ENDBRANCH  49  50
ENDBRANCH  41  44
ENDBRANCH  39  40
ENDBRANCH  38  39
ENDBRANCH   1  38
TORSDOF 21
ENDMDL
MODEL 3
REMARK VINA RESULT:      -9.0      5.618     11.097
REMARK SMILES Cc1c(CC(=O)N[C@H](CO)C(=O)NCCCNC(=O)c2ccc(-c3c4nc(c(-c5cccc(S(=O)(=O)[O-])c5F)c5ccc([nH]5)c(-c5cccc(S(=O)(=O)[O-])c5F)c5nc(c(-c6cccc(S(=O)(=O)[O-])c6F)c6ccc3[nH]6)C=C5)C=C4)cc2)cc(-c2ccc(S(C)(=O)=O)cc2)n1-c1cccc(F)c1
REMARK SMILES IDX 14 1 13 2 11 3 12 4 8 6 7 7 5 8 6 9 4 11 3 12 1 13 2 14
REMARK SMILES IDX 95 15 83 16 84 17 96 18 97 19 102 20 98 21 100 22 99 23
REMARK SMILES IDX 101 24 85 25 86 26 94 27 87 28 93 29 88 30 89 31 90 32 91 33
REMARK SMILES IDX 92 34 9 35 10 36 15 38 16 39 17 40 18 41 19 43 20 44 21 45
REMARK SMILES IDX 82 46 22 47 81 48 23 49 24 50 25 51 75 52 26 53 80 54 74 55
REMARK SMILES IDX 76 56 27 57 79 58 73 59 72 60 28 62 60 63 40 64 59 65 41 66
REMARK SMILES IDX 44 67 58 68 77 69 42 70 43 71 57 73 78 74 45 75 29 76 30 77
REMARK SMILES IDX 38 78 31 79 33 80 39 81 32 82 34 83 35 84 36 85 37 86 61 87
REMARK SMILES IDX 62 88 70 89 63 90 65 91 71 92 64 93 66 94 67 95 68 96 69 97
REMARK SMILES IDX 46 98 47 99 55 100 48 101 50 102 56 103 49 104 51 105 52 106
REMARK SMILES IDX 53 107 54 108
REMARK H PARENT 13 5 7 10 10 37 17 42 76 61 44 72
REMARK Flexibility Score: inf
ROOT
ATOM      1  C   UNL A   1      36.104  23.757  24.789  1.00  0.00     0.117 C 
ENDROOT
BRANCH   1   2
ATOM      2  N   UNL A   1      35.121  23.177  23.836  1.00  0.00    -0.354 N 
ATOM      3  C   UNL A   1      33.908  22.550  23.820  1.00  0.00     0.244 C 
ATOM      4  O   UNL A   1      33.342  22.658  22.714  1.00  0.00    -0.273 OA
ATOM      5  H   UNL A   1      35.453  23.278  22.915  1.00  0.00     0.163 HD
BRANCH   3   6
ATOM      6  C   UNL A   1      33.200  21.577  24.838  1.00  0.00     0.197 C 
BRANCH   6   7
ATOM      7  N   UNL A   1      33.233  21.699  26.302  1.00  0.00    -0.342 N 
ATOM      8  C   UNL A   1      32.601  22.552  27.151  1.00  0.00     0.225 C 
ATOM      9  O   UNL A   1      33.022  22.639  28.307  1.00  0.00    -0.275 OA
ATOM     10  H   UNL A   1      33.818  21.045  26.749  1.00  0.00     0.164 HD
BRANCH   8  11
ATOM     11  C   UNL A   1      31.397  23.331  26.676  1.00  0.00     0.137 C 
BRANCH  11  12
ATOM     12  C   UNL A   1      31.698  24.688  26.143  1.00  0.00    -0.017 A 
ATOM     13  C   UNL A   1      30.391  24.691  23.915  1.00  0.00     0.065 C 
ATOM     14  C   UNL A   1      31.215  25.304  25.001  1.00  0.00     0.024 A 
ATOM     15  N   UNL A   1      31.683  26.617  24.988  1.00  0.00    -0.313 N 
ATOM     16  C   UNL A   1      32.583  25.607  26.765  1.00  0.00     0.033 A 
ATOM     17  C   UNL A   1      32.460  26.827  26.133  1.00  0.00     0.053 A 
BRANCH  15  18
ATOM     18  C   UNL A   1      31.411  27.592  23.991  1.00  0.00     0.049 A 
ATOM     19  C   UNL A   1      32.451  28.044  23.165  1.00  0.00     0.027 A 
ATOM     20  C   UNL A   1      30.129  28.138  23.873  1.00  0.00     0.065 A 
ATOM     21  C   UNL A   1      32.208  29.042  22.223  1.00  0.00     0.005 A 
ATOM     22  C   UNL A   1      29.907  29.136  22.934  1.00  0.00     0.125 A 
ATOM     23  C   UNL A   1      30.931  29.592  22.109  1.00  0.00     0.039 A 
ATOM     24  F   UNL A   1      28.690  29.685  22.835  1.00  0.00    -0.207 F 
ENDBRANCH  15  18
BRANCH  17  25
ATOM     25  C   UNL A   1      32.931  28.127  26.635  1.00  0.00    -0.001 A 
ATOM     26  C   UNL A   1      32.019  29.153  26.932  1.00  0.00     0.011 A 
ATOM     27  C   UNL A   1      34.296  28.348  26.872  1.00  0.00     0.011 A 
ATOM     28  C   UNL A   1      32.463  30.404  27.358  1.00  0.00     0.021 A 
ATOM     29  C   UNL A   1      34.749  29.597  27.309  1.00  0.00     0.021 A 
ATOM     30  C   UNL A   1      33.832  30.626  27.513  1.00  0.00     0.067 A 
BRANCH  30  31
ATOM     31  S   UNL A   1      34.371  32.257  27.972  1.00  0.00     0.175 S 
ATOM     32  C   UNL A   1      34.645  32.115  29.721  1.00  0.00     0.163 C 
ATOM     33  O   UNL A   1      35.618  32.502  27.330  1.00  0.00    -0.224 OA
ATOM     34  O   UNL A   1      33.219  33.159  27.799  1.00  0.00    -0.224 OA
ENDBRANCH  30  31
ENDBRANCH  17  25
ENDBRANCH  11  12
ENDBRANCH   8  11
ENDBRANCH   6   7
BRANCH   6  35
ATOM     35  C   UNL A   1      33.289  20.103  24.350  1.00  0.00     0.191 C 
BRANCH  35  36
ATOM     36  O   UNL A   1      32.230  19.283  24.859  1.00  0.00    -0.394 OA
ATOM     37  H   UNL A   1      32.124  19.444  25.810  1.00  0.00     0.210 HD
ENDBRANCH  35  36
ENDBRANCH   6  35
ENDBRANCH   3   6
ENDBRANCH   1   2
BRANCH   1  38
ATOM     38  C   UNL A   1      36.876  22.762  25.775  1.00  0.00     0.042 C 
BRANCH  38  39
ATOM     39  C   UNL A   1      37.684  21.417  25.297  1.00  0.00     0.118 C 
BRANCH  39  40
ATOM     40  N   UNL A   1      38.939  21.062  26.129  1.00  0.00    -0.352 N 
ATOM     41  C   UNL A   1      40.043  21.561  26.897  1.00  0.00     0.251 C 
ATOM     42  H   UNL A   1      39.010  20.081  26.133  1.00  0.00     0.163 HD
ATOM     43  O   UNL A   1      40.800  20.637  27.249  1.00  0.00    -0.269 OA
BRANCH  41  44
ATOM     44  C   UNL A   1      40.507  22.971  27.410  1.00  0.00     0.039 A 
ATOM     45  C   UNL A   1      41.711  23.279  28.146  1.00  0.00     0.014 A 
ATOM     46  C   UNL A   1      39.721  24.068  27.429  1.00  0.00     0.014 A 
ATOM     47  C   UNL A   1      42.204  24.694  28.652  1.00  0.00     0.010 A 
ATOM     48  C   UNL A   1      40.209  25.362  28.028  1.00  0.00     0.010 A 
ATOM     49  C   UNL A   1      41.478  25.911  28.559  1.00  0.00    -0.014 A 
BRANCH  49  50
ATOM     50  C   UNL A   1      42.196  27.505  27.948  1.00  0.00     0.031 A 
ATOM     51  C   UNL A   1      41.223  28.391  28.642  1.00  0.00     0.074 A 
ATOM     52  C   UNL A   1      43.339  28.333  27.395  1.00  0.00     0.049 A 
ATOM     53  N   UNL A   1      40.883  27.946  29.824  1.00  0.00    -0.248 NA
ATOM     54  C   UNL A   1      41.157  29.829  28.602  1.00  0.00     0.031 C 
ATOM     55  C   UNL A   1      44.620  27.930  26.745  1.00  0.00     0.029 A 
ATOM     56  N   UNL A   1      43.690  29.881  27.418  1.00  0.00    -0.354 N 
ATOM     57  C   UNL A   1      41.751  28.680  30.554  1.00  0.00     0.074 A 
ATOM     58  C   UNL A   1      41.434  30.002  29.909  1.00  0.00     0.031 C 
ATOM     59  C   UNL A   1      45.488  28.967  26.472  1.00  0.00     0.029 A 
ATOM     60  C   UNL A   1      45.009  30.330  26.867  1.00  0.00     0.049 A 
ATOM     61  H   UNL A   1      43.052  30.535  27.788  1.00  0.00     0.167 HD
ATOM     62  C   UNL A   1      42.964  28.245  31.105  1.00  0.00     0.034 A 
ATOM     63  C   UNL A   1      45.857  31.523  26.691  1.00  0.00     0.034 A 
ATOM     64  C   UNL A   1      43.530  29.245  31.931  1.00  0.00     0.049 A 
ATOM     65  C   UNL A   1      46.158  31.502  28.163  1.00  0.00     0.074 A 
ATOM     66  C   UNL A   1      43.154  30.518  32.258  1.00  0.00     0.029 A 
ATOM     67  N   UNL A   1      44.882  29.198  32.196  1.00  0.00    -0.354 N 
ATOM     68  N   UNL A   1      47.236  31.048  28.736  1.00  0.00    -0.248 NA
ATOM     69  C   UNL A   1      45.285  32.331  29.009  1.00  0.00     0.031 C 
ATOM     70  C   UNL A   1      44.211  31.150  31.572  1.00  0.00     0.029 A 
ATOM     71  C   UNL A   1      45.332  30.285  31.507  1.00  0.00     0.049 A 
ATOM     72  H   UNL A   1      45.388  28.551  32.739  1.00  0.00     0.167 HD
ATOM     73  C   UNL A   1      46.919  31.280  30.054  1.00  0.00     0.074 A 
ATOM     74  C   UNL A   1      46.097  32.459  30.058  1.00  0.00     0.031 C 
ATOM     75  C   UNL A   1      46.601  30.199  30.813  1.00  0.00     0.034 A 
BRANCH  62  76
ATOM     76  C   UNL A   1      43.866  26.897  31.033  1.00  0.00     0.023 A 
ATOM     77  C   UNL A   1      44.630  26.378  29.935  1.00  0.00     0.012 A 
ATOM     78  C   UNL A   1      43.874  26.046  32.159  1.00  0.00     0.148 A 
ATOM     79  C   UNL A   1      45.127  25.050  29.873  1.00  0.00     0.002 A 
ATOM     80  C   UNL A   1      44.494  24.785  32.150  1.00  0.00     0.091 A 
ATOM     81  F   UNL A   1      43.219  26.460  33.252  1.00  0.00    -0.205 F 
ATOM     82  C   UNL A   1      45.051  24.244  30.991  1.00  0.00     0.022 A 
BRANCH  80  83
ATOM     83  S   UNL A   1      44.640  23.846  33.668  1.00  0.00     0.127 S 
ATOM     84  O   UNL A   1      45.391  24.767  34.519  1.00  0.00    -0.237 OA
ATOM     85  O   UNL A   1      43.252  23.630  34.070  1.00  0.00    -0.237 OA
ATOM     86  O   UNL A   1      45.343  22.630  33.278  1.00  0.00    -0.744 OA
ENDBRANCH  80  83
ENDBRANCH  62  76
BRANCH  63  87
ATOM     87  C   UNL A   1      46.609  33.123  26.568  1.00  0.00     0.023 A 
ATOM     88  C   UNL A   1      45.728  34.241  26.486  1.00  0.00     0.012 A 
ATOM     89  C   UNL A   1      48.001  33.570  26.298  1.00  0.00     0.148 A 
ATOM     90  C   UNL A   1      46.153  35.596  26.205  1.00  0.00     0.002 A 
ATOM     91  C   UNL A   1      48.401  34.902  25.937  1.00  0.00     0.091 A 
ATOM     92  F   UNL A   1      49.038  32.741  26.461  1.00  0.00    -0.205 F 
ATOM     93  C   UNL A   1      47.475  35.928  25.913  1.00  0.00     0.022 A 
BRANCH  91  94
ATOM     94  S   UNL A   1      50.127  35.338  25.465  1.00  0.00     0.127 S 
ATOM     95  O   UNL A   1      49.977  36.583  24.706  1.00  0.00    -0.237 OA
ATOM     96  O   UNL A   1      50.768  35.513  26.768  1.00  0.00    -0.237 OA
ATOM     97  O   UNL A   1      50.605  34.216  24.668  1.00  0.00    -0.744 OA
ENDBRANCH  91  94
ENDBRANCH  63  87
BRANCH  75  98
ATOM     98  C   UNL A   1      47.543  29.034  30.549  1.00  0.00     0.023 A 
ATOM     99  C   UNL A   1      47.442  28.505  29.249  1.00  0.00     0.012 A 
ATOM    100  C   UNL A   1      48.242  28.255  31.509  1.00  0.00     0.148 A 
ATOM    101  C   UNL A   1      47.991  27.267  28.910  1.00  0.00     0.002 A 
ATOM    102  C   UNL A   1      48.811  27.014  31.168  1.00  0.00     0.091 A 
ATOM    103  F   UNL A   1      48.276  28.691  32.767  1.00  0.00    -0.205 F 
ATOM    104  C   UNL A   1      48.677  26.525  29.862  1.00  0.00     0.022 A 
BRANCH 102 105
ATOM    105  S   UNL A   1      49.604  25.872  32.334  1.00  0.00     0.127 S 
ATOM    106  O   UNL A   1      48.461  25.321  33.069  1.00  0.00    -0.237 OA
ATOM    107  O   UNL A   1      50.265  24.911  31.455  1.00  0.00    -0.237 OA
ATOM    108  O   UNL A   1      50.503  26.669  33.159  1.00  0.00    -0.744 OA
ENDBRANCH 102 105
ENDBRANCH  75  98
ENDBRANCH  49  50
ENDBRANCH  41  44
ENDBRANCH  39  40
ENDBRANCH  38  39
ENDBRANCH   1  38
TORSDOF 21
ENDMDL
