MODEL 1
REMARK VINA RESULT:     -12.5      0.000      0.000
REMARK SMILES O=C(NCCCNC(=O)C1(NC(=O)c2nc(C3CC3)n[nH]2)CCCCC1)c1ccc(-c2c3nc(c(-c4cccc(S(=O)(=O)[O-])c4F)c4ccc([nH]4)c(-c4cccc(S(=O)(=O)[O-])c4F)c4nc(c(-c5cccc(S(=O)(=O)[O-])c5F)c5ccc2[nH]5)C=C4)C=C3)cc1
REMARK SMILES IDX 5 1 4 2 3 3 1 4 2 5 27 7 28 8 89 9 29 10 88 11 30 12 31 13
REMARK SMILES IDX 32 14 82 15 33 16 87 17 81 18 83 19 34 20 86 21 80 22 79 23
REMARK SMILES IDX 35 25 67 26 47 27 66 28 48 29 51 30 65 31 84 32 49 33 50 34
REMARK SMILES IDX 64 36 85 37 52 38 36 39 37 40 45 41 38 42 40 43 46 44 39 45
REMARK SMILES IDX 41 46 42 47 43 48 44 49 68 50 69 51 77 52 70 53 72 54 78 55
REMARK SMILES IDX 71 56 73 57 74 58 75 59 76 60 53 61 54 62 62 63 55 64 57 65
REMARK SMILES IDX 63 66 56 67 58 68 59 69 60 70 61 71 6 72 7 73 8 74 9 76
REMARK SMILES IDX 10 77 22 78 26 79 23 80 25 81 24 82 11 83 12 84 13 86 14 87
REMARK SMILES IDX 15 88 21 89 16 90 20 91 17 93 18 94 19 95
REMARK H PARENT 3 6 83 24 51 35 7 75 11 85 21 92
REMARK Flexibility Score: inf
ROOT
ATOM      1  C   UNL A   1      32.419  29.843  25.306  1.00  0.00     0.042 C 
ENDROOT
BRANCH   1   2
ATOM      2  C   UNL A   1      32.113  30.426  26.679  1.00  0.00     0.118 C 
BRANCH   2   3
ATOM      3  N   UNL A   1      32.138  31.880  26.723  1.00  0.00    -0.352 N 
ATOM      4  O   UNL A   1      32.741  33.925  27.430  1.00  0.00    -0.269 OA
ATOM      5  C   UNL A   1      32.984  32.721  27.396  1.00  0.00     0.251 C 
ATOM      6  H   UNL A   1      31.442  32.326  26.188  1.00  0.00     0.163 HD
BRANCH   5   7
ATOM      7  C   UNL A   1      34.173  32.175  28.073  1.00  0.00     0.039 A 
ATOM      8  C   UNL A   1      35.232  33.016  28.428  1.00  0.00     0.014 A 
ATOM      9  C   UNL A   1      34.210  30.815  28.389  1.00  0.00     0.014 A 
ATOM     10  C   UNL A   1      36.375  32.478  29.008  1.00  0.00     0.010 A 
ATOM     11  C   UNL A   1      35.332  30.288  29.027  1.00  0.00     0.010 A 
ATOM     12  C   UNL A   1      36.429  31.112  29.322  1.00  0.00    -0.014 A 
BRANCH  12  13
ATOM     13  C   UNL A   1      37.606  30.573  30.040  1.00  0.00     0.031 A 
ATOM     14  C   UNL A   1      37.905  30.984  31.450  1.00  0.00     0.074 A 
ATOM     15  C   UNL A   1      38.422  29.725  29.382  1.00  0.00     0.049 A 
ATOM     16  N   UNL A   1      38.898  30.618  32.217  1.00  0.00    -0.248 NA
ATOM     17  C   UNL A   1      36.975  31.934  32.082  1.00  0.00     0.031 C 
ATOM     18  C   UNL A   1      38.244  29.299  27.991  1.00  0.00     0.029 A 
ATOM     19  N   UNL A   1      39.565  29.085  29.783  1.00  0.00    -0.354 N 
ATOM     20  C   UNL A   1      38.737  31.316  33.408  1.00  0.00     0.074 A 
ATOM     21  C   UNL A   1      37.552  32.133  33.261  1.00  0.00     0.031 C 
ATOM     22  C   UNL A   1      39.238  28.464  27.658  1.00  0.00     0.029 A 
ATOM     23  C   UNL A   1      40.145  28.330  28.792  1.00  0.00     0.049 A 
ATOM     24  H   UNL A   1      39.934  29.159  30.693  1.00  0.00     0.167 HD
ATOM     25  C   UNL A   1      39.501  31.264  34.525  1.00  0.00     0.034 A 
ATOM     26  C   UNL A   1      41.290  27.623  28.791  1.00  0.00     0.034 A 
ATOM     27  C   UNL A   1      40.660  30.421  34.667  1.00  0.00     0.049 A 
ATOM     28  C   UNL A   1      42.105  27.570  30.051  1.00  0.00     0.074 A 
ATOM     29  C   UNL A   1      41.461  30.242  35.781  1.00  0.00     0.029 A 
ATOM     30  N   UNL A   1      41.188  29.625  33.661  1.00  0.00    -0.354 N 
ATOM     31  N   UNL A   1      41.861  28.126  31.212  1.00  0.00    -0.248 NA
ATOM     32  C   UNL A   1      43.336  26.770  30.011  1.00  0.00     0.031 C 
ATOM     33  C   UNL A   1      42.485  29.351  35.442  1.00  0.00     0.029 A 
ATOM     34  C   UNL A   1      42.312  28.962  34.124  1.00  0.00     0.049 A 
ATOM     35  H   UNL A   1      40.819  29.544  32.753  1.00  0.00     0.167 HD
ATOM     36  C   UNL A   1      42.895  27.728  32.049  1.00  0.00     0.074 A 
ATOM     37  C   UNL A   1      43.753  26.860  31.267  1.00  0.00     0.031 C 
ATOM     38  C   UNL A   1      43.127  28.066  33.341  1.00  0.00     0.034 A 
BRANCH  25  39
ATOM     39  C   UNL A   1      39.088  32.109  35.701  1.00  0.00     0.023 A 
ATOM     40  C   UNL A   1      38.198  31.579  36.657  1.00  0.00     0.012 A 
ATOM     41  C   UNL A   1      39.630  33.394  35.900  1.00  0.00     0.148 A 
ATOM     42  C   UNL A   1      37.834  32.322  37.779  1.00  0.00     0.002 A 
ATOM     43  C   UNL A   1      39.291  34.115  37.041  1.00  0.00     0.091 A 
ATOM     44  F   UNL A   1      40.456  33.892  34.969  1.00  0.00    -0.205 F 
ATOM     45  C   UNL A   1      38.388  33.583  37.976  1.00  0.00     0.022 A 
BRANCH  43  46
ATOM     46  S   UNL A   1      40.005  35.720  37.417  1.00  0.00     0.127 S 
ATOM     47  O   UNL A   1      39.658  36.485  36.221  1.00  0.00    -0.237 OA
ATOM     48  O   UNL A   1      39.272  36.110  38.623  1.00  0.00    -0.237 OA
ATOM     49  O   UNL A   1      41.427  35.486  37.624  1.00  0.00    -0.744 OA
ENDBRANCH  43  46
ENDBRANCH  25  39
BRANCH  26  50
ATOM     50  C   UNL A   1      41.691  26.876  27.567  1.00  0.00     0.023 A 
ATOM     51  C   UNL A   1      42.274  27.571  26.492  1.00  0.00     0.012 A 
ATOM     52  C   UNL A   1      41.558  25.476  27.489  1.00  0.00     0.148 A 
ATOM     53  C   UNL A   1      42.701  26.889  25.352  1.00  0.00     0.002 A 
ATOM     54  C   UNL A   1      42.038  24.795  26.377  1.00  0.00     0.091 A 
ATOM     55  F   UNL A   1      40.983  24.833  28.516  1.00  0.00    -0.205 F 
ATOM     56  C   UNL A   1      42.596  25.501  25.300  1.00  0.00     0.022 A 
BRANCH  54  57
ATOM     57  S   UNL A   1      42.072  23.000  26.297  1.00  0.00     0.127 S 
ATOM     58  O   UNL A   1      42.882  22.664  27.464  1.00  0.00    -0.237 OA
ATOM     59  O   UNL A   1      40.653  22.661  26.413  1.00  0.00    -0.237 OA
ATOM     60  O   UNL A   1      42.656  22.681  25.001  1.00  0.00    -0.744 OA
ENDBRANCH  54  57
ENDBRANCH  26  50
BRANCH  38  61
ATOM     61  C   UNL A   1      44.349  27.486  33.998  1.00  0.00     0.023 A 
ATOM     62  C   UNL A   1      45.583  28.158  33.885  1.00  0.00     0.012 A 
ATOM     63  C   UNL A   1      44.264  26.319  34.781  1.00  0.00     0.148 A 
ATOM     64  C   UNL A   1      46.720  27.662  34.519  1.00  0.00     0.002 A 
ATOM     65  C   UNL A   1      45.392  25.855  35.447  1.00  0.00     0.091 A 
ATOM     66  F   UNL A   1      43.086  25.684  34.857  1.00  0.00    -0.205 F 
ATOM     67  C   UNL A   1      46.622  26.519  35.310  1.00  0.00     0.022 A 
BRANCH  65  68
ATOM     68  S   UNL A   1      45.338  24.443  36.557  1.00  0.00     0.127 S 
ATOM     69  O   UNL A   1      44.866  23.384  35.668  1.00  0.00    -0.237 OA
ATOM     70  O   UNL A   1      46.736  24.317  36.969  1.00  0.00    -0.237 OA
ATOM     71  O   UNL A   1      44.425  24.815  37.631  1.00  0.00    -0.744 OA
ENDBRANCH  65  68
ENDBRANCH  38  61
ENDBRANCH  12  13
ENDBRANCH   5   7
ENDBRANCH   2   3
ENDBRANCH   1   2
BRANCH   1  72
ATOM     72  C   UNL A   1      33.449  28.722  25.281  1.00  0.00     0.117 C 
BRANCH  72  73
ATOM     73  N   UNL A   1      33.997  28.424  23.976  1.00  0.00    -0.354 N 
ATOM     74  C   UNL A   1      33.456  28.095  22.781  1.00  0.00     0.245 C 
ATOM     75  H   UNL A   1      34.980  28.470  23.953  1.00  0.00     0.163 HD
ATOM     76  O   UNL A   1      34.231  28.189  21.813  1.00  0.00    -0.272 OA
BRANCH  74  77
ATOM     77  C   UNL A   1      32.009  27.545  22.536  1.00  0.00     0.119 C 
ATOM     78  C   UNL A   1      31.388  26.764  23.714  1.00  0.00     0.038 C 
ATOM     79  C   UNL A   1      31.162  28.843  22.308  1.00  0.00     0.038 C 
ATOM     80  C   UNL A   1      29.875  26.565  23.643  1.00  0.00     0.003 C 
ATOM     81  C   UNL A   1      29.642  28.692  22.377  1.00  0.00     0.003 C 
ATOM     82  C   UNL A   1      29.185  27.915  23.600  1.00  0.00     0.000 C 
BRANCH  77  83
ATOM     83  N   UNL A   1      31.925  26.651  21.343  1.00  0.00    -0.335 N 
ATOM     84  C   UNL A   1      32.677  25.579  20.928  1.00  0.00     0.289 C 
ATOM     85  H   UNL A   1      31.185  26.875  20.732  1.00  0.00     0.165 HD
ATOM     86  O   UNL A   1      32.906  25.526  19.715  1.00  0.00    -0.266 OA
BRANCH  84  87
ATOM     87  C   UNL A   1      33.134  24.531  21.810  1.00  0.00     0.214 A 
ATOM     88  N   UNL A   1      34.295  24.380  22.431  1.00  0.00    -0.207 NA
ATOM     89  N   UNL A   1      32.284  23.557  22.249  1.00  0.00    -0.255 N 
ATOM     90  C   UNL A   1      34.114  23.214  23.151  1.00  0.00     0.154 A 
ATOM     91  N   UNL A   1      32.891  22.683  23.059  1.00  0.00    -0.158 NA
ATOM     92  H   UNL A   1      31.334  23.505  21.999  1.00  0.00     0.192 HD
BRANCH  90  93
ATOM     93  C   UNL A   1      35.171  22.526  24.008  1.00  0.00     0.060 C 
ATOM     94  C   UNL A   1      36.630  22.624  23.628  1.00  0.00     0.012 C 
ATOM     95  C   UNL A   1      36.131  23.364  24.823  1.00  0.00     0.012 C 
ENDBRANCH  90  93
ENDBRANCH  84  87
ENDBRANCH  77  83
ENDBRANCH  74  77
ENDBRANCH  72  73
ENDBRANCH   1  72
TORSDOF 16
ENDMDL
MODEL 2
REMARK VINA RESULT:     -12.5      5.310     10.462
REMARK SMILES O=C(NCCCNC(=O)C1(NC(=O)c2nc(C3CC3)n[nH]2)CCCCC1)c1ccc(-c2c3nc(c(-c4cccc(S(=O)(=O)[O-])c4F)c4ccc([nH]4)c(-c4cccc(S(=O)(=O)[O-])c4F)c4nc(c(-c5cccc(S(=O)(=O)[O-])c5F)c5ccc2[nH]5)C=C4)C=C3)cc1
REMARK SMILES IDX 5 1 4 2 3 3 1 4 2 5 27 7 28 8 89 9 29 10 88 11 30 12 31 13
REMARK SMILES IDX 32 14 82 15 33 16 87 17 81 18 83 19 34 20 86 21 80 22 79 23
REMARK SMILES IDX 35 25 67 26 47 27 66 28 48 29 51 30 65 31 84 32 49 33 50 34
REMARK SMILES IDX 64 36 85 37 52 38 36 39 37 40 45 41 38 42 40 43 46 44 39 45
REMARK SMILES IDX 41 46 42 47 43 48 44 49 68 50 69 51 77 52 70 53 72 54 78 55
REMARK SMILES IDX 71 56 73 57 74 58 75 59 76 60 53 61 54 62 62 63 55 64 57 65
REMARK SMILES IDX 63 66 56 67 58 68 59 69 60 70 61 71 6 72 7 73 8 74 9 76
REMARK SMILES IDX 10 77 22 78 26 79 23 80 25 81 24 82 11 83 12 84 13 86 14 87
REMARK SMILES IDX 15 88 21 89 16 90 20 91 17 93 18 94 19 95
REMARK H PARENT 3 6 83 24 51 35 7 75 11 85 21 92
REMARK Flexibility Score: inf
ROOT
ATOM      1  C   UNL A   1      36.321  21.543  25.529  1.00  0.00     0.042 C 
ENDROOT
BRANCH   1   2
ATOM      2  C   UNL A   1      37.782  21.566  25.099  1.00  0.00     0.118 C 
BRANCH   2   3
ATOM      3  N   UNL A   1      38.608  20.568  25.761  1.00  0.00    -0.352 N 
ATOM      4  O   UNL A   1      40.408  19.730  26.812  1.00  0.00    -0.269 OA
ATOM      5  C   UNL A   1      39.774  20.723  26.463  1.00  0.00     0.251 C 
ATOM      6  H   UNL A   1      38.281  19.643  25.693  1.00  0.00     0.163 HD
BRANCH   5   7
ATOM      7  C   UNL A   1      40.258  22.076  26.789  1.00  0.00     0.039 A 
ATOM      8  C   UNL A   1      41.300  22.253  27.703  1.00  0.00     0.014 A 
ATOM      9  C   UNL A   1      39.685  23.175  26.144  1.00  0.00     0.014 A 
ATOM     10  C   UNL A   1      41.703  23.536  28.052  1.00  0.00     0.010 A 
ATOM     11  C   UNL A   1      40.134  24.460  26.448  1.00  0.00     0.010 A 
ATOM     12  C   UNL A   1      41.131  24.649  27.417  1.00  0.00    -0.014 A 
BRANCH  12  13
ATOM     13  C   UNL A   1      41.646  26.005  27.716  1.00  0.00     0.031 A 
ATOM     14  C   UNL A   1      43.028  26.414  27.301  1.00  0.00     0.074 A 
ATOM     15  C   UNL A   1      40.853  26.854  28.398  1.00  0.00     0.049 A 
ATOM     16  N   UNL A   1      43.637  27.554  27.493  1.00  0.00    -0.248 NA
ATOM     17  C   UNL A   1      43.835  25.414  26.583  1.00  0.00     0.031 C 
ATOM     18  C   UNL A   1      39.509  26.536  28.888  1.00  0.00     0.029 A 
ATOM     19  N   UNL A   1      41.061  28.143  28.811  1.00  0.00    -0.354 N 
ATOM     20  C   UNL A   1      44.909  27.402  26.955  1.00  0.00     0.074 A 
ATOM     21  C   UNL A   1      44.987  26.055  26.431  1.00  0.00     0.031 C 
ATOM     22  C   UNL A   1      39.011  27.603  29.529  1.00  0.00     0.029 A 
ATOM     23  C   UNL A   1      40.013  28.662  29.533  1.00  0.00     0.049 A 
ATOM     24  H   UNL A   1      41.881  28.649  28.608  1.00  0.00     0.167 HD
ATOM     25  C   UNL A   1      45.911  28.311  26.891  1.00  0.00     0.034 A 
ATOM     26  C   UNL A   1      39.882  29.852  30.148  1.00  0.00     0.034 A 
ATOM     27  C   UNL A   1      45.807  29.658  27.388  1.00  0.00     0.049 A 
ATOM     28  C   UNL A   1      41.003  30.846  30.043  1.00  0.00     0.074 A 
ATOM     29  C   UNL A   1      46.738  30.678  27.309  1.00  0.00     0.029 A 
ATOM     30  N   UNL A   1      44.709  30.169  28.066  1.00  0.00    -0.354 N 
ATOM     31  N   UNL A   1      42.145  30.733  29.408  1.00  0.00    -0.248 NA
ATOM     32  C   UNL A   1      40.808  32.139  30.711  1.00  0.00     0.031 C 
ATOM     33  C   UNL A   1      46.210  31.802  27.956  1.00  0.00     0.029 A 
ATOM     34  C   UNL A   1      44.944  31.486  28.422  1.00  0.00     0.049 A 
ATOM     35  H   UNL A   1      43.886  29.669  28.264  1.00  0.00     0.167 HD
ATOM     36  C   UNL A   1      42.797  31.946  29.582  1.00  0.00     0.074 A 
ATOM     37  C   UNL A   1      41.909  32.789  30.358  1.00  0.00     0.031 C 
ATOM     38  C   UNL A   1      44.028  32.323  29.156  1.00  0.00     0.034 A 
BRANCH  25  39
ATOM     39  C   UNL A   1      47.195  27.898  26.222  1.00  0.00     0.023 A 
ATOM     40  C   UNL A   1      48.236  27.351  26.999  1.00  0.00     0.012 A 
ATOM     41  C   UNL A   1      47.348  27.981  24.825  1.00  0.00     0.148 A 
ATOM     42  C   UNL A   1      49.418  26.918  26.401  1.00  0.00     0.002 A 
ATOM     43  C   UNL A   1      48.515  27.513  24.230  1.00  0.00     0.091 A 
ATOM     44  F   UNL A   1      46.358  28.526  24.104  1.00  0.00    -0.205 F 
ATOM     45  C   UNL A   1      49.553  26.989  25.017  1.00  0.00     0.022 A 
BRANCH  43  46
ATOM     46  S   UNL A   1      48.755  27.500  22.449  1.00  0.00     0.127 S 
ATOM     47  O   UNL A   1      48.662  26.072  22.150  1.00  0.00    -0.237 OA
ATOM     48  O   UNL A   1      47.622  28.296  21.978  1.00  0.00    -0.237 OA
ATOM     49  O   UNL A   1      50.058  28.107  22.217  1.00  0.00    -0.744 OA
ENDBRANCH  43  46
ENDBRANCH  25  39
BRANCH  26  50
ATOM     50  C   UNL A   1      38.619  30.171  30.868  1.00  0.00     0.023 A 
ATOM     51  C   UNL A   1      38.451  29.739  32.197  1.00  0.00     0.012 A 
ATOM     52  C   UNL A   1      37.613  30.955  30.268  1.00  0.00     0.148 A 
ATOM     53  C   UNL A   1      37.296  30.064  32.910  1.00  0.00     0.002 A 
ATOM     54  C   UNL A   1      36.492  31.325  31.002  1.00  0.00     0.091 A 
ATOM     55  F   UNL A   1      37.783  31.343  28.996  1.00  0.00    -0.205 F 
ATOM     56  C   UNL A   1      36.325  30.868  32.318  1.00  0.00     0.022 A 
BRANCH  54  57
ATOM     57  S   UNL A   1      35.269  32.475  30.363  1.00  0.00     0.127 S 
ATOM     58  O   UNL A   1      34.735  31.738  29.220  1.00  0.00    -0.237 OA
ATOM     59  O   UNL A   1      34.351  32.607  31.495  1.00  0.00    -0.237 OA
ATOM     60  O   UNL A   1      36.007  33.691  30.050  1.00  0.00    -0.744 OA
ENDBRANCH  54  57
ENDBRANCH  26  50
BRANCH  38  61
ATOM     61  C   UNL A   1      44.484  33.712  29.508  1.00  0.00     0.023 A 
ATOM     62  C   UNL A   1      45.220  33.922  30.691  1.00  0.00     0.012 A 
ATOM     63  C   UNL A   1      44.247  34.793  28.637  1.00  0.00     0.148 A 
ATOM     64  C   UNL A   1      45.689  35.193  31.017  1.00  0.00     0.002 A 
ATOM     65  C   UNL A   1      44.756  36.049  28.946  1.00  0.00     0.091 A 
ATOM     66  F   UNL A   1      43.527  34.575  27.527  1.00  0.00    -0.205 F 
ATOM     67  C   UNL A   1      45.468  36.253  30.138  1.00  0.00     0.022 A 
BRANCH  65  68
ATOM     68  S   UNL A   1      44.598  37.449  27.832  1.00  0.00     0.127 S 
ATOM     69  O   UNL A   1      43.175  37.407  27.501  1.00  0.00    -0.237 OA
ATOM     70  O   UNL A   1      44.994  38.571  28.683  1.00  0.00    -0.237 OA
ATOM     71  O   UNL A   1      45.507  37.183  26.725  1.00  0.00    -0.744 OA
ENDBRANCH  65  68
ENDBRANCH  38  61
ENDBRANCH  12  13
ENDBRANCH   5   7
ENDBRANCH   2   3
ENDBRANCH   1   2
BRANCH   1  72
ATOM     72  C   UNL A   1      35.738  22.882  25.958  1.00  0.00     0.117 C 
BRANCH  72  73
ATOM     73  N   UNL A   1      34.768  22.813  27.028  1.00  0.00    -0.354 N 
ATOM     74  C   UNL A   1      33.516  22.312  27.133  1.00  0.00     0.245 C 
ATOM     75  H   UNL A   1      35.090  23.221  27.864  1.00  0.00     0.163 HD
ATOM     76  O   UNL A   1      33.101  22.185  28.298  1.00  0.00    -0.272 OA
BRANCH  74  77
ATOM     77  C   UNL A   1      32.551  21.969  25.948  1.00  0.00     0.119 C 
ATOM     78  C   UNL A   1      32.770  22.786  24.656  1.00  0.00     0.038 C 
ATOM     79  C   UNL A   1      32.875  20.468  25.639  1.00  0.00     0.038 C 
ATOM     80  C   UNL A   1      32.119  22.211  23.399  1.00  0.00     0.003 C 
ATOM     81  C   UNL A   1      32.354  19.911  24.313  1.00  0.00     0.003 C 
ATOM     82  C   UNL A   1      32.662  20.820  23.134  1.00  0.00     0.000 C 
BRANCH  77  83
ATOM     83  N   UNL A   1      31.111  22.127  26.311  1.00  0.00    -0.335 N 
ATOM     84  C   UNL A   1      30.393  23.175  26.833  1.00  0.00     0.289 C 
ATOM     85  H   UNL A   1      30.570  21.321  26.144  1.00  0.00     0.165 HD
ATOM     86  O   UNL A   1      29.549  22.871  27.684  1.00  0.00    -0.266 OA
BRANCH  84  87
ATOM     87  C   UNL A   1      30.541  24.545  26.400  1.00  0.00     0.214 A 
ATOM     88  N   UNL A   1      31.357  25.496  26.831  1.00  0.00    -0.207 NA
ATOM     89  N   UNL A   1      29.885  25.011  25.297  1.00  0.00    -0.255 N 
ATOM     90  C   UNL A   1      31.056  26.563  26.006  1.00  0.00     0.154 A 
ATOM     91  N   UNL A   1      30.154  26.298  25.055  1.00  0.00    -0.158 NA
ATOM     92  H   UNL A   1      29.284  24.463  24.744  1.00  0.00     0.192 HD
BRANCH  90  93
ATOM     93  C   UNL A   1      31.659  27.960  26.103  1.00  0.00     0.060 C 
ATOM     94  C   UNL A   1      31.691  28.676  27.434  1.00  0.00     0.012 C 
ATOM     95  C   UNL A   1      32.961  28.159  26.848  1.00  0.00     0.012 C 
ENDBRANCH  90  93
ENDBRANCH  84  87
ENDBRANCH  77  83
ENDBRANCH  74  77
ENDBRANCH  72  73
ENDBRANCH   1  72
TORSDOF 16
ENDMDL
MODEL 3
REMARK VINA RESULT:     -12.5      2.773      4.298
REMARK SMILES O=C(NCCCNC(=O)C1(NC(=O)c2nc(C3CC3)n[nH]2)CCCCC1)c1ccc(-c2c3nc(c(-c4cccc(S(=O)(=O)[O-])c4F)c4ccc([nH]4)c(-c4cccc(S(=O)(=O)[O-])c4F)c4nc(c(-c5cccc(S(=O)(=O)[O-])c5F)c5ccc2[nH]5)C=C4)C=C3)cc1
REMARK SMILES IDX 5 1 4 2 3 3 1 4 2 5 27 7 28 8 89 9 29 10 88 11 30 12 31 13
REMARK SMILES IDX 32 14 82 15 33 16 87 17 81 18 83 19 34 20 86 21 80 22 79 23
REMARK SMILES IDX 35 25 67 26 47 27 66 28 48 29 51 30 65 31 84 32 49 33 50 34
REMARK SMILES IDX 64 36 85 37 52 38 36 39 37 40 45 41 38 42 40 43 46 44 39 45
REMARK SMILES IDX 41 46 42 47 43 48 44 49 68 50 69 51 77 52 70 53 72 54 78 55
REMARK SMILES IDX 71 56 73 57 74 58 75 59 76 60 53 61 54 62 62 63 55 64 57 65
REMARK SMILES IDX 63 66 56 67 58 68 59 69 60 70 61 71 6 72 7 73 8 74 9 76
REMARK SMILES IDX 10 77 22 78 26 79 23 80 25 81 24 82 11 83 12 84 13 86 14 87
REMARK SMILES IDX 15 88 21 89 16 90 20 91 17 93 18 94 19 95
REMARK H PARENT 3 6 83 24 51 35 7 75 11 85 21 92
REMARK Flexibility Score: inf
ROOT
ATOM      1  C   UNL A   1      33.743  27.669  25.491  1.00  0.00     0.042 C 
ENDROOT
BRANCH   1   2
ATOM      2  C   UNL A   1      33.757  28.174  26.928  1.00  0.00     0.118 C 
BRANCH   2   3
ATOM      3  N   UNL A   1      33.630  29.618  27.049  1.00  0.00    -0.352 N 
ATOM      4  O   UNL A   1      34.100  31.688  27.785  1.00  0.00    -0.269 OA
ATOM      5  C   UNL A   1      34.465  30.522  27.651  1.00  0.00     0.251 C 
ATOM      6  H   UNL A   1      32.825  30.003  26.636  1.00  0.00     0.163 HD
BRANCH   5   7
ATOM      7  C   UNL A   1      35.787  30.088  28.136  1.00  0.00     0.039 A 
ATOM      8  C   UNL A   1      35.928  29.556  29.422  1.00  0.00     0.014 A 
ATOM      9  C   UNL A   1      36.888  30.182  27.282  1.00  0.00     0.014 A 
ATOM     10  C   UNL A   1      37.189  29.211  29.891  1.00  0.00     0.010 A 
ATOM     11  C   UNL A   1      38.143  29.777  27.733  1.00  0.00     0.010 A 
ATOM     12  C   UNL A   1      38.305  29.308  29.046  1.00  0.00    -0.014 A 
BRANCH  12  13
ATOM     13  C   UNL A   1      39.625  28.834  29.521  1.00  0.00     0.031 A 
ATOM     14  C   UNL A   1      40.350  29.546  30.624  1.00  0.00     0.074 A 
ATOM     15  C   UNL A   1      40.174  27.763  28.916  1.00  0.00     0.049 A 
ATOM     16  N   UNL A   1      41.514  29.272  31.150  1.00  0.00    -0.248 NA
ATOM     17  C   UNL A   1      39.687  30.723  31.210  1.00  0.00     0.031 C 
ATOM     18  C   UNL A   1      39.571  27.027  27.801  1.00  0.00     0.029 A 
ATOM     19  N   UNL A   1      41.362  27.117  29.137  1.00  0.00    -0.354 N 
ATOM     20  C   UNL A   1      41.743  30.257  32.102  1.00  0.00     0.074 A 
ATOM     21  C   UNL A   1      40.598  31.141  32.079  1.00  0.00     0.031 C 
ATOM     22  C   UNL A   1      40.388  26.029  27.440  1.00  0.00     0.029 A 
ATOM     23  C   UNL A   1      41.590  26.078  28.266  1.00  0.00     0.049 A 
ATOM     24  H   UNL A   1      41.990  27.371  29.850  1.00  0.00     0.167 HD
ATOM     25  C   UNL A   1      42.807  30.397  32.930  1.00  0.00     0.034 A 
ATOM     26  C   UNL A   1      42.656  25.267  28.134  1.00  0.00     0.034 A 
ATOM     27  C   UNL A   1      43.924  29.491  32.963  1.00  0.00     0.049 A 
ATOM     28  C   UNL A   1      43.811  25.436  29.078  1.00  0.00     0.074 A 
ATOM     29  C   UNL A   1      45.017  29.504  33.811  1.00  0.00     0.029 A 
ATOM     30  N   UNL A   1      44.097  28.415  32.103  1.00  0.00    -0.354 N 
ATOM     31  N   UNL A   1      43.948  26.288  30.066  1.00  0.00    -0.248 NA
ATOM     32  C   UNL A   1      44.944  24.517  28.912  1.00  0.00     0.031 C 
ATOM     33  C   UNL A   1      45.860  28.446  33.452  1.00  0.00     0.029 A 
ATOM     34  C   UNL A   1      45.284  27.764  32.393  1.00  0.00     0.049 A 
ATOM     35  H   UNL A   1      43.468  28.153  31.394  1.00  0.00     0.167 HD
ATOM     36  C   UNL A   1      45.172  25.995  30.653  1.00  0.00     0.074 A 
ATOM     37  C   UNL A   1      45.723  24.868  29.927  1.00  0.00     0.031 C 
ATOM     38  C   UNL A   1      45.793  26.615  31.686  1.00  0.00     0.034 A 
BRANCH  25  39
ATOM     39  C   UNL A   1      42.797  31.549  33.900  1.00  0.00     0.023 A 
ATOM     40  C   UNL A   1      43.294  32.803  33.491  1.00  0.00     0.012 A 
ATOM     41  C   UNL A   1      42.234  31.414  35.184  1.00  0.00     0.148 A 
ATOM     42  C   UNL A   1      43.255  33.898  34.353  1.00  0.00     0.002 A 
ATOM     43  C   UNL A   1      42.165  32.520  36.025  1.00  0.00     0.091 A 
ATOM     44  F   UNL A   1      41.787  30.209  35.564  1.00  0.00    -0.205 F 
ATOM     45  C   UNL A   1      42.682  33.760  35.614  1.00  0.00     0.022 A 
BRANCH  43  46
ATOM     46  S   UNL A   1      41.383  32.458  37.642  1.00  0.00     0.127 S 
ATOM     47  O   UNL A   1      40.029  32.027  37.298  1.00  0.00    -0.237 OA
ATOM     48  O   UNL A   1      42.186  31.449  38.335  1.00  0.00    -0.237 OA
ATOM     49  O   UNL A   1      41.495  33.802  38.192  1.00  0.00    -0.744 OA
ENDBRANCH  43  46
ENDBRANCH  25  39
BRANCH  26  50
ATOM     50  C   UNL A   1      42.643  24.200  27.097  1.00  0.00     0.023 A 
ATOM     51  C   UNL A   1      43.306  24.414  25.874  1.00  0.00     0.012 A 
ATOM     52  C   UNL A   1      42.036  22.952  27.340  1.00  0.00     0.148 A 
ATOM     53  C   UNL A   1      43.348  23.412  24.904  1.00  0.00     0.002 A 
ATOM     54  C   UNL A   1      42.131  21.938  26.394  1.00  0.00     0.091 A 
ATOM     55  F   UNL A   1      41.394  22.772  28.504  1.00  0.00    -0.205 F 
ATOM     56  C   UNL A   1      42.774  22.171  25.169  1.00  0.00     0.022 A 
BRANCH  54  57
ATOM     57  S   UNL A   1      41.547  20.271  26.719  1.00  0.00     0.127 S 
ATOM     58  O   UNL A   1      41.877  19.589  25.470  1.00  0.00    -0.237 OA
ATOM     59  O   UNL A   1      42.361  19.879  27.869  1.00  0.00    -0.237 OA
ATOM     60  O   UNL A   1      40.127  20.409  27.014  1.00  0.00    -0.744 OA
ENDBRANCH  54  57
ENDBRANCH  26  50
BRANCH  38  61
ATOM     61  C   UNL A   1      47.136  26.082  32.103  1.00  0.00     0.023 A 
ATOM     62  C   UNL A   1      48.301  26.559  31.470  1.00  0.00     0.012 A 
ATOM     63  C   UNL A   1      47.250  25.163  33.164  1.00  0.00     0.148 A 
ATOM     64  C   UNL A   1      49.558  26.111  31.868  1.00  0.00     0.002 A 
ATOM     65  C   UNL A   1      48.510  24.754  33.586  1.00  0.00     0.091 A 
ATOM     66  F   UNL A   1      46.129  24.705  33.739  1.00  0.00    -0.205 F 
ATOM     67  C   UNL A   1      49.663  25.218  32.934  1.00  0.00     0.022 A 
BRANCH  65  68
ATOM     68  S   UNL A   1      48.744  23.678  35.006  1.00  0.00     0.127 S 
ATOM     69  O   UNL A   1      50.200  23.567  35.058  1.00  0.00    -0.237 OA
ATOM     70  O   UNL A   1      48.152  24.461  36.091  1.00  0.00    -0.237 OA
ATOM     71  O   UNL A   1      48.032  22.446  34.695  1.00  0.00    -0.744 OA
ENDBRANCH  65  68
ENDBRANCH  38  61
ENDBRANCH  12  13
ENDBRANCH   5   7
ENDBRANCH   2   3
ENDBRANCH   1   2
BRANCH   1  72
ATOM     72  C   UNL A   1      33.337  26.214  25.306  1.00  0.00     0.117 C 
BRANCH  72  73
ATOM     73  N   UNL A   1      33.765  25.612  24.064  1.00  0.00    -0.354 N 
ATOM     74  C   UNL A   1      34.318  24.422  23.736  1.00  0.00     0.245 C 
ATOM     75  H   UNL A   1      33.623  26.197  23.285  1.00  0.00     0.163 HD
ATOM     76  O   UNL A   1      34.287  24.148  22.523  1.00  0.00    -0.272 OA
BRANCH  74  77
ATOM     77  C   UNL A   1      35.043  23.433  24.712  1.00  0.00     0.119 C 
ATOM     78  C   UNL A   1      35.776  22.253  24.037  1.00  0.00     0.038 C 
ATOM     79  C   UNL A   1      36.112  24.337  25.415  1.00  0.00     0.038 C 
ATOM     80  C   UNL A   1      36.787  21.522  24.918  1.00  0.00     0.003 C 
ATOM     81  C   UNL A   1      37.221  23.617  26.184  1.00  0.00     0.003 C 
ATOM     82  C   UNL A   1      37.856  22.493  25.382  1.00  0.00     0.000 C 
BRANCH  77  83
ATOM     83  N   UNL A   1      34.118  22.838  25.722  1.00  0.00    -0.335 N 
ATOM     84  C   UNL A   1      32.972  22.089  25.607  1.00  0.00     0.289 C 
ATOM     85  H   UNL A   1      34.381  23.018  26.654  1.00  0.00     0.165 HD
ATOM     86  O   UNL A   1      32.072  22.366  26.408  1.00  0.00    -0.266 OA
BRANCH  84  87
ATOM     87  C   UNL A   1      32.814  21.003  24.669  1.00  0.00     0.214 A 
ATOM     88  N   UNL A   1      33.076  19.711  24.802  1.00  0.00    -0.207 NA
ATOM     89  N   UNL A   1      32.185  21.191  23.472  1.00  0.00    -0.255 N 
ATOM     90  C   UNL A   1      32.682  19.185  23.586  1.00  0.00     0.154 A 
ATOM     91  N   UNL A   1      32.133  20.069  22.746  1.00  0.00    -0.158 NA
ATOM     92  H   UNL A   1      31.812  22.052  23.177  1.00  0.00     0.192 HD
BRANCH  90  93
ATOM     93  C   UNL A   1      32.824  17.728  23.159  1.00  0.00     0.060 C 
ATOM     94  C   UNL A   1      34.163  17.038  23.270  1.00  0.00     0.012 C 
ATOM     95  C   UNL A   1      33.065  16.665  24.208  1.00  0.00     0.012 C 
ENDBRANCH  90  93
ENDBRANCH  84  87
ENDBRANCH  77  83
ENDBRANCH  74  77
ENDBRANCH  72  73
ENDBRANCH   1  72
TORSDOF 16
ENDMDL
