MODEL 1
REMARK VINA RESULT:     -12.9      0.000      0.000
REMARK SMILES Cc1c(Cc2nc(C(C)(C)C)cs2)cccc1C(=O)NCCCNC(=O)c1ccc(-c2c3nc(c(-c4cccc(S(=O)(=O)[O-])c4F)c4ccc([nH]4)c(-c4cccc(S(=O)(=O)[O-])c4F)c4nc(c(-c5cccc(S(=O)(=O)[O-])c5F)c5ccc2[nH]5)C=C4)C=C3)cc1
REMARK SMILES IDX 22 1 21 2 20 3 18 4 19 5 17 7 1 8 2 9 3 10 14 11 16 12 15 13
REMARK SMILES IDX 4 14 5 15 6 16 13 17 7 18 12 19 8 20 9 21 10 22 11 23 23 24
REMARK SMILES IDX 24 25 25 26 26 28 27 29 28 30 89 31 29 32 88 33 30 34 31 35
REMARK SMILES IDX 32 36 82 37 33 38 87 39 81 40 83 41 34 42 86 43 80 44 79 45
REMARK SMILES IDX 35 47 67 48 47 49 66 50 48 51 51 52 65 53 84 54 49 55 50 56
REMARK SMILES IDX 64 58 85 59 52 60 36 61 37 62 45 63 38 64 40 65 46 66 39 67
REMARK SMILES IDX 41 68 42 69 43 70 44 71 68 72 69 73 77 74 70 75 72 76 78 77
REMARK SMILES IDX 71 78 73 79 74 80 75 81 76 82 53 83 54 84 62 85 55 86 57 87
REMARK SMILES IDX 63 88 56 89 58 90 59 91 60 92 61 93
REMARK H PARENT 20 6 24 27 83 46 51 57
REMARK Flexibility Score: inf
ROOT
ATOM      1  C   UNL A   1      33.575  30.955  27.102  1.00  0.00     0.042 C 
ENDROOT
BRANCH   1   2
ATOM      2  C   UNL A   1      33.170  29.844  26.132  1.00  0.00     0.118 C 
BRANCH   2   3
ATOM      3  N   UNL A   1      31.962  30.153  25.386  1.00  0.00    -0.352 N 
ATOM      4  C   UNL A   1      31.304  29.501  24.366  1.00  0.00     0.251 C 
ATOM      5  O   UNL A   1      30.207  29.942  24.020  1.00  0.00    -0.269 OA
ATOM      6  H   UNL A   1      31.528  30.991  25.665  1.00  0.00     0.163 HD
BRANCH   4   7
ATOM      7  C   UNL A   1      31.787  28.242  23.715  1.00  0.00     0.043 A 
ATOM      8  C   UNL A   1      30.527  26.590  25.189  1.00  0.00     0.045 C 
ATOM      9  C   UNL A   1      31.351  26.928  23.987  1.00  0.00    -0.035 A 
ATOM     10  C   UNL A   1      31.812  25.857  23.182  1.00  0.00    -0.037 A 
ATOM     11  C   UNL A   1      32.918  26.067  22.342  1.00  0.00     0.004 A 
ATOM     12  C   UNL A   1      32.873  28.415  22.836  1.00  0.00     0.014 A 
ATOM     13  C   UNL A   1      33.468  27.331  22.195  1.00  0.00     0.001 A 
BRANCH  10  14
ATOM     14  C   UNL A   1      31.148  24.484  23.204  1.00  0.00     0.103 C 
BRANCH  14  15
ATOM     15  C   UNL A   1      32.074  23.433  23.751  1.00  0.00     0.097 A 
ATOM     16  N   UNL A   1      32.879  23.644  24.769  1.00  0.00    -0.245 NA
ATOM     17  S   UNL A   1      32.229  21.893  23.008  1.00  0.00    -0.127 S 
ATOM     18  C   UNL A   1      33.782  22.606  24.904  1.00  0.00     0.057 A 
ATOM     19  C   UNL A   1      33.540  21.537  24.058  1.00  0.00     0.091 A 
BRANCH  18  20
ATOM     20  C   UNL A   1      34.899  22.760  25.919  1.00  0.00     0.005 C 
ATOM     21  C   UNL A   1      34.315  22.816  27.340  1.00  0.00     0.017 C 
ATOM     22  C   UNL A   1      35.892  21.587  25.814  1.00  0.00     0.017 C 
ATOM     23  C   UNL A   1      35.692  24.064  25.665  1.00  0.00     0.017 C 
ENDBRANCH  18  20
ENDBRANCH  14  15
ENDBRANCH  10  14
ENDBRANCH   4   7
ENDBRANCH   2   3
ENDBRANCH   1   2
BRANCH   1  24
ATOM     24  C   UNL A   1      34.346  30.559  28.351  1.00  0.00     0.118 C 
BRANCH  24  25
ATOM     25  N   UNL A   1      35.446  31.523  28.541  1.00  0.00    -0.352 N 
ATOM     26  C   UNL A   1      36.814  31.343  28.606  1.00  0.00     0.251 C 
ATOM     27  H   UNL A   1      35.154  32.459  28.637  1.00  0.00     0.163 HD
ATOM     28  O   UNL A   1      37.572  32.272  28.819  1.00  0.00    -0.269 OA
BRANCH  26  29
ATOM     29  C   UNL A   1      37.305  29.984  28.340  1.00  0.00     0.039 A 
ATOM     30  C   UNL A   1      37.425  29.152  29.455  1.00  0.00     0.014 A 
ATOM     31  C   UNL A   1      38.046  29.789  27.177  1.00  0.00     0.014 A 
ATOM     32  C   UNL A   1      38.502  28.283  29.517  1.00  0.00     0.010 A 
ATOM     33  C   UNL A   1      39.140  28.951  27.258  1.00  0.00     0.010 A 
ATOM     34  C   UNL A   1      39.414  28.286  28.464  1.00  0.00    -0.014 A 
BRANCH  34  35
ATOM     35  C   UNL A   1      40.700  27.618  28.543  1.00  0.00     0.031 A 
ATOM     36  C   UNL A   1      40.735  26.158  28.392  1.00  0.00     0.074 A 
ATOM     37  C   UNL A   1      41.844  28.306  28.757  1.00  0.00     0.049 A 
ATOM     38  N   UNL A   1      41.679  25.406  28.837  1.00  0.00    -0.248 NA
ATOM     39  C   UNL A   1      39.633  25.432  27.782  1.00  0.00     0.031 C 
ATOM     40  C   UNL A   1      43.206  27.815  28.589  1.00  0.00     0.029 A 
ATOM     41  N   UNL A   1      41.996  29.527  29.418  1.00  0.00    -0.354 N 
ATOM     42  C   UNL A   1      41.463  24.146  28.328  1.00  0.00     0.074 A 
ATOM     43  C   UNL A   1      40.127  24.192  27.786  1.00  0.00     0.031 C 
ATOM     44  C   UNL A   1      44.025  28.549  29.356  1.00  0.00     0.029 A 
ATOM     45  C   UNL A   1      43.194  29.427  30.157  1.00  0.00     0.049 A 
ATOM     46  H   UNL A   1      41.390  30.301  29.378  1.00  0.00     0.167 HD
ATOM     47  C   UNL A   1      42.508  23.274  28.285  1.00  0.00     0.034 A 
ATOM     48  C   UNL A   1      43.278  29.594  31.510  1.00  0.00     0.034 A 
ATOM     49  C   UNL A   1      43.680  23.810  29.005  1.00  0.00     0.049 A 
ATOM     50  C   UNL A   1      43.883  28.399  32.236  1.00  0.00     0.074 A 
ATOM     51  C   UNL A   1      44.860  24.422  28.611  1.00  0.00     0.029 A 
ATOM     52  N   UNL A   1      43.595  24.002  30.378  1.00  0.00    -0.354 N 
ATOM     53  N   UNL A   1      44.323  27.313  31.663  1.00  0.00    -0.248 NA
ATOM     54  C   UNL A   1      43.895  28.298  33.694  1.00  0.00     0.031 C 
ATOM     55  C   UNL A   1      45.476  24.996  29.764  1.00  0.00     0.029 A 
ATOM     56  C   UNL A   1      44.684  24.715  30.862  1.00  0.00     0.049 A 
ATOM     57  H   UNL A   1      42.855  23.674  30.938  1.00  0.00     0.167 HD
ATOM     58  C   UNL A   1      44.488  26.329  32.613  1.00  0.00     0.074 A 
ATOM     59  C   UNL A   1      44.219  27.008  33.869  1.00  0.00     0.031 C 
ATOM     60  C   UNL A   1      44.747  25.019  32.289  1.00  0.00     0.034 A 
BRANCH  47  61
ATOM     61  C   UNL A   1      42.585  22.085  27.333  1.00  0.00     0.023 A 
ATOM     62  C   UNL A   1      41.695  21.013  27.562  1.00  0.00     0.012 A 
ATOM     63  C   UNL A   1      43.522  21.885  26.290  1.00  0.00     0.148 A 
ATOM     64  C   UNL A   1      41.801  19.788  26.893  1.00  0.00     0.002 A 
ATOM     65  C   UNL A   1      43.682  20.641  25.674  1.00  0.00     0.091 A 
ATOM     66  F   UNL A   1      44.207  22.918  25.800  1.00  0.00    -0.205 F 
ATOM     67  C   UNL A   1      42.823  19.585  25.978  1.00  0.00     0.022 A 
BRANCH  65  68
ATOM     68  S   UNL A   1      45.035  20.296  24.532  1.00  0.00     0.127 S 
ATOM     69  O   UNL A   1      44.936  18.844  24.370  1.00  0.00    -0.237 OA
ATOM     70  O   UNL A   1      44.651  21.064  23.349  1.00  0.00    -0.237 OA
ATOM     71  O   UNL A   1      46.254  20.737  25.197  1.00  0.00    -0.744 OA
ENDBRANCH  65  68
ENDBRANCH  47  61
BRANCH  48  72
ATOM     72  C   UNL A   1      42.186  30.452  32.066  1.00  0.00     0.023 A 
ATOM     73  C   UNL A   1      42.122  31.794  31.621  1.00  0.00     0.012 A 
ATOM     74  C   UNL A   1      41.048  29.880  32.655  1.00  0.00     0.148 A 
ATOM     75  C   UNL A   1      40.903  32.474  31.592  1.00  0.00     0.002 A 
ATOM     76  C   UNL A   1      39.841  30.570  32.632  1.00  0.00     0.091 A 
ATOM     77  F   UNL A   1      41.122  28.643  33.159  1.00  0.00    -0.205 F 
ATOM     78  C   UNL A   1      39.751  31.840  32.049  1.00  0.00     0.022 A 
BRANCH  76  79
ATOM     79  S   UNL A   1      38.352  29.780  33.247  1.00  0.00     0.127 S 
ATOM     80  O   UNL A   1      38.453  30.044  34.678  1.00  0.00    -0.237 OA
ATOM     81  O   UNL A   1      37.293  30.515  32.557  1.00  0.00    -0.237 OA
ATOM     82  O   UNL A   1      38.487  28.394  32.825  1.00  0.00    -0.744 OA
ENDBRANCH  76  79
ENDBRANCH  48  72
BRANCH  60  83
ATOM     83  C   UNL A   1      44.999  23.889  33.291  1.00  0.00     0.023 A 
ATOM     84  C   UNL A   1      43.968  23.046  33.751  1.00  0.00     0.012 A 
ATOM     85  C   UNL A   1      46.276  23.673  33.881  1.00  0.00     0.148 A 
ATOM     86  C   UNL A   1      44.206  21.961  34.606  1.00  0.00     0.002 A 
ATOM     87  C   UNL A   1      46.508  22.614  34.758  1.00  0.00     0.091 A 
ATOM     88  F   UNL A   1      47.274  24.532  33.645  1.00  0.00    -0.205 F 
ATOM     89  C   UNL A   1      45.481  21.731  35.093  1.00  0.00     0.022 A 
BRANCH  87  90
ATOM     90  S   UNL A   1      48.105  22.336  35.539  1.00  0.00     0.127 S 
ATOM     91  O   UNL A   1      48.103  23.365  36.579  1.00  0.00    -0.237 OA
ATOM     92  O   UNL A   1      47.966  20.968  36.037  1.00  0.00    -0.237 OA
ATOM     93  O   UNL A   1      49.105  22.505  34.495  1.00  0.00    -0.744 OA
ENDBRANCH  87  90
ENDBRANCH  60  83
ENDBRANCH  34  35
ENDBRANCH  26  29
ENDBRANCH  24  25
ENDBRANCH   1  24
TORSDOF 16
ENDMDL
MODEL 2
REMARK VINA RESULT:     -12.8      1.863      2.469
REMARK SMILES Cc1c(Cc2nc(C(C)(C)C)cs2)cccc1C(=O)NCCCNC(=O)c1ccc(-c2c3nc(c(-c4cccc(S(=O)(=O)[O-])c4F)c4ccc([nH]4)c(-c4cccc(S(=O)(=O)[O-])c4F)c4nc(c(-c5cccc(S(=O)(=O)[O-])c5F)c5ccc2[nH]5)C=C4)C=C3)cc1
REMARK SMILES IDX 22 1 21 2 20 3 18 4 19 5 17 7 1 8 2 9 3 10 14 11 16 12 15 13
REMARK SMILES IDX 4 14 5 15 6 16 13 17 7 18 12 19 8 20 9 21 10 22 11 23 23 24
REMARK SMILES IDX 24 25 25 26 26 28 27 29 28 30 89 31 29 32 88 33 30 34 31 35
REMARK SMILES IDX 32 36 82 37 33 38 87 39 81 40 83 41 34 42 86 43 80 44 79 45
REMARK SMILES IDX 35 47 67 48 47 49 66 50 48 51 51 52 65 53 84 54 49 55 50 56
REMARK SMILES IDX 64 58 85 59 52 60 36 61 37 62 45 63 38 64 40 65 46 66 39 67
REMARK SMILES IDX 41 68 42 69 43 70 44 71 68 72 69 73 77 74 70 75 72 76 78 77
REMARK SMILES IDX 71 78 73 79 74 80 75 81 76 82 53 83 54 84 62 85 55 86 57 87
REMARK SMILES IDX 63 88 56 89 58 90 59 91 60 92 61 93
REMARK H PARENT 20 6 24 27 83 46 51 57
REMARK Flexibility Score: inf
ROOT
ATOM      1  C   UNL A   1      32.727  30.949  26.714  1.00  0.00     0.042 C 
ENDROOT
BRANCH   1   2
ATOM      2  C   UNL A   1      31.621  30.138  26.039  1.00  0.00     0.118 C 
BRANCH   2   3
ATOM      3  N   UNL A   1      31.816  29.992  24.607  1.00  0.00    -0.352 N 
ATOM      4  C   UNL A   1      31.740  28.906  23.762  1.00  0.00     0.251 C 
ATOM      5  O   UNL A   1      31.823  29.117  22.551  1.00  0.00    -0.269 OA
ATOM      6  H   UNL A   1      32.048  30.833  24.151  1.00  0.00     0.163 HD
BRANCH   4   7
ATOM      7  C   UNL A   1      31.469  27.502  24.208  1.00  0.00     0.043 A 
ATOM      8  C   UNL A   1      33.707  27.065  25.345  1.00  0.00     0.045 C 
ATOM      9  C   UNL A   1      32.290  26.702  25.030  1.00  0.00    -0.035 A 
ATOM     10  C   UNL A   1      31.820  25.440  25.471  1.00  0.00    -0.037 A 
ATOM     11  C   UNL A   1      30.699  24.875  24.841  1.00  0.00     0.004 A 
ATOM     12  C   UNL A   1      30.330  26.912  23.625  1.00  0.00     0.014 A 
ATOM     13  C   UNL A   1      29.977  25.593  23.899  1.00  0.00     0.001 A 
BRANCH  10  14
ATOM     14  C   UNL A   1      32.497  24.675  26.604  1.00  0.00     0.103 C 
BRANCH  14  15
ATOM     15  C   UNL A   1      33.337  23.543  26.079  1.00  0.00     0.097 A 
ATOM     16  N   UNL A   1      34.630  23.649  25.865  1.00  0.00    -0.245 NA
ATOM     17  S   UNL A   1      32.642  22.044  25.613  1.00  0.00    -0.127 S 
ATOM     18  C   UNL A   1      35.101  22.556  25.161  1.00  0.00     0.057 A 
ATOM     19  C   UNL A   1      34.162  21.555  24.983  1.00  0.00     0.091 A 
BRANCH  18  20
ATOM     20  C   UNL A   1      36.538  22.588  24.672  1.00  0.00     0.005 C 
ATOM     21  C   UNL A   1      36.575  22.935  23.175  1.00  0.00     0.017 C 
ATOM     22  C   UNL A   1      37.357  23.624  25.464  1.00  0.00     0.017 C 
ATOM     23  C   UNL A   1      37.213  21.211  24.871  1.00  0.00     0.017 C 
ENDBRANCH  18  20
ENDBRANCH  14  15
ENDBRANCH  10  14
ENDBRANCH   4   7
ENDBRANCH   2   3
ENDBRANCH   1   2
BRANCH   1  24
ATOM     24  C   UNL A   1      33.661  30.221  27.668  1.00  0.00     0.118 C 
BRANCH  24  25
ATOM     25  N   UNL A   1      34.413  31.229  28.439  1.00  0.00    -0.352 N 
ATOM     26  C   UNL A   1      35.651  31.171  29.050  1.00  0.00     0.251 C 
ATOM     27  H   UNL A   1      33.953  32.095  28.534  1.00  0.00     0.163 HD
ATOM     28  O   UNL A   1      36.091  32.108  29.692  1.00  0.00    -0.269 OA
BRANCH  26  29
ATOM     29  C   UNL A   1      36.431  29.946  28.827  1.00  0.00     0.039 A 
ATOM     30  C   UNL A   1      36.898  29.306  29.976  1.00  0.00     0.014 A 
ATOM     31  C   UNL A   1      37.042  29.796  27.584  1.00  0.00     0.014 A 
ATOM     32  C   UNL A   1      38.158  28.732  29.944  1.00  0.00     0.010 A 
ATOM     33  C   UNL A   1      38.313  29.258  27.566  1.00  0.00     0.010 A 
ATOM     34  C   UNL A   1      38.898  28.826  28.768  1.00  0.00    -0.014 A 
BRANCH  34  35
ATOM     35  C   UNL A   1      40.310  28.497  28.705  1.00  0.00     0.031 A 
ATOM     36  C   UNL A   1      40.689  27.087  28.560  1.00  0.00     0.074 A 
ATOM     37  C   UNL A   1      41.264  29.452  28.784  1.00  0.00     0.049 A 
ATOM     38  N   UNL A   1      41.833  26.605  28.900  1.00  0.00    -0.248 NA
ATOM     39  C   UNL A   1      39.742  26.092  28.083  1.00  0.00     0.031 C 
ATOM     40  C   UNL A   1      42.679  29.305  28.466  1.00  0.00     0.029 A 
ATOM     41  N   UNL A   1      41.180  30.695  29.416  1.00  0.00    -0.354 N 
ATOM     42  C   UNL A   1      41.882  25.314  28.426  1.00  0.00     0.074 A 
ATOM     43  C   UNL A   1      40.525  25.012  28.038  1.00  0.00     0.031 C 
ATOM     44  C   UNL A   1      43.369  30.243  29.130  1.00  0.00     0.029 A 
ATOM     45  C   UNL A   1      42.438  30.917  30.015  1.00  0.00     0.049 A 
ATOM     46  H   UNL A   1      40.400  31.295  29.440  1.00  0.00     0.167 HD
ATOM     47  C   UNL A   1      43.099  24.724  28.270  1.00  0.00     0.034 A 
ATOM     48  C   UNL A   1      42.624  31.145  31.349  1.00  0.00     0.034 A 
ATOM     49  C   UNL A   1      44.173  25.556  28.849  1.00  0.00     0.049 A 
ATOM     50  C   UNL A   1      43.581  30.161  32.009  1.00  0.00     0.074 A 
ATOM     51  C   UNL A   1      45.114  26.425  28.320  1.00  0.00     0.029 A 
ATOM     52  N   UNL A   1      44.192  25.767  30.221  1.00  0.00    -0.354 N 
ATOM     53  N   UNL A   1      44.211  29.197  31.396  1.00  0.00    -0.248 NA
ATOM     54  C   UNL A   1      43.775  30.115  33.457  1.00  0.00     0.031 C 
ATOM     55  C   UNL A   1      45.690  27.171  29.392  1.00  0.00     0.029 A 
ATOM     56  C   UNL A   1      45.116  26.742  30.575  1.00  0.00     0.049 A 
ATOM     57  H   UNL A   1      43.622  25.286  30.863  1.00  0.00     0.167 HD
ATOM     58  C   UNL A   1      44.717  28.316  32.327  1.00  0.00     0.074 A 
ATOM     59  C   UNL A   1      44.426  28.951  33.602  1.00  0.00     0.031 C 
ATOM     60  C   UNL A   1      45.256  27.100  31.984  1.00  0.00     0.034 A 
BRANCH  47  61
ATOM     61  C   UNL A   1      43.365  23.560  27.322  1.00  0.00     0.023 A 
ATOM     62  C   UNL A   1      44.163  23.820  26.186  1.00  0.00     0.012 A 
ATOM     63  C   UNL A   1      42.821  22.255  27.396  1.00  0.00     0.148 A 
ATOM     64  C   UNL A   1      44.312  22.899  25.141  1.00  0.00     0.002 A 
ATOM     65  C   UNL A   1      42.902  21.362  26.325  1.00  0.00     0.091 A 
ATOM     66  F   UNL A   1      42.303  21.812  28.541  1.00  0.00    -0.205 F 
ATOM     67  C   UNL A   1      43.646  21.684  25.189  1.00  0.00     0.022 A 
BRANCH  65  68
ATOM     68  S   UNL A   1      42.000  19.800  26.299  1.00  0.00     0.127 S 
ATOM     69  O   UNL A   1      40.611  20.251  26.193  1.00  0.00    -0.237 OA
ATOM     70  O   UNL A   1      42.522  19.156  25.095  1.00  0.00    -0.237 OA
ATOM     71  O   UNL A   1      42.311  19.128  27.554  1.00  0.00    -0.744 OA
ENDBRANCH  65  68
ENDBRANCH  47  61
BRANCH  48  72
ATOM     72  C   UNL A   1      41.420  31.727  32.020  1.00  0.00     0.023 A 
ATOM     73  C   UNL A   1      40.964  32.986  31.562  1.00  0.00     0.012 A 
ATOM     74  C   UNL A   1      40.541  30.916  32.754  1.00  0.00     0.148 A 
ATOM     75  C   UNL A   1      39.618  33.337  31.672  1.00  0.00     0.002 A 
ATOM     76  C   UNL A   1      39.203  31.279  32.868  1.00  0.00     0.091 A 
ATOM     77  F   UNL A   1      40.985  29.763  33.267  1.00  0.00    -0.205 F 
ATOM     78  C   UNL A   1      38.726  32.456  32.279  1.00  0.00     0.022 A 
BRANCH  76  79
ATOM     79  S   UNL A   1      38.046  30.171  33.676  1.00  0.00     0.127 S 
ATOM     80  O   UNL A   1      36.774  30.634  33.134  1.00  0.00    -0.237 OA
ATOM     81  O   UNL A   1      38.478  28.857  33.201  1.00  0.00    -0.237 OA
ATOM     82  O   UNL A   1      38.274  30.396  35.096  1.00  0.00    -0.744 OA
ENDBRANCH  76  79
ENDBRANCH  48  72
BRANCH  60  83
ATOM     83  C   UNL A   1      45.887  26.101  32.957  1.00  0.00     0.023 A 
ATOM     84  C   UNL A   1      47.275  25.858  32.992  1.00  0.00     0.012 A 
ATOM     85  C   UNL A   1      45.103  25.296  33.830  1.00  0.00     0.148 A 
ATOM     86  C   UNL A   1      47.868  25.005  33.933  1.00  0.00     0.002 A 
ATOM     87  C   UNL A   1      45.688  24.421  34.744  1.00  0.00     0.091 A 
ATOM     88  F   UNL A   1      43.768  25.324  33.743  1.00  0.00    -0.205 F 
ATOM     89  C   UNL A   1      47.076  24.302  34.825  1.00  0.00     0.022 A 
BRANCH  87  90
ATOM     90  S   UNL A   1      44.718  23.373  35.839  1.00  0.00     0.127 S 
ATOM     91  O   UNL A   1      45.754  22.519  36.419  1.00  0.00    -0.237 OA
ATOM     92  O   UNL A   1      44.145  24.350  36.765  1.00  0.00    -0.237 OA
ATOM     93  O   UNL A   1      43.746  22.692  34.996  1.00  0.00    -0.744 OA
ENDBRANCH  87  90
ENDBRANCH  60  83
ENDBRANCH  34  35
ENDBRANCH  26  29
ENDBRANCH  24  25
ENDBRANCH   1  24
TORSDOF 16
ENDMDL
MODEL 3
REMARK VINA RESULT:     -12.3      1.981      2.784
REMARK SMILES Cc1c(Cc2nc(C(C)(C)C)cs2)cccc1C(=O)NCCCNC(=O)c1ccc(-c2c3nc(c(-c4cccc(S(=O)(=O)[O-])c4F)c4ccc([nH]4)c(-c4cccc(S(=O)(=O)[O-])c4F)c4nc(c(-c5cccc(S(=O)(=O)[O-])c5F)c5ccc2[nH]5)C=C4)C=C3)cc1
REMARK SMILES IDX 22 1 21 2 20 3 18 4 19 5 17 7 1 8 2 9 3 10 14 11 16 12 15 13
REMARK SMILES IDX 4 14 5 15 6 16 13 17 7 18 12 19 8 20 9 21 10 22 11 23 23 24
REMARK SMILES IDX 24 25 25 26 26 28 27 29 28 30 89 31 29 32 88 33 30 34 31 35
REMARK SMILES IDX 32 36 82 37 33 38 87 39 81 40 83 41 34 42 86 43 80 44 79 45
REMARK SMILES IDX 35 47 67 48 47 49 66 50 48 51 51 52 65 53 84 54 49 55 50 56
REMARK SMILES IDX 64 58 85 59 52 60 36 61 37 62 45 63 38 64 40 65 46 66 39 67
REMARK SMILES IDX 41 68 42 69 43 70 44 71 68 72 69 73 77 74 70 75 72 76 78 77
REMARK SMILES IDX 71 78 73 79 74 80 75 81 76 82 53 83 54 84 62 85 55 86 57 87
REMARK SMILES IDX 63 88 56 89 58 90 59 91 60 92 61 93
REMARK H PARENT 20 6 24 27 83 46 51 57
REMARK Flexibility Score: inf
ROOT
ATOM      1  C   UNL A   1      33.061  30.393  26.380  1.00  0.00     0.042 C 
ENDROOT
BRANCH   1   2
ATOM      2  C   UNL A   1      33.255  29.327  25.301  1.00  0.00     0.118 C 
BRANCH   2   3
ATOM      3  N   UNL A   1      32.001  28.798  24.793  1.00  0.00    -0.352 N 
ATOM      4  C   UNL A   1      31.491  27.520  24.718  1.00  0.00     0.251 C 
ATOM      5  O   UNL A   1      30.321  27.391  24.355  1.00  0.00    -0.269 OA
ATOM      6  H   UNL A   1      31.398  29.486  24.431  1.00  0.00     0.163 HD
BRANCH   4   7
ATOM      7  C   UNL A   1      32.230  26.286  25.138  1.00  0.00     0.043 A 
ATOM      8  C   UNL A   1      33.661  26.015  23.048  1.00  0.00     0.045 C 
ATOM      9  C   UNL A   1      33.299  25.668  24.458  1.00  0.00    -0.035 A 
ATOM     10  C   UNL A   1      33.979  24.582  25.063  1.00  0.00    -0.037 A 
ATOM     11  C   UNL A   1      33.392  23.945  26.168  1.00  0.00     0.004 A 
ATOM     12  C   UNL A   1      31.693  25.637  26.267  1.00  0.00     0.014 A 
ATOM     13  C   UNL A   1      32.236  24.448  26.747  1.00  0.00     0.001 A 
BRANCH  10  14
ATOM     14  C   UNL A   1      35.325  24.081  24.549  1.00  0.00     0.103 C 
BRANCH  14  15
ATOM     15  C   UNL A   1      35.415  22.581  24.607  1.00  0.00     0.097 A 
ATOM     16  N   UNL A   1      34.408  21.790  24.310  1.00  0.00    -0.245 NA
ATOM     17  S   UNL A   1      36.823  21.783  25.178  1.00  0.00    -0.127 S 
ATOM     18  C   UNL A   1      34.682  20.486  24.680  1.00  0.00     0.057 A 
ATOM     19  C   UNL A   1      35.979  20.290  25.124  1.00  0.00     0.091 A 
BRANCH  18  20
ATOM     20  C   UNL A   1      33.566  19.464  24.573  1.00  0.00     0.005 C 
ATOM     21  C   UNL A   1      34.148  18.087  24.214  1.00  0.00     0.017 C 
ATOM     22  C   UNL A   1      32.789  19.369  25.899  1.00  0.00     0.017 C 
ATOM     23  C   UNL A   1      32.558  19.870  23.472  1.00  0.00     0.017 C 
ENDBRANCH  18  20
ENDBRANCH  14  15
ENDBRANCH  10  14
ENDBRANCH   4   7
ENDBRANCH   2   3
ENDBRANCH   1   2
BRANCH   1  24
ATOM     24  C   UNL A   1      33.454  30.040  27.805  1.00  0.00     0.118 C 
BRANCH  24  25
ATOM     25  N   UNL A   1      34.269  31.143  28.347  1.00  0.00    -0.352 N 
ATOM     26  C   UNL A   1      35.572  31.174  28.806  1.00  0.00     0.251 C 
ATOM     27  H   UNL A   1      33.803  32.010  28.389  1.00  0.00     0.163 HD
ATOM     28  O   UNL A   1      36.063  32.187  29.268  1.00  0.00    -0.269 OA
BRANCH  26  29
ATOM     29  C   UNL A   1      36.348  29.937  28.645  1.00  0.00     0.039 A 
ATOM     30  C   UNL A   1      36.810  29.351  29.825  1.00  0.00     0.014 A 
ATOM     31  C   UNL A   1      36.963  29.725  27.413  1.00  0.00     0.014 A 
ATOM     32  C   UNL A   1      38.068  28.771  29.826  1.00  0.00     0.010 A 
ATOM     33  C   UNL A   1      38.232  29.182  27.425  1.00  0.00     0.010 A 
ATOM     34  C   UNL A   1      38.811  28.807  28.648  1.00  0.00    -0.014 A 
BRANCH  34  35
ATOM     35  C   UNL A   1      40.222  28.471  28.606  1.00  0.00     0.031 A 
ATOM     36  C   UNL A   1      40.597  27.058  28.471  1.00  0.00     0.074 A 
ATOM     37  C   UNL A   1      41.180  29.420  28.695  1.00  0.00     0.049 A 
ATOM     38  N   UNL A   1      41.733  26.571  28.828  1.00  0.00    -0.248 NA
ATOM     39  C   UNL A   1      39.651  26.066  27.984  1.00  0.00     0.031 C 
ATOM     40  C   UNL A   1      42.598  29.266  28.397  1.00  0.00     0.029 A 
ATOM     41  N   UNL A   1      41.094  30.666  29.322  1.00  0.00    -0.354 N 
ATOM     42  C   UNL A   1      41.782  25.278  28.359  1.00  0.00     0.074 A 
ATOM     43  C   UNL A   1      40.429  24.982  27.953  1.00  0.00     0.031 C 
ATOM     44  C   UNL A   1      43.284  30.202  29.068  1.00  0.00     0.029 A 
ATOM     45  C   UNL A   1      42.344  30.884  29.938  1.00  0.00     0.049 A 
ATOM     46  H   UNL A   1      40.317  31.270  29.333  1.00  0.00     0.167 HD
ATOM     47  C   UNL A   1      42.998  24.682  28.222  1.00  0.00     0.034 A 
ATOM     48  C   UNL A   1      42.513  31.115  31.273  1.00  0.00     0.034 A 
ATOM     49  C   UNL A   1      44.068  25.510  28.813  1.00  0.00     0.049 A 
ATOM     50  C   UNL A   1      43.456  30.128  31.950  1.00  0.00     0.074 A 
ATOM     51  C   UNL A   1      45.021  26.373  28.295  1.00  0.00     0.029 A 
ATOM     52  N   UNL A   1      44.069  25.726  30.185  1.00  0.00    -0.354 N 
ATOM     53  N   UNL A   1      44.090  29.159  31.349  1.00  0.00    -0.248 NA
ATOM     54  C   UNL A   1      43.630  30.086  33.400  1.00  0.00     0.031 C 
ATOM     55  C   UNL A   1      45.585  27.119  29.372  1.00  0.00     0.029 A 
ATOM     56  C   UNL A   1      44.994  26.697  30.548  1.00  0.00     0.049 A 
ATOM     57  H   UNL A   1      43.488  25.250  30.820  1.00  0.00     0.167 HD
ATOM     58  C   UNL A   1      44.579  28.279  32.289  1.00  0.00     0.074 A 
ATOM     59  C   UNL A   1      44.272  28.919  33.558  1.00  0.00     0.031 C 
ATOM     60  C   UNL A   1      45.115  27.058  31.958  1.00  0.00     0.034 A 
BRANCH  47  61
ATOM     61  C   UNL A   1      43.271  23.513  27.281  1.00  0.00     0.023 A 
ATOM     62  C   UNL A   1      44.066  23.771  26.142  1.00  0.00     0.012 A 
ATOM     63  C   UNL A   1      42.737  22.205  27.365  1.00  0.00     0.148 A 
ATOM     64  C   UNL A   1      44.220  22.845  25.104  1.00  0.00     0.002 A 
ATOM     65  C   UNL A   1      42.823  21.305  26.300  1.00  0.00     0.091 A 
ATOM     66  F   UNL A   1      42.223  21.766  28.514  1.00  0.00    -0.205 F 
ATOM     67  C   UNL A   1      43.562  21.625  25.161  1.00  0.00     0.022 A 
BRANCH  65  68
ATOM     68  S   UNL A   1      41.932  19.736  26.285  1.00  0.00     0.127 S 
ATOM     69  O   UNL A   1      42.527  19.057  25.132  1.00  0.00    -0.237 OA
ATOM     70  O   UNL A   1      42.291  19.160  27.579  1.00  0.00    -0.237 OA
ATOM     71  O   UNL A   1      40.523  20.068  26.116  1.00  0.00    -0.744 OA
ENDBRANCH  65  68
ENDBRANCH  47  61
BRANCH  48  72
ATOM     72  C   UNL A   1      41.303  31.705  31.926  1.00  0.00     0.023 A 
ATOM     73  C   UNL A   1      40.871  32.974  31.470  1.00  0.00     0.012 A 
ATOM     74  C   UNL A   1      40.400  30.899  32.635  1.00  0.00     0.148 A 
ATOM     75  C   UNL A   1      39.527  33.339  31.557  1.00  0.00     0.002 A 
ATOM     76  C   UNL A   1      39.065  31.276  32.726  1.00  0.00     0.091 A 
ATOM     77  F   UNL A   1      40.821  29.736  33.147  1.00  0.00    -0.205 F 
ATOM     78  C   UNL A   1      38.613  32.464  32.138  1.00  0.00     0.022 A 
BRANCH  76  79
ATOM     79  S   UNL A   1      37.880  30.175  33.501  1.00  0.00     0.127 S 
ATOM     80  O   UNL A   1      38.340  28.874  33.030  1.00  0.00    -0.237 OA
ATOM     81  O   UNL A   1      38.093  30.427  34.926  1.00  0.00    -0.237 OA
ATOM     82  O   UNL A   1      36.591  30.635  33.002  1.00  0.00    -0.744 OA
ENDBRANCH  76  79
ENDBRANCH  48  72
BRANCH  60  83
ATOM     83  C   UNL A   1      45.728  26.060  32.943  1.00  0.00     0.023 A 
ATOM     84  C   UNL A   1      47.121  25.916  33.101  1.00  0.00     0.012 A 
ATOM     85  C   UNL A   1      44.930  25.157  33.700  1.00  0.00     0.148 A 
ATOM     86  C   UNL A   1      47.687  25.061  34.056  1.00  0.00     0.002 A 
ATOM     87  C   UNL A   1      45.493  24.282  34.628  1.00  0.00     0.091 A 
ATOM     88  F   UNL A   1      43.611  25.093  33.486  1.00  0.00    -0.205 F 
ATOM     89  C   UNL A   1      46.872  24.259  34.836  1.00  0.00     0.022 A 
BRANCH  87  90
ATOM     90  S   UNL A   1      44.508  23.112  35.576  1.00  0.00     0.127 S 
ATOM     91  O   UNL A   1      43.441  23.975  36.083  1.00  0.00    -0.237 OA
ATOM     92  O   UNL A   1      44.086  22.164  34.545  1.00  0.00    -0.237 OA
ATOM     93  O   UNL A   1      45.395  22.556  36.587  1.00  0.00    -0.744 OA
ENDBRANCH  87  90
ENDBRANCH  60  83
ENDBRANCH  34  35
ENDBRANCH  26  29
ENDBRANCH  24  25
ENDBRANCH   1  24
TORSDOF 16
ENDMDL
