MODEL 1
REMARK VINA RESULT:     -10.6      0.000      0.000
REMARK SMILES Nc1ccc(SCc2ccc(C(=O)NCCCNC(=O)c3ccc(-c4c5nc(c(-c6cccc(S(=O)(=O)[O-])c6F)c6ccc([nH]6)c(-c6cccc(S(=O)(=O)[O-])c6F)c6nc(c(-c7cccc(S(=O)(=O)[O-])c7F)c7ccc4[nH]7)C=C6)C=C5)cc3)o2)cc1
REMARK SMILES IDX 15 1 14 2 12 3 13 4 11 6 8 7 9 8 84 9 10 10 7 11 6 12 5 13
REMARK SMILES IDX 2 14 3 15 86 16 4 17 85 18 1 19 16 22 17 23 18 24 19 25
REMARK SMILES IDX 20 27 21 28 22 29 83 30 23 31 82 32 24 33 25 34 26 35 76 36
REMARK SMILES IDX 27 37 81 38 75 39 77 40 28 41 80 42 74 43 73 44 29 46 61 47
REMARK SMILES IDX 41 48 60 49 42 50 45 51 59 52 78 53 43 54 44 55 58 57 79 58
REMARK SMILES IDX 46 59 30 60 31 61 39 62 32 63 34 64 40 65 33 66 35 67 36 68
REMARK SMILES IDX 37 69 38 70 62 71 63 72 71 73 64 74 66 75 72 76 65 77 67 78
REMARK SMILES IDX 68 79 69 80 70 81 47 82 48 83 56 84 49 85 51 86 57 87 50 88
REMARK SMILES IDX 52 89 53 90 54 91 55 92
REMARK H PARENT 14 5 1 20 1 21 18 26 77 45 45 56
REMARK Flexibility Score: inf
ROOT
ATOM      1  C   UNL A   1      33.159  34.805  28.911  1.00  0.00     0.118 C 
ENDROOT
BRANCH   1   2
ATOM      2  N   UNL A   1      32.908  36.144  29.399  1.00  0.00    -0.349 N 
ATOM      3  C   UNL A   1      33.172  36.740  30.611  1.00  0.00     0.286 C 
ATOM      4  O   UNL A   1      32.906  37.944  30.668  1.00  0.00    -0.266 OA
ATOM      5  H   UNL A   1      32.470  36.736  28.746  1.00  0.00     0.163 HD
BRANCH   3   6
ATOM      6  C   UNL A   1      33.744  36.001  31.723  1.00  0.00     0.191 A 
ATOM      7  C   UNL A   1      34.356  34.096  32.695  1.00  0.00     0.115 A 
ATOM      8  C   UNL A   1      34.641  35.101  33.592  1.00  0.00     0.047 A 
ATOM      9  O   UNL A   1      33.820  34.637  31.567  1.00  0.00    -0.455 OA
ATOM     10  C   UNL A   1      34.280  36.318  32.959  1.00  0.00     0.056 A 
BRANCH   7  11
ATOM     11  C   UNL A   1      34.523  32.618  32.780  1.00  0.00     0.150 C 
BRANCH  11  12
ATOM     12  S   UNL A   1      36.174  31.952  32.404  1.00  0.00    -0.118 SA
BRANCH  12  13
ATOM     13  C   UNL A   1      37.311  33.020  33.277  1.00  0.00     0.008 A 
ATOM     14  C   UNL A   1      38.970  34.672  34.877  1.00  0.00     0.031 A 
ATOM     15  C   UNL A   1      38.224  33.645  35.451  1.00  0.00     0.026 A 
ATOM     16  C   UNL A   1      38.934  34.820  33.492  1.00  0.00     0.026 A 
ATOM     17  C   UNL A   1      37.392  32.841  34.664  1.00  0.00     0.017 A 
ATOM     18  C   UNL A   1      38.108  34.011  32.699  1.00  0.00     0.017 A 
BRANCH  14  19
ATOM     19  N   UNL A   1      39.834  35.435  35.648  1.00  0.00    -0.399 N 
ATOM     20  H   UNL A   1      39.582  35.690  36.565  1.00  0.00     0.156 HD
ATOM     21  H   UNL A   1      40.701  35.722  35.278  1.00  0.00     0.156 HD
ENDBRANCH  14  19
ENDBRANCH  12  13
ENDBRANCH  11  12
ENDBRANCH   7  11
ENDBRANCH   3   6
ENDBRANCH   1   2
BRANCH   1  22
ATOM     22  C   UNL A   1      34.529  34.691  28.249  1.00  0.00     0.042 C 
BRANCH  22  23
ATOM     23  C   UNL A   1      35.168  33.313  28.425  1.00  0.00     0.118 C 
BRANCH  23  24
ATOM     24  N   UNL A   1      34.340  32.252  27.862  1.00  0.00    -0.352 N 
ATOM     25  C   UNL A   1      34.637  30.941  27.583  1.00  0.00     0.251 C 
ATOM     26  H   UNL A   1      33.417  32.519  27.646  1.00  0.00     0.163 HD
ATOM     27  O   UNL A   1      33.866  30.290  26.882  1.00  0.00    -0.269 OA
BRANCH  25  28
ATOM     28  C   UNL A   1      35.865  30.313  28.114  1.00  0.00     0.039 A 
ATOM     29  C   UNL A   1      37.031  30.351  27.343  1.00  0.00     0.014 A 
ATOM     30  C   UNL A   1      35.859  29.644  29.340  1.00  0.00     0.014 A 
ATOM     31  C   UNL A   1      38.203  29.765  27.828  1.00  0.00     0.010 A 
ATOM     32  C   UNL A   1      37.046  29.131  29.857  1.00  0.00     0.010 A 
ATOM     33  C   UNL A   1      38.227  29.177  29.103  1.00  0.00    -0.014 A 
BRANCH  33  34
ATOM     34  C   UNL A   1      39.481  28.615  29.668  1.00  0.00     0.031 A 
ATOM     35  C   UNL A   1      40.109  29.227  30.891  1.00  0.00     0.074 A 
ATOM     36  C   UNL A   1      40.099  27.603  29.026  1.00  0.00     0.049 A 
ATOM     37  N   UNL A   1      41.221  28.901  31.496  1.00  0.00    -0.248 NA
ATOM     38  C   UNL A   1      39.411  30.372  31.496  1.00  0.00     0.031 C 
ATOM     39  C   UNL A   1      39.629  26.977  27.789  1.00  0.00     0.029 A 
ATOM     40  N   UNL A   1      41.266  26.942  29.311  1.00  0.00    -0.354 N 
ATOM     41  C   UNL A   1      41.376  29.819  32.528  1.00  0.00     0.074 A 
ATOM     42  C   UNL A   1      40.262  30.739  32.442  1.00  0.00     0.031 C 
ATOM     43  C   UNL A   1      40.491  26.013  27.428  1.00  0.00     0.029 A 
ATOM     44  C   UNL A   1      41.592  25.978  28.386  1.00  0.00     0.049 A 
ATOM     45  H   UNL A   1      41.818  27.137  30.102  1.00  0.00     0.167 HD
ATOM     46  C   UNL A   1      42.340  29.877  33.478  1.00  0.00     0.034 A 
ATOM     47  C   UNL A   1      42.660  25.160  28.313  1.00  0.00     0.034 A 
ATOM     48  C   UNL A   1      43.428  28.941  33.576  1.00  0.00     0.049 A 
ATOM     49  C   UNL A   1      43.703  25.225  29.393  1.00  0.00     0.074 A 
ATOM     50  C   UNL A   1      44.408  28.858  34.548  1.00  0.00     0.029 A 
ATOM     51  N   UNL A   1      43.689  27.933  32.659  1.00  0.00    -0.354 N 
ATOM     52  N   UNL A   1      43.751  26.000  30.450  1.00  0.00    -0.248 NA
ATOM     53  C   UNL A   1      44.823  24.278  29.291  1.00  0.00     0.031 C 
ATOM     54  C   UNL A   1      45.282  27.821  34.201  1.00  0.00     0.029 A 
ATOM     55  C   UNL A   1      44.823  27.233  33.033  1.00  0.00     0.049 A 
ATOM     56  H   UNL A   1      43.147  27.744  31.860  1.00  0.00     0.167 HD
ATOM     57  C   UNL A   1      44.882  25.612  31.158  1.00  0.00     0.074 A 
ATOM     58  C   UNL A   1      45.480  24.518  30.418  1.00  0.00     0.031 C 
ATOM     59  C   UNL A   1      45.386  26.119  32.311  1.00  0.00     0.034 A 
BRANCH  46  60
ATOM     60  C   UNL A   1      42.234  30.971  34.513  1.00  0.00     0.023 A 
ATOM     61  C   UNL A   1      41.636  30.698  35.761  1.00  0.00     0.012 A 
ATOM     62  C   UNL A   1      42.756  32.256  34.266  1.00  0.00     0.148 A 
ATOM     63  C   UNL A   1      41.512  31.697  36.726  1.00  0.00     0.002 A 
ATOM     64  C   UNL A   1      42.674  33.233  35.253  1.00  0.00     0.091 A 
ATOM     65  F   UNL A   1      43.305  32.506  33.069  1.00  0.00    -0.205 F 
ATOM     66  C   UNL A   1      42.038  32.960  36.476  1.00  0.00     0.022 A 
BRANCH  64  67
ATOM     67  S   UNL A   1      43.396  34.867  35.060  1.00  0.00     0.127 S 
ATOM     68  O   UNL A   1      42.609  35.408  33.952  1.00  0.00    -0.237 OA
ATOM     69  O   UNL A   1      43.119  35.480  36.359  1.00  0.00    -0.237 OA
ATOM     70  O   UNL A   1      44.807  34.650  34.779  1.00  0.00    -0.744 OA
ENDBRANCH  64  67
ENDBRANCH  46  60
BRANCH  47  71
ATOM     71  C   UNL A   1      42.752  24.159  27.212  1.00  0.00     0.023 A 
ATOM     72  C   UNL A   1      43.521  24.458  26.071  1.00  0.00     0.012 A 
ATOM     73  C   UNL A   1      42.124  22.903  27.308  1.00  0.00     0.148 A 
ATOM     74  C   UNL A   1      43.640  23.536  25.031  1.00  0.00     0.002 A 
ATOM     75  C   UNL A   1      42.293  21.966  26.294  1.00  0.00     0.091 A 
ATOM     76  F   UNL A   1      41.393  22.640  28.400  1.00  0.00    -0.205 F 
ATOM     77  C   UNL A   1      43.035  22.288  25.147  1.00  0.00     0.022 A 
BRANCH  75  78
ATOM     78  S   UNL A   1      41.664  20.288  26.413  1.00  0.00     0.127 S 
ATOM     79  O   UNL A   1      42.189  19.863  27.708  1.00  0.00    -0.237 OA
ATOM     80  O   UNL A   1      40.218  20.507  26.376  1.00  0.00    -0.237 OA
ATOM     81  O   UNL A   1      42.195  19.582  25.256  1.00  0.00    -0.744 OA
ENDBRANCH  75  78
ENDBRANCH  47  71
BRANCH  59  82
ATOM     82  C   UNL A   1      46.628  25.477  32.870  1.00  0.00     0.023 A 
ATOM     83  C   UNL A   1      47.899  25.972  32.517  1.00  0.00     0.012 A 
ATOM     84  C   UNL A   1      46.532  24.423  33.801  1.00  0.00     0.148 A 
ATOM     85  C   UNL A   1      49.055  25.405  33.052  1.00  0.00     0.002 A 
ATOM     86  C   UNL A   1      47.685  23.898  34.370  1.00  0.00     0.091 A 
ATOM     87  F   UNL A   1      45.314  23.953  34.111  1.00  0.00    -0.205 F 
ATOM     88  C   UNL A   1      48.948  24.377  33.986  1.00  0.00     0.022 A 
BRANCH  86  89
ATOM     89  S   UNL A   1      47.641  22.643  35.654  1.00  0.00     0.127 S 
ATOM     90  O   UNL A   1      47.027  21.518  34.950  1.00  0.00    -0.237 OA
ATOM     91  O   UNL A   1      49.059  22.467  35.965  1.00  0.00    -0.237 OA
ATOM     92  O   UNL A   1      46.849  23.205  36.739  1.00  0.00    -0.744 OA
ENDBRANCH  86  89
ENDBRANCH  59  82
ENDBRANCH  33  34
ENDBRANCH  25  28
ENDBRANCH  23  24
ENDBRANCH  22  23
ENDBRANCH   1  22
TORSDOF 17
ENDMDL
MODEL 2
REMARK VINA RESULT:     -10.6      3.541      6.602
REMARK SMILES Nc1ccc(SCc2ccc(C(=O)NCCCNC(=O)c3ccc(-c4c5nc(c(-c6cccc(S(=O)(=O)[O-])c6F)c6ccc([nH]6)c(-c6cccc(S(=O)(=O)[O-])c6F)c6nc(c(-c7cccc(S(=O)(=O)[O-])c7F)c7ccc4[nH]7)C=C6)C=C5)cc3)o2)cc1
REMARK SMILES IDX 15 1 14 2 12 3 13 4 11 6 8 7 9 8 84 9 10 10 7 11 6 12 5 13
REMARK SMILES IDX 2 14 3 15 86 16 4 17 85 18 1 19 16 22 17 23 18 24 19 25
REMARK SMILES IDX 20 27 21 28 22 29 83 30 23 31 82 32 24 33 25 34 26 35 76 36
REMARK SMILES IDX 27 37 81 38 75 39 77 40 28 41 80 42 74 43 73 44 29 46 61 47
REMARK SMILES IDX 41 48 60 49 42 50 45 51 59 52 78 53 43 54 44 55 58 57 79 58
REMARK SMILES IDX 46 59 30 60 31 61 39 62 32 63 34 64 40 65 33 66 35 67 36 68
REMARK SMILES IDX 37 69 38 70 62 71 63 72 71 73 64 74 66 75 72 76 65 77 67 78
REMARK SMILES IDX 68 79 69 80 70 81 47 82 48 83 56 84 49 85 51 86 57 87 50 88
REMARK SMILES IDX 52 89 53 90 54 91 55 92
REMARK H PARENT 14 5 1 20 1 21 18 26 77 45 45 56
REMARK Flexibility Score: inf
ROOT
ATOM      1  C   UNL A   1      32.163  27.777  26.978  1.00  0.00     0.118 C 
ENDROOT
BRANCH   1   2
ATOM      2  N   UNL A   1      31.041  26.863  27.021  1.00  0.00    -0.349 N 
ATOM      3  C   UNL A   1      30.381  26.178  26.026  1.00  0.00     0.286 C 
ATOM      4  O   UNL A   1      29.509  25.398  26.421  1.00  0.00    -0.266 OA
ATOM      5  H   UNL A   1      30.686  26.702  27.925  1.00  0.00     0.163 HD
BRANCH   3   6
ATOM      6  C   UNL A   1      30.715  26.349  24.623  1.00  0.00     0.191 A 
ATOM      7  C   UNL A   1      32.001  25.937  22.855  1.00  0.00     0.115 A 
ATOM      8  C   UNL A   1      31.026  26.813  22.433  1.00  0.00     0.047 A 
ATOM      9  O   UNL A   1      31.813  25.653  24.173  1.00  0.00    -0.455 OA
ATOM     10  C   UNL A   1      30.188  27.050  23.552  1.00  0.00     0.056 A 
BRANCH   7  11
ATOM     11  C   UNL A   1      33.150  25.314  22.138  1.00  0.00     0.150 C 
BRANCH  11  12
ATOM     12  S   UNL A   1      33.418  23.534  22.401  1.00  0.00    -0.118 SA
BRANCH  12  13
ATOM     13  C   UNL A   1      34.780  23.438  23.556  1.00  0.00     0.008 A 
ATOM     14  C   UNL A   1      36.844  23.506  25.498  1.00  0.00     0.031 A 
ATOM     15  C   UNL A   1      35.611  24.103  25.751  1.00  0.00     0.026 A 
ATOM     16  C   UNL A   1      37.011  22.816  24.299  1.00  0.00     0.026 A 
ATOM     17  C   UNL A   1      34.598  24.085  24.785  1.00  0.00     0.017 A 
ATOM     18  C   UNL A   1      35.996  22.789  23.333  1.00  0.00     0.017 A 
BRANCH  14  19
ATOM     19  N   UNL A   1      37.830  23.478  26.473  1.00  0.00    -0.399 N 
ATOM     20  H   UNL A   1      38.612  24.072  26.401  1.00  0.00     0.156 HD
ATOM     21  H   UNL A   1      37.747  22.865  27.240  1.00  0.00     0.156 HD
ENDBRANCH  14  19
ENDBRANCH  12  13
ENDBRANCH  11  12
ENDBRANCH   7  11
ENDBRANCH   3   6
ENDBRANCH   1   2
BRANCH   1  22
ATOM     22  C   UNL A   1      31.708  29.227  26.845  1.00  0.00     0.042 C 
BRANCH  22  23
ATOM     23  C   UNL A   1      32.659  30.081  26.008  1.00  0.00     0.118 C 
BRANCH  23  24
ATOM     24  N   UNL A   1      32.575  31.495  26.358  1.00  0.00    -0.352 N 
ATOM     25  C   UNL A   1      33.260  32.223  27.299  1.00  0.00     0.251 C 
ATOM     26  H   UNL A   1      31.920  32.011  25.835  1.00  0.00     0.163 HD
ATOM     27  O   UNL A   1      32.857  33.345  27.596  1.00  0.00    -0.269 OA
BRANCH  25  28
ATOM     28  C   UNL A   1      34.468  31.673  27.950  1.00  0.00     0.039 A 
ATOM     29  C   UNL A   1      35.540  32.531  28.219  1.00  0.00     0.014 A 
ATOM     30  C   UNL A   1      34.570  30.313  28.248  1.00  0.00     0.014 A 
ATOM     31  C   UNL A   1      36.690  32.031  28.834  1.00  0.00     0.010 A 
ATOM     32  C   UNL A   1      35.683  29.833  28.934  1.00  0.00     0.010 A 
ATOM     33  C   UNL A   1      36.758  30.684  29.225  1.00  0.00    -0.014 A 
BRANCH  33  34
ATOM     34  C   UNL A   1      37.941  30.151  29.949  1.00  0.00     0.031 A 
ATOM     35  C   UNL A   1      38.256  30.615  31.344  1.00  0.00     0.074 A 
ATOM     36  C   UNL A   1      38.780  29.309  29.311  1.00  0.00     0.049 A 
ATOM     37  N   UNL A   1      39.266  30.296  32.111  1.00  0.00    -0.248 NA
ATOM     38  C   UNL A   1      37.330  31.587  31.948  1.00  0.00     0.031 C 
ATOM     39  C   UNL A   1      38.623  28.846  27.932  1.00  0.00     0.029 A 
ATOM     40  N   UNL A   1      39.942  28.715  29.732  1.00  0.00    -0.354 N 
ATOM     41  C   UNL A   1      39.119  31.051  33.269  1.00  0.00     0.074 A 
ATOM     42  C   UNL A   1      37.943  31.874  33.087  1.00  0.00     0.031 C 
ATOM     43  C   UNL A   1      39.642  28.029  27.623  1.00  0.00     0.029 A 
ATOM     44  C   UNL A   1      40.543  27.939  28.769  1.00  0.00     0.049 A 
ATOM     45  H   UNL A   1      40.311  28.831  30.637  1.00  0.00     0.167 HD
ATOM     46  C   UNL A   1      39.877  31.042  34.392  1.00  0.00     0.034 A 
ATOM     47  C   UNL A   1      41.692  27.238  28.801  1.00  0.00     0.034 A 
ATOM     48  C   UNL A   1      41.028  30.200  34.578  1.00  0.00     0.049 A 
ATOM     49  C   UNL A   1      42.502  27.223  30.067  1.00  0.00     0.074 A 
ATOM     50  C   UNL A   1      41.813  30.051  35.706  1.00  0.00     0.029 A 
ATOM     51  N   UNL A   1      41.569  29.374  33.603  1.00  0.00    -0.354 N 
ATOM     52  N   UNL A   1      42.263  27.823  31.208  1.00  0.00    -0.248 NA
ATOM     53  C   UNL A   1      43.722  26.404  30.064  1.00  0.00     0.031 C 
ATOM     54  C   UNL A   1      42.849  29.160  35.403  1.00  0.00     0.029 A 
ATOM     55  C   UNL A   1      42.686  28.724  34.098  1.00  0.00     0.049 A 
ATOM     56  H   UNL A   1      41.211  29.266  32.693  1.00  0.00     0.167 HD
ATOM     57  C   UNL A   1      43.279  27.428  32.069  1.00  0.00     0.074 A 
ATOM     58  C   UNL A   1      44.127  26.520  31.322  1.00  0.00     0.031 C 
ATOM     59  C   UNL A   1      43.498  27.790  33.358  1.00  0.00     0.034 A 
BRANCH  46  60
ATOM     60  C   UNL A   1      39.455  31.948  35.524  1.00  0.00     0.023 A 
ATOM     61  C   UNL A   1      38.575  31.465  36.515  1.00  0.00     0.012 A 
ATOM     62  C   UNL A   1      39.954  33.260  35.628  1.00  0.00     0.148 A 
ATOM     63  C   UNL A   1      38.158  32.288  37.561  1.00  0.00     0.002 A 
ATOM     64  C   UNL A   1      39.574  34.059  36.702  1.00  0.00     0.091 A 
ATOM     65  F   UNL A   1      40.775  33.712  34.669  1.00  0.00    -0.205 F 
ATOM     66  C   UNL A   1      38.664  33.580  37.659  1.00  0.00     0.022 A 
BRANCH  64  67
ATOM     67  S   UNL A   1      40.235  35.708  36.964  1.00  0.00     0.127 S 
ATOM     68  O   UNL A   1      39.658  36.440  35.836  1.00  0.00    -0.237 OA
ATOM     69  O   UNL A   1      39.674  36.060  38.269  1.00  0.00    -0.237 OA
ATOM     70  O   UNL A   1      41.684  35.567  36.944  1.00  0.00    -0.744 OA
ENDBRANCH  64  67
ENDBRANCH  46  60
BRANCH  47  71
ATOM     71  C   UNL A   1      42.102  26.434  27.615  1.00  0.00     0.023 A 
ATOM     72  C   UNL A   1      42.872  27.040  26.602  1.00  0.00     0.012 A 
ATOM     73  C   UNL A   1      41.776  25.068  27.505  1.00  0.00     0.148 A 
ATOM     74  C   UNL A   1      43.284  26.310  25.488  1.00  0.00     0.002 A 
ATOM     75  C   UNL A   1      42.238  24.332  26.420  1.00  0.00     0.091 A 
ATOM     76  F   UNL A   1      41.040  24.512  28.477  1.00  0.00    -0.205 F 
ATOM     77  C   UNL A   1      42.977  24.955  25.402  1.00  0.00     0.022 A 
BRANCH  75  78
ATOM     78  S   UNL A   1      42.007  22.556  26.288  1.00  0.00     0.127 S 
ATOM     79  O   UNL A   1      42.637  22.266  25.003  1.00  0.00    -0.237 OA
ATOM     80  O   UNL A   1      42.740  22.071  27.457  1.00  0.00    -0.237 OA
ATOM     81  O   UNL A   1      40.569  22.337  26.348  1.00  0.00    -0.744 OA
ENDBRANCH  75  78
ENDBRANCH  47  71
BRANCH  59  82
ATOM     82  C   UNL A   1      44.680  27.178  34.063  1.00  0.00     0.023 A 
ATOM     83  C   UNL A   1      45.929  27.830  34.045  1.00  0.00     0.012 A 
ATOM     84  C   UNL A   1      44.535  25.986  34.801  1.00  0.00     0.148 A 
ATOM     85  C   UNL A   1      47.022  27.288  34.718  1.00  0.00     0.002 A 
ATOM     86  C   UNL A   1      45.614  25.479  35.513  1.00  0.00     0.091 A 
ATOM     87  F   UNL A   1      43.343  25.369  34.791  1.00  0.00    -0.205 F 
ATOM     88  C   UNL A   1      46.863  26.121  35.461  1.00  0.00     0.022 A 
BRANCH  86  89
ATOM     89  S   UNL A   1      45.477  24.038  36.576  1.00  0.00     0.127 S 
ATOM     90  O   UNL A   1      44.956  24.627  37.809  1.00  0.00    -0.237 OA
ATOM     91  O   UNL A   1      44.522  23.205  35.846  1.00  0.00    -0.237 OA
ATOM     92  O   UNL A   1      46.819  23.479  36.671  1.00  0.00    -0.744 OA
ENDBRANCH  86  89
ENDBRANCH  59  82
ENDBRANCH  33  34
ENDBRANCH  25  28
ENDBRANCH  23  24
ENDBRANCH  22  23
ENDBRANCH   1  22
TORSDOF 17
ENDMDL
MODEL 3
REMARK VINA RESULT:     -10.5      3.266      6.310
REMARK SMILES Nc1ccc(SCc2ccc(C(=O)NCCCNC(=O)c3ccc(-c4c5nc(c(-c6cccc(S(=O)(=O)[O-])c6F)c6ccc([nH]6)c(-c6cccc(S(=O)(=O)[O-])c6F)c6nc(c(-c7cccc(S(=O)(=O)[O-])c7F)c7ccc4[nH]7)C=C6)C=C5)cc3)o2)cc1
REMARK SMILES IDX 15 1 14 2 12 3 13 4 11 6 8 7 9 8 84 9 10 10 7 11 6 12 5 13
REMARK SMILES IDX 2 14 3 15 86 16 4 17 85 18 1 19 16 22 17 23 18 24 19 25
REMARK SMILES IDX 20 27 21 28 22 29 83 30 23 31 82 32 24 33 25 34 26 35 76 36
REMARK SMILES IDX 27 37 81 38 75 39 77 40 28 41 80 42 74 43 73 44 29 46 61 47
REMARK SMILES IDX 41 48 60 49 42 50 45 51 59 52 78 53 43 54 44 55 58 57 79 58
REMARK SMILES IDX 46 59 30 60 31 61 39 62 32 63 34 64 40 65 33 66 35 67 36 68
REMARK SMILES IDX 37 69 38 70 62 71 63 72 71 73 64 74 66 75 72 76 65 77 67 78
REMARK SMILES IDX 68 79 69 80 70 81 47 82 48 83 56 84 49 85 51 86 57 87 50 88
REMARK SMILES IDX 52 89 53 90 54 91 55 92
REMARK H PARENT 14 5 1 20 1 21 18 26 77 45 45 56
REMARK Flexibility Score: inf
ROOT
ATOM      1  C   UNL A   1      33.166  29.307  24.861  1.00  0.00     0.118 C 
ENDROOT
BRANCH   1   2
ATOM      2  N   UNL A   1      33.837  29.083  23.598  1.00  0.00    -0.349 N 
ATOM      3  C   UNL A   1      33.607  28.176  22.589  1.00  0.00     0.286 C 
ATOM      4  O   UNL A   1      34.320  28.315  21.591  1.00  0.00    -0.266 OA
ATOM      5  H   UNL A   1      34.594  29.688  23.431  1.00  0.00     0.163 HD
BRANCH   3   6
ATOM      6  C   UNL A   1      32.580  27.153  22.693  1.00  0.00     0.191 A 
ATOM      7  C   UNL A   1      31.893  25.130  23.311  1.00  0.00     0.115 A 
ATOM      8  C   UNL A   1      30.820  25.736  22.698  1.00  0.00     0.047 A 
ATOM      9  O   UNL A   1      32.953  25.983  23.313  1.00  0.00    -0.455 OA
ATOM     10  C   UNL A   1      31.249  27.038  22.333  1.00  0.00     0.056 A 
BRANCH   7  11
ATOM     11  C   UNL A   1      32.054  23.776  23.912  1.00  0.00     0.150 C 
BRANCH  11  12
ATOM     12  S   UNL A   1      33.263  22.664  23.131  1.00  0.00    -0.118 SA
BRANCH  12  13
ATOM     13  C   UNL A   1      34.765  22.877  24.078  1.00  0.00     0.008 A 
ATOM     14  C   UNL A   1      37.009  23.378  25.736  1.00  0.00     0.031 A 
ATOM     15  C   UNL A   1      35.714  23.515  26.233  1.00  0.00     0.026 A 
ATOM     16  C   UNL A   1      37.171  22.922  24.430  1.00  0.00     0.026 A 
ATOM     17  C   UNL A   1      34.607  23.285  25.410  1.00  0.00     0.017 A 
ATOM     18  C   UNL A   1      36.064  22.683  23.605  1.00  0.00     0.017 A 
BRANCH  14  19
ATOM     19  N   UNL A   1      38.107  23.556  26.565  1.00  0.00    -0.399 N 
ATOM     20  H   UNL A   1      38.026  23.390  27.532  1.00  0.00     0.156 HD
ATOM     21  H   UNL A   1      38.969  23.846  26.186  1.00  0.00     0.156 HD
ENDBRANCH  14  19
ENDBRANCH  12  13
ENDBRANCH  11  12
ENDBRANCH   7  11
ENDBRANCH   3   6
ENDBRANCH   1   2
BRANCH   1  22
ATOM     22  C   UNL A   1      33.984  28.786  26.038  1.00  0.00     0.042 C 
BRANCH  22  23
ATOM     23  C   UNL A   1      33.417  29.201  27.395  1.00  0.00     0.118 C 
BRANCH  23  24
ATOM     24  N   UNL A   1      33.521  30.640  27.613  1.00  0.00    -0.352 N 
ATOM     25  C   UNL A   1      34.466  31.374  28.287  1.00  0.00     0.251 C 
ATOM     26  H   UNL A   1      32.795  31.172  27.213  1.00  0.00     0.163 HD
ATOM     27  O   UNL A   1      34.228  32.548  28.558  1.00  0.00    -0.269 OA
BRANCH  25  28
ATOM     28  C   UNL A   1      35.755  30.769  28.682  1.00  0.00     0.039 A 
ATOM     29  C   UNL A   1      36.931  31.232  28.084  1.00  0.00     0.014 A 
ATOM     30  C   UNL A   1      35.805  29.714  29.597  1.00  0.00     0.014 A 
ATOM     31  C   UNL A   1      38.159  30.674  28.444  1.00  0.00     0.010 A 
ATOM     32  C   UNL A   1      37.036  29.215  30.014  1.00  0.00     0.010 A 
ATOM     33  C   UNL A   1      38.225  29.681  29.436  1.00  0.00    -0.014 A 
BRANCH  33  34
ATOM     34  C   UNL A   1      39.527  29.128  29.888  1.00  0.00     0.031 A 
ATOM     35  C   UNL A   1      40.290  29.787  31.004  1.00  0.00     0.074 A 
ATOM     36  C   UNL A   1      40.062  28.079  29.231  1.00  0.00     0.049 A 
ATOM     37  N   UNL A   1      41.459  29.473  31.500  1.00  0.00    -0.248 NA
ATOM     38  C   UNL A   1      39.673  30.969  31.627  1.00  0.00     0.031 C 
ATOM     39  C   UNL A   1      39.454  27.403  28.084  1.00  0.00     0.029 A 
ATOM     40  N   UNL A   1      41.247  27.415  29.419  1.00  0.00    -0.354 N 
ATOM     41  C   UNL A   1      41.734  30.436  32.465  1.00  0.00     0.074 A 
ATOM     42  C   UNL A   1      40.626  31.367  32.456  1.00  0.00     0.031 C 
ATOM     43  C   UNL A   1      40.262  26.411  27.678  1.00  0.00     0.029 A 
ATOM     44  C   UNL A   1      41.461  26.405  28.511  1.00  0.00     0.049 A 
ATOM     45  H   UNL A   1      41.884  27.639  30.135  1.00  0.00     0.167 HD
ATOM     46  C   UNL A   1      42.797  30.524  33.300  1.00  0.00     0.034 A 
ATOM     47  C   UNL A   1      42.507  25.569  28.361  1.00  0.00     0.034 A 
ATOM     48  C   UNL A   1      43.880  29.578  33.324  1.00  0.00     0.049 A 
ATOM     49  C   UNL A   1      43.662  25.669  29.318  1.00  0.00     0.074 A 
ATOM     50  C   UNL A   1      44.960  29.526  34.187  1.00  0.00     0.029 A 
ATOM     51  N   UNL A   1      44.030  28.525  32.433  1.00  0.00    -0.354 N 
ATOM     52  N   UNL A   1      43.832  26.491  30.325  1.00  0.00    -0.248 NA
ATOM     53  C   UNL A   1      44.755  24.702  29.140  1.00  0.00     0.031 C 
ATOM     54  C   UNL A   1      45.780  28.462  33.796  1.00  0.00     0.029 A 
ATOM     55  C   UNL A   1      45.191  27.827  32.715  1.00  0.00     0.049 A 
ATOM     56  H   UNL A   1      43.402  28.307  31.708  1.00  0.00     0.167 HD
ATOM     57  C   UNL A   1      45.030  26.120  30.924  1.00  0.00     0.074 A 
ATOM     58  C   UNL A   1      45.534  24.985  30.176  1.00  0.00     0.031 C 
ATOM     59  C   UNL A   1      45.661  26.673  31.989  1.00  0.00     0.034 A 
BRANCH  46  60
ATOM     60  C   UNL A   1      42.815  31.666  34.287  1.00  0.00     0.023 A 
ATOM     61  C   UNL A   1      43.435  32.884  33.937  1.00  0.00     0.012 A 
ATOM     62  C   UNL A   1      42.191  31.549  35.544  1.00  0.00     0.148 A 
ATOM     63  C   UNL A   1      43.479  33.947  34.837  1.00  0.00     0.002 A 
ATOM     64  C   UNL A   1      42.194  32.631  36.418  1.00  0.00     0.091 A 
ATOM     65  F   UNL A   1      41.622  30.380  35.871  1.00  0.00    -0.205 F 
ATOM     66  C   UNL A   1      42.851  33.824  36.073  1.00  0.00     0.022 A 
BRANCH  64  67
ATOM     67  S   UNL A   1      41.342  32.602  37.999  1.00  0.00     0.127 S 
ATOM     68  O   UNL A   1      42.181  31.685  38.769  1.00  0.00    -0.237 OA
ATOM     69  O   UNL A   1      41.424  34.001  38.419  1.00  0.00    -0.237 OA
ATOM     70  O   UNL A   1      39.993  32.131  37.718  1.00  0.00    -0.744 OA
ENDBRANCH  64  67
ENDBRANCH  46  60
BRANCH  47  71
ATOM     71  C   UNL A   1      42.469  24.517  27.306  1.00  0.00     0.023 A 
ATOM     72  C   UNL A   1      43.263  24.668  26.152  1.00  0.00     0.012 A 
ATOM     73  C   UNL A   1      41.691  23.353  27.458  1.00  0.00     0.148 A 
ATOM     74  C   UNL A   1      43.262  23.694  25.155  1.00  0.00     0.002 A 
ATOM     75  C   UNL A   1      41.738  22.359  26.486  1.00  0.00     0.091 A 
ATOM     76  F   UNL A   1      40.940  23.231  28.560  1.00  0.00    -0.205 F 
ATOM     77  C   UNL A   1      42.508  22.536  25.326  1.00  0.00     0.022 A 
BRANCH  75  78
ATOM     78  S   UNL A   1      40.908  20.778  26.680  1.00  0.00     0.127 S 
ATOM     79  O   UNL A   1      40.898  20.620  28.132  1.00  0.00    -0.237 OA
ATOM     80  O   UNL A   1      39.601  21.051  26.081  1.00  0.00    -0.237 OA
ATOM     81  O   UNL A   1      41.715  19.814  25.947  1.00  0.00    -0.744 OA
ENDBRANCH  75  78
ENDBRANCH  47  71
BRANCH  59  82
ATOM     82  C   UNL A   1      46.952  26.040  32.441  1.00  0.00     0.023 A 
ATOM     83  C   UNL A   1      48.181  26.498  31.928  1.00  0.00     0.012 A 
ATOM     84  C   UNL A   1      46.948  25.032  33.427  1.00  0.00     0.148 A 
ATOM     85  C   UNL A   1      49.382  25.939  32.360  1.00  0.00     0.002 A 
ATOM     86  C   UNL A   1      48.151  24.517  33.892  1.00  0.00     0.091 A 
ATOM     87  F   UNL A   1      45.767  24.595  33.889  1.00  0.00    -0.205 F 
ATOM     88  C   UNL A   1      49.369  24.959  33.349  1.00  0.00     0.022 A 
BRANCH  86  89
ATOM     89  S   UNL A   1      48.236  23.325  35.232  1.00  0.00     0.127 S 
ATOM     90  O   UNL A   1      47.414  23.969  36.255  1.00  0.00    -0.237 OA
ATOM     91  O   UNL A   1      47.636  22.135  34.627  1.00  0.00    -0.237 OA
ATOM     92  O   UNL A   1      49.648  23.189  35.561  1.00  0.00    -0.744 OA
ENDBRANCH  86  89
ENDBRANCH  59  82
ENDBRANCH  33  34
ENDBRANCH  25  28
ENDBRANCH  23  24
ENDBRANCH  22  23
ENDBRANCH   1  22
TORSDOF 17
ENDMDL
