MODEL 1
REMARK VINA RESULT:     -12.2      0.000      0.000
REMARK SMILES Cc1cc(C(=O)C[C@H](C)CC(=O)NCCCNC(=O)c2ccc(-c3c4nc(c(-c5cccc(S(=O)(=O)[O-])c5F)c5ccc([nH]5)c(-c5cccc(S(=O)(=O)[O-])c5F)c5nc(c(-c6cccc(S(=O)(=O)[O-])c6F)c6ccc3[nH]6)C=C5)C=C4)cc2)ccc1F
REMARK SMILES IDX 14 1 13 2 11 3 12 4 10 6 8 7 9 8 7 9 5 10 6 11 4 12 1 13
REMARK SMILES IDX 2 14 3 15 85 16 84 17 86 18 83 19 15 20 16 21 17 22 18 23
REMARK SMILES IDX 19 25 20 26 21 27 82 28 22 29 81 30 23 31 24 32 25 33 75 34
REMARK SMILES IDX 26 35 80 36 74 37 76 38 27 39 79 40 73 41 72 42 28 44 60 45
REMARK SMILES IDX 40 46 59 47 41 48 44 49 58 50 77 51 42 52 43 53 57 55 78 56
REMARK SMILES IDX 45 57 29 58 30 59 38 60 31 61 33 62 39 63 32 64 34 65 35 66
REMARK SMILES IDX 36 67 37 68 61 69 62 70 70 71 63 72 65 73 71 74 64 75 66 76
REMARK SMILES IDX 67 77 68 78 69 79 46 80 47 81 55 82 48 83 50 84 56 85 49 86
REMARK SMILES IDX 51 87 52 88 53 89 54 90
REMARK H PARENT 13 5 17 24 76 43 44 54
REMARK Flexibility Score: inf
ROOT
ATOM      1  C   UNL A   1      33.270  29.519  24.980  1.00  0.00     0.117 C 
ENDROOT
BRANCH   1   2
ATOM      2  N   UNL A   1      33.778  29.414  23.617  1.00  0.00    -0.356 N 
ATOM      3  C   UNL A   1      33.399  28.514  22.656  1.00  0.00     0.220 C 
ATOM      4  O   UNL A   1      34.141  28.265  21.711  1.00  0.00    -0.275 OA
ATOM      5  H   UNL A   1      34.473  30.063  23.359  1.00  0.00     0.163 HD
BRANCH   3   6
ATOM      6  C   UNL A   1      31.988  27.981  22.722  1.00  0.00     0.103 C 
BRANCH   6   7
ATOM      7  C   UNL A   1      31.629  26.662  23.421  1.00  0.00     0.003 C 
ATOM      8  C   UNL A   1      30.311  26.716  24.194  1.00  0.00     0.008 C 
BRANCH   7   9
ATOM      9  C   UNL A   1      31.478  25.520  22.382  1.00  0.00     0.085 C 
BRANCH   9  10
ATOM     10  C   UNL A   1      32.770  24.902  21.866  1.00  0.00     0.163 C 
ATOM     11  O   UNL A   1      33.202  25.194  20.751  1.00  0.00    -0.294 OA
BRANCH  10  12
ATOM     12  C   UNL A   1      33.506  23.890  22.691  1.00  0.00     0.018 A 
ATOM     13  C   UNL A   1      36.148  23.852  25.420  1.00  0.00     0.047 C 
ATOM     14  C   UNL A   1      35.110  23.377  24.446  1.00  0.00    -0.015 A 
ATOM     15  C   UNL A   1      34.680  24.199  23.395  1.00  0.00     0.018 A 
ATOM     16  C   UNL A   1      34.493  22.139  24.622  1.00  0.00     0.126 A 
ATOM     17  C   UNL A   1      33.418  21.753  23.828  1.00  0.00     0.040 A 
ATOM     18  F   UNL A   1      34.912  21.316  25.594  1.00  0.00    -0.207 F 
ATOM     19  C   UNL A   1      32.903  22.641  22.883  1.00  0.00     0.015 A 
ENDBRANCH  10  12
ENDBRANCH   9  10
ENDBRANCH   7   9
ENDBRANCH   6   7
ENDBRANCH   3   6
ENDBRANCH   1   2
BRANCH   1  20
ATOM     20  C   UNL A   1      33.947  28.473  25.852  1.00  0.00     0.042 C 
BRANCH  20  21
ATOM     21  C   UNL A   1      34.035  28.947  27.269  1.00  0.00     0.118 C 
BRANCH  21  22
ATOM     22  N   UNL A   1      34.227  30.387  27.347  1.00  0.00    -0.352 N 
ATOM     23  C   UNL A   1      35.205  31.041  28.076  1.00  0.00     0.251 C 
ATOM     24  H   UNL A   1      33.602  30.949  26.835  1.00  0.00     0.163 HD
ATOM     25  O   UNL A   1      35.067  32.190  28.449  1.00  0.00    -0.269 OA
BRANCH  23  26
ATOM     26  C   UNL A   1      36.416  30.264  28.403  1.00  0.00     0.039 A 
ATOM     27  C   UNL A   1      36.593  29.635  29.638  1.00  0.00     0.014 A 
ATOM     28  C   UNL A   1      37.398  30.195  27.421  1.00  0.00     0.014 A 
ATOM     29  C   UNL A   1      37.783  28.953  29.869  1.00  0.00     0.010 A 
ATOM     30  C   UNL A   1      38.388  29.283  27.524  1.00  0.00     0.010 A 
ATOM     31  C   UNL A   1      38.668  28.812  28.800  1.00  0.00    -0.014 A 
BRANCH  31  32
ATOM     32  C   UNL A   1      40.026  28.326  28.873  1.00  0.00     0.031 A 
ATOM     33  C   UNL A   1      40.272  26.910  28.650  1.00  0.00     0.074 A 
ATOM     34  C   UNL A   1      40.954  29.314  28.888  1.00  0.00     0.049 A 
ATOM     35  N   UNL A   1      41.254  26.257  29.151  1.00  0.00    -0.248 NA
ATOM     36  C   UNL A   1      39.367  26.068  27.867  1.00  0.00     0.031 C 
ATOM     37  C   UNL A   1      42.364  29.312  28.559  1.00  0.00     0.029 A 
ATOM     38  N   UNL A   1      40.724  30.626  29.309  1.00  0.00    -0.354 N 
ATOM     39  C   UNL A   1      41.364  25.112  28.395  1.00  0.00     0.074 A 
ATOM     40  C   UNL A   1      40.065  24.929  27.795  1.00  0.00     0.031 C 
ATOM     41  C   UNL A   1      42.928  30.433  29.062  1.00  0.00     0.029 A 
ATOM     42  C   UNL A   1      41.909  31.137  29.832  1.00  0.00     0.049 A 
ATOM     43  H   UNL A   1      39.868  31.108  29.247  1.00  0.00     0.167 HD
ATOM     44  C   UNL A   1      42.611  24.615  28.149  1.00  0.00     0.034 A 
ATOM     45  C   UNL A   1      41.937  31.386  31.177  1.00  0.00     0.034 A 
ATOM     46  C   UNL A   1      43.615  25.498  28.743  1.00  0.00     0.049 A 
ATOM     47  C   UNL A   1      42.799  30.347  31.854  1.00  0.00     0.074 A 
ATOM     48  C   UNL A   1      44.442  26.464  28.193  1.00  0.00     0.029 A 
ATOM     49  N   UNL A   1      43.598  25.732  30.111  1.00  0.00    -0.354 N 
ATOM     50  N   UNL A   1      42.948  29.122  31.423  1.00  0.00    -0.248 NA
ATOM     51  C   UNL A   1      43.644  30.654  33.001  1.00  0.00     0.031 C 
ATOM     52  C   UNL A   1      44.875  27.319  29.243  1.00  0.00     0.029 A 
ATOM     53  C   UNL A   1      44.305  26.873  30.424  1.00  0.00     0.049 A 
ATOM     54  H   UNL A   1      43.142  25.159  30.770  1.00  0.00     0.167 HD
ATOM     55  C   UNL A   1      43.958  28.520  32.129  1.00  0.00     0.074 A 
ATOM     56  C   UNL A   1      44.335  29.508  33.125  1.00  0.00     0.031 C 
ATOM     57  C   UNL A   1      44.454  27.287  31.813  1.00  0.00     0.034 A 
BRANCH  44  58
ATOM     58  C   UNL A   1      42.945  23.550  27.123  1.00  0.00     0.023 A 
ATOM     59  C   UNL A   1      43.846  23.762  26.058  1.00  0.00     0.012 A 
ATOM     60  C   UNL A   1      42.344  22.272  27.175  1.00  0.00     0.148 A 
ATOM     61  C   UNL A   1      44.198  22.749  25.153  1.00  0.00     0.002 A 
ATOM     62  C   UNL A   1      42.679  21.270  26.261  1.00  0.00     0.091 A 
ATOM     63  F   UNL A   1      41.423  21.994  28.105  1.00  0.00    -0.205 F 
ATOM     64  C   UNL A   1      43.616  21.496  25.256  1.00  0.00     0.022 A 
BRANCH  62  65
ATOM     65  S   UNL A   1      41.864  19.675  26.390  1.00  0.00     0.127 S 
ATOM     66  O   UNL A   1      42.403  18.945  25.247  1.00  0.00    -0.237 OA
ATOM     67  O   UNL A   1      42.254  19.208  27.716  1.00  0.00    -0.237 OA
ATOM     68  O   UNL A   1      40.444  20.015  26.270  1.00  0.00    -0.744 OA
ENDBRANCH  62  65
ENDBRANCH  44  58
BRANCH  45  69
ATOM     69  C   UNL A   1      40.612  31.919  31.662  1.00  0.00     0.023 A 
ATOM     70  C   UNL A   1      40.382  33.304  31.767  1.00  0.00     0.012 A 
ATOM     71  C   UNL A   1      39.851  31.054  32.488  1.00  0.00     0.148 A 
ATOM     72  C   UNL A   1      39.521  33.806  32.758  1.00  0.00     0.002 A 
ATOM     73  C   UNL A   1      39.066  31.564  33.522  1.00  0.00     0.091 A 
ATOM     74  F   UNL A   1      40.021  29.727  32.350  1.00  0.00    -0.205 F 
ATOM     75  C   UNL A   1      38.905  32.944  33.669  1.00  0.00     0.022 A 
BRANCH  73  76
ATOM     76  S   UNL A   1      38.510  30.449  34.824  1.00  0.00     0.127 S 
ATOM     77  O   UNL A   1      37.752  31.332  35.704  1.00  0.00    -0.237 OA
ATOM     78  O   UNL A   1      37.746  29.436  34.099  1.00  0.00    -0.237 OA
ATOM     79  O   UNL A   1      39.752  29.930  35.399  1.00  0.00    -0.744 OA
ENDBRANCH  73  76
ENDBRANCH  45  69
BRANCH  57  80
ATOM     80  C   UNL A   1      45.247  26.377  32.724  1.00  0.00     0.023 A 
ATOM     81  C   UNL A   1      46.659  26.308  32.551  1.00  0.00     0.012 A 
ATOM     82  C   UNL A   1      44.699  25.491  33.657  1.00  0.00     0.148 A 
ATOM     83  C   UNL A   1      47.465  25.399  33.235  1.00  0.00     0.002 A 
ATOM     84  C   UNL A   1      45.522  24.686  34.441  1.00  0.00     0.091 A 
ATOM     85  F   UNL A   1      43.374  25.350  33.770  1.00  0.00    -0.205 F 
ATOM     86  C   UNL A   1      46.897  24.601  34.211  1.00  0.00     0.022 A 
BRANCH  84  87
ATOM     87  S   UNL A   1      44.793  23.876  35.862  1.00  0.00     0.127 S 
ATOM     88  O   UNL A   1      44.384  25.009  36.690  1.00  0.00    -0.237 OA
ATOM     89  O   UNL A   1      43.719  23.075  35.286  1.00  0.00    -0.237 OA
ATOM     90  O   UNL A   1      45.901  23.096  36.414  1.00  0.00    -0.744 OA
ENDBRANCH  84  87
ENDBRANCH  57  80
ENDBRANCH  31  32
ENDBRANCH  23  26
ENDBRANCH  21  22
ENDBRANCH  20  21
ENDBRANCH   1  20
TORSDOF 17
ENDMDL
MODEL 2
REMARK VINA RESULT:     -11.6      4.432      9.448
REMARK SMILES Cc1cc(C(=O)C[C@H](C)CC(=O)NCCCNC(=O)c2ccc(-c3c4nc(c(-c5cccc(S(=O)(=O)[O-])c5F)c5ccc([nH]5)c(-c5cccc(S(=O)(=O)[O-])c5F)c5nc(c(-c6cccc(S(=O)(=O)[O-])c6F)c6ccc3[nH]6)C=C5)C=C4)cc2)ccc1F
REMARK SMILES IDX 14 1 13 2 11 3 12 4 10 6 8 7 9 8 7 9 5 10 6 11 4 12 1 13
REMARK SMILES IDX 2 14 3 15 85 16 84 17 86 18 83 19 15 20 16 21 17 22 18 23
REMARK SMILES IDX 19 25 20 26 21 27 82 28 22 29 81 30 23 31 24 32 25 33 75 34
REMARK SMILES IDX 26 35 80 36 74 37 76 38 27 39 79 40 73 41 72 42 28 44 60 45
REMARK SMILES IDX 40 46 59 47 41 48 44 49 58 50 77 51 42 52 43 53 57 55 78 56
REMARK SMILES IDX 45 57 29 58 30 59 38 60 31 61 33 62 39 63 32 64 34 65 35 66
REMARK SMILES IDX 36 67 37 68 61 69 62 70 70 71 63 72 65 73 71 74 64 75 66 76
REMARK SMILES IDX 67 77 68 78 69 79 46 80 47 81 55 82 48 83 50 84 56 85 49 86
REMARK SMILES IDX 51 87 52 88 53 89 54 90
REMARK H PARENT 13 5 17 24 76 43 44 54
REMARK Flexibility Score: inf
ROOT
ATOM      1  C   UNL A   1      35.470  23.360  24.346  1.00  0.00     0.117 C 
ENDROOT
BRANCH   1   2
ATOM      2  N   UNL A   1      34.914  22.164  24.968  1.00  0.00    -0.356 N 
ATOM      3  C   UNL A   1      33.914  22.102  25.902  1.00  0.00     0.220 C 
ATOM      4  O   UNL A   1      33.799  21.117  26.626  1.00  0.00    -0.275 OA
ATOM      5  H   UNL A   1      35.302  21.303  24.685  1.00  0.00     0.163 HD
BRANCH   3   6
ATOM      6  C   UNL A   1      32.881  23.203  25.887  1.00  0.00     0.103 C 
BRANCH   6   7
ATOM      7  C   UNL A   1      31.510  23.048  25.212  1.00  0.00     0.003 C 
ATOM      8  C   UNL A   1      30.446  22.431  26.120  1.00  0.00     0.008 C 
BRANCH   7   9
ATOM      9  C   UNL A   1      30.961  24.431  24.773  1.00  0.00     0.085 C 
BRANCH   9  10
ATOM     10  C   UNL A   1      30.764  25.460  25.877  1.00  0.00     0.163 C 
ATOM     11  O   UNL A   1      29.798  25.387  26.636  1.00  0.00    -0.294 OA
BRANCH  10  12
ATOM     12  C   UNL A   1      31.718  26.608  26.021  1.00  0.00     0.018 A 
ATOM     13  C   UNL A   1      34.194  28.510  23.856  1.00  0.00     0.047 C 
ATOM     14  C   UNL A   1      33.348  28.119  25.033  1.00  0.00    -0.015 A 
ATOM     15  C   UNL A   1      32.746  26.855  25.098  1.00  0.00     0.018 A 
ATOM     16  C   UNL A   1      33.077  29.041  26.043  1.00  0.00     0.126 A 
ATOM     17  C   UNL A   1      32.167  28.751  27.054  1.00  0.00     0.040 A 
ATOM     18  F   UNL A   1      33.670  30.243  26.027  1.00  0.00    -0.207 F 
ATOM     19  C   UNL A   1      31.463  27.548  27.027  1.00  0.00     0.015 A 
ENDBRANCH  10  12
ENDBRANCH   9  10
ENDBRANCH   7   9
ENDBRANCH   6   7
ENDBRANCH   3   6
ENDBRANCH   1   2
BRANCH   1  20
ATOM     20  C   UNL A   1      36.980  23.370  24.533  1.00  0.00     0.042 C 
BRANCH  20  21
ATOM     21  C   UNL A   1      37.329  23.574  25.975  1.00  0.00     0.118 C 
BRANCH  21  22
ATOM     22  N   UNL A   1      38.442  22.734  26.386  1.00  0.00    -0.352 N 
ATOM     23  C   UNL A   1      39.707  23.172  26.741  1.00  0.00     0.251 C 
ATOM     24  H   UNL A   1      38.282  21.763  26.415  1.00  0.00     0.163 HD
ATOM     25  O   UNL A   1      40.683  22.452  26.656  1.00  0.00    -0.269 OA
BRANCH  23  26
ATOM     26  C   UNL A   1      39.817  24.569  27.202  1.00  0.00     0.039 A 
ATOM     27  C   UNL A   1      40.342  25.585  26.399  1.00  0.00     0.014 A 
ATOM     28  C   UNL A   1      39.383  24.836  28.496  1.00  0.00     0.014 A 
ATOM     29  C   UNL A   1      40.439  26.866  26.931  1.00  0.00     0.010 A 
ATOM     30  C   UNL A   1      39.181  26.113  28.886  1.00  0.00     0.010 A 
ATOM     31  C   UNL A   1      39.868  27.093  28.183  1.00  0.00    -0.014 A 
BRANCH  31  32
ATOM     32  C   UNL A   1      40.031  28.277  28.994  1.00  0.00     0.031 A 
ATOM     33  C   UNL A   1      39.103  29.382  28.807  1.00  0.00     0.074 A 
ATOM     34  C   UNL A   1      40.888  28.110  30.030  1.00  0.00     0.049 A 
ATOM     35  N   UNL A   1      39.383  30.610  29.038  1.00  0.00    -0.248 NA
ATOM     36  C   UNL A   1      37.756  29.195  28.267  1.00  0.00     0.031 C 
ATOM     37  C   UNL A   1      41.043  28.835  31.275  1.00  0.00     0.029 A 
ATOM     38  N   UNL A   1      41.909  27.158  30.083  1.00  0.00    -0.354 N 
ATOM     39  C   UNL A   1      38.171  31.256  29.141  1.00  0.00     0.074 A 
ATOM     40  C   UNL A   1      37.235  30.416  28.433  1.00  0.00     0.031 C 
ATOM     41  C   UNL A   1      42.243  28.521  31.812  1.00  0.00     0.029 A 
ATOM     42  C   UNL A   1      42.946  27.664  30.863  1.00  0.00     0.049 A 
ATOM     43  H   UNL A   1      41.897  26.278  29.643  1.00  0.00     0.167 HD
ATOM     44  C   UNL A   1      38.053  32.274  30.043  1.00  0.00     0.034 A 
ATOM     45  C   UNL A   1      44.118  27.956  30.222  1.00  0.00     0.034 A 
ATOM     46  C   UNL A   1      39.310  32.425  30.777  1.00  0.00     0.049 A 
ATOM     47  C   UNL A   1      44.272  29.455  30.129  1.00  0.00     0.074 A 
ATOM     48  C   UNL A   1      39.697  32.022  32.044  1.00  0.00     0.029 A 
ATOM     49  N   UNL A   1      40.478  32.709  30.083  1.00  0.00    -0.354 N 
ATOM     50  N   UNL A   1      43.271  30.292  30.051  1.00  0.00    -0.248 NA
ATOM     51  C   UNL A   1      45.563  30.121  30.233  1.00  0.00     0.031 C 
ATOM     52  C   UNL A   1      41.117  32.010  32.085  1.00  0.00     0.029 A 
ATOM     53  C   UNL A   1      41.587  32.400  30.841  1.00  0.00     0.049 A 
ATOM     54  H   UNL A   1      40.510  33.081  29.172  1.00  0.00     0.167 HD
ATOM     55  C   UNL A   1      43.744  31.570  30.207  1.00  0.00     0.074 A 
ATOM     56  C   UNL A   1      45.185  31.410  30.283  1.00  0.00     0.031 C 
ATOM     57  C   UNL A   1      42.925  32.657  30.324  1.00  0.00     0.034 A 
BRANCH  44  58
ATOM     58  C   UNL A   1      36.748  32.901  30.492  1.00  0.00     0.023 A 
ATOM     59  C   UNL A   1      36.303  32.876  31.831  1.00  0.00     0.012 A 
ATOM     60  C   UNL A   1      35.888  33.539  29.569  1.00  0.00     0.148 A 
ATOM     61  C   UNL A   1      35.126  33.517  32.248  1.00  0.00     0.002 A 
ATOM     62  C   UNL A   1      34.707  34.159  29.981  1.00  0.00     0.091 A 
ATOM     63  F   UNL A   1      36.186  33.554  28.265  1.00  0.00    -0.205 F 
ATOM     64  C   UNL A   1      34.325  34.165  31.321  1.00  0.00     0.022 A 
BRANCH  62  65
ATOM     65  S   UNL A   1      33.665  34.941  28.745  1.00  0.00     0.127 S 
ATOM     66  O   UNL A   1      32.704  35.682  29.556  1.00  0.00    -0.237 OA
ATOM     67  O   UNL A   1      34.611  35.727  27.961  1.00  0.00    -0.237 OA
ATOM     68  O   UNL A   1      33.091  33.803  28.024  1.00  0.00    -0.744 OA
ENDBRANCH  62  65
ENDBRANCH  44  58
BRANCH  45  69
ATOM     69  C   UNL A   1      44.417  26.947  29.141  1.00  0.00     0.023 A 
ATOM     70  C   UNL A   1      45.266  25.851  29.386  1.00  0.00     0.012 A 
ATOM     71  C   UNL A   1      44.284  27.400  27.805  1.00  0.00     0.148 A 
ATOM     72  C   UNL A   1      46.056  25.321  28.350  1.00  0.00     0.002 A 
ATOM     73  C   UNL A   1      45.131  26.925  26.803  1.00  0.00     0.091 A 
ATOM     74  F   UNL A   1      43.427  28.405  27.553  1.00  0.00    -0.205 F 
ATOM     75  C   UNL A   1      46.029  25.889  27.073  1.00  0.00     0.022 A 
BRANCH  73  76
ATOM     76  S   UNL A   1      45.259  27.847  25.261  1.00  0.00     0.127 S 
ATOM     77  O   UNL A   1      45.761  29.145  25.700  1.00  0.00    -0.237 OA
ATOM     78  O   UNL A   1      46.166  27.034  24.454  1.00  0.00    -0.237 OA
ATOM     79  O   UNL A   1      43.888  27.865  24.745  1.00  0.00    -0.744 OA
ENDBRANCH  73  76
ENDBRANCH  45  69
BRANCH  57  80
ATOM     80  C   UNL A   1      43.311  34.102  30.094  1.00  0.00     0.023 A 
ATOM     81  C   UNL A   1      43.525  34.934  31.230  1.00  0.00     0.012 A 
ATOM     82  C   UNL A   1      43.359  34.736  28.849  1.00  0.00     0.148 A 
ATOM     83  C   UNL A   1      43.742  36.308  31.133  1.00  0.00     0.002 A 
ATOM     84  C   UNL A   1      43.716  36.079  28.750  1.00  0.00     0.091 A 
ATOM     85  F   UNL A   1      42.999  34.087  27.737  1.00  0.00    -0.205 F 
ATOM     86  C   UNL A   1      43.868  36.882  29.882  1.00  0.00     0.022 A 
BRANCH  84  87
ATOM     87  S   UNL A   1      44.133  36.716  27.129  1.00  0.00     0.127 S 
ATOM     88  O   UNL A   1      42.819  37.015  26.564  1.00  0.00    -0.237 OA
ATOM     89  O   UNL A   1      44.988  37.862  27.422  1.00  0.00    -0.237 OA
ATOM     90  O   UNL A   1      44.823  35.595  26.491  1.00  0.00    -0.744 OA
ENDBRANCH  84  87
ENDBRANCH  57  80
ENDBRANCH  31  32
ENDBRANCH  23  26
ENDBRANCH  21  22
ENDBRANCH  20  21
ENDBRANCH   1  20
TORSDOF 17
ENDMDL
MODEL 3
REMARK VINA RESULT:     -11.0      2.214      3.108
REMARK SMILES Cc1cc(C(=O)C[C@H](C)CC(=O)NCCCNC(=O)c2ccc(-c3c4nc(c(-c5cccc(S(=O)(=O)[O-])c5F)c5ccc([nH]5)c(-c5cccc(S(=O)(=O)[O-])c5F)c5nc(c(-c6cccc(S(=O)(=O)[O-])c6F)c6ccc3[nH]6)C=C5)C=C4)cc2)ccc1F
REMARK SMILES IDX 14 1 13 2 11 3 12 4 10 6 8 7 9 8 7 9 5 10 6 11 4 12 1 13
REMARK SMILES IDX 2 14 3 15 85 16 84 17 86 18 83 19 15 20 16 21 17 22 18 23
REMARK SMILES IDX 19 25 20 26 21 27 82 28 22 29 81 30 23 31 24 32 25 33 75 34
REMARK SMILES IDX 26 35 80 36 74 37 76 38 27 39 79 40 73 41 72 42 28 44 60 45
REMARK SMILES IDX 40 46 59 47 41 48 44 49 58 50 77 51 42 52 43 53 57 55 78 56
REMARK SMILES IDX 45 57 29 58 30 59 38 60 31 61 33 62 39 63 32 64 34 65 35 66
REMARK SMILES IDX 36 67 37 68 61 69 62 70 70 71 63 72 65 73 71 74 64 75 66 76
REMARK SMILES IDX 67 77 68 78 69 79 46 80 47 81 55 82 48 83 50 84 56 85 49 86
REMARK SMILES IDX 51 87 52 88 53 89 54 90
REMARK H PARENT 13 5 17 24 76 43 44 54
REMARK Flexibility Score: inf
ROOT
ATOM      1  C   UNL A   1      33.928  29.979  27.254  1.00  0.00     0.117 C 
ENDROOT
BRANCH   1   2
ATOM      2  N   UNL A   1      33.079  28.934  27.814  1.00  0.00    -0.356 N 
ATOM      3  C   UNL A   1      31.909  28.448  27.294  1.00  0.00     0.220 C 
ATOM      4  O   UNL A   1      31.099  27.874  28.015  1.00  0.00    -0.275 OA
ATOM      5  H   UNL A   1      33.381  28.533  28.661  1.00  0.00     0.163 HD
BRANCH   3   6
ATOM      6  C   UNL A   1      31.740  28.501  25.794  1.00  0.00     0.103 C 
BRANCH   6   7
ATOM      7  C   UNL A   1      32.147  27.345  24.869  1.00  0.00     0.003 C 
ATOM      8  C   UNL A   1      33.557  27.486  24.296  1.00  0.00     0.008 C 
BRANCH   7   9
ATOM      9  C   UNL A   1      32.122  25.998  25.639  1.00  0.00     0.085 C 
BRANCH   9  10
ATOM     10  C   UNL A   1      32.270  24.738  24.800  1.00  0.00     0.163 C 
ATOM     11  O   UNL A   1      31.419  24.441  23.962  1.00  0.00    -0.294 OA
BRANCH  10  12
ATOM     12  C   UNL A   1      33.430  23.814  25.019  1.00  0.00     0.018 A 
ATOM     13  C   UNL A   1      36.687  22.908  23.286  1.00  0.00     0.047 C 
ATOM     14  C   UNL A   1      35.594  22.956  24.314  1.00  0.00    -0.015 A 
ATOM     15  C   UNL A   1      34.332  23.479  23.998  1.00  0.00     0.018 A 
ATOM     16  C   UNL A   1      35.843  22.560  25.628  1.00  0.00     0.126 A 
ATOM     17  C   UNL A   1      34.896  22.750  26.627  1.00  0.00     0.040 A 
ATOM     18  F   UNL A   1      37.028  22.021  25.949  1.00  0.00    -0.207 F 
ATOM     19  C   UNL A   1      33.700  23.406  26.331  1.00  0.00     0.015 A 
ENDBRANCH  10  12
ENDBRANCH   9  10
ENDBRANCH   7   9
ENDBRANCH   6   7
ENDBRANCH   3   6
ENDBRANCH   1   2
BRANCH   1  20
ATOM     20  C   UNL A   1      33.275  31.334  27.479  1.00  0.00     0.042 C 
BRANCH  20  21
ATOM     21  C   UNL A   1      34.313  32.383  27.729  1.00  0.00     0.118 C 
BRANCH  21  22
ATOM     22  N   UNL A   1      33.960  33.237  28.852  1.00  0.00    -0.352 N 
ATOM     23  C   UNL A   1      34.647  33.336  30.050  1.00  0.00     0.251 C 
ATOM     24  H   UNL A   1      33.157  33.797  28.752  1.00  0.00     0.163 HD
ATOM     25  O   UNL A   1      34.105  33.706  31.073  1.00  0.00    -0.269 OA
BRANCH  23  26
ATOM     26  C   UNL A   1      36.069  32.942  30.030  1.00  0.00     0.039 A 
ATOM     27  C   UNL A   1      37.020  33.606  29.251  1.00  0.00     0.014 A 
ATOM     28  C   UNL A   1      36.427  31.854  30.819  1.00  0.00     0.014 A 
ATOM     29  C   UNL A   1      38.331  33.142  29.269  1.00  0.00     0.010 A 
ATOM     30  C   UNL A   1      37.730  31.615  31.080  1.00  0.00     0.010 A 
ATOM     31  C   UNL A   1      38.650  32.133  30.178  1.00  0.00    -0.014 A 
BRANCH  31  32
ATOM     32  C   UNL A   1      39.880  31.379  30.220  1.00  0.00     0.031 A 
ATOM     33  C   UNL A   1      39.887  30.026  29.683  1.00  0.00     0.074 A 
ATOM     34  C   UNL A   1      40.966  32.129  30.528  1.00  0.00     0.049 A 
ATOM     35  N   UNL A   1      40.672  29.094  30.076  1.00  0.00    -0.248 NA
ATOM     36  C   UNL A   1      38.933  29.580  28.667  1.00  0.00     0.031 C 
ATOM     37  C   UNL A   1      42.380  31.914  30.298  1.00  0.00     0.029 A 
ATOM     38  N   UNL A   1      40.936  33.335  31.233  1.00  0.00    -0.354 N 
ATOM     39  C   UNL A   1      40.653  28.146  29.078  1.00  0.00     0.074 A 
ATOM     40  C   UNL A   1      39.415  28.367  28.370  1.00  0.00     0.031 C 
ATOM     41  C   UNL A   1      43.081  32.757  31.087  1.00  0.00     0.029 A 
ATOM     42  C   UNL A   1      42.130  33.467  31.936  1.00  0.00     0.049 A 
ATOM     43  H   UNL A   1      40.194  33.982  31.233  1.00  0.00     0.167 HD
ATOM     44  C   UNL A   1      41.807  27.473  28.800  1.00  0.00     0.034 A 
ATOM     45  C   UNL A   1      42.057  33.401  33.301  1.00  0.00     0.034 A 
ATOM     46  C   UNL A   1      42.885  27.980  29.650  1.00  0.00     0.049 A 
ATOM     47  C   UNL A   1      42.636  32.086  33.766  1.00  0.00     0.074 A 
ATOM     48  C   UNL A   1      43.929  28.855  29.398  1.00  0.00     0.029 A 
ATOM     49  N   UNL A   1      42.763  27.905  31.030  1.00  0.00    -0.354 N 
ATOM     50  N   UNL A   1      42.604  30.982  33.066  1.00  0.00    -0.248 NA
ATOM     51  C   UNL A   1      43.393  31.954  35.004  1.00  0.00     0.031 C 
ATOM     52  C   UNL A   1      44.394  29.352  30.646  1.00  0.00     0.029 A 
ATOM     53  C   UNL A   1      43.628  28.782  31.649  1.00  0.00     0.049 A 
ATOM     54  H   UNL A   1      42.141  27.306  31.504  1.00  0.00     0.167 HD
ATOM     55  C   UNL A   1      43.405  30.047  33.672  1.00  0.00     0.074 A 
ATOM     56  C   UNL A   1      43.846  30.693  34.895  1.00  0.00     0.031 C 
ATOM     57  C   UNL A   1      43.698  28.840  33.103  1.00  0.00     0.034 A 
BRANCH  44  58
ATOM     58  C   UNL A   1      42.050  26.616  27.574  1.00  0.00     0.023 A 
ATOM     59  C   UNL A   1      42.553  27.132  26.360  1.00  0.00     0.012 A 
ATOM     60  C   UNL A   1      41.762  25.232  27.581  1.00  0.00     0.148 A 
ATOM     61  C   UNL A   1      42.837  26.318  25.253  1.00  0.00     0.002 A 
ATOM     62  C   UNL A   1      42.024  24.426  26.471  1.00  0.00     0.091 A 
ATOM     63  F   UNL A   1      41.215  24.660  28.660  1.00  0.00    -0.205 F 
ATOM     64  C   UNL A   1      42.575  24.959  25.308  1.00  0.00     0.022 A 
BRANCH  62  65
ATOM     65  S   UNL A   1      41.622  22.678  26.557  1.00  0.00     0.127 S 
ATOM     66  O   UNL A   1      42.305  22.249  27.773  1.00  0.00    -0.237 OA
ATOM     67  O   UNL A   1      40.163  22.674  26.584  1.00  0.00    -0.237 OA
ATOM     68  O   UNL A   1      42.199  22.142  25.323  1.00  0.00    -0.744 OA
ENDBRANCH  62  65
ENDBRANCH  44  58
BRANCH  45  69
ATOM     69  C   UNL A   1      40.807  34.072  33.815  1.00  0.00     0.023 A 
ATOM     70  C   UNL A   1      40.850  35.371  34.356  1.00  0.00     0.012 A 
ATOM     71  C   UNL A   1      39.759  33.213  34.230  1.00  0.00     0.148 A 
ATOM     72  C   UNL A   1      39.958  35.744  35.376  1.00  0.00     0.002 A 
ATOM     73  C   UNL A   1      38.933  33.561  35.299  1.00  0.00     0.091 A 
ATOM     74  F   UNL A   1      39.674  31.993  33.671  1.00  0.00    -0.205 F 
ATOM     75  C   UNL A   1      39.035  34.825  35.885  1.00  0.00     0.022 A 
BRANCH  73  76
ATOM     76  S   UNL A   1      37.952  32.277  36.095  1.00  0.00     0.127 S 
ATOM     77  O   UNL A   1      37.244  31.667  34.974  1.00  0.00    -0.237 OA
ATOM     78  O   UNL A   1      38.954  31.450  36.762  1.00  0.00    -0.237 OA
ATOM     79  O   UNL A   1      37.098  33.013  37.030  1.00  0.00    -0.744 OA
ENDBRANCH  73  76
ENDBRANCH  45  69
BRANCH  57  80
ATOM     80  C   UNL A   1      44.208  27.610  33.821  1.00  0.00     0.023 A 
ATOM     81  C   UNL A   1      45.325  26.919  33.270  1.00  0.00     0.012 A 
ATOM     82  C   UNL A   1      43.598  27.009  34.926  1.00  0.00     0.148 A 
ATOM     83  C   UNL A   1      45.783  25.699  33.766  1.00  0.00     0.002 A 
ATOM     84  C   UNL A   1      44.146  25.867  35.506  1.00  0.00     0.091 A 
ATOM     85  F   UNL A   1      42.443  27.479  35.409  1.00  0.00    -0.205 F 
ATOM     86  C   UNL A   1      45.209  25.182  34.912  1.00  0.00     0.022 A 
BRANCH  84  87
ATOM     87  S   UNL A   1      43.553  25.383  37.125  1.00  0.00     0.127 S 
ATOM     88  O   UNL A   1      43.651  26.632  37.878  1.00  0.00    -0.237 OA
ATOM     89  O   UNL A   1      42.205  24.891  36.862  1.00  0.00    -0.237 OA
ATOM     90  O   UNL A   1      44.503  24.352  37.541  1.00  0.00    -0.744 OA
ENDBRANCH  84  87
ENDBRANCH  57  80
ENDBRANCH  31  32
ENDBRANCH  23  26
ENDBRANCH  21  22
ENDBRANCH  20  21
ENDBRANCH   1  20
TORSDOF 17
ENDMDL
