MODEL 1
REMARK VINA RESULT:     -11.1      0.000      0.000
REMARK SMILES COc1ccc(CCN2C(=O)C[C@@H](C(=O)NCCCNC(=O)c3ccc(-c4c5nc(c(-c6cccc(S(=O)(=O)[O-])c6F)c6ccc([nH]6)c(-c6cccc(S(=O)(=O)[O-])c6F)c6nc(c(-c7cccc(S(=O)(=O)[O-])c7F)c7ccc4[nH]7)C=C6)C=C5)cc3)S/C2=[NH+]\c2ccc(F)cc2)cc1OC
REMARK SMILES IDX 17 1 16 2 14 3 15 4 13 6 9 7 10 8 87 9 11 10 12 11 86 12
REMARK SMILES IDX 88 13 8 15 7 16 6 17 3 18 4 19 97 20 5 21 96 22 2 23 1 24
REMARK SMILES IDX 98 25 99 26 89 27 90 28 95 29 91 30 94 31 92 32 93 33 18 34
REMARK SMILES IDX 19 35 20 36 21 37 22 39 23 40 24 41 85 42 25 43 84 44 26 45
REMARK SMILES IDX 27 46 28 47 78 48 29 49 83 50 77 51 79 52 30 53 82 54 76 55
REMARK SMILES IDX 75 56 31 58 63 59 43 60 62 61 44 62 47 63 61 64 80 65 45 66
REMARK SMILES IDX 46 67 60 69 81 70 48 71 32 72 33 73 41 74 34 75 36 76 42 77
REMARK SMILES IDX 35 78 37 79 38 80 39 81 40 82 64 83 65 84 73 85 66 86 68 87
REMARK SMILES IDX 74 88 67 89 69 90 70 91 71 92 72 93 49 94 50 95 58 96 51 97
REMARK SMILES IDX 53 98 59 99 52 100 54 101 55 102 56 103 57 104
REMARK H PARENT 16 5 88 14 20 38 79 57 47 68
REMARK Flexibility Score: inf
ROOT
ATOM      1  C   UNL A   1      38.081  21.228  25.201  1.00  0.00     0.117 C 
ENDROOT
BRANCH   1   2
ATOM      2  N   UNL A   1      37.602  21.678  23.908  1.00  0.00    -0.355 N 
ATOM      3  C   UNL A   1      36.767  22.711  23.579  1.00  0.00     0.234 C 
ATOM      4  O   UNL A   1      36.680  22.999  22.381  1.00  0.00    -0.274 OA
ATOM      5  H   UNL A   1      37.933  21.155  23.142  1.00  0.00     0.163 HD
BRANCH   3   6
ATOM      6  C   UNL A   1      36.007  23.550  24.622  1.00  0.00     0.160 C 
ATOM      7  N   UNL A   1      33.414  23.211  26.075  1.00  0.00    -0.191 N 
ATOM      8  C   UNL A   1      34.599  22.918  26.726  1.00  0.00     0.311 C 
ATOM      9  C   UNL A   1      33.365  24.259  25.170  1.00  0.00     0.319 C 
ATOM     10  O   UNL A   1      34.641  22.635  27.928  1.00  0.00    -0.247 OA
ATOM     11  C   UNL A   1      35.884  22.829  25.939  1.00  0.00     0.153 C 
ATOM     12  S   UNL A   1      34.540  24.229  23.881  1.00  0.00    -0.024 SA
ATOM     13  N   UNL A   1      32.446  25.176  25.253  1.00  0.00    -0.235 N 
ATOM     14  H   UNL A   1      31.725  25.107  25.919  1.00  0.00     0.313 HD
BRANCH   7  15
ATOM     15  C   UNL A   1      32.165  22.731  26.719  1.00  0.00     0.251 C 
BRANCH  15  16
ATOM     16  C   UNL A   1      31.277  21.817  25.814  1.00  0.00     0.082 C 
BRANCH  16  17
ATOM     17  C   UNL A   1      31.916  20.668  25.042  1.00  0.00    -0.040 A 
ATOM     18  C   UNL A   1      32.842  18.445  23.516  1.00  0.00     0.160 A 
ATOM     19  C   UNL A   1      32.469  19.627  22.895  1.00  0.00     0.051 A 
ATOM     20  C   UNL A   1      32.806  18.370  24.915  1.00  0.00     0.160 A 
ATOM     21  C   UNL A   1      32.004  20.693  23.656  1.00  0.00     0.008 A 
ATOM     22  C   UNL A   1      32.337  19.481  25.661  1.00  0.00     0.054 A 
BRANCH  18  23
ATOM     23  O   UNL A   1      33.291  17.414  22.734  1.00  0.00    -0.493 OA
ATOM     24  C   UNL A   1      34.609  16.990  23.097  1.00  0.00     0.278 C 
ENDBRANCH  18  23
BRANCH  20  25
ATOM     25  O   UNL A   1      33.174  17.305  25.697  1.00  0.00    -0.493 OA
ATOM     26  C   UNL A   1      32.305  16.180  25.729  1.00  0.00     0.278 C 
ENDBRANCH  20  25
ENDBRANCH  16  17
ENDBRANCH  15  16
ENDBRANCH   7  15
BRANCH  13  27
ATOM     27  C   UNL A   1      32.508  26.272  24.367  1.00  0.00     0.125 A 
ATOM     28  C   UNL A   1      31.683  26.290  23.232  1.00  0.00     0.055 A 
ATOM     29  C   UNL A   1      33.284  27.400  24.665  1.00  0.00     0.055 A 
ATOM     30  C   UNL A   1      31.567  27.447  22.460  1.00  0.00     0.043 A 
ATOM     31  C   UNL A   1      33.163  28.561  23.896  1.00  0.00     0.043 A 
ATOM     32  C   UNL A   1      32.293  28.578  22.811  1.00  0.00     0.123 A 
ATOM     33  F   UNL A   1      32.137  29.703  22.103  1.00  0.00    -0.207 F 
ENDBRANCH  13  27
ENDBRANCH   3   6
ENDBRANCH   1   2
BRANCH   1  34
ATOM     34  C   UNL A   1      38.866  19.928  25.195  1.00  0.00     0.042 C 
BRANCH  34  35
ATOM     35  C   UNL A   1      39.701  19.682  26.441  1.00  0.00     0.118 C 
BRANCH  35  36
ATOM     36  N   UNL A   1      41.066  19.244  26.157  1.00  0.00    -0.352 N 
ATOM     37  C   UNL A   1      42.243  19.957  26.126  1.00  0.00     0.251 C 
ATOM     38  H   UNL A   1      41.158  18.284  25.957  1.00  0.00     0.163 HD
ATOM     39  O   UNL A   1      43.276  19.395  25.763  1.00  0.00    -0.269 OA
BRANCH  37  40
ATOM     40  C   UNL A   1      42.265  21.391  26.497  1.00  0.00     0.039 A 
ATOM     41  C   UNL A   1      42.416  21.752  27.841  1.00  0.00     0.014 A 
ATOM     42  C   UNL A   1      42.160  22.382  25.522  1.00  0.00     0.014 A 
ATOM     43  C   UNL A   1      42.562  23.100  28.188  1.00  0.00     0.010 A 
ATOM     44  C   UNL A   1      42.408  23.708  25.855  1.00  0.00     0.010 A 
ATOM     45  C   UNL A   1      42.613  24.086  27.191  1.00  0.00    -0.014 A 
BRANCH  45  46
ATOM     46  C   UNL A   1      42.872  25.521  27.489  1.00  0.00     0.031 A 
ATOM     47  C   UNL A   1      44.278  26.057  27.397  1.00  0.00     0.074 A 
ATOM     48  C   UNL A   1      41.884  26.300  27.977  1.00  0.00     0.049 A 
ATOM     49  N   UNL A   1      44.755  27.202  27.807  1.00  0.00    -0.248 NA
ATOM     50  C   UNL A   1      45.289  25.164  26.803  1.00  0.00     0.031 C 
ATOM     51  C   UNL A   1      40.494  25.884  28.179  1.00  0.00     0.029 A 
ATOM     52  N   UNL A   1      41.910  27.595  28.436  1.00  0.00    -0.354 N 
ATOM     53  C   UNL A   1      46.125  27.145  27.577  1.00  0.00     0.074 A 
ATOM     54  C   UNL A   1      46.407  25.841  27.020  1.00  0.00     0.031 C 
ATOM     55  C   UNL A   1      39.804  26.901  28.723  1.00  0.00     0.029 A 
ATOM     56  C   UNL A   1      40.706  28.025  28.948  1.00  0.00     0.049 A 
ATOM     57  H   UNL A   1      42.713  28.163  28.400  1.00  0.00     0.167 HD
ATOM     58  C   UNL A   1      47.062  28.101  27.783  1.00  0.00     0.034 A 
ATOM     59  C   UNL A   1      40.372  29.185  29.547  1.00  0.00     0.034 A 
ATOM     60  C   UNL A   1      46.767  29.420  28.269  1.00  0.00     0.049 A 
ATOM     61  C   UNL A   1      41.421  30.253  29.709  1.00  0.00     0.074 A 
ATOM     62  C   UNL A   1      47.630  30.489  28.432  1.00  0.00     0.029 A 
ATOM     63  N   UNL A   1      45.510  29.856  28.657  1.00  0.00    -0.354 N 
ATOM     64  N   UNL A   1      42.686  30.224  29.369  1.00  0.00    -0.248 NA
ATOM     65  C   UNL A   1      40.991  31.526  30.306  1.00  0.00     0.031 C 
ATOM     66  C   UNL A   1      46.895  31.570  28.928  1.00  0.00     0.029 A 
ATOM     67  C   UNL A   1      45.571  31.180  29.052  1.00  0.00     0.049 A 
ATOM     68  H   UNL A   1      44.694  29.305  28.653  1.00  0.00     0.167 HD
ATOM     69  C   UNL A   1      43.189  31.487  29.661  1.00  0.00     0.074 A 
ATOM     70  C   UNL A   1      42.091  32.261  30.201  1.00  0.00     0.031 C 
ATOM     71  C   UNL A   1      44.450  31.959  29.508  1.00  0.00     0.034 A 
BRANCH  58  72
ATOM     72  C   UNL A   1      48.488  27.777  27.420  1.00  0.00     0.023 A 
ATOM     73  C   UNL A   1      49.362  27.290  28.413  1.00  0.00     0.012 A 
ATOM     74  C   UNL A   1      48.947  27.896  26.094  1.00  0.00     0.148 A 
ATOM     75  C   UNL A   1      50.680  26.962  28.101  1.00  0.00     0.002 A 
ATOM     76  C   UNL A   1      50.248  27.523  25.780  1.00  0.00     0.091 A 
ATOM     77  F   UNL A   1      48.106  28.380  25.167  1.00  0.00    -0.205 F 
ATOM     78  C   UNL A   1      51.119  27.068  26.784  1.00  0.00     0.022 A 
BRANCH  76  79
ATOM     79  S   UNL A   1      50.886  27.545  24.101  1.00  0.00     0.127 S 
ATOM     80  O   UNL A   1      52.153  26.834  24.257  1.00  0.00    -0.237 OA
ATOM     81  O   UNL A   1      49.856  26.803  23.371  1.00  0.00    -0.237 OA
ATOM     82  O   UNL A   1      50.996  28.949  23.733  1.00  0.00    -0.744 OA
ENDBRANCH  76  79
ENDBRANCH  58  72
BRANCH  59  83
ATOM     83  C   UNL A   1      38.965  29.429  29.976  1.00  0.00     0.023 A 
ATOM     84  C   UNL A   1      38.565  29.046  31.271  1.00  0.00     0.012 A 
ATOM     85  C   UNL A   1      38.029  30.053  29.127  1.00  0.00     0.148 A 
ATOM     86  C   UNL A   1      37.253  29.244  31.702  1.00  0.00     0.002 A 
ATOM     87  C   UNL A   1      36.738  30.297  29.582  1.00  0.00     0.091 A 
ATOM     88  F   UNL A   1      38.421  30.401  27.894  1.00  0.00    -0.205 F 
ATOM     89  C   UNL A   1      36.343  29.878  30.861  1.00  0.00     0.022 A 
BRANCH  87  90
ATOM     90  S   UNL A   1      35.541  31.226  28.617  1.00  0.00     0.127 S 
ATOM     91  O   UNL A   1      34.857  30.165  27.885  1.00  0.00    -0.237 OA
ATOM     92  O   UNL A   1      34.741  31.870  29.660  1.00  0.00    -0.237 OA
ATOM     93  O   UNL A   1      36.324  32.154  27.811  1.00  0.00    -0.744 OA
ENDBRANCH  87  90
ENDBRANCH  59  83
BRANCH  71  94
ATOM     94  C   UNL A   1      44.713  33.399  29.856  1.00  0.00     0.023 A 
ATOM     95  C   UNL A   1      45.180  33.740  31.140  1.00  0.00     0.012 A 
ATOM     96  C   UNL A   1      44.599  34.400  28.869  1.00  0.00     0.148 A 
ATOM     97  C   UNL A   1      45.511  35.061  31.443  1.00  0.00     0.002 A 
ATOM     98  C   UNL A   1      44.975  35.704  29.164  1.00  0.00     0.091 A 
ATOM     99  F   UNL A   1      44.134  34.054  27.660  1.00  0.00    -0.205 F 
ATOM    100  C   UNL A   1      45.422  36.039  30.453  1.00  0.00     0.022 A 
BRANCH  98 101
ATOM    101  S   UNL A   1      44.989  37.005  27.925  1.00  0.00     0.127 S 
ATOM    102  O   UNL A   1      43.571  37.355  27.846  1.00  0.00    -0.237 OA
ATOM    103  O   UNL A   1      45.835  38.021  28.553  1.00  0.00    -0.237 OA
ATOM    104  O   UNL A   1      45.553  36.408  26.722  1.00  0.00    -0.744 OA
ENDBRANCH  98 101
ENDBRANCH  71  94
ENDBRANCH  45  46
ENDBRANCH  37  40
ENDBRANCH  35  36
ENDBRANCH  34  35
ENDBRANCH   1  34
TORSDOF 19
ENDMDL
MODEL 2
REMARK VINA RESULT:     -10.6      5.250      6.974
REMARK SMILES COc1ccc(CCN2C(=O)C[C@@H](C(=O)NCCCNC(=O)c3ccc(-c4c5nc(c(-c6cccc(S(=O)(=O)[O-])c6F)c6ccc([nH]6)c(-c6cccc(S(=O)(=O)[O-])c6F)c6nc(c(-c7cccc(S(=O)(=O)[O-])c7F)c7ccc4[nH]7)C=C6)C=C5)cc3)S/C2=[NH+]\c2ccc(F)cc2)cc1OC
REMARK SMILES IDX 17 1 16 2 14 3 15 4 13 6 9 7 10 8 87 9 11 10 12 11 86 12
REMARK SMILES IDX 88 13 8 15 7 16 6 17 3 18 4 19 97 20 5 21 96 22 2 23 1 24
REMARK SMILES IDX 98 25 99 26 89 27 90 28 95 29 91 30 94 31 92 32 93 33 18 34
REMARK SMILES IDX 19 35 20 36 21 37 22 39 23 40 24 41 85 42 25 43 84 44 26 45
REMARK SMILES IDX 27 46 28 47 78 48 29 49 83 50 77 51 79 52 30 53 82 54 76 55
REMARK SMILES IDX 75 56 31 58 63 59 43 60 62 61 44 62 47 63 61 64 80 65 45 66
REMARK SMILES IDX 46 67 60 69 81 70 48 71 32 72 33 73 41 74 34 75 36 76 42 77
REMARK SMILES IDX 35 78 37 79 38 80 39 81 40 82 64 83 65 84 73 85 66 86 68 87
REMARK SMILES IDX 74 88 67 89 69 90 70 91 71 92 72 93 49 94 50 95 58 96 51 97
REMARK SMILES IDX 53 98 59 99 52 100 54 101 55 102 56 103 57 104
REMARK H PARENT 16 5 88 14 20 38 79 57 47 68
REMARK Flexibility Score: inf
ROOT
ATOM      1  C   UNL A   1      37.143  23.283  25.743  1.00  0.00     0.117 C 
ENDROOT
BRANCH   1   2
ATOM      2  N   UNL A   1      36.310  23.533  24.581  1.00  0.00    -0.355 N 
ATOM      3  C   UNL A   1      35.125  24.207  24.466  1.00  0.00     0.234 C 
ATOM      4  O   UNL A   1      34.726  24.443  23.320  1.00  0.00    -0.274 OA
ATOM      5  H   UNL A   1      36.655  23.156  23.739  1.00  0.00     0.163 HD
BRANCH   3   6
ATOM      6  C   UNL A   1      34.326  24.729  25.674  1.00  0.00     0.160 C 
ATOM      7  N   UNL A   1      31.457  25.447  26.118  1.00  0.00    -0.191 N 
ATOM      8  C   UNL A   1      31.927  24.227  26.570  1.00  0.00     0.311 C 
ATOM      9  C   UNL A   1      32.279  26.562  26.156  1.00  0.00     0.319 C 
ATOM     10  O   UNL A   1      31.241  23.467  27.259  1.00  0.00    -0.247 OA
ATOM     11  C   UNL A   1      33.287  23.739  26.129  1.00  0.00     0.153 C 
ATOM     12  S   UNL A   1      33.831  26.410  25.374  1.00  0.00    -0.024 SA
ATOM     13  N   UNL A   1      31.877  27.675  26.696  1.00  0.00    -0.235 N 
ATOM     14  H   UNL A   1      30.955  27.770  27.027  1.00  0.00     0.313 HD
BRANCH   7  15
ATOM     15  C   UNL A   1      29.982  25.617  26.079  1.00  0.00     0.251 C 
BRANCH  15  16
ATOM     16  C   UNL A   1      29.373  25.679  24.640  1.00  0.00     0.082 C 
BRANCH  16  17
ATOM     17  C   UNL A   1      29.267  27.019  23.921  1.00  0.00    -0.040 A 
ATOM     18  C   UNL A   1      29.004  29.373  22.336  1.00  0.00     0.160 A 
ATOM     19  C   UNL A   1      27.885  28.703  22.804  1.00  0.00     0.051 A 
ATOM     20  C   UNL A   1      30.276  28.907  22.694  1.00  0.00     0.160 A 
ATOM     21  C   UNL A   1      28.035  27.547  23.561  1.00  0.00     0.008 A 
ATOM     22  C   UNL A   1      30.393  27.730  23.477  1.00  0.00     0.054 A 
BRANCH  18  23
ATOM     23  O   UNL A   1      28.818  30.506  21.589  1.00  0.00    -0.493 OA
ATOM     24  C   UNL A   1      28.704  31.680  22.401  1.00  0.00     0.278 C 
ENDBRANCH  18  23
BRANCH  20  25
ATOM     25  O   UNL A   1      31.486  29.461  22.361  1.00  0.00    -0.493 OA
ATOM     26  C   UNL A   1      32.657  28.707  22.646  1.00  0.00     0.278 C 
ENDBRANCH  20  25
ENDBRANCH  16  17
ENDBRANCH  15  16
ENDBRANCH   7  15
BRANCH  13  27
ATOM     27  C   UNL A   1      32.794  28.742  26.798  1.00  0.00     0.125 A 
ATOM     28  C   UNL A   1      32.357  30.053  26.548  1.00  0.00     0.055 A 
ATOM     29  C   UNL A   1      34.098  28.534  27.265  1.00  0.00     0.055 A 
ATOM     30  C   UNL A   1      33.179  31.141  26.847  1.00  0.00     0.043 A 
ATOM     31  C   UNL A   1      34.919  29.624  27.571  1.00  0.00     0.043 A 
ATOM     32  C   UNL A   1      34.445  30.916  27.374  1.00  0.00     0.123 A 
ATOM     33  F   UNL A   1      35.209  31.962  27.713  1.00  0.00    -0.207 F 
ENDBRANCH  13  27
ENDBRANCH   3   6
ENDBRANCH   1   2
BRANCH   1  34
ATOM     34  C   UNL A   1      38.110  22.119  25.619  1.00  0.00     0.042 C 
BRANCH  34  35
ATOM     35  C   UNL A   1      39.367  22.242  26.464  1.00  0.00     0.118 C 
BRANCH  35  36
ATOM     36  N   UNL A   1      40.606  22.085  25.705  1.00  0.00    -0.352 N 
ATOM     37  C   UNL A   1      41.776  22.808  25.748  1.00  0.00     0.251 C 
ATOM     38  H   UNL A   1      40.602  21.341  25.060  1.00  0.00     0.163 HD
ATOM     39  O   UNL A   1      42.668  22.557  24.937  1.00  0.00    -0.269 OA
BRANCH  37  40
ATOM     40  C   UNL A   1      41.953  23.897  26.737  1.00  0.00     0.039 A 
ATOM     41  C   UNL A   1      41.178  23.899  27.903  1.00  0.00     0.014 A 
ATOM     42  C   UNL A   1      42.896  24.903  26.530  1.00  0.00     0.014 A 
ATOM     43  C   UNL A   1      41.423  24.851  28.900  1.00  0.00     0.010 A 
ATOM     44  C   UNL A   1      43.207  25.781  27.561  1.00  0.00     0.010 A 
ATOM     45  C   UNL A   1      42.477  25.767  28.760  1.00  0.00    -0.014 A 
BRANCH  45  46
ATOM     46  C   UNL A   1      42.853  26.732  29.829  1.00  0.00     0.031 A 
ATOM     47  C   UNL A   1      43.835  26.315  30.894  1.00  0.00     0.074 A 
ATOM     48  C   UNL A   1      42.213  27.916  29.928  1.00  0.00     0.049 A 
ATOM     49  N   UNL A   1      44.141  26.911  32.016  1.00  0.00    -0.248 NA
ATOM     50  C   UNL A   1      44.533  25.034  30.686  1.00  0.00     0.031 C 
ATOM     51  C   UNL A   1      41.193  28.412  29.001  1.00  0.00     0.029 A 
ATOM     52  N   UNL A   1      42.296  28.900  30.883  1.00  0.00    -0.354 N 
ATOM     53  C   UNL A   1      45.015  26.053  32.673  1.00  0.00     0.074 A 
ATOM     54  C   UNL A   1      45.168  24.882  31.839  1.00  0.00     0.031 C 
ATOM     55  C   UNL A   1      40.744  29.601  29.435  1.00  0.00     0.029 A 
ATOM     56  C   UNL A   1      41.409  29.935  30.689  1.00  0.00     0.049 A 
ATOM     57  H   UNL A   1      42.930  28.868  31.635  1.00  0.00     0.167 HD
ATOM     58  C   UNL A   1      45.658  26.234  33.851  1.00  0.00     0.034 A 
ATOM     59  C   UNL A   1      41.148  31.020  31.445  1.00  0.00     0.034 A 
ATOM     60  C   UNL A   1      45.560  27.429  34.642  1.00  0.00     0.049 A 
ATOM     61  C   UNL A   1      41.921  31.225  32.721  1.00  0.00     0.074 A 
ATOM     62  C   UNL A   1      46.235  27.746  35.808  1.00  0.00     0.029 A 
ATOM     63  N   UNL A   1      44.744  28.509  34.343  1.00  0.00    -0.354 N 
ATOM     64  N   UNL A   1      42.838  30.460  33.262  1.00  0.00    -0.248 NA
ATOM     65  C   UNL A   1      41.650  32.458  33.476  1.00  0.00     0.031 C 
ATOM     66  C   UNL A   1      45.821  29.017  36.218  1.00  0.00     0.029 A 
ATOM     67  C   UNL A   1      44.905  29.499  35.296  1.00  0.00     0.049 A 
ATOM     68  H   UNL A   1      44.140  28.564  33.567  1.00  0.00     0.167 HD
ATOM     69  C   UNL A   1      43.288  31.141  34.387  1.00  0.00     0.074 A 
ATOM     70  C   UNL A   1      42.549  32.385  34.449  1.00  0.00     0.031 C 
ATOM     71  C   UNL A   1      44.221  30.766  35.295  1.00  0.00     0.034 A 
BRANCH  58  72
ATOM     72  C   UNL A   1      46.578  25.139  34.325  1.00  0.00     0.023 A 
ATOM     73  C   UNL A   1      47.953  25.210  34.020  1.00  0.00     0.012 A 
ATOM     74  C   UNL A   1      46.100  24.077  35.118  1.00  0.00     0.148 A 
ATOM     75  C   UNL A   1      48.830  24.222  34.465  1.00  0.00     0.002 A 
ATOM     76  C   UNL A   1      46.989  23.122  35.597  1.00  0.00     0.091 A 
ATOM     77  F   UNL A   1      44.786  24.016  35.381  1.00  0.00    -0.205 F 
ATOM     78  C   UNL A   1      48.351  23.187  35.261  1.00  0.00     0.022 A 
BRANCH  76  79
ATOM     79  S   UNL A   1      46.485  21.794  36.696  1.00  0.00     0.127 S 
ATOM     80  O   UNL A   1      47.758  21.123  36.951  1.00  0.00    -0.237 OA
ATOM     81  O   UNL A   1      45.944  22.529  37.840  1.00  0.00    -0.237 OA
ATOM     82  O   UNL A   1      45.503  21.013  35.957  1.00  0.00    -0.744 OA
ENDBRANCH  76  79
ENDBRANCH  58  72
BRANCH  59  83
ATOM     83  C   UNL A   1      40.160  32.037  30.982  1.00  0.00     0.023 A 
ATOM     84  C   UNL A   1      40.591  33.081  30.141  1.00  0.00     0.012 A 
ATOM     85  C   UNL A   1      38.801  31.969  31.348  1.00  0.00     0.148 A 
ATOM     86  C   UNL A   1      39.699  34.060  29.702  1.00  0.00     0.002 A 
ATOM     87  C   UNL A   1      37.906  32.916  30.862  1.00  0.00     0.091 A 
ATOM     88  F   UNL A   1      38.409  30.976  32.158  1.00  0.00    -0.205 F 
ATOM     89  C   UNL A   1      38.355  33.971  30.054  1.00  0.00     0.022 A 
BRANCH  87  90
ATOM     90  S   UNL A   1      36.137  32.803  31.156  1.00  0.00     0.127 S 
ATOM     91  O   UNL A   1      35.630  33.918  30.362  1.00  0.00    -0.237 OA
ATOM     92  O   UNL A   1      35.823  31.475  30.626  1.00  0.00    -0.237 OA
ATOM     93  O   UNL A   1      35.973  32.921  32.599  1.00  0.00    -0.744 OA
ENDBRANCH  87  90
ENDBRANCH  59  83
BRANCH  71  94
ATOM     94  C   UNL A   1      44.562  31.729  36.399  1.00  0.00     0.023 A 
ATOM     95  C   UNL A   1      43.843  31.697  37.609  1.00  0.00     0.012 A 
ATOM     96  C   UNL A   1      45.670  32.591  36.272  1.00  0.00     0.148 A 
ATOM     97  C   UNL A   1      44.209  32.525  38.671  1.00  0.00     0.002 A 
ATOM     98  C   UNL A   1      46.057  33.378  37.349  1.00  0.00     0.091 A 
ATOM     99  F   UNL A   1      46.327  32.617  35.104  1.00  0.00    -0.205 F 
ATOM    100  C   UNL A   1      45.323  33.354  38.545  1.00  0.00     0.022 A 
BRANCH  98 101
ATOM    101  S   UNL A   1      47.536  34.399  37.312  1.00  0.00     0.127 S 
ATOM    102  O   UNL A   1      48.573  33.408  37.028  1.00  0.00    -0.237 OA
ATOM    103  O   UNL A   1      47.250  35.318  36.209  1.00  0.00    -0.237 OA
ATOM    104  O   UNL A   1      47.619  35.033  38.622  1.00  0.00    -0.744 OA
ENDBRANCH  98 101
ENDBRANCH  71  94
ENDBRANCH  45  46
ENDBRANCH  37  40
ENDBRANCH  35  36
ENDBRANCH  34  35
ENDBRANCH   1  34
TORSDOF 19
ENDMDL
MODEL 3
REMARK VINA RESULT:     -10.5      5.332      6.635
REMARK SMILES COc1ccc(CCN2C(=O)C[C@@H](C(=O)NCCCNC(=O)c3ccc(-c4c5nc(c(-c6cccc(S(=O)(=O)[O-])c6F)c6ccc([nH]6)c(-c6cccc(S(=O)(=O)[O-])c6F)c6nc(c(-c7cccc(S(=O)(=O)[O-])c7F)c7ccc4[nH]7)C=C6)C=C5)cc3)S/C2=[NH+]\c2ccc(F)cc2)cc1OC
REMARK SMILES IDX 17 1 16 2 14 3 15 4 13 6 9 7 10 8 87 9 11 10 12 11 86 12
REMARK SMILES IDX 88 13 8 15 7 16 6 17 3 18 4 19 97 20 5 21 96 22 2 23 1 24
REMARK SMILES IDX 98 25 99 26 89 27 90 28 95 29 91 30 94 31 92 32 93 33 18 34
REMARK SMILES IDX 19 35 20 36 21 37 22 39 23 40 24 41 85 42 25 43 84 44 26 45
REMARK SMILES IDX 27 46 28 47 78 48 29 49 83 50 77 51 79 52 30 53 82 54 76 55
REMARK SMILES IDX 75 56 31 58 63 59 43 60 62 61 44 62 47 63 61 64 80 65 45 66
REMARK SMILES IDX 46 67 60 69 81 70 48 71 32 72 33 73 41 74 34 75 36 76 42 77
REMARK SMILES IDX 35 78 37 79 38 80 39 81 40 82 64 83 65 84 73 85 66 86 68 87
REMARK SMILES IDX 74 88 67 89 69 90 70 91 71 92 72 93 49 94 50 95 58 96 51 97
REMARK SMILES IDX 53 98 59 99 52 100 54 101 55 102 56 103 57 104
REMARK H PARENT 16 5 88 14 20 38 79 57 47 68
REMARK Flexibility Score: inf
ROOT
ATOM      1  C   UNL A   1      38.235  22.066  25.996  1.00  0.00     0.117 C 
ENDROOT
BRANCH   1   2
ATOM      2  N   UNL A   1      37.641  22.614  24.792  1.00  0.00    -0.355 N 
ATOM      3  C   UNL A   1      36.570  23.451  24.631  1.00  0.00     0.234 C 
ATOM      4  O   UNL A   1      36.397  23.925  23.502  1.00  0.00    -0.274 OA
ATOM      5  H   UNL A   1      38.079  22.338  23.954  1.00  0.00     0.163 HD
BRANCH   3   6
ATOM      6  C   UNL A   1      35.642  23.870  25.785  1.00  0.00     0.160 C 
ATOM      7  N   UNL A   1      32.714  23.563  26.315  1.00  0.00    -0.191 N 
ATOM      8  C   UNL A   1      33.608  22.712  26.939  1.00  0.00     0.311 C 
ATOM      9  C   UNL A   1      33.061  24.886  26.090  1.00  0.00     0.319 C 
ATOM     10  O   UNL A   1      33.259  21.903  27.804  1.00  0.00    -0.247 OA
ATOM     11  C   UNL A   1      35.049  22.678  26.488  1.00  0.00     0.153 C 
ATOM     12  S   UNL A   1      34.553  25.162  25.229  1.00  0.00    -0.024 SA
ATOM     13  N   UNL A   1      32.276  25.858  26.453  1.00  0.00    -0.235 N 
ATOM     14  H   UNL A   1      31.387  25.672  26.832  1.00  0.00     0.313 HD
BRANCH   7  15
ATOM     15  C   UNL A   1      31.282  23.172  26.360  1.00  0.00     0.251 C 
BRANCH  15  16
ATOM     16  C   UNL A   1      30.610  23.001  24.959  1.00  0.00     0.082 C 
BRANCH  16  17
ATOM     17  C   UNL A   1      31.191  23.723  23.749  1.00  0.00    -0.040 A 
ATOM     18  C   UNL A   1      32.516  25.122  21.648  1.00  0.00     0.160 A 
ATOM     19  C   UNL A   1      32.840  23.806  21.940  1.00  0.00     0.051 A 
ATOM     20  C   UNL A   1      31.489  25.747  22.368  1.00  0.00     0.160 A 
ATOM     21  C   UNL A   1      32.194  23.148  22.981  1.00  0.00     0.008 A 
ATOM     22  C   UNL A   1      30.843  25.042  23.416  1.00  0.00     0.054 A 
BRANCH  18  23
ATOM     23  O   UNL A   1      33.177  25.740  20.620  1.00  0.00    -0.493 OA
ATOM     24  C   UNL A   1      32.588  25.455  19.346  1.00  0.00     0.278 C 
ENDBRANCH  18  23
BRANCH  20  25
ATOM     25  O   UNL A   1      31.009  27.019  22.191  1.00  0.00    -0.493 OA
ATOM     26  C   UNL A   1      29.867  27.403  22.948  1.00  0.00     0.278 C 
ENDBRANCH  20  25
ENDBRANCH  16  17
ENDBRANCH  15  16
ENDBRANCH   7  15
BRANCH  13  27
ATOM     27  C   UNL A   1      32.729  27.184  26.291  1.00  0.00     0.125 A 
ATOM     28  C   UNL A   1      31.859  28.151  25.765  1.00  0.00     0.055 A 
ATOM     29  C   UNL A   1      33.987  27.581  26.762  1.00  0.00     0.055 A 
ATOM     30  C   UNL A   1      32.203  29.503  25.793  1.00  0.00     0.043 A 
ATOM     31  C   UNL A   1      34.330  28.936  26.797  1.00  0.00     0.043 A 
ATOM     32  C   UNL A   1      33.428  29.885  26.327  1.00  0.00     0.123 A 
ATOM     33  F   UNL A   1      33.733  31.186  26.404  1.00  0.00    -0.207 F 
ENDBRANCH  13  27
ENDBRANCH   3   6
ENDBRANCH   1   2
BRANCH   1  34
ATOM     34  C   UNL A   1      39.612  21.448  25.826  1.00  0.00     0.042 C 
BRANCH  34  35
ATOM     35  C   UNL A   1      40.740  22.208  26.504  1.00  0.00     0.118 C 
BRANCH  35  36
ATOM     36  N   UNL A   1      41.853  22.529  25.613  1.00  0.00    -0.352 N 
ATOM     37  C   UNL A   1      42.663  23.641  25.564  1.00  0.00     0.251 C 
ATOM     38  H   UNL A   1      42.056  21.840  24.941  1.00  0.00     0.163 HD
ATOM     39  O   UNL A   1      43.486  23.745  24.655  1.00  0.00    -0.269 OA
BRANCH  37  40
ATOM     40  C   UNL A   1      42.529  24.716  26.575  1.00  0.00     0.039 A 
ATOM     41  C   UNL A   1      41.650  24.543  27.650  1.00  0.00     0.014 A 
ATOM     42  C   UNL A   1      43.285  25.884  26.479  1.00  0.00     0.014 A 
ATOM     43  C   UNL A   1      41.607  25.496  28.674  1.00  0.00     0.010 A 
ATOM     44  C   UNL A   1      43.317  26.776  27.544  1.00  0.00     0.010 A 
ATOM     45  C   UNL A   1      42.481  26.595  28.657  1.00  0.00    -0.014 A 
BRANCH  45  46
ATOM     46  C   UNL A   1      42.557  27.583  29.767  1.00  0.00     0.031 A 
ATOM     47  C   UNL A   1      43.431  27.294  30.960  1.00  0.00     0.074 A 
ATOM     48  C   UNL A   1      41.740  28.657  29.774  1.00  0.00     0.049 A 
ATOM     49  N   UNL A   1      43.485  27.905  32.114  1.00  0.00    -0.248 NA
ATOM     50  C   UNL A   1      44.333  26.133  30.854  1.00  0.00     0.031 C 
ATOM     51  C   UNL A   1      40.797  29.016  28.712  1.00  0.00     0.029 A 
ATOM     52  N   UNL A   1      41.541  29.623  30.731  1.00  0.00    -0.354 N 
ATOM     53  C   UNL A   1      44.377  27.173  32.888  1.00  0.00     0.074 A 
ATOM     54  C   UNL A   1      44.816  26.054  32.085  1.00  0.00     0.031 C 
ATOM     55  C   UNL A   1      40.120  30.117  29.077  1.00  0.00     0.029 A 
ATOM     56  C   UNL A   1      40.546  30.520  30.412  1.00  0.00     0.049 A 
ATOM     57  H   UNL A   1      42.062  29.670  31.564  1.00  0.00     0.167 HD
ATOM     58  C   UNL A   1      44.814  27.422  34.145  1.00  0.00     0.034 A 
ATOM     59  C   UNL A   1      40.024  31.540  31.123  1.00  0.00     0.034 A 
ATOM     60  C   UNL A   1      44.431  28.573  34.913  1.00  0.00     0.049 A 
ATOM     61  C   UNL A   1      40.572  31.830  32.495  1.00  0.00     0.074 A 
ATOM     62  C   UNL A   1      44.881  28.963  36.162  1.00  0.00     0.029 A 
ATOM     63  N   UNL A   1      43.513  29.527  34.501  1.00  0.00    -0.354 N 
ATOM     64  N   UNL A   1      41.508  31.198  33.160  1.00  0.00    -0.248 NA
ATOM     65  C   UNL A   1      40.018  32.995  33.203  1.00  0.00     0.031 C 
ATOM     66  C   UNL A   1      44.230  30.151  36.509  1.00  0.00     0.029 A 
ATOM     67  C   UNL A   1      43.391  30.511  35.466  1.00  0.00     0.049 A 
ATOM     68  H   UNL A   1      43.022  29.509  33.648  1.00  0.00     0.167 HD
ATOM     69  C   UNL A   1      41.690  31.915  34.337  1.00  0.00     0.074 A 
ATOM     70  C   UNL A   1      40.773  33.035  34.293  1.00  0.00     0.031 C 
ATOM     71  C   UNL A   1      42.533  31.663  35.368  1.00  0.00     0.034 A 
BRANCH  58  72
ATOM     72  C   UNL A   1      45.812  26.465  34.745  1.00  0.00     0.023 A 
ATOM     73  C   UNL A   1      47.184  26.787  34.715  1.00  0.00     0.012 A 
ATOM     74  C   UNL A   1      45.393  25.284  35.388  1.00  0.00     0.148 A 
ATOM     75  C   UNL A   1      48.127  25.931  35.282  1.00  0.00     0.002 A 
ATOM     76  C   UNL A   1      46.334  24.459  35.992  1.00  0.00     0.091 A 
ATOM     77  F   UNL A   1      44.085  24.985  35.388  1.00  0.00    -0.205 F 
ATOM     78  C   UNL A   1      47.702  24.775  35.930  1.00  0.00     0.022 A 
BRANCH  76  79
ATOM     79  S   UNL A   1      45.882  22.989  36.920  1.00  0.00     0.127 S 
ATOM     80  O   UNL A   1      45.310  23.569  38.133  1.00  0.00    -0.237 OA
ATOM     81  O   UNL A   1      44.909  22.352  36.031  1.00  0.00    -0.237 OA
ATOM     82  O   UNL A   1      47.116  22.237  37.106  1.00  0.00    -0.744 OA
ENDBRANCH  76  79
ENDBRANCH  58  72
BRANCH  59  83
ATOM     83  C   UNL A   1      38.970  32.409  30.525  1.00  0.00     0.023 A 
ATOM     84  C   UNL A   1      39.353  33.569  29.824  1.00  0.00     0.012 A 
ATOM     85  C   UNL A   1      37.602  32.089  30.624  1.00  0.00     0.148 A 
ATOM     86  C   UNL A   1      38.394  34.415  29.265  1.00  0.00     0.002 A 
ATOM     87  C   UNL A   1      36.655  32.907  30.018  1.00  0.00     0.091 A 
ATOM     88  F   UNL A   1      37.253  30.989  31.305  1.00  0.00    -0.205 F 
ATOM     89  C   UNL A   1      37.047  34.079  29.353  1.00  0.00     0.022 A 
BRANCH  87  90
ATOM     90  S   UNL A   1      34.910  32.480  29.968  1.00  0.00     0.127 S 
ATOM     91  O   UNL A   1      34.550  32.525  31.382  1.00  0.00    -0.237 OA
ATOM     92  O   UNL A   1      34.354  33.563  29.156  1.00  0.00    -0.237 OA
ATOM     93  O   UNL A   1      34.847  31.169  29.335  1.00  0.00    -0.744 OA
ENDBRANCH  87  90
ENDBRANCH  59  83
BRANCH  71  94
ATOM     94  C   UNL A   1      42.569  32.643  36.509  1.00  0.00     0.023 A 
ATOM     95  C   UNL A   1      43.571  33.632  36.555  1.00  0.00     0.012 A 
ATOM     96  C   UNL A   1      41.543  32.647  37.475  1.00  0.00     0.148 A 
ATOM     97  C   UNL A   1      43.561  34.600  37.560  1.00  0.00     0.002 A 
ATOM     98  C   UNL A   1      41.514  33.642  38.444  1.00  0.00     0.091 A 
ATOM     99  F   UNL A   1      40.611  31.685  37.420  1.00  0.00    -0.205 F 
ATOM    100  C   UNL A   1      42.527  34.613  38.494  1.00  0.00     0.022 A 
BRANCH  98 101
ATOM    101  S   UNL A   1      40.167  33.797  39.623  1.00  0.00     0.127 S 
ATOM    102  O   UNL A   1      40.102  32.446  40.179  1.00  0.00    -0.237 OA
ATOM    103  O   UNL A   1      40.678  34.812  40.545  1.00  0.00    -0.237 OA
ATOM    104  O   UNL A   1      39.002  34.211  38.852  1.00  0.00    -0.744 OA
ENDBRANCH  98 101
ENDBRANCH  71  94
ENDBRANCH  45  46
ENDBRANCH  37  40
ENDBRANCH  35  36
ENDBRANCH  34  35
ENDBRANCH   1  34
TORSDOF 19
ENDMDL
