MODEL 1
REMARK VINA RESULT:     -10.5      0.000      0.000
REMARK SMILES C[C@H](C[N@@H+](C)[C@@H](C)[C@@H](C)O)C(=O)NCCCNC(=O)c1ccc(-c2c3nc(c(-c4cccc(S(=O)(=O)[O-])c4F)c4ccc([nH]4)c(-c4cccc(S(=O)(=O)[O-])c4F)c4nc(c(-c5cccc(S(=O)(=O)[O-])c5F)c5ccc2[nH]5)C=C4)C=C3)cc1
REMARK SMILES IDX 14 1 13 2 11 3 12 4 2 6 1 7 3 8 4 9 5 10 6 12 7 13 8 14 9 15
REMARK SMILES IDX 10 16 15 18 16 19 17 20 18 21 19 23 20 24 21 25 82 26 22 27
REMARK SMILES IDX 81 28 23 29 24 30 25 31 75 32 26 33 80 34 74 35 76 36 27 37
REMARK SMILES IDX 79 38 73 39 72 40 28 42 60 43 40 44 59 45 41 46 44 47 58 48
REMARK SMILES IDX 77 49 42 50 43 51 57 53 78 54 45 55 29 56 30 57 38 58 31 59
REMARK SMILES IDX 33 60 39 61 32 62 34 63 35 64 36 65 37 66 61 67 62 68 70 69
REMARK SMILES IDX 63 70 65 71 71 72 64 73 66 74 67 75 68 76 69 77 46 78 47 79
REMARK SMILES IDX 55 80 48 81 50 82 56 83 49 84 51 85 52 86 53 87 54 88
REMARK H PARENT 13 5 4 11 10 17 17 22 76 41 44 52
REMARK Flexibility Score: inf
ROOT
ATOM      1  C   UNL A   1      33.847  28.678  23.891  1.00  0.00     0.117 C 
ENDROOT
BRANCH   1   2
ATOM      2  N   UNL A   1      33.780  27.465  22.901  1.00  0.00    -0.356 N 
ATOM      3  C   UNL A   1      33.582  26.146  22.579  1.00  0.00     0.228 C 
ATOM      4  O   UNL A   1      33.586  26.045  21.328  1.00  0.00    -0.275 OA
ATOM      5  H   UNL A   1      34.001  27.874  22.034  1.00  0.00     0.163 HD
BRANCH   3   6
ATOM      6  C   UNL A   1      33.226  24.731  23.327  1.00  0.00     0.130 C 
ATOM      7  C   UNL A   1      32.394  24.877  24.625  1.00  0.00     0.024 C 
BRANCH   6   8
ATOM      8  C   UNL A   1      33.979  23.332  23.354  1.00  0.00     0.275 C 
BRANCH   8   9
ATOM      9  N   UNL A   1      33.668  22.322  24.399  1.00  0.00    -0.332 N 
ATOM     10  C   UNL A   1      32.706  21.307  23.945  1.00  0.00     0.333 C 
ATOM     11  H   UNL A   1      33.215  22.808  25.173  1.00  0.00     0.348 HD
BRANCH   9  12
ATOM     12  C   UNL A   1      34.918  21.701  24.876  1.00  0.00     0.209 C 
ATOM     13  C   UNL A   1      35.964  22.376  23.916  1.00  0.00     0.078 C 
BRANCH  12  14
ATOM     14  C   UNL A   1      34.582  21.582  26.484  1.00  0.00     0.169 C 
ATOM     15  C   UNL A   1      34.316  22.949  27.112  1.00  0.00     0.045 C 
BRANCH  14  16
ATOM     16  O   UNL A   1      33.644  20.736  27.129  1.00  0.00    -0.387 OA
ATOM     17  H   UNL A   1      33.829  20.714  28.081  1.00  0.00     0.211 HD
ENDBRANCH  14  16
ENDBRANCH  12  14
ENDBRANCH   9  12
ENDBRANCH   8   9
ENDBRANCH   6   8
ENDBRANCH   3   6
ENDBRANCH   1   2
BRANCH   1  18
ATOM     18  C   UNL A   1      32.602  29.220  24.625  1.00  0.00     0.042 C 
BRANCH  18  19
ATOM     19  C   UNL A   1      32.827  29.539  26.080  1.00  0.00     0.118 C 
BRANCH  19  20
ATOM     20  N   UNL A   1      32.531  30.911  26.468  1.00  0.00    -0.352 N 
ATOM     21  C   UNL A   1      33.293  31.761  27.245  1.00  0.00     0.251 C 
ATOM     22  H   UNL A   1      31.682  31.279  26.133  1.00  0.00     0.163 HD
ATOM     23  O   UNL A   1      32.861  32.868  27.567  1.00  0.00    -0.269 OA
BRANCH  21  24
ATOM     24  C   UNL A   1      34.616  31.301  27.722  1.00  0.00     0.039 A 
ATOM     25  C   UNL A   1      35.662  32.210  27.888  1.00  0.00     0.014 A 
ATOM     26  C   UNL A   1      34.769  29.978  28.126  1.00  0.00     0.014 A 
ATOM     27  C   UNL A   1      36.828  31.797  28.537  1.00  0.00     0.010 A 
ATOM     28  C   UNL A   1      35.819  29.643  28.957  1.00  0.00     0.010 A 
ATOM     29  C   UNL A   1      36.897  30.519  29.118  1.00  0.00    -0.014 A 
BRANCH  29  30
ATOM     30  C   UNL A   1      38.100  30.016  29.823  1.00  0.00     0.031 A 
ATOM     31  C   UNL A   1      38.380  30.506  31.226  1.00  0.00     0.074 A 
ATOM     32  C   UNL A   1      38.982  29.219  29.187  1.00  0.00     0.049 A 
ATOM     33  N   UNL A   1      39.429  30.307  31.978  1.00  0.00    -0.248 NA
ATOM     34  C   UNL A   1      37.378  31.402  31.841  1.00  0.00     0.031 C 
ATOM     35  C   UNL A   1      38.875  28.768  27.797  1.00  0.00     0.029 A 
ATOM     36  N   UNL A   1      40.156  28.662  29.623  1.00  0.00    -0.354 N 
ATOM     37  C   UNL A   1      39.237  31.099  33.106  1.00  0.00     0.074 A 
ATOM     38  C   UNL A   1      38.023  31.849  32.904  1.00  0.00     0.031 C 
ATOM     39  C   UNL A   1      39.920  27.974  27.508  1.00  0.00     0.029 A 
ATOM     40  C   UNL A   1      40.790  27.893  28.674  1.00  0.00     0.049 A 
ATOM     41  H   UNL A   1      40.511  28.798  30.531  1.00  0.00     0.167 HD
ATOM     42  C   UNL A   1      39.970  31.154  34.240  1.00  0.00     0.034 A 
ATOM     43  C   UNL A   1      41.945  27.203  28.747  1.00  0.00     0.034 A 
ATOM     44  C   UNL A   1      41.120  30.329  34.467  1.00  0.00     0.049 A 
ATOM     45  C   UNL A   1      42.703  27.213  30.047  1.00  0.00     0.074 A 
ATOM     46  C   UNL A   1      41.877  30.205  35.615  1.00  0.00     0.029 A 
ATOM     47  N   UNL A   1      41.669  29.478  33.521  1.00  0.00    -0.354 N 
ATOM     48  N   UNL A   1      42.423  27.847  31.160  1.00  0.00    -0.248 NA
ATOM     49  C   UNL A   1      43.914  26.384  30.116  1.00  0.00     0.031 C 
ATOM     50  C   UNL A   1      42.909  29.300  35.352  1.00  0.00     0.029 A 
ATOM     51  C   UNL A   1      42.766  28.830  34.053  1.00  0.00     0.049 A 
ATOM     52  H   UNL A   1      41.328  29.354  32.606  1.00  0.00     0.167 HD
ATOM     53  C   UNL A   1      43.399  27.469  32.072  1.00  0.00     0.074 A 
ATOM     54  C   UNL A   1      44.266  26.531  31.386  1.00  0.00     0.031 C 
ATOM     55  C   UNL A   1      43.576  27.865  33.357  1.00  0.00     0.034 A 
BRANCH  42  56
ATOM     56  C   UNL A   1      39.509  32.087  35.331  1.00  0.00     0.023 A 
ATOM     57  C   UNL A   1      38.617  31.627  36.323  1.00  0.00     0.012 A 
ATOM     58  C   UNL A   1      39.978  33.413  35.388  1.00  0.00     0.148 A 
ATOM     59  C   UNL A   1      38.159  32.484  37.324  1.00  0.00     0.002 A 
ATOM     60  C   UNL A   1      39.562  34.244  36.422  1.00  0.00     0.091 A 
ATOM     61  F   UNL A   1      40.803  33.843  34.424  1.00  0.00    -0.205 F 
ATOM     62  C   UNL A   1      38.641  33.787  37.379  1.00  0.00     0.022 A 
BRANCH  60  63
ATOM     63  S   UNL A   1      40.189  35.913  36.635  1.00  0.00     0.127 S 
ATOM     64  O   UNL A   1      39.814  36.533  35.365  1.00  0.00    -0.237 OA
ATOM     65  O   UNL A   1      39.425  36.380  37.791  1.00  0.00    -0.237 OA
ATOM     66  O   UNL A   1      41.622  35.779  36.863  1.00  0.00    -0.744 OA
ENDBRANCH  60  63
ENDBRANCH  42  56
BRANCH  43  67
ATOM     67  C   UNL A   1      42.408  26.391  27.585  1.00  0.00     0.023 A 
ATOM     68  C   UNL A   1      43.260  26.975  26.625  1.00  0.00     0.012 A 
ATOM     69  C   UNL A   1      42.038  25.040  27.439  1.00  0.00     0.148 A 
ATOM     70  C   UNL A   1      43.703  26.240  25.525  1.00  0.00     0.002 A 
ATOM     71  C   UNL A   1      42.528  24.298  26.371  1.00  0.00     0.091 A 
ATOM     72  F   UNL A   1      41.224  24.503  28.358  1.00  0.00    -0.205 F 
ATOM     73  C   UNL A   1      43.345  24.900  25.402  1.00  0.00     0.022 A 
BRANCH  71  74
ATOM     74  S   UNL A   1      42.228  22.535  26.204  1.00  0.00     0.127 S 
ATOM     75  O   UNL A   1      43.000  22.211  25.007  1.00  0.00    -0.237 OA
ATOM     76  O   UNL A   1      42.782  22.015  27.455  1.00  0.00    -0.237 OA
ATOM     77  O   UNL A   1      40.783  22.391  26.083  1.00  0.00    -0.744 OA
ENDBRANCH  71  74
ENDBRANCH  43  67
BRANCH  55  78
ATOM     78  C   UNL A   1      44.718  27.257  34.122  1.00  0.00     0.023 A 
ATOM     79  C   UNL A   1      45.982  27.877  34.108  1.00  0.00     0.012 A 
ATOM     80  C   UNL A   1      44.507  26.121  34.926  1.00  0.00     0.148 A 
ATOM     81  C   UNL A   1      47.031  27.352  34.862  1.00  0.00     0.002 A 
ATOM     82  C   UNL A   1      45.539  25.639  35.718  1.00  0.00     0.091 A 
ATOM     83  F   UNL A   1      43.297  25.543  34.910  1.00  0.00    -0.205 F 
ATOM     84  C   UNL A   1      46.806  26.244  35.675  1.00  0.00     0.022 A 
BRANCH  82  85
ATOM     85  S   UNL A   1      45.311  24.287  36.876  1.00  0.00     0.127 S 
ATOM     86  O   UNL A   1      46.602  24.263  37.561  1.00  0.00    -0.237 OA
ATOM     87  O   UNL A   1      44.195  24.765  37.691  1.00  0.00    -0.237 OA
ATOM     88  O   UNL A   1      45.013  23.112  36.070  1.00  0.00    -0.744 OA
ENDBRANCH  82  85
ENDBRANCH  55  78
ENDBRANCH  29  30
ENDBRANCH  21  24
ENDBRANCH  19  20
ENDBRANCH  18  19
ENDBRANCH   1  18
TORSDOF 18
ENDMDL
MODEL 2
REMARK VINA RESULT:     -10.1      1.754      2.297
REMARK SMILES C[C@H](C[N@@H+](C)[C@@H](C)[C@@H](C)O)C(=O)NCCCNC(=O)c1ccc(-c2c3nc(c(-c4cccc(S(=O)(=O)[O-])c4F)c4ccc([nH]4)c(-c4cccc(S(=O)(=O)[O-])c4F)c4nc(c(-c5cccc(S(=O)(=O)[O-])c5F)c5ccc2[nH]5)C=C4)C=C3)cc1
REMARK SMILES IDX 14 1 13 2 11 3 12 4 2 6 1 7 3 8 4 9 5 10 6 12 7 13 8 14 9 15
REMARK SMILES IDX 10 16 15 18 16 19 17 20 18 21 19 23 20 24 21 25 82 26 22 27
REMARK SMILES IDX 81 28 23 29 24 30 25 31 75 32 26 33 80 34 74 35 76 36 27 37
REMARK SMILES IDX 79 38 73 39 72 40 28 42 60 43 40 44 59 45 41 46 44 47 58 48
REMARK SMILES IDX 77 49 42 50 43 51 57 53 78 54 45 55 29 56 30 57 38 58 31 59
REMARK SMILES IDX 33 60 39 61 32 62 34 63 35 64 36 65 37 66 61 67 62 68 70 69
REMARK SMILES IDX 63 70 65 71 71 72 64 73 66 74 67 75 68 76 69 77 46 78 47 79
REMARK SMILES IDX 55 80 48 81 50 82 56 83 49 84 51 85 52 86 53 87 54 88
REMARK H PARENT 13 5 4 11 10 17 17 22 76 41 44 52
REMARK Flexibility Score: inf
ROOT
ATOM      1  C   UNL A   1      31.497  30.058  24.984  1.00  0.00     0.117 C 
ENDROOT
BRANCH   1   2
ATOM      2  N   UNL A   1      30.934  29.209  23.793  1.00  0.00    -0.356 N 
ATOM      3  C   UNL A   1      30.326  28.109  23.241  1.00  0.00     0.228 C 
ATOM      4  O   UNL A   1      30.100  28.355  22.032  1.00  0.00    -0.275 OA
ATOM      5  H   UNL A   1      31.118  29.776  23.011  1.00  0.00     0.163 HD
BRANCH   3   6
ATOM      6  C   UNL A   1      29.714  26.666  23.720  1.00  0.00     0.130 C 
ATOM      7  C   UNL A   1      28.177  26.648  23.915  1.00  0.00     0.024 C 
BRANCH   6   8
ATOM      8  C   UNL A   1      30.351  25.472  24.551  1.00  0.00     0.275 C 
BRANCH   8   9
ATOM      9  N   UNL A   1      31.294  24.517  23.910  1.00  0.00    -0.332 N 
ATOM     10  C   UNL A   1      32.140  25.150  22.887  1.00  0.00     0.333 C 
ATOM     11  H   UNL A   1      30.737  23.818  23.417  1.00  0.00     0.348 HD
BRANCH   9  12
ATOM     12  C   UNL A   1      32.109  23.853  24.945  1.00  0.00     0.209 C 
ATOM     13  C   UNL A   1      32.253  25.017  25.993  1.00  0.00     0.078 C 
BRANCH  12  14
ATOM     14  C   UNL A   1      31.511  22.323  24.841  1.00  0.00     0.169 C 
ATOM     15  C   UNL A   1      32.306  21.467  23.857  1.00  0.00     0.045 C 
BRANCH  14  16
ATOM     16  O   UNL A   1      31.209  21.420  25.893  1.00  0.00    -0.387 OA
ATOM     17  H   UNL A   1      31.667  20.579  25.739  1.00  0.00     0.211 HD
ENDBRANCH  14  16
ENDBRANCH  12  14
ENDBRANCH   9  12
ENDBRANCH   8   9
ENDBRANCH   6   8
ENDBRANCH   3   6
ENDBRANCH   1   2
BRANCH   1  18
ATOM     18  C   UNL A   1      32.765  29.654  25.765  1.00  0.00     0.042 C 
BRANCH  18  19
ATOM     19  C   UNL A   1      32.836  30.207  27.165  1.00  0.00     0.118 C 
BRANCH  19  20
ATOM     20  N   UNL A   1      32.822  31.660  27.260  1.00  0.00    -0.352 N 
ATOM     21  C   UNL A   1      33.818  32.494  27.729  1.00  0.00     0.251 C 
ATOM     22  H   UNL A   1      32.001  32.103  26.948  1.00  0.00     0.163 HD
ATOM     23  O   UNL A   1      33.620  33.704  27.835  1.00  0.00    -0.269 OA
BRANCH  21  24
ATOM     24  C   UNL A   1      35.109  31.903  28.144  1.00  0.00     0.039 A 
ATOM     25  C   UNL A   1      36.251  32.699  28.245  1.00  0.00     0.014 A 
ATOM     26  C   UNL A   1      35.145  30.573  28.556  1.00  0.00     0.014 A 
ATOM     27  C   UNL A   1      37.400  32.171  28.840  1.00  0.00     0.010 A 
ATOM     28  C   UNL A   1      36.196  30.137  29.337  1.00  0.00     0.010 A 
ATOM     29  C   UNL A   1      37.366  30.898  29.433  1.00  0.00    -0.014 A 
BRANCH  29  30
ATOM     30  C   UNL A   1      38.545  30.277  30.082  1.00  0.00     0.031 A 
ATOM     31  C   UNL A   1      38.910  30.703  31.487  1.00  0.00     0.074 A 
ATOM     32  C   UNL A   1      39.336  29.428  29.396  1.00  0.00     0.049 A 
ATOM     33  N   UNL A   1      39.963  30.397  32.197  1.00  0.00    -0.248 NA
ATOM     34  C   UNL A   1      38.007  31.661  32.159  1.00  0.00     0.031 C 
ATOM     35  C   UNL A   1      39.147  29.027  27.999  1.00  0.00     0.029 A 
ATOM     36  N   UNL A   1      40.473  28.764  29.777  1.00  0.00    -0.354 N 
ATOM     37  C   UNL A   1      39.875  31.169  33.350  1.00  0.00     0.074 A 
ATOM     38  C   UNL A   1      38.722  32.023  33.210  1.00  0.00     0.031 C 
ATOM     39  C   UNL A   1      40.112  28.158  27.654  1.00  0.00     0.029 A 
ATOM     40  C   UNL A   1      41.010  27.972  28.787  1.00  0.00     0.049 A 
ATOM     41  H   UNL A   1      40.868  28.845  30.675  1.00  0.00     0.167 HD
ATOM     42  C   UNL A   1      40.647  31.132  34.459  1.00  0.00     0.034 A 
ATOM     43  C   UNL A   1      42.105  27.188  28.802  1.00  0.00     0.034 A 
ATOM     44  C   UNL A   1      41.731  30.209  34.625  1.00  0.00     0.049 A 
ATOM     45  C   UNL A   1      42.903  27.099  30.074  1.00  0.00     0.074 A 
ATOM     46  C   UNL A   1      42.512  29.991  35.742  1.00  0.00     0.029 A 
ATOM     47  N   UNL A   1      42.176  29.343  33.639  1.00  0.00    -0.354 N 
ATOM     48  N   UNL A   1      42.713  27.722  31.212  1.00  0.00    -0.248 NA
ATOM     49  C   UNL A   1      44.043  26.171  30.080  1.00  0.00     0.031 C 
ATOM     50  C   UNL A   1      43.455  29.011  35.420  1.00  0.00     0.029 A 
ATOM     51  C   UNL A   1      43.232  28.592  34.116  1.00  0.00     0.049 A 
ATOM     52  H   UNL A   1      41.796  29.273  32.734  1.00  0.00     0.167 HD
ATOM     53  C   UNL A   1      43.684  27.239  32.080  1.00  0.00     0.074 A 
ATOM     54  C   UNL A   1      44.446  26.253  31.341  1.00  0.00     0.031 C 
ATOM     55  C   UNL A   1      43.935  27.583  33.368  1.00  0.00     0.034 A 
BRANCH  42  56
ATOM     56  C   UNL A   1      40.301  32.069  35.589  1.00  0.00     0.023 A 
ATOM     57  C   UNL A   1      41.053  33.245  35.788  1.00  0.00     0.012 A 
ATOM     58  C   UNL A   1      39.214  31.795  36.440  1.00  0.00     0.148 A 
ATOM     59  C   UNL A   1      40.763  34.109  36.843  1.00  0.00     0.002 A 
ATOM     60  C   UNL A   1      38.895  32.689  37.456  1.00  0.00     0.091 A 
ATOM     61  F   UNL A   1      38.526  30.660  36.256  1.00  0.00    -0.205 F 
ATOM     62  C   UNL A   1      39.678  33.836  37.669  1.00  0.00     0.022 A 
BRANCH  60  63
ATOM     63  S   UNL A   1      37.465  32.476  38.521  1.00  0.00     0.127 S 
ATOM     64  O   UNL A   1      36.382  32.946  37.657  1.00  0.00    -0.237 OA
ATOM     65  O   UNL A   1      37.474  31.033  38.757  1.00  0.00    -0.237 OA
ATOM     66  O   UNL A   1      37.716  33.290  39.702  1.00  0.00    -0.744 OA
ENDBRANCH  60  63
ENDBRANCH  42  56
BRANCH  43  67
ATOM     67  C   UNL A   1      42.461  26.374  27.604  1.00  0.00     0.023 A 
ATOM     68  C   UNL A   1      43.241  26.948  26.581  1.00  0.00     0.012 A 
ATOM     69  C   UNL A   1      42.059  25.029  27.485  1.00  0.00     0.148 A 
ATOM     70  C   UNL A   1      43.583  26.211  25.446  1.00  0.00     0.002 A 
ATOM     71  C   UNL A   1      42.450  24.284  26.379  1.00  0.00     0.091 A 
ATOM     72  F   UNL A   1      41.313  24.501  28.465  1.00  0.00    -0.205 F 
ATOM     73  C   UNL A   1      43.196  24.877  25.349  1.00  0.00     0.022 A 
BRANCH  71  74
ATOM     74  S   UNL A   1      42.110  22.526  26.232  1.00  0.00     0.127 S 
ATOM     75  O   UNL A   1      42.726  22.000  27.447  1.00  0.00    -0.237 OA
ATOM     76  O   UNL A   1      40.647  22.502  26.221  1.00  0.00    -0.237 OA
ATOM     77  O   UNL A   1      42.727  22.109  24.979  1.00  0.00    -0.744 OA
ENDBRANCH  71  74
ENDBRANCH  43  67
BRANCH  55  78
ATOM     78  C   UNL A   1      45.047  26.862  34.076  1.00  0.00     0.023 A 
ATOM     79  C   UNL A   1      46.368  27.341  33.984  1.00  0.00     0.012 A 
ATOM     80  C   UNL A   1      44.761  25.762  34.908  1.00  0.00     0.148 A 
ATOM     81  C   UNL A   1      47.395  26.713  34.686  1.00  0.00     0.002 A 
ATOM     82  C   UNL A   1      45.779  25.178  35.647  1.00  0.00     0.091 A 
ATOM     83  F   UNL A   1      43.497  25.317  34.967  1.00  0.00    -0.205 F 
ATOM     84  C   UNL A   1      47.098  25.642  35.526  1.00  0.00     0.022 A 
BRANCH  82  85
ATOM     85  S   UNL A   1      45.473  23.868  36.836  1.00  0.00     0.127 S 
ATOM     86  O   UNL A   1      44.937  22.811  35.981  1.00  0.00    -0.237 OA
ATOM     87  O   UNL A   1      46.814  23.609  37.360  1.00  0.00    -0.237 OA
ATOM     88  O   UNL A   1      44.538  24.416  37.808  1.00  0.00    -0.744 OA
ENDBRANCH  82  85
ENDBRANCH  55  78
ENDBRANCH  29  30
ENDBRANCH  21  24
ENDBRANCH  19  20
ENDBRANCH  18  19
ENDBRANCH   1  18
TORSDOF 18
ENDMDL
MODEL 3
REMARK VINA RESULT:     -10.0      5.181     10.390
REMARK SMILES C[C@H](C[N@@H+](C)[C@@H](C)[C@@H](C)O)C(=O)NCCCNC(=O)c1ccc(-c2c3nc(c(-c4cccc(S(=O)(=O)[O-])c4F)c4ccc([nH]4)c(-c4cccc(S(=O)(=O)[O-])c4F)c4nc(c(-c5cccc(S(=O)(=O)[O-])c5F)c5ccc2[nH]5)C=C4)C=C3)cc1
REMARK SMILES IDX 14 1 13 2 11 3 12 4 2 6 1 7 3 8 4 9 5 10 6 12 7 13 8 14 9 15
REMARK SMILES IDX 10 16 15 18 16 19 17 20 18 21 19 23 20 24 21 25 82 26 22 27
REMARK SMILES IDX 81 28 23 29 24 30 25 31 75 32 26 33 80 34 74 35 76 36 27 37
REMARK SMILES IDX 79 38 73 39 72 40 28 42 60 43 40 44 59 45 41 46 44 47 58 48
REMARK SMILES IDX 77 49 42 50 43 51 57 53 78 54 45 55 29 56 30 57 38 58 31 59
REMARK SMILES IDX 33 60 39 61 32 62 34 63 35 64 36 65 37 66 61 67 62 68 70 69
REMARK SMILES IDX 63 70 65 71 71 72 64 73 66 74 67 75 68 76 69 77 46 78 47 79
REMARK SMILES IDX 55 80 48 81 50 82 56 83 49 84 51 85 52 86 53 87 54 88
REMARK H PARENT 13 5 4 11 10 17 17 22 76 41 44 52
REMARK Flexibility Score: inf
ROOT
ATOM      1  C   UNL A   1      34.909  22.804  26.763  1.00  0.00     0.117 C 
ENDROOT
BRANCH   1   2
ATOM      2  N   UNL A   1      33.496  23.310  26.314  1.00  0.00    -0.356 N 
ATOM      3  C   UNL A   1      32.631  24.218  25.756  1.00  0.00     0.228 C 
ATOM      4  O   UNL A   1      31.507  23.670  25.648  1.00  0.00    -0.275 OA
ATOM      5  H   UNL A   1      32.902  22.570  26.574  1.00  0.00     0.163 HD
BRANCH   3   6
ATOM      6  C   UNL A   1      32.671  25.718  25.096  1.00  0.00     0.130 C 
ATOM      7  C   UNL A   1      33.190  25.769  23.637  1.00  0.00     0.024 C 
BRANCH   6   8
ATOM      8  C   UNL A   1      32.836  27.156  25.750  1.00  0.00     0.275 C 
BRANCH   8   9
ATOM      9  N   UNL A   1      31.645  27.972  26.103  1.00  0.00    -0.332 N 
ATOM     10  C   UNL A   1      31.495  28.168  27.553  1.00  0.00     0.333 C 
ATOM     11  H   UNL A   1      30.817  27.456  25.804  1.00  0.00     0.348 HD
BRANCH   9  12
ATOM     12  C   UNL A   1      31.698  29.263  25.391  1.00  0.00     0.209 C 
ATOM     13  C   UNL A   1      33.157  29.732  25.747  1.00  0.00     0.078 C 
BRANCH  12  14
ATOM     14  C   UNL A   1      30.782  28.900  24.072  1.00  0.00     0.169 C 
ATOM     15  C   UNL A   1      31.597  28.957  22.781  1.00  0.00     0.045 C 
BRANCH  14  16
ATOM     16  O   UNL A   1      29.926  27.788  23.872  1.00  0.00    -0.387 OA
ATOM     17  H   UNL A   1      29.003  28.065  23.984  1.00  0.00     0.211 HD
ENDBRANCH  14  16
ENDBRANCH  12  14
ENDBRANCH   9  12
ENDBRANCH   8   9
ENDBRANCH   6   8
ENDBRANCH   3   6
ENDBRANCH   1   2
BRANCH   1  18
ATOM     18  C   UNL A   1      35.673  21.696  26.007  1.00  0.00     0.042 C 
BRANCH  18  19
ATOM     19  C   UNL A   1      37.032  22.110  25.504  1.00  0.00     0.118 C 
BRANCH  19  20
ATOM     20  N   UNL A   1      38.068  21.091  25.604  1.00  0.00    -0.352 N 
ATOM     21  C   UNL A   1      39.342  21.219  26.119  1.00  0.00     0.251 C 
ATOM     22  H   UNL A   1      37.828  20.200  25.263  1.00  0.00     0.163 HD
ATOM     23  O   UNL A   1      40.141  20.285  26.048  1.00  0.00    -0.269 OA
BRANCH  21  24
ATOM     24  C   UNL A   1      39.746  22.510  26.718  1.00  0.00     0.039 A 
ATOM     25  C   UNL A   1      40.730  22.555  27.707  1.00  0.00     0.014 A 
ATOM     26  C   UNL A   1      39.228  23.692  26.194  1.00  0.00     0.014 A 
ATOM     27  C   UNL A   1      41.245  23.792  28.102  1.00  0.00     0.010 A 
ATOM     28  C   UNL A   1      39.892  24.880  26.423  1.00  0.00     0.010 A 
ATOM     29  C   UNL A   1      40.860  24.963  27.428  1.00  0.00    -0.014 A 
BRANCH  29  30
ATOM     30  C   UNL A   1      41.368  26.308  27.792  1.00  0.00     0.031 A 
ATOM     31  C   UNL A   1      42.795  26.667  27.442  1.00  0.00     0.074 A 
ATOM     32  C   UNL A   1      40.606  27.154  28.514  1.00  0.00     0.049 A 
ATOM     33  N   UNL A   1      43.487  27.723  27.774  1.00  0.00    -0.248 NA
ATOM     34  C   UNL A   1      43.573  25.671  26.676  1.00  0.00     0.031 C 
ATOM     35  C   UNL A   1      39.253  26.876  29.004  1.00  0.00     0.029 A 
ATOM     36  N   UNL A   1      40.870  28.416  28.979  1.00  0.00    -0.354 N 
ATOM     37  C   UNL A   1      44.779  27.483  27.318  1.00  0.00     0.074 A 
ATOM     38  C   UNL A   1      44.801  26.150  26.769  1.00  0.00     0.031 C 
ATOM     39  C   UNL A   1      38.793  27.950  29.668  1.00  0.00     0.029 A 
ATOM     40  C   UNL A   1      39.830  28.975  29.686  1.00  0.00     0.049 A 
ATOM     41  H   UNL A   1      41.723  28.880  28.819  1.00  0.00     0.167 HD
ATOM     42  C   UNL A   1      45.843  28.317  27.299  1.00  0.00     0.034 A 
ATOM     43  C   UNL A   1      39.733  30.180  30.280  1.00  0.00     0.034 A 
ATOM     44  C   UNL A   1      45.779  29.673  27.758  1.00  0.00     0.049 A 
ATOM     45  C   UNL A   1      40.900  31.124  30.176  1.00  0.00     0.074 A 
ATOM     46  C   UNL A   1      46.749  30.653  27.685  1.00  0.00     0.029 A 
ATOM     47  N   UNL A   1      44.672  30.239  28.369  1.00  0.00    -0.354 N 
ATOM     48  N   UNL A   1      42.065  30.935  29.603  1.00  0.00    -0.248 NA
ATOM     49  C   UNL A   1      40.729  32.459  30.764  1.00  0.00     0.031 C 
ATOM     50  C   UNL A   1      46.238  31.807  28.284  1.00  0.00     0.029 A 
ATOM     51  C   UNL A   1      44.935  31.556  28.691  1.00  0.00     0.049 A 
ATOM     52  H   UNL A   1      43.824  29.772  28.548  1.00  0.00     0.167 HD
ATOM     53  C   UNL A   1      42.752  32.136  29.729  1.00  0.00     0.074 A 
ATOM     54  C   UNL A   1      41.863  33.052  30.414  1.00  0.00     0.031 C 
ATOM     55  C   UNL A   1      44.008  32.454  29.328  1.00  0.00     0.034 A 
BRANCH  42  56
ATOM     56  C   UNL A   1      47.130  27.801  26.708  1.00  0.00     0.023 A 
ATOM     57  C   UNL A   1      48.131  27.269  27.548  1.00  0.00     0.012 A 
ATOM     58  C   UNL A   1      47.340  27.823  25.316  1.00  0.00     0.148 A 
ATOM     59  C   UNL A   1      49.338  26.812  27.020  1.00  0.00     0.002 A 
ATOM     60  C   UNL A   1      48.523  27.313  24.792  1.00  0.00     0.091 A 
ATOM     61  F   UNL A   1      46.392  28.356  24.533  1.00  0.00    -0.205 F 
ATOM     62  C   UNL A   1      49.528  26.824  25.642  1.00  0.00     0.022 A 
BRANCH  60  63
ATOM     63  S   UNL A   1      48.831  27.202  23.027  1.00  0.00     0.127 S 
ATOM     64  O   UNL A   1      50.291  27.263  22.978  1.00  0.00    -0.237 OA
ATOM     65  O   UNL A   1      48.264  25.894  22.701  1.00  0.00    -0.237 OA
ATOM     66  O   UNL A   1      48.141  28.334  22.424  1.00  0.00    -0.744 OA
ENDBRANCH  60  63
ENDBRANCH  42  56
BRANCH  43  67
ATOM     67  C   UNL A   1      38.466  30.585  30.955  1.00  0.00     0.023 A 
ATOM     68  C   UNL A   1      38.277  30.279  32.318  1.00  0.00     0.012 A 
ATOM     69  C   UNL A   1      37.463  31.294  30.267  1.00  0.00     0.148 A 
ATOM     70  C   UNL A   1      37.098  30.640  32.972  1.00  0.00     0.002 A 
ATOM     71  C   UNL A   1      36.316  31.699  30.939  1.00  0.00     0.091 A 
ATOM     72  F   UNL A   1      37.658  31.571  28.970  1.00  0.00    -0.205 F 
ATOM     73  C   UNL A   1      36.122  31.358  32.286  1.00  0.00     0.022 A 
BRANCH  71  74
ATOM     74  S   UNL A   1      35.067  32.740  30.173  1.00  0.00     0.127 S 
ATOM     75  O   UNL A   1      34.179  33.020  31.298  1.00  0.00    -0.237 OA
ATOM     76  O   UNL A   1      35.863  33.880  29.716  1.00  0.00    -0.237 OA
ATOM     77  O   UNL A   1      34.493  31.940  29.098  1.00  0.00    -0.744 OA
ENDBRANCH  71  74
ENDBRANCH  43  67
BRANCH  55  78
ATOM     78  C   UNL A   1      44.482  33.858  29.576  1.00  0.00     0.023 A 
ATOM     79  C   UNL A   1      45.066  34.196  30.812  1.00  0.00     0.012 A 
ATOM     80  C   UNL A   1      44.430  34.816  28.544  1.00  0.00     0.148 A 
ATOM     81  C   UNL A   1      45.561  35.481  31.029  1.00  0.00     0.002 A 
ATOM     82  C   UNL A   1      44.978  36.074  28.748  1.00  0.00     0.091 A 
ATOM     83  F   UNL A   1      43.857  34.472  27.381  1.00  0.00    -0.205 F 
ATOM     84  C   UNL A   1      45.530  36.413  29.994  1.00  0.00     0.022 A 
BRANCH  82  85
ATOM     85  S   UNL A   1      45.080  37.301  27.442  1.00  0.00     0.127 S 
ATOM     86  O   UNL A   1      43.673  37.480  27.092  1.00  0.00    -0.237 OA
ATOM     87  O   UNL A   1      45.689  38.437  28.133  1.00  0.00    -0.237 OA
ATOM     88  O   UNL A   1      45.910  36.711  26.400  1.00  0.00    -0.744 OA
ENDBRANCH  82  85
ENDBRANCH  55  78
ENDBRANCH  29  30
ENDBRANCH  21  24
ENDBRANCH  19  20
ENDBRANCH  18  19
ENDBRANCH   1  18
TORSDOF 18
ENDMDL
