MODEL 1
REMARK VINA RESULT:     -11.4      0.000      0.000
REMARK SMILES CC(C)C[C@H](NC(N)=O)C(=O)N[C@@H](C(=O)NCCCNC(=O)c1ccc(-c2c3nc(c(-c4cccc(S(=O)(=O)[O-])c4F)c4ccc([nH]4)c(-c4cccc(S(=O)(=O)[O-])c4F)c4nc(c(-c5cccc(S(=O)(=O)[O-])c5F)c5ccc2[nH]5)C=C4)C=C3)cc1)C(C)C
REMARK SMILES IDX 17 1 16 2 14 3 15 4 13 6 12 7 10 8 11 9 5 11 4 12 2 13 1 14
REMARK SMILES IDX 3 15 6 16 7 17 8 19 9 20 86 23 87 24 88 25 18 26 19 27 20 28
REMARK SMILES IDX 21 29 22 31 23 32 24 33 85 34 25 35 84 36 26 37 27 38 28 39
REMARK SMILES IDX 78 40 29 41 83 42 77 43 79 44 30 45 82 46 76 47 75 48 31 50
REMARK SMILES IDX 63 51 43 52 62 53 44 54 47 55 61 56 80 57 45 58 46 59 60 61
REMARK SMILES IDX 81 62 48 63 32 64 33 65 41 66 34 67 36 68 42 69 35 70 37 71
REMARK SMILES IDX 38 72 39 73 40 74 64 75 65 76 73 77 66 78 68 79 74 80 67 81
REMARK SMILES IDX 69 82 70 83 71 84 72 85 49 86 50 87 58 88 51 89 53 90 59 91
REMARK SMILES IDX 52 92 54 93 55 94 56 95 57 96
REMARK H PARENT 16 5 12 10 6 18 8 21 8 22 20 30 79 49 47 60
REMARK Flexibility Score: inf
ROOT
ATOM      1  C   UNL A   1      34.286  23.217  26.429  1.00  0.00     0.117 C 
ENDROOT
BRANCH   1   2
ATOM      2  N   UNL A   1      33.056  22.960  27.114  1.00  0.00    -0.354 N 
ATOM      3  C   UNL A   1      31.858  23.586  26.978  1.00  0.00     0.242 C 
ATOM      4  O   UNL A   1      30.931  23.075  27.614  1.00  0.00    -0.273 OA
ATOM      5  H   UNL A   1      33.081  22.230  27.774  1.00  0.00     0.163 HD
BRANCH   3   6
ATOM      6  C   UNL A   1      31.650  24.811  25.999  1.00  0.00     0.173 C 
BRANCH   6   7
ATOM      7  N   UNL A   1      31.156  25.965  26.770  1.00  0.00    -0.342 N 
ATOM      8  C   UNL A   1      31.353  27.309  26.651  1.00  0.00     0.243 C 
ATOM      9  O   UNL A   1      31.191  27.966  27.689  1.00  0.00    -0.273 OA
ATOM     10  H   UNL A   1      30.568  25.716  27.519  1.00  0.00     0.164 HD
BRANCH   8  11
ATOM     11  C   UNL A   1      31.832  28.054  25.365  1.00  0.00     0.173 C 
BRANCH  11  12
ATOM     12  C   UNL A   1      33.334  28.321  25.282  1.00  0.00     0.038 C 
BRANCH  12  13
ATOM     13  C   UNL A   1      34.034  27.843  24.002  1.00  0.00    -0.015 C 
ATOM     14  C   UNL A   1      33.569  26.499  23.456  1.00  0.00     0.007 C 
ATOM     15  C   UNL A   1      33.917  28.933  22.934  1.00  0.00     0.007 C 
ENDBRANCH  12  13
ENDBRANCH  11  12
BRANCH  11  16
ATOM     16  N   UNL A   1      30.954  29.176  24.992  1.00  0.00    -0.327 N 
ATOM     17  C   UNL A   1      30.374  29.412  23.785  1.00  0.00     0.312 C 
ATOM     18  H   UNL A   1      30.764  29.832  25.702  1.00  0.00     0.166 HD
ATOM     19  N   UNL A   1      29.846  30.658  23.688  1.00  0.00    -0.352 N 
ATOM     20  O   UNL A   1      30.332  28.656  22.833  1.00  0.00    -0.249 OA
ATOM     21  H   UNL A   1      29.882  31.268  24.460  1.00  0.00     0.161 HD
ATOM     22  H   UNL A   1      29.428  30.951  22.846  1.00  0.00     0.161 HD
ENDBRANCH  11  16
ENDBRANCH   8  11
ENDBRANCH   6   7
BRANCH   6  23
ATOM     23  C   UNL A   1      30.648  24.317  24.903  1.00  0.00     0.015 C 
ATOM     24  C   UNL A   1      30.184  25.334  23.870  1.00  0.00     0.010 C 
ATOM     25  C   UNL A   1      31.250  23.115  24.157  1.00  0.00     0.010 C 
ENDBRANCH   6  23
ENDBRANCH   3   6
ENDBRANCH   1   2
BRANCH   1  26
ATOM     26  C   UNL A   1      35.186  21.999  26.353  1.00  0.00     0.042 C 
BRANCH  26  27
ATOM     27  C   UNL A   1      36.493  22.299  25.639  1.00  0.00     0.118 C 
BRANCH  27  28
ATOM     28  N   UNL A   1      37.479  21.240  25.834  1.00  0.00    -0.352 N 
ATOM     29  C   UNL A   1      38.814  21.335  26.134  1.00  0.00     0.251 C 
ATOM     30  H   UNL A   1      37.135  20.323  25.736  1.00  0.00     0.163 HD
ATOM     31  O   UNL A   1      39.527  20.342  26.037  1.00  0.00    -0.269 OA
BRANCH  29  32
ATOM     32  C   UNL A   1      39.373  22.632  26.562  1.00  0.00     0.039 A 
ATOM     33  C   UNL A   1      40.379  22.656  27.528  1.00  0.00     0.014 A 
ATOM     34  C   UNL A   1      38.902  23.823  26.003  1.00  0.00     0.014 A 
ATOM     35  C   UNL A   1      40.950  23.877  27.892  1.00  0.00     0.010 A 
ATOM     36  C   UNL A   1      39.546  25.018  26.283  1.00  0.00     0.010 A 
ATOM     37  C   UNL A   1      40.559  25.064  27.249  1.00  0.00    -0.014 A 
BRANCH  37  38
ATOM     38  C   UNL A   1      41.175  26.369  27.588  1.00  0.00     0.031 A 
ATOM     39  C   UNL A   1      42.596  26.657  27.173  1.00  0.00     0.074 A 
ATOM     40  C   UNL A   1      40.491  27.255  28.341  1.00  0.00     0.049 A 
ATOM     41  N   UNL A   1      43.329  27.708  27.427  1.00  0.00    -0.248 NA
ATOM     42  C   UNL A   1      43.296  25.616  26.398  1.00  0.00     0.031 C 
ATOM     43  C   UNL A   1      39.142  27.052  28.875  1.00  0.00     0.029 A 
ATOM     44  N   UNL A   1      40.847  28.494  28.808  1.00  0.00    -0.354 N 
ATOM     45  C   UNL A   1      44.583  27.434  26.891  1.00  0.00     0.074 A 
ATOM     46  C   UNL A   1      44.524  26.107  26.324  1.00  0.00     0.031 C 
ATOM     47  C   UNL A   1      38.782  28.132  29.589  1.00  0.00     0.029 A 
ATOM     48  C   UNL A   1      39.885  29.086  29.594  1.00  0.00     0.049 A 
ATOM     49  H   UNL A   1      41.711  28.920  28.601  1.00  0.00     0.167 HD
ATOM     50  C   UNL A   1      45.677  28.229  26.852  1.00  0.00     0.034 A 
ATOM     51  C   UNL A   1      39.898  30.261  30.253  1.00  0.00     0.034 A 
ATOM     52  C   UNL A   1      45.710  29.571  27.364  1.00  0.00     0.049 A 
ATOM     53  C   UNL A   1      41.112  31.144  30.139  1.00  0.00     0.074 A 
ATOM     54  C   UNL A   1      46.733  30.496  27.275  1.00  0.00     0.029 A 
ATOM     55  N   UNL A   1      44.680  30.173  28.067  1.00  0.00    -0.354 N 
ATOM     56  N   UNL A   1      42.227  30.935  29.481  1.00  0.00    -0.248 NA
ATOM     57  C   UNL A   1      41.056  32.442  30.825  1.00  0.00     0.031 C 
ATOM     58  C   UNL A   1      46.337  31.649  27.959  1.00  0.00     0.029 A 
ATOM     59  C   UNL A   1      45.048  31.456  28.430  1.00  0.00     0.049 A 
ATOM     60  H   UNL A   1      43.816  29.752  28.276  1.00  0.00     0.167 HD
ATOM     61  C   UNL A   1      42.979  32.094  29.631  1.00  0.00     0.074 A 
ATOM     62  C   UNL A   1      42.187  33.008  30.426  1.00  0.00     0.031 C 
ATOM     63  C   UNL A   1      44.220  32.375  29.163  1.00  0.00     0.034 A 
BRANCH  50  64
ATOM     64  C   UNL A   1      46.922  27.697  26.195  1.00  0.00     0.023 A 
ATOM     65  C   UNL A   1      47.795  26.859  26.918  1.00  0.00     0.012 A 
ATOM     66  C   UNL A   1      47.171  27.946  24.831  1.00  0.00     0.148 A 
ATOM     67  C   UNL A   1      48.908  26.291  26.298  1.00  0.00     0.002 A 
ATOM     68  C   UNL A   1      48.253  27.336  24.208  1.00  0.00     0.091 A 
ATOM     69  F   UNL A   1      46.339  28.762  24.170  1.00  0.00    -0.205 F 
ATOM     70  C   UNL A   1      49.127  26.518  24.942  1.00  0.00     0.022 A 
BRANCH  68  71
ATOM     71  S   UNL A   1      48.573  27.492  22.448  1.00  0.00     0.127 S 
ATOM     72  O   UNL A   1      49.792  28.301  22.441  1.00  0.00    -0.237 OA
ATOM     73  O   UNL A   1      48.764  26.098  22.049  1.00  0.00    -0.237 OA
ATOM     74  O   UNL A   1      47.399  28.138  21.877  1.00  0.00    -0.744 OA
ENDBRANCH  68  71
ENDBRANCH  50  64
BRANCH  51  75
ATOM     75  C   UNL A   1      38.713  30.703  31.042  1.00  0.00     0.023 A 
ATOM     76  C   UNL A   1      38.655  30.429  32.424  1.00  0.00     0.012 A 
ATOM     77  C   UNL A   1      37.632  31.367  30.431  1.00  0.00     0.148 A 
ATOM     78  C   UNL A   1      37.522  30.756  33.169  1.00  0.00     0.002 A 
ATOM     79  C   UNL A   1      36.531  31.743  31.191  1.00  0.00     0.091 A 
ATOM     80  F   UNL A   1      37.699  31.611  29.115  1.00  0.00    -0.205 F 
ATOM     81  C   UNL A   1      36.463  31.417  32.555  1.00  0.00     0.022 A 
BRANCH  79  82
ATOM     82  S   UNL A   1      35.181  32.711  30.509  1.00  0.00     0.127 S 
ATOM     83  O   UNL A   1      34.252  32.762  31.633  1.00  0.00    -0.237 OA
ATOM     84  O   UNL A   1      35.844  33.978  30.196  1.00  0.00    -0.237 OA
ATOM     85  O   UNL A   1      34.725  31.971  29.339  1.00  0.00    -0.744 OA
ENDBRANCH  79  82
ENDBRANCH  51  75
BRANCH  63  86
ATOM     86  C   UNL A   1      44.774  33.750  29.428  1.00  0.00     0.023 A 
ATOM     87  C   UNL A   1      45.622  33.974  30.529  1.00  0.00     0.012 A 
ATOM     88  C   UNL A   1      44.505  34.804  28.534  1.00  0.00     0.148 A 
ATOM     89  C   UNL A   1      46.160  35.240  30.761  1.00  0.00     0.002 A 
ATOM     90  C   UNL A   1      45.091  36.046  28.738  1.00  0.00     0.091 A 
ATOM     91  F   UNL A   1      43.682  34.574  27.500  1.00  0.00    -0.205 F 
ATOM     92  C   UNL A   1      45.905  36.271  29.859  1.00  0.00     0.022 A 
BRANCH  90  93
ATOM     93  S   UNL A   1      44.905  37.399  27.571  1.00  0.00     0.127 S 
ATOM     94  O   UNL A   1      44.999  38.564  28.449  1.00  0.00    -0.237 OA
ATOM     95  O   UNL A   1      46.055  37.206  26.688  1.00  0.00    -0.237 OA
ATOM     96  O   UNL A   1      43.611  37.202  26.930  1.00  0.00    -0.744 OA
ENDBRANCH  90  93
ENDBRANCH  63  86
ENDBRANCH  37  38
ENDBRANCH  29  32
ENDBRANCH  27  28
ENDBRANCH  26  27
ENDBRANCH   1  26
TORSDOF 19
ENDMDL
MODEL 2
REMARK VINA RESULT:     -11.3      5.124      9.635
REMARK SMILES CC(C)C[C@H](NC(N)=O)C(=O)N[C@@H](C(=O)NCCCNC(=O)c1ccc(-c2c3nc(c(-c4cccc(S(=O)(=O)[O-])c4F)c4ccc([nH]4)c(-c4cccc(S(=O)(=O)[O-])c4F)c4nc(c(-c5cccc(S(=O)(=O)[O-])c5F)c5ccc2[nH]5)C=C4)C=C3)cc1)C(C)C
REMARK SMILES IDX 17 1 16 2 14 3 15 4 13 6 12 7 10 8 11 9 5 11 4 12 2 13 1 14
REMARK SMILES IDX 3 15 6 16 7 17 8 19 9 20 86 23 87 24 88 25 18 26 19 27 20 28
REMARK SMILES IDX 21 29 22 31 23 32 24 33 85 34 25 35 84 36 26 37 27 38 28 39
REMARK SMILES IDX 78 40 29 41 83 42 77 43 79 44 30 45 82 46 76 47 75 48 31 50
REMARK SMILES IDX 63 51 43 52 62 53 44 54 47 55 61 56 80 57 45 58 46 59 60 61
REMARK SMILES IDX 81 62 48 63 32 64 33 65 41 66 34 67 36 68 42 69 35 70 37 71
REMARK SMILES IDX 38 72 39 73 40 74 64 75 65 76 73 77 66 78 68 79 74 80 67 81
REMARK SMILES IDX 69 82 70 83 71 84 72 85 49 86 50 87 58 88 51 89 53 90 59 91
REMARK SMILES IDX 52 92 54 93 55 94 56 95 57 96
REMARK H PARENT 16 5 12 10 6 18 8 21 8 22 20 30 79 49 47 60
REMARK Flexibility Score: inf
ROOT
ATOM      1  C   UNL A   1      31.865  28.248  27.003  1.00  0.00     0.117 C 
ENDROOT
BRANCH   1   2
ATOM      2  N   UNL A   1      30.993  27.124  27.160  1.00  0.00    -0.354 N 
ATOM      3  C   UNL A   1      30.520  26.274  26.212  1.00  0.00     0.242 C 
ATOM      4  O   UNL A   1      29.877  25.315  26.650  1.00  0.00    -0.273 OA
ATOM      5  H   UNL A   1      30.696  26.942  28.080  1.00  0.00     0.163 HD
BRANCH   3   6
ATOM      6  C   UNL A   1      30.856  26.447  24.676  1.00  0.00     0.173 C 
BRANCH   6   7
ATOM      7  N   UNL A   1      29.614  26.745  23.941  1.00  0.00    -0.342 N 
ATOM      8  C   UNL A   1      29.183  27.845  23.261  1.00  0.00     0.243 C 
ATOM      9  O   UNL A   1      27.954  27.958  23.155  1.00  0.00    -0.273 OA
ATOM     10  H   UNL A   1      28.968  26.002  23.942  1.00  0.00     0.164 HD
BRANCH   8  11
ATOM     11  C   UNL A   1      30.088  28.983  22.692  1.00  0.00     0.173 C 
BRANCH  11  12
ATOM     12  C   UNL A   1      29.372  30.022  21.832  1.00  0.00     0.038 C 
BRANCH  12  13
ATOM     13  C   UNL A   1      28.542  31.068  22.590  1.00  0.00    -0.015 C 
ATOM     14  C   UNL A   1      29.117  31.529  23.924  1.00  0.00     0.007 C 
ATOM     15  C   UNL A   1      28.284  32.263  21.669  1.00  0.00     0.007 C 
ENDBRANCH  12  13
ENDBRANCH  11  12
BRANCH  11  16
ATOM     16  N   UNL A   1      31.373  28.487  22.172  1.00  0.00    -0.327 N 
ATOM     17  C   UNL A   1      32.620  28.750  22.647  1.00  0.00     0.312 C 
ATOM     18  H   UNL A   1      31.323  27.893  21.387  1.00  0.00     0.166 HD
ATOM     19  N   UNL A   1      33.602  28.364  21.794  1.00  0.00    -0.352 N 
ATOM     20  O   UNL A   1      32.902  29.308  23.691  1.00  0.00    -0.249 OA
ATOM     21  H   UNL A   1      33.371  27.913  20.950  1.00  0.00     0.161 HD
ATOM     22  H   UNL A   1      34.545  28.534  22.021  1.00  0.00     0.161 HD
ENDBRANCH  11  16
ENDBRANCH   8  11
ENDBRANCH   6   7
BRANCH   6  23
ATOM     23  C   UNL A   1      31.538  25.110  24.234  1.00  0.00     0.015 C 
ATOM     24  C   UNL A   1      30.890  24.337  23.094  1.00  0.00     0.010 C 
ATOM     25  C   UNL A   1      33.005  25.378  23.859  1.00  0.00     0.010 C 
ENDBRANCH   6  23
ENDBRANCH   3   6
ENDBRANCH   1   2
BRANCH   1  26
ATOM     26  C   UNL A   1      33.331  27.878  27.108  1.00  0.00     0.042 C 
BRANCH  26  27
ATOM     27  C   UNL A   1      34.222  28.857  26.363  1.00  0.00     0.118 C 
BRANCH  27  28
ATOM     28  N   UNL A   1      33.973  30.239  26.765  1.00  0.00    -0.352 N 
ATOM     29  C   UNL A   1      34.621  31.006  27.699  1.00  0.00     0.251 C 
ATOM     30  H   UNL A   1      33.231  30.685  26.296  1.00  0.00     0.163 HD
ATOM     31  O   UNL A   1      34.125  32.070  28.057  1.00  0.00    -0.269 OA
BRANCH  29  32
ATOM     32  C   UNL A   1      35.901  30.538  28.265  1.00  0.00     0.039 A 
ATOM     33  C   UNL A   1      35.888  29.710  29.389  1.00  0.00     0.014 A 
ATOM     34  C   UNL A   1      37.112  30.916  27.681  1.00  0.00     0.014 A 
ATOM     35  C   UNL A   1      37.094  29.219  29.891  1.00  0.00     0.010 A 
ATOM     36  C   UNL A   1      38.296  30.338  28.112  1.00  0.00     0.010 A 
ATOM     37  C   UNL A   1      38.305  29.504  29.236  1.00  0.00    -0.014 A 
BRANCH  37  38
ATOM     38  C   UNL A   1      39.597  28.965  29.725  1.00  0.00     0.031 A 
ATOM     39  C   UNL A   1      40.306  29.643  30.870  1.00  0.00     0.074 A 
ATOM     40  C   UNL A   1      40.171  27.925  29.086  1.00  0.00     0.049 A 
ATOM     41  N   UNL A   1      41.468  29.363  31.398  1.00  0.00    -0.248 NA
ATOM     42  C   UNL A   1      39.640  30.808  31.482  1.00  0.00     0.031 C 
ATOM     43  C   UNL A   1      39.621  27.243  27.912  1.00  0.00     0.029 A 
ATOM     44  N   UNL A   1      41.356  27.276  29.320  1.00  0.00    -0.354 N 
ATOM     45  C   UNL A   1      41.692  30.339  32.363  1.00  0.00     0.074 A 
ATOM     46  C   UNL A   1      40.563  31.239  32.328  1.00  0.00     0.031 C 
ATOM     47  C   UNL A   1      40.464  26.266  27.535  1.00  0.00     0.029 A 
ATOM     48  C   UNL A   1      41.627  26.277  28.414  1.00  0.00     0.049 A 
ATOM     49  H   UNL A   1      41.958  27.505  30.065  1.00  0.00     0.167 HD
ATOM     50  C   UNL A   1      42.733  30.459  33.218  1.00  0.00     0.034 A 
ATOM     51  C   UNL A   1      42.699  25.469  28.299  1.00  0.00     0.034 A 
ATOM     52  C   UNL A   1      43.823  29.526  33.287  1.00  0.00     0.049 A 
ATOM     53  C   UNL A   1      43.813  25.595  29.305  1.00  0.00     0.074 A 
ATOM     54  C   UNL A   1      44.869  29.497  34.191  1.00  0.00     0.029 A 
ATOM     55  N   UNL A   1      44.012  28.467  32.417  1.00  0.00    -0.354 N 
ATOM     56  N   UNL A   1      43.922  26.421  30.318  1.00  0.00    -0.248 NA
ATOM     57  C   UNL A   1      44.933  24.653  29.177  1.00  0.00     0.031 C 
ATOM     58  C   UNL A   1      45.714  28.440  33.843  1.00  0.00     0.029 A 
ATOM     59  C   UNL A   1      45.167  27.783  32.754  1.00  0.00     0.049 A 
ATOM     60  H   UNL A   1      43.415  28.234  31.670  1.00  0.00     0.167 HD
ATOM     61  C   UNL A   1      45.094  26.062  30.975  1.00  0.00     0.074 A 
ATOM     62  C   UNL A   1      45.648  24.934  30.257  1.00  0.00     0.031 C 
ATOM     63  C   UNL A   1      45.666  26.621  32.069  1.00  0.00     0.034 A 
BRANCH  50  64
ATOM     64  C   UNL A   1      42.732  31.612  34.185  1.00  0.00     0.023 A 
ATOM     65  C   UNL A   1      43.305  32.844  33.811  1.00  0.00     0.012 A 
ATOM     66  C   UNL A   1      42.072  31.503  35.425  1.00  0.00     0.148 A 
ATOM     67  C   UNL A   1      43.238  33.945  34.664  1.00  0.00     0.002 A 
ATOM     68  C   UNL A   1      41.965  32.618  36.247  1.00  0.00     0.091 A 
ATOM     69  F   UNL A   1      41.554  30.316  35.769  1.00  0.00    -0.205 F 
ATOM     70  C   UNL A   1      42.557  33.836  35.873  1.00  0.00     0.022 A 
BRANCH  68  71
ATOM     71  S   UNL A   1      41.034  32.605  37.782  1.00  0.00     0.127 S 
ATOM     72  O   UNL A   1      39.761  32.029  37.349  1.00  0.00    -0.237 OA
ATOM     73  O   UNL A   1      41.847  31.727  38.623  1.00  0.00    -0.237 OA
ATOM     74  O   UNL A   1      40.966  33.990  38.227  1.00  0.00    -0.744 OA
ENDBRANCH  68  71
ENDBRANCH  50  64
BRANCH  51  75
ATOM     75  C   UNL A   1      42.762  24.436  27.227  1.00  0.00     0.023 A 
ATOM     76  C   UNL A   1      43.422  24.728  26.016  1.00  0.00     0.012 A 
ATOM     77  C   UNL A   1      42.151  23.178  27.385  1.00  0.00     0.148 A 
ATOM     78  C   UNL A   1      43.423  23.812  24.964  1.00  0.00     0.002 A 
ATOM     79  C   UNL A   1      42.207  22.246  26.356  1.00  0.00     0.091 A 
ATOM     80  F   UNL A   1      41.521  22.919  28.540  1.00  0.00    -0.205 F 
ATOM     81  C   UNL A   1      42.820  22.569  25.136  1.00  0.00     0.022 A 
BRANCH  79  82
ATOM     82  S   UNL A   1      41.570  20.576  26.539  1.00  0.00     0.127 S 
ATOM     83  O   UNL A   1      42.228  19.883  25.435  1.00  0.00    -0.237 OA
ATOM     84  O   UNL A   1      42.053  20.212  27.872  1.00  0.00    -0.237 OA
ATOM     85  O   UNL A   1      40.122  20.700  26.440  1.00  0.00    -0.744 OA
ENDBRANCH  79  82
ENDBRANCH  51  75
BRANCH  63  86
ATOM     86  C   UNL A   1      46.918  25.983  32.608  1.00  0.00     0.023 A 
ATOM     87  C   UNL A   1      48.185  26.446  32.204  1.00  0.00     0.012 A 
ATOM     88  C   UNL A   1      46.830  24.963  33.577  1.00  0.00     0.148 A 
ATOM     89  C   UNL A   1      49.346  25.876  32.724  1.00  0.00     0.002 A 
ATOM     90  C   UNL A   1      47.989  24.441  34.134  1.00  0.00     0.091 A 
ATOM     91  F   UNL A   1      45.615  24.525  33.937  1.00  0.00    -0.205 F 
ATOM     92  C   UNL A   1      49.248  24.883  33.698  1.00  0.00     0.022 A 
BRANCH  90  93
ATOM     93  S   UNL A   1      47.956  23.239  35.467  1.00  0.00     0.127 S 
ATOM     94  O   UNL A   1      47.304  22.098  34.824  1.00  0.00    -0.237 OA
ATOM     95  O   UNL A   1      49.379  23.049  35.748  1.00  0.00    -0.237 OA
ATOM     96  O   UNL A   1      47.204  23.859  36.550  1.00  0.00    -0.744 OA
ENDBRANCH  90  93
ENDBRANCH  63  86
ENDBRANCH  37  38
ENDBRANCH  29  32
ENDBRANCH  27  28
ENDBRANCH  26  27
ENDBRANCH   1  26
TORSDOF 19
ENDMDL
MODEL 3
REMARK VINA RESULT:     -11.2      2.718      3.886
REMARK SMILES CC(C)C[C@H](NC(N)=O)C(=O)N[C@@H](C(=O)NCCCNC(=O)c1ccc(-c2c3nc(c(-c4cccc(S(=O)(=O)[O-])c4F)c4ccc([nH]4)c(-c4cccc(S(=O)(=O)[O-])c4F)c4nc(c(-c5cccc(S(=O)(=O)[O-])c5F)c5ccc2[nH]5)C=C4)C=C3)cc1)C(C)C
REMARK SMILES IDX 17 1 16 2 14 3 15 4 13 6 12 7 10 8 11 9 5 11 4 12 2 13 1 14
REMARK SMILES IDX 3 15 6 16 7 17 8 19 9 20 86 23 87 24 88 25 18 26 19 27 20 28
REMARK SMILES IDX 21 29 22 31 23 32 24 33 85 34 25 35 84 36 26 37 27 38 28 39
REMARK SMILES IDX 78 40 29 41 83 42 77 43 79 44 30 45 82 46 76 47 75 48 31 50
REMARK SMILES IDX 63 51 43 52 62 53 44 54 47 55 61 56 80 57 45 58 46 59 60 61
REMARK SMILES IDX 81 62 48 63 32 64 33 65 41 66 34 67 36 68 42 69 35 70 37 71
REMARK SMILES IDX 38 72 39 73 40 74 64 75 65 76 73 77 66 78 68 79 74 80 67 81
REMARK SMILES IDX 69 82 70 83 71 84 72 85 49 86 50 87 58 88 51 89 53 90 59 91
REMARK SMILES IDX 52 92 54 93 55 94 56 95 57 96
REMARK H PARENT 16 5 12 10 6 18 8 21 8 22 20 30 79 49 47 60
REMARK Flexibility Score: inf
ROOT
ATOM      1  C   UNL A   1      34.649  24.264  26.131  1.00  0.00     0.117 C 
ENDROOT
BRANCH   1   2
ATOM      2  N   UNL A   1      34.521  24.727  24.783  1.00  0.00    -0.354 N 
ATOM      3  C   UNL A   1      33.827  25.796  24.312  1.00  0.00     0.242 C 
ATOM      4  O   UNL A   1      33.991  26.031  23.111  1.00  0.00    -0.273 OA
ATOM      5  H   UNL A   1      35.003  24.201  24.105  1.00  0.00     0.163 HD
BRANCH   3   6
ATOM      6  C   UNL A   1      32.958  26.722  25.254  1.00  0.00     0.173 C 
BRANCH   6   7
ATOM      7  N   UNL A   1      31.564  26.722  24.778  1.00  0.00    -0.342 N 
ATOM      8  C   UNL A   1      30.756  25.743  24.282  1.00  0.00     0.243 C 
ATOM      9  O   UNL A   1      29.828  26.132  23.559  1.00  0.00    -0.273 OA
ATOM     10  H   UNL A   1      31.131  27.605  24.827  1.00  0.00     0.164 HD
BRANCH   8  11
ATOM     11  C   UNL A   1      30.950  24.206  24.483  1.00  0.00     0.173 C 
BRANCH  11  12
ATOM     12  C   UNL A   1      31.104  23.392  23.200  1.00  0.00     0.038 C 
BRANCH  12  13
ATOM     13  C   UNL A   1      32.262  22.384  23.175  1.00  0.00    -0.015 C 
ATOM     14  C   UNL A   1      32.529  21.653  24.485  1.00  0.00     0.007 C 
ATOM     15  C   UNL A   1      32.032  21.388  22.035  1.00  0.00     0.007 C 
ENDBRANCH  12  13
ENDBRANCH  11  12
BRANCH  11  16
ATOM     16  N   UNL A   1      30.050  23.644  25.503  1.00  0.00    -0.327 N 
ATOM     17  C   UNL A   1      30.332  23.384  26.808  1.00  0.00     0.312 C 
ATOM     18  H   UNL A   1      29.136  23.431  25.205  1.00  0.00     0.166 HD
ATOM     19  N   UNL A   1      29.383  22.626  27.412  1.00  0.00    -0.352 N 
ATOM     20  O   UNL A   1      31.326  23.723  27.424  1.00  0.00    -0.249 OA
ATOM     21  H   UNL A   1      28.581  22.353  26.913  1.00  0.00     0.161 HD
ATOM     22  H   UNL A   1      29.499  22.349  28.350  1.00  0.00     0.161 HD
ENDBRANCH  11  16
ENDBRANCH   8  11
ENDBRANCH   6   7
BRANCH   6  23
ATOM     23  C   UNL A   1      33.634  28.133  25.208  1.00  0.00     0.015 C 
ATOM     24  C   UNL A   1      32.823  29.279  24.619  1.00  0.00     0.010 C 
ATOM     25  C   UNL A   1      34.080  28.538  26.622  1.00  0.00     0.010 C 
ENDBRANCH   6  23
ENDBRANCH   3   6
ENDBRANCH   1   2
BRANCH   1  26
ATOM     26  C   UNL A   1      35.603  23.093  26.267  1.00  0.00     0.042 C 
BRANCH  26  27
ATOM     27  C   UNL A   1      36.902  23.326  25.514  1.00  0.00     0.118 C 
BRANCH  27  28
ATOM     28  N   UNL A   1      37.956  22.411  25.945  1.00  0.00    -0.352 N 
ATOM     29  C   UNL A   1      39.197  22.690  26.455  1.00  0.00     0.251 C 
ATOM     30  H   UNL A   1      37.743  21.454  25.856  1.00  0.00     0.163 HD
ATOM     31  O   UNL A   1      40.028  21.791  26.549  1.00  0.00    -0.269 OA
BRANCH  29  32
ATOM     32  C   UNL A   1      39.519  24.067  26.878  1.00  0.00     0.039 A 
ATOM     33  C   UNL A   1      39.285  24.448  28.200  1.00  0.00     0.014 A 
ATOM     34  C   UNL A   1      40.055  24.978  25.965  1.00  0.00     0.014 A 
ATOM     35  C   UNL A   1      39.643  25.731  28.616  1.00  0.00     0.010 A 
ATOM     36  C   UNL A   1      40.510  26.210  26.407  1.00  0.00     0.010 A 
ATOM     37  C   UNL A   1      40.287  26.612  27.730  1.00  0.00    -0.014 A 
BRANCH  37  38
ATOM     38  C   UNL A   1      40.712  27.967  28.155  1.00  0.00     0.031 A 
ATOM     39  C   UNL A   1      42.177  28.322  28.168  1.00  0.00     0.074 A 
ATOM     40  C   UNL A   1      39.793  28.843  28.610  1.00  0.00     0.049 A 
ATOM     41  N   UNL A   1      42.751  29.427  28.564  1.00  0.00    -0.248 NA
ATOM     42  C   UNL A   1      43.126  27.292  27.707  1.00  0.00     0.031 C 
ATOM     43  C   UNL A   1      38.356  28.582  28.727  1.00  0.00     0.029 A 
ATOM     44  N   UNL A   1      39.935  30.122  29.084  1.00  0.00    -0.354 N 
ATOM     45  C   UNL A   1      44.119  29.207  28.447  1.00  0.00     0.074 A 
ATOM     46  C   UNL A   1      44.295  27.854  27.974  1.00  0.00     0.031 C 
ATOM     47  C   UNL A   1      37.749  29.670  29.230  1.00  0.00     0.029 A 
ATOM     48  C   UNL A   1      38.754  30.689  29.505  1.00  0.00     0.049 A 
ATOM     49  H   UNL A   1      40.800  30.590  29.119  1.00  0.00     0.167 HD
ATOM     50  C   UNL A   1      45.137  30.065  28.688  1.00  0.00     0.034 A 
ATOM     51  C   UNL A   1      38.514  31.892  30.062  1.00  0.00     0.034 A 
ATOM     52  C   UNL A   1      44.953  31.429  29.101  1.00  0.00     0.049 A 
ATOM     53  C   UNL A   1      39.665  32.842  30.262  1.00  0.00     0.074 A 
ATOM     54  C   UNL A   1      45.913  32.411  29.265  1.00  0.00     0.029 A 
ATOM     55  N   UNL A   1      43.733  31.999  29.423  1.00  0.00    -0.354 N 
ATOM     56  N   UNL A   1      40.935  32.672  29.984  1.00  0.00    -0.248 NA
ATOM     57  C   UNL A   1      39.345  34.165  30.817  1.00  0.00     0.031 C 
ATOM     58  C   UNL A   1      45.276  33.567  29.724  1.00  0.00     0.029 A 
ATOM     59  C   UNL A   1      43.916  33.317  29.798  1.00  0.00     0.049 A 
ATOM     60  H   UNL A   1      42.866  31.535  29.390  1.00  0.00     0.167 HD
ATOM     61  C   UNL A   1      41.553  33.882  30.280  1.00  0.00     0.074 A 
ATOM     62  C   UNL A   1      40.517  34.780  30.741  1.00  0.00     0.031 C 
ATOM     63  C   UNL A   1      42.863  34.217  30.189  1.00  0.00     0.034 A 
BRANCH  50  64
ATOM     64  C   UNL A   1      46.545  29.581  28.470  1.00  0.00     0.023 A 
ATOM     65  C   UNL A   1      47.191  29.828  27.242  1.00  0.00     0.012 A 
ATOM     66  C   UNL A   1      47.261  28.973  29.521  1.00  0.00     0.148 A 
ATOM     67  C   UNL A   1      48.523  29.459  27.056  1.00  0.00     0.002 A 
ATOM     68  C   UNL A   1      48.602  28.655  29.345  1.00  0.00     0.091 A 
ATOM     69  F   UNL A   1      46.620  28.730  30.672  1.00  0.00    -0.205 F 
ATOM     70  C   UNL A   1      49.231  28.887  28.110  1.00  0.00     0.022 A 
BRANCH  68  71
ATOM     71  S   UNL A   1      49.625  27.998  30.665  1.00  0.00     0.127 S 
ATOM     72  O   UNL A   1      50.916  27.855  29.994  1.00  0.00    -0.237 OA
ATOM     73  O   UNL A   1      49.569  29.074  31.656  1.00  0.00    -0.237 OA
ATOM     74  O   UNL A   1      49.001  26.750  31.080  1.00  0.00    -0.744 OA
ENDBRANCH  68  71
ENDBRANCH  50  64
BRANCH  51  75
ATOM     75  C   UNL A   1      37.127  32.296  30.430  1.00  0.00     0.023 A 
ATOM     76  C   UNL A   1      36.644  32.029  31.727  1.00  0.00     0.012 A 
ATOM     77  C   UNL A   1      36.274  32.918  29.499  1.00  0.00     0.148 A 
ATOM     78  C   UNL A   1      35.324  32.319  32.071  1.00  0.00     0.002 A 
ATOM     79  C   UNL A   1      34.978  33.260  29.866  1.00  0.00     0.091 A 
ATOM     80  F   UNL A   1      36.746  33.158  28.267  1.00  0.00    -0.205 F 
ATOM     81  C   UNL A   1      34.493  32.939  31.143  1.00  0.00     0.022 A 
BRANCH  79  82
ATOM     82  S   UNL A   1      33.883  34.176  28.776  1.00  0.00     0.127 S 
ATOM     83  O   UNL A   1      32.817  34.575  29.691  1.00  0.00    -0.237 OA
ATOM     84  O   UNL A   1      34.748  35.266  28.323  1.00  0.00    -0.237 OA
ATOM     85  O   UNL A   1      33.503  33.238  27.728  1.00  0.00    -0.744 OA
ENDBRANCH  79  82
ENDBRANCH  51  75
BRANCH  63  86
ATOM     86  C   UNL A   1      43.249  35.634  30.521  1.00  0.00     0.023 A 
ATOM     87  C   UNL A   1      43.681  35.968  31.819  1.00  0.00     0.012 A 
ATOM     88  C   UNL A   1      43.248  36.620  29.515  1.00  0.00     0.148 A 
ATOM     89  C   UNL A   1      44.066  37.273  32.121  1.00  0.00     0.002 A 
ATOM     90  C   UNL A   1      43.689  37.903  29.809  1.00  0.00     0.091 A 
ATOM     91  F   UNL A   1      42.819  36.285  28.289  1.00  0.00    -0.205 F 
ATOM     92  C   UNL A   1      44.083  38.236  31.115  1.00  0.00     0.022 A 
BRANCH  90  93
ATOM     93  S   UNL A   1      43.845  39.176  28.552  1.00  0.00     0.127 S 
ATOM     94  O   UNL A   1      44.399  40.288  29.322  1.00  0.00    -0.237 OA
ATOM     95  O   UNL A   1      44.779  38.564  27.606  1.00  0.00    -0.237 OA
ATOM     96  O   UNL A   1      42.504  39.387  28.024  1.00  0.00    -0.744 OA
ENDBRANCH  90  93
ENDBRANCH  63  86
ENDBRANCH  37  38
ENDBRANCH  29  32
ENDBRANCH  27  28
ENDBRANCH  26  27
ENDBRANCH   1  26
TORSDOF 19
ENDMDL
