MODEL 1
REMARK VINA RESULT:     -10.4      0.000      0.000
REMARK SMILES CCC(CC)N(CC(C)C)C(=O)N1CC[C@@H](C(=O)NCCCNC(=O)c2ccc(-c3c4nc(c(-c5cccc(S(=O)(=O)[O-])c5F)c5ccc([nH]5)c(-c5cccc(S(=O)(=O)[O-])c5F)c5nc(c(-c6cccc(S(=O)(=O)[O-])c6F)c6ccc3[nH]6)C=C5)C=C4)cc2)[C@@H]1C
REMARK SMILES IDX 20 1 19 2 17 3 18 4 16 6 13 7 14 8 89 9 15 10 90 11 11 12
REMARK SMILES IDX 12 13 6 14 3 15 2 16 1 17 4 18 5 19 7 20 8 21 9 22 10 23
REMARK SMILES IDX 21 24 22 25 23 26 24 27 25 29 26 30 27 31 88 32 28 33 87 34
REMARK SMILES IDX 29 35 30 36 31 37 81 38 32 39 86 40 80 41 82 42 33 43 85 44
REMARK SMILES IDX 79 45 78 46 34 48 66 49 46 50 65 51 47 52 50 53 64 54 83 55
REMARK SMILES IDX 48 56 49 57 63 59 84 60 51 61 35 62 36 63 44 64 37 65 39 66
REMARK SMILES IDX 45 67 38 68 40 69 41 70 42 71 43 72 67 73 68 74 76 75 69 76
REMARK SMILES IDX 71 77 77 78 70 79 72 80 73 81 74 82 75 83 52 84 53 85 61 86
REMARK SMILES IDX 54 87 56 88 62 89 55 90 57 91 58 92 59 93 60 94
REMARK H PARENT 19 5 23 28 82 47 50 58
REMARK Flexibility Score: inf
ROOT
ATOM      1  C   UNL A   1      31.493  28.380  26.801  1.00  0.00     0.117 C 
ENDROOT
BRANCH   1   2
ATOM      2  N   UNL A   1      30.860  27.074  26.917  1.00  0.00    -0.356 N 
ATOM      3  C   UNL A   1      30.802  26.004  26.085  1.00  0.00     0.225 C 
ATOM      4  O   UNL A   1      30.171  25.024  26.499  1.00  0.00    -0.275 OA
ATOM      5  H   UNL A   1      30.380  26.942  27.766  1.00  0.00     0.163 HD
BRANCH   3   6
ATOM      6  C   UNL A   1      31.434  25.949  24.701  1.00  0.00     0.102 C 
ATOM      7  N   UNL A   1      33.024  24.314  24.006  1.00  0.00    -0.321 N 
ATOM      8  C   UNL A   1      31.918  24.231  23.069  1.00  0.00     0.122 C 
ATOM      9  C   UNL A   1      32.932  25.591  24.726  1.00  0.00     0.096 C 
ATOM     10  C   UNL A   1      30.771  24.996  23.706  1.00  0.00     0.037 C 
ATOM     11  C   UNL A   1      33.742  26.673  23.999  1.00  0.00     0.032 C 
BRANCH   7  12
ATOM     12  C   UNL A   1      34.118  23.501  23.768  1.00  0.00     0.320 C 
ATOM     13  O   UNL A   1      34.370  23.228  22.590  1.00  0.00    -0.248 OA
BRANCH  12  14
ATOM     14  N   UNL A   1      34.829  22.928  24.821  1.00  0.00    -0.321 N 
BRANCH  14  15
ATOM     15  C   UNL A   1      34.242  21.764  25.564  1.00  0.00     0.086 C 
BRANCH  15  16
ATOM     16  C   UNL A   1      33.686  22.150  26.960  1.00  0.00     0.022 C 
ATOM     17  C   UNL A   1      32.243  22.637  26.949  1.00  0.00     0.006 C 
ENDBRANCH  15  16
BRANCH  15  18
ATOM     18  C   UNL A   1      33.318  20.879  24.706  1.00  0.00     0.022 C 
ATOM     19  C   UNL A   1      33.665  19.405  24.636  1.00  0.00     0.006 C 
ENDBRANCH  15  18
ENDBRANCH  14  15
BRANCH  14  20
ATOM     20  C   UNL A   1      35.943  23.570  25.511  1.00  0.00     0.124 C 
BRANCH  20  21
ATOM     21  C   UNL A   1      37.376  23.211  25.065  1.00  0.00     0.002 C 
ATOM     22  C   UNL A   1      38.449  23.409  26.132  1.00  0.00     0.009 C 
ATOM     23  C   UNL A   1      37.410  21.745  24.606  1.00  0.00     0.009 C 
ENDBRANCH  20  21
ENDBRANCH  14  20
ENDBRANCH  12  14
ENDBRANCH   7  12
ENDBRANCH   3   6
ENDBRANCH   1   2
BRANCH   1  24
ATOM     24  C   UNL A   1      32.991  28.312  27.073  1.00  0.00     0.042 C 
BRANCH  24  25
ATOM     25  C   UNL A   1      33.852  29.289  26.293  1.00  0.00     0.118 C 
BRANCH  25  26
ATOM     26  N   UNL A   1      33.861  30.615  26.877  1.00  0.00    -0.352 N 
ATOM     27  C   UNL A   1      34.682  31.183  27.823  1.00  0.00     0.251 C 
ATOM     28  H   UNL A   1      33.158  31.213  26.538  1.00  0.00     0.163 HD
ATOM     29  O   UNL A   1      34.349  32.268  28.299  1.00  0.00    -0.269 OA
BRANCH  27  30
ATOM     30  C   UNL A   1      35.934  30.533  28.295  1.00  0.00     0.039 A 
ATOM     31  C   UNL A   1      35.865  29.701  29.421  1.00  0.00     0.014 A 
ATOM     32  C   UNL A   1      37.182  30.786  27.723  1.00  0.00     0.014 A 
ATOM     33  C   UNL A   1      37.024  29.113  29.942  1.00  0.00     0.010 A 
ATOM     34  C   UNL A   1      38.320  30.116  28.176  1.00  0.00     0.010 A 
ATOM     35  C   UNL A   1      38.265  29.295  29.311  1.00  0.00    -0.014 A 
BRANCH  35  36
ATOM     36  C   UNL A   1      39.513  28.682  29.848  1.00  0.00     0.031 A 
ATOM     37  C   UNL A   1      40.175  29.253  31.079  1.00  0.00     0.074 A 
ATOM     38  C   UNL A   1      40.097  27.657  29.196  1.00  0.00     0.049 A 
ATOM     39  N   UNL A   1      41.299  28.905  31.651  1.00  0.00    -0.248 NA
ATOM     40  C   UNL A   1      39.499  30.384  31.737  1.00  0.00     0.031 C 
ATOM     41  C   UNL A   1      39.598  27.044  27.964  1.00  0.00     0.029 A 
ATOM     42  N   UNL A   1      41.252  26.964  29.466  1.00  0.00    -0.354 N 
ATOM     43  C   UNL A   1      41.485  29.794  32.705  1.00  0.00     0.074 A 
ATOM     44  C   UNL A   1      40.377  30.723  32.669  1.00  0.00     0.031 C 
ATOM     45  C   UNL A   1      40.437  26.065  27.589  1.00  0.00     0.029 A 
ATOM     46  C   UNL A   1      41.553  26.004  28.529  1.00  0.00     0.049 A 
ATOM     47  H   UNL A   1      41.812  27.138  30.257  1.00  0.00     0.167 HD
ATOM     48  C   UNL A   1      42.469  29.824  33.635  1.00  0.00     0.034 A 
ATOM     49  C   UNL A   1      42.612  25.176  28.426  1.00  0.00     0.034 A 
ATOM     50  C   UNL A   1      43.547  28.873  33.700  1.00  0.00     0.049 A 
ATOM     51  C   UNL A   1      43.681  25.211  29.483  1.00  0.00     0.074 A 
ATOM     52  C   UNL A   1      44.544  28.767  34.653  1.00  0.00     0.029 A 
ATOM     53  N   UNL A   1      43.775  27.870  32.771  1.00  0.00    -0.354 N 
ATOM     54  N   UNL A   1      43.763  25.969  30.550  1.00  0.00    -0.248 NA
ATOM     55  C   UNL A   1      44.788  24.252  29.343  1.00  0.00     0.031 C 
ATOM     56  C   UNL A   1      45.395  27.721  34.283  1.00  0.00     0.029 A 
ATOM     57  C   UNL A   1      44.905  27.150  33.120  1.00  0.00     0.049 A 
ATOM     58  H   UNL A   1      43.217  27.696  31.979  1.00  0.00     0.167 HD
ATOM     59  C   UNL A   1      44.904  25.552  31.227  1.00  0.00     0.074 A 
ATOM     60  C   UNL A   1      45.473  24.465  30.459  1.00  0.00     0.031 C 
ATOM     61  C   UNL A   1      45.435  26.034  32.378  1.00  0.00     0.034 A 
BRANCH  48  62
ATOM     62  C   UNL A   1      42.404  30.900  34.690  1.00  0.00     0.023 A 
ATOM     63  C   UNL A   1      41.777  30.634  35.925  1.00  0.00     0.012 A 
ATOM     64  C   UNL A   1      43.004  32.158  34.481  1.00  0.00     0.148 A 
ATOM     65  C   UNL A   1      41.706  31.614  36.915  1.00  0.00     0.002 A 
ATOM     66  C   UNL A   1      42.974  33.112  35.491  1.00  0.00     0.091 A 
ATOM     67  F   UNL A   1      43.582  32.402  33.296  1.00  0.00    -0.205 F 
ATOM     68  C   UNL A   1      42.312  32.848  36.701  1.00  0.00     0.022 A 
BRANCH  66  69
ATOM     69  S   UNL A   1      43.797  34.702  35.347  1.00  0.00     0.127 S 
ATOM     70  O   UNL A   1      45.176  34.299  35.079  1.00  0.00    -0.237 OA
ATOM     71  O   UNL A   1      43.104  35.306  34.208  1.00  0.00    -0.237 OA
ATOM     72  O   UNL A   1      43.579  35.383  36.618  1.00  0.00    -0.744 OA
ENDBRANCH  66  69
ENDBRANCH  48  62
BRANCH  49  73
ATOM     73  C   UNL A   1      42.681  24.198  27.302  1.00  0.00     0.023 A 
ATOM     74  C   UNL A   1      43.377  24.542  26.126  1.00  0.00     0.012 A 
ATOM     75  C   UNL A   1      42.089  22.925  27.402  1.00  0.00     0.148 A 
ATOM     76  C   UNL A   1      43.457  23.646  25.060  1.00  0.00     0.002 A 
ATOM     77  C   UNL A   1      42.223  22.016  26.360  1.00  0.00     0.091 A 
ATOM     78  F   UNL A   1      41.423  22.622  28.525  1.00  0.00    -0.205 F 
ATOM     79  C   UNL A   1      42.890  22.380  25.180  1.00  0.00     0.022 A 
BRANCH  77  80
ATOM     80  S   UNL A   1      41.646  20.319  26.481  1.00  0.00     0.127 S 
ATOM     81  O   UNL A   1      42.303  19.697  25.334  1.00  0.00    -0.237 OA
ATOM     82  O   UNL A   1      42.169  19.916  27.786  1.00  0.00    -0.237 OA
ATOM     83  O   UNL A   1      40.193  20.390  26.413  1.00  0.00    -0.744 OA
ENDBRANCH  77  80
ENDBRANCH  49  73
BRANCH  61  84
ATOM     84  C   UNL A   1      46.673  25.363  32.918  1.00  0.00     0.023 A 
ATOM     85  C   UNL A   1      47.948  25.870  32.600  1.00  0.00     0.012 A 
ATOM     86  C   UNL A   1      46.563  24.277  33.809  1.00  0.00     0.148 A 
ATOM     87  C   UNL A   1      49.096  25.287  33.136  1.00  0.00     0.002 A 
ATOM     88  C   UNL A   1      47.707  23.735  34.380  1.00  0.00     0.091 A 
ATOM     89  F   UNL A   1      45.342  23.798  34.086  1.00  0.00    -0.205 F 
ATOM     90  C   UNL A   1      48.976  24.229  34.035  1.00  0.00     0.022 A 
BRANCH  88  91
ATOM     91  S   UNL A   1      47.645  22.440  35.624  1.00  0.00     0.127 S 
ATOM     92  O   UNL A   1      47.092  21.321  34.861  1.00  0.00    -0.237 OA
ATOM     93  O   UNL A   1      49.054  22.292  35.988  1.00  0.00    -0.237 OA
ATOM     94  O   UNL A   1      46.793  22.946  36.691  1.00  0.00    -0.744 OA
ENDBRANCH  88  91
ENDBRANCH  61  84
ENDBRANCH  35  36
ENDBRANCH  27  30
ENDBRANCH  25  26
ENDBRANCH  24  25
ENDBRANCH   1  24
TORSDOF 20
ENDMDL
MODEL 2
REMARK VINA RESULT:     -10.2      2.388      2.838
REMARK SMILES CCC(CC)N(CC(C)C)C(=O)N1CC[C@@H](C(=O)NCCCNC(=O)c2ccc(-c3c4nc(c(-c5cccc(S(=O)(=O)[O-])c5F)c5ccc([nH]5)c(-c5cccc(S(=O)(=O)[O-])c5F)c5nc(c(-c6cccc(S(=O)(=O)[O-])c6F)c6ccc3[nH]6)C=C5)C=C4)cc2)[C@@H]1C
REMARK SMILES IDX 20 1 19 2 17 3 18 4 16 6 13 7 14 8 89 9 15 10 90 11 11 12
REMARK SMILES IDX 12 13 6 14 3 15 2 16 1 17 4 18 5 19 7 20 8 21 9 22 10 23
REMARK SMILES IDX 21 24 22 25 23 26 24 27 25 29 26 30 27 31 88 32 28 33 87 34
REMARK SMILES IDX 29 35 30 36 31 37 81 38 32 39 86 40 80 41 82 42 33 43 85 44
REMARK SMILES IDX 79 45 78 46 34 48 66 49 46 50 65 51 47 52 50 53 64 54 83 55
REMARK SMILES IDX 48 56 49 57 63 59 84 60 51 61 35 62 36 63 44 64 37 65 39 66
REMARK SMILES IDX 45 67 38 68 40 69 41 70 42 71 43 72 67 73 68 74 76 75 69 76
REMARK SMILES IDX 71 77 77 78 70 79 72 80 73 81 74 82 75 83 52 84 53 85 61 86
REMARK SMILES IDX 54 87 56 88 62 89 55 90 57 91 58 92 59 93 60 94
REMARK H PARENT 19 5 23 28 82 47 50 58
REMARK Flexibility Score: inf
ROOT
ATOM      1  C   UNL A   1      31.087  29.462  24.945  1.00  0.00     0.117 C 
ENDROOT
BRANCH   1   2
ATOM      2  N   UNL A   1      30.589  29.578  23.581  1.00  0.00    -0.356 N 
ATOM      3  C   UNL A   1      30.273  28.656  22.637  1.00  0.00     0.225 C 
ATOM      4  O   UNL A   1      29.863  29.098  21.557  1.00  0.00    -0.275 OA
ATOM      5  H   UNL A   1      30.456  30.508  23.287  1.00  0.00     0.163 HD
BRANCH   3   6
ATOM      6  C   UNL A   1      30.409  27.150  22.818  1.00  0.00     0.102 C 
ATOM      7  N   UNL A   1      31.789  26.106  24.456  1.00  0.00    -0.321 N 
ATOM      8  C   UNL A   1      30.443  25.611  24.683  1.00  0.00     0.122 C 
ATOM      9  C   UNL A   1      31.851  26.697  23.114  1.00  0.00     0.096 C 
ATOM     10  C   UNL A   1      29.522  26.529  23.898  1.00  0.00     0.037 C 
ATOM     11  C   UNL A   1      32.291  25.644  22.086  1.00  0.00     0.032 C 
BRANCH   7  12
ATOM     12  C   UNL A   1      32.797  25.583  25.249  1.00  0.00     0.320 C 
ATOM     13  O   UNL A   1      33.041  26.169  26.308  1.00  0.00    -0.248 OA
BRANCH  12  14
ATOM     14  N   UNL A   1      33.572  24.511  24.810  1.00  0.00    -0.321 N 
BRANCH  14  15
ATOM     15  C   UNL A   1      33.130  23.108  25.109  1.00  0.00     0.086 C 
BRANCH  15  16
ATOM     16  C   UNL A   1      32.550  22.943  26.538  1.00  0.00     0.022 C 
ATOM     17  C   UNL A   1      33.556  22.451  27.571  1.00  0.00     0.006 C 
ENDBRANCH  15  16
BRANCH  15  18
ATOM     18  C   UNL A   1      32.305  22.462  23.981  1.00  0.00     0.022 C 
ATOM     19  C   UNL A   1      32.512  20.976  23.755  1.00  0.00     0.006 C 
ENDBRANCH  15  18
ENDBRANCH  14  15
BRANCH  14  20
ATOM     20  C   UNL A   1      34.965  24.617  24.389  1.00  0.00     0.124 C 
BRANCH  20  21
ATOM     21  C   UNL A   1      35.866  23.373  24.544  1.00  0.00     0.002 C 
ATOM     22  C   UNL A   1      36.600  22.949  23.275  1.00  0.00     0.009 C 
ATOM     23  C   UNL A   1      36.906  23.637  25.643  1.00  0.00     0.009 C 
ENDBRANCH  20  21
ENDBRANCH  14  20
ENDBRANCH  12  14
ENDBRANCH   7  12
ENDBRANCH   3   6
ENDBRANCH   1   2
BRANCH   1  24
ATOM     24  C   UNL A   1      32.603  29.599  25.011  1.00  0.00     0.042 C 
BRANCH  24  25
ATOM     25  C   UNL A   1      33.186  29.851  26.389  1.00  0.00     0.118 C 
BRANCH  25  26
ATOM     26  N   UNL A   1      33.168  31.252  26.756  1.00  0.00    -0.352 N 
ATOM     27  C   UNL A   1      33.958  31.974  27.620  1.00  0.00     0.251 C 
ATOM     28  H   UNL A   1      32.468  31.780  26.309  1.00  0.00     0.163 HD
ATOM     29  O   UNL A   1      33.602  33.116  27.910  1.00  0.00    -0.269 OA
BRANCH  27  30
ATOM     30  C   UNL A   1      35.202  31.423  28.220  1.00  0.00     0.039 A 
ATOM     31  C   UNL A   1      35.158  30.136  28.775  1.00  0.00     0.014 A 
ATOM     32  C   UNL A   1      36.380  32.163  28.336  1.00  0.00     0.014 A 
ATOM     33  C   UNL A   1      36.285  29.594  29.405  1.00  0.00     0.010 A 
ATOM     34  C   UNL A   1      37.534  31.584  28.868  1.00  0.00     0.010 A 
ATOM     35  C   UNL A   1      37.495  30.304  29.440  1.00  0.00    -0.014 A 
BRANCH  35  36
ATOM     36  C   UNL A   1      38.708  29.751  30.107  1.00  0.00     0.031 A 
ATOM     37  C   UNL A   1      39.115  30.240  31.476  1.00  0.00     0.074 A 
ATOM     38  C   UNL A   1      39.487  28.859  29.463  1.00  0.00     0.049 A 
ATOM     39  N   UNL A   1      40.171  29.933  32.185  1.00  0.00    -0.248 NA
ATOM     40  C   UNL A   1      38.233  31.226  32.123  1.00  0.00     0.031 C 
ATOM     41  C   UNL A   1      39.245  28.343  28.114  1.00  0.00     0.029 A 
ATOM     42  N   UNL A   1      40.656  28.248  29.846  1.00  0.00    -0.354 N 
ATOM     43  C   UNL A   1      40.104  30.715  33.333  1.00  0.00     0.074 A 
ATOM     44  C   UNL A   1      38.921  31.538  33.210  1.00  0.00     0.031 C 
ATOM     45  C   UNL A   1      40.230  27.491  27.787  1.00  0.00     0.029 A 
ATOM     46  C   UNL A   1      41.193  27.427  28.882  1.00  0.00     0.049 A 
ATOM     47  H   UNL A   1      41.071  28.384  30.729  1.00  0.00     0.167 HD
ATOM     48  C   UNL A   1      40.930  30.731  34.407  1.00  0.00     0.034 A 
ATOM     49  C   UNL A   1      42.337  26.714  28.871  1.00  0.00     0.034 A 
ATOM     50  C   UNL A   1      42.080  29.880  34.552  1.00  0.00     0.049 A 
ATOM     51  C   UNL A   1      43.227  26.729  30.083  1.00  0.00     0.074 A 
ATOM     52  C   UNL A   1      42.930  29.760  35.637  1.00  0.00     0.029 A 
ATOM     53  N   UNL A   1      42.550  29.009  33.580  1.00  0.00    -0.354 N 
ATOM     54  N   UNL A   1      43.069  27.370  31.216  1.00  0.00    -0.248 NA
ATOM     55  C   UNL A   1      44.438  25.895  30.031  1.00  0.00     0.031 C 
ATOM     56  C   UNL A   1      43.932  28.841  35.310  1.00  0.00     0.029 A 
ATOM     57  C   UNL A   1      43.684  28.360  34.035  1.00  0.00     0.049 A 
ATOM     58  H   UNL A   1      42.137  28.873  32.697  1.00  0.00     0.167 HD
ATOM     59  C   UNL A   1      44.134  26.986  32.024  1.00  0.00     0.074 A 
ATOM     60  C   UNL A   1      44.923  26.045  31.256  1.00  0.00     0.031 C 
ATOM     61  C   UNL A   1      44.434  27.384  33.284  1.00  0.00     0.034 A 
BRANCH  48  62
ATOM     62  C   UNL A   1      40.595  31.674  35.535  1.00  0.00     0.023 A 
ATOM     63  C   UNL A   1      41.414  32.797  35.776  1.00  0.00     0.012 A 
ATOM     64  C   UNL A   1      39.447  31.479  36.327  1.00  0.00     0.148 A 
ATOM     65  C   UNL A   1      41.124  33.683  36.813  1.00  0.00     0.002 A 
ATOM     66  C   UNL A   1      39.134  32.394  37.326  1.00  0.00     0.091 A 
ATOM     67  F   UNL A   1      38.687  30.398  36.097  1.00  0.00    -0.205 F 
ATOM     68  C   UNL A   1      39.979  33.486  37.580  1.00  0.00     0.022 A 
BRANCH  66  69
ATOM     69  S   UNL A   1      37.640  32.277  38.316  1.00  0.00     0.127 S 
ATOM     70  O   UNL A   1      36.733  33.162  37.587  1.00  0.00    -0.237 OA
ATOM     71  O   UNL A   1      37.315  30.854  38.217  1.00  0.00    -0.237 OA
ATOM     72  O   UNL A   1      38.009  32.723  39.654  1.00  0.00    -0.744 OA
ENDBRANCH  66  69
ENDBRANCH  48  62
BRANCH  49  73
ATOM     73  C   UNL A   1      42.675  25.877  27.685  1.00  0.00     0.023 A 
ATOM     74  C   UNL A   1      43.534  26.393  26.694  1.00  0.00     0.012 A 
ATOM     75  C   UNL A   1      42.179  24.566  27.548  1.00  0.00     0.148 A 
ATOM     76  C   UNL A   1      43.867  25.629  25.574  1.00  0.00     0.002 A 
ATOM     77  C   UNL A   1      42.561  23.791  26.461  1.00  0.00     0.091 A 
ATOM     78  F   UNL A   1      41.356  24.098  28.497  1.00  0.00    -0.205 F 
ATOM     79  C   UNL A   1      43.390  24.326  25.463  1.00  0.00     0.022 A 
BRANCH  77  80
ATOM     80  S   UNL A   1      42.109  22.059  26.305  1.00  0.00     0.127 S 
ATOM     81  O   UNL A   1      42.557  21.517  27.585  1.00  0.00    -0.237 OA
ATOM     82  O   UNL A   1      40.657  22.142  26.144  1.00  0.00    -0.237 OA
ATOM     83  O   UNL A   1      42.816  21.570  25.130  1.00  0.00    -0.744 OA
ENDBRANCH  77  80
ENDBRANCH  49  73
BRANCH  61  84
ATOM     84  C   UNL A   1      45.642  26.772  33.949  1.00  0.00     0.023 A 
ATOM     85  C   UNL A   1      46.891  27.419  33.878  1.00  0.00     0.012 A 
ATOM     86  C   UNL A   1      45.514  25.595  34.712  1.00  0.00     0.148 A 
ATOM     87  C   UNL A   1      48.002  26.886  34.532  1.00  0.00     0.002 A 
ATOM     88  C   UNL A   1      46.613  25.099  35.404  1.00  0.00     0.091 A 
ATOM     89  F   UNL A   1      44.321  24.984  34.752  1.00  0.00    -0.205 F 
ATOM     90  C   UNL A   1      47.861  25.735  35.304  1.00  0.00     0.022 A 
BRANCH  88  91
ATOM     91  S   UNL A   1      46.502  23.682  36.502  1.00  0.00     0.127 S 
ATOM     92  O   UNL A   1      46.183  22.604  35.567  1.00  0.00    -0.237 OA
ATOM     93  O   UNL A   1      47.850  23.621  37.066  1.00  0.00    -0.237 OA
ATOM     94  O   UNL A   1      45.457  23.999  37.466  1.00  0.00    -0.744 OA
ENDBRANCH  88  91
ENDBRANCH  61  84
ENDBRANCH  35  36
ENDBRANCH  27  30
ENDBRANCH  25  26
ENDBRANCH  24  25
ENDBRANCH   1  24
TORSDOF 20
ENDMDL
MODEL 3
REMARK VINA RESULT:     -10.1      3.354      4.503
REMARK SMILES CCC(CC)N(CC(C)C)C(=O)N1CC[C@@H](C(=O)NCCCNC(=O)c2ccc(-c3c4nc(c(-c5cccc(S(=O)(=O)[O-])c5F)c5ccc([nH]5)c(-c5cccc(S(=O)(=O)[O-])c5F)c5nc(c(-c6cccc(S(=O)(=O)[O-])c6F)c6ccc3[nH]6)C=C5)C=C4)cc2)[C@@H]1C
REMARK SMILES IDX 20 1 19 2 17 3 18 4 16 6 13 7 14 8 89 9 15 10 90 11 11 12
REMARK SMILES IDX 12 13 6 14 3 15 2 16 1 17 4 18 5 19 7 20 8 21 9 22 10 23
REMARK SMILES IDX 21 24 22 25 23 26 24 27 25 29 26 30 27 31 88 32 28 33 87 34
REMARK SMILES IDX 29 35 30 36 31 37 81 38 32 39 86 40 80 41 82 42 33 43 85 44
REMARK SMILES IDX 79 45 78 46 34 48 66 49 46 50 65 51 47 52 50 53 64 54 83 55
REMARK SMILES IDX 48 56 49 57 63 59 84 60 51 61 35 62 36 63 44 64 37 65 39 66
REMARK SMILES IDX 45 67 38 68 40 69 41 70 42 71 43 72 67 73 68 74 76 75 69 76
REMARK SMILES IDX 71 77 77 78 70 79 72 80 73 81 74 82 75 83 52 84 53 85 61 86
REMARK SMILES IDX 54 87 56 88 62 89 55 90 57 91 58 92 59 93 60 94
REMARK H PARENT 19 5 23 28 82 47 50 58
REMARK Flexibility Score: inf
ROOT
ATOM      1  C   UNL A   1      31.242  30.916  25.728  1.00  0.00     0.117 C 
ENDROOT
BRANCH   1   2
ATOM      2  N   UNL A   1      31.983  29.873  26.422  1.00  0.00    -0.356 N 
ATOM      3  C   UNL A   1      32.459  28.665  26.027  1.00  0.00     0.225 C 
ATOM      4  O   UNL A   1      33.065  28.009  26.883  1.00  0.00    -0.275 OA
ATOM      5  H   UNL A   1      32.179  30.086  27.363  1.00  0.00     0.163 HD
BRANCH   3   6
ATOM      6  C   UNL A   1      32.275  28.076  24.634  1.00  0.00     0.102 C 
ATOM      7  N   UNL A   1      33.064  25.930  23.961  1.00  0.00    -0.321 N 
ATOM      8  C   UNL A   1      31.633  25.934  23.714  1.00  0.00     0.122 C 
ATOM      9  C   UNL A   1      33.515  27.318  24.122  1.00  0.00     0.096 C 
ATOM     10  C   UNL A   1      31.083  27.135  24.463  1.00  0.00     0.037 C 
ATOM     11  C   UNL A   1      33.962  27.895  22.772  1.00  0.00     0.032 C 
BRANCH   7  12
ATOM     12  C   UNL A   1      33.768  24.801  23.579  1.00  0.00     0.320 C 
ATOM     13  O   UNL A   1      33.932  24.622  22.368  1.00  0.00    -0.248 OA
BRANCH  12  14
ATOM     14  N   UNL A   1      34.174  23.856  24.520  1.00  0.00    -0.321 N 
BRANCH  14  15
ATOM     15  C   UNL A   1      33.240  22.745  24.903  1.00  0.00     0.086 C 
BRANCH  15  16
ATOM     16  C   UNL A   1      33.522  21.423  24.142  1.00  0.00     0.022 C 
ATOM     17  C   UNL A   1      34.017  20.284  25.024  1.00  0.00     0.006 C 
ENDBRANCH  15  16
BRANCH  15  18
ATOM     18  C   UNL A   1      33.031  22.603  26.422  1.00  0.00     0.022 C 
ATOM     19  C   UNL A   1      31.712  23.107  26.974  1.00  0.00     0.006 C 
ENDBRANCH  15  18
ENDBRANCH  14  15
BRANCH  14  20
ATOM     20  C   UNL A   1      35.291  24.036  25.442  1.00  0.00     0.124 C 
BRANCH  20  21
ATOM     21  C   UNL A   1      36.721  23.854  24.891  1.00  0.00     0.002 C 
ATOM     22  C   UNL A   1      37.753  23.400  25.921  1.00  0.00     0.009 C 
ATOM     23  C   UNL A   1      36.695  22.833  23.745  1.00  0.00     0.009 C 
ENDBRANCH  20  21
ENDBRANCH  14  20
ENDBRANCH  12  14
ENDBRANCH   7  12
ENDBRANCH   3   6
ENDBRANCH   1   2
BRANCH   1  24
ATOM     24  C   UNL A   1      31.207  32.215  26.523  1.00  0.00     0.042 C 
BRANCH  24  25
ATOM     25  C   UNL A   1      32.512  32.625  27.181  1.00  0.00     0.118 C 
BRANCH  25  26
ATOM     26  N   UNL A   1      32.498  33.999  27.640  1.00  0.00    -0.352 N 
ATOM     27  C   UNL A   1      33.195  34.626  28.646  1.00  0.00     0.251 C 
ATOM     28  H   UNL A   1      31.884  34.587  27.144  1.00  0.00     0.163 HD
ATOM     29  O   UNL A   1      32.847  35.762  28.967  1.00  0.00    -0.269 OA
BRANCH  27  30
ATOM     30  C   UNL A   1      34.328  33.980  29.361  1.00  0.00     0.039 A 
ATOM     31  C   UNL A   1      35.633  34.358  29.013  1.00  0.00     0.014 A 
ATOM     32  C   UNL A   1      34.152  32.955  30.292  1.00  0.00     0.014 A 
ATOM     33  C   UNL A   1      36.736  33.739  29.613  1.00  0.00     0.010 A 
ATOM     34  C   UNL A   1      35.248  32.412  30.967  1.00  0.00     0.010 A 
ATOM     35  C   UNL A   1      36.557  32.772  30.615  1.00  0.00    -0.014 A 
BRANCH  35  36
ATOM     36  C   UNL A   1      37.715  32.096  31.266  1.00  0.00     0.031 A 
ATOM     37  C   UNL A   1      38.258  32.610  32.577  1.00  0.00     0.074 A 
ATOM     38  C   UNL A   1      38.327  31.063  30.653  1.00  0.00     0.049 A 
ATOM     39  N   UNL A   1      39.298  32.202  33.259  1.00  0.00    -0.248 NA
ATOM     40  C   UNL A   1      37.558  33.751  33.190  1.00  0.00     0.031 C 
ATOM     41  C   UNL A   1      37.944  30.501  29.357  1.00  0.00     0.029 A 
ATOM     42  N   UNL A   1      39.418  30.318  31.028  1.00  0.00    -0.354 N 
ATOM     43  C   UNL A   1      39.401  33.057  34.351  1.00  0.00     0.074 A 
ATOM     44  C   UNL A   1      38.340  34.031  34.221  1.00  0.00     0.031 C 
ATOM     45  C   UNL A   1      38.781  29.498  29.049  1.00  0.00     0.029 A 
ATOM     46  C   UNL A   1      39.783  29.368  30.102  1.00  0.00     0.049 A 
ATOM     47  H   UNL A   1      39.894  30.449  31.880  1.00  0.00     0.167 HD
ATOM     48  C   UNL A   1      40.278  33.024  35.384  1.00  0.00     0.034 A 
ATOM     49  C   UNL A   1      40.815  28.500  30.092  1.00  0.00     0.034 A 
ATOM     50  C   UNL A   1      41.304  32.029  35.538  1.00  0.00     0.049 A 
ATOM     51  C   UNL A   1      41.762  28.466  31.260  1.00  0.00     0.074 A 
ATOM     52  C   UNL A   1      42.186  31.860  36.591  1.00  0.00     0.029 A 
ATOM     53  N   UNL A   1      41.595  31.040  34.612  1.00  0.00    -0.354 N 
ATOM     54  N   UNL A   1      41.755  29.195  32.350  1.00  0.00    -0.248 NA
ATOM     55  C   UNL A   1      42.840  27.466  31.215  1.00  0.00     0.031 C 
ATOM     56  C   UNL A   1      43.032  30.789  36.287  1.00  0.00     0.029 A 
ATOM     57  C   UNL A   1      42.651  30.266  35.062  1.00  0.00     0.049 A 
ATOM     58  H   UNL A   1      41.121  30.908  33.760  1.00  0.00     0.167 HD
ATOM     59  C   UNL A   1      42.797  28.716  33.136  1.00  0.00     0.074 A 
ATOM     60  C   UNL A   1      43.406  27.624  32.403  1.00  0.00     0.031 C 
ATOM     61  C   UNL A   1      43.217  29.148  34.350  1.00  0.00     0.034 A 
BRANCH  48  62
ATOM     62  C   UNL A   1      40.138  34.077  36.455  1.00  0.00     0.023 A 
ATOM     63  C   UNL A   1      40.498  35.412  36.177  1.00  0.00     0.012 A 
ATOM     64  C   UNL A   1      39.608  33.758  37.721  1.00  0.00     0.148 A 
ATOM     65  C   UNL A   1      40.377  36.401  37.152  1.00  0.00     0.002 A 
ATOM     66  C   UNL A   1      39.442  34.758  38.671  1.00  0.00     0.091 A 
ATOM     67  F   UNL A   1      39.286  32.481  37.976  1.00  0.00    -0.205 F 
ATOM     68  C   UNL A   1      39.840  36.076  38.394  1.00  0.00     0.022 A 
BRANCH  66  69
ATOM     69  S   UNL A   1      38.683  34.459  40.271  1.00  0.00     0.127 S 
ATOM     70  O   UNL A   1      37.548  33.614  39.907  1.00  0.00    -0.237 OA
ATOM     71  O   UNL A   1      39.751  33.770  40.995  1.00  0.00    -0.237 OA
ATOM     72  O   UNL A   1      38.340  35.773  40.804  1.00  0.00    -0.744 OA
ENDBRANCH  66  69
ENDBRANCH  48  62
BRANCH  49  73
ATOM     73  C   UNL A   1      40.970  27.548  28.955  1.00  0.00     0.023 A 
ATOM     74  C   UNL A   1      40.178  26.383  28.914  1.00  0.00     0.012 A 
ATOM     75  C   UNL A   1      41.870  27.804  27.903  1.00  0.00     0.148 A 
ATOM     76  C   UNL A   1      40.303  25.476  27.860  1.00  0.00     0.002 A 
ATOM     77  C   UNL A   1      41.947  26.927  26.829  1.00  0.00     0.091 A 
ATOM     78  F   UNL A   1      42.620  28.913  27.967  1.00  0.00    -0.205 F 
ATOM     79  C   UNL A   1      41.178  25.752  26.814  1.00  0.00     0.022 A 
BRANCH  77  80
ATOM     80  S   UNL A   1      42.943  27.270  25.373  1.00  0.00     0.127 S 
ATOM     81  O   UNL A   1      42.820  26.021  24.626  1.00  0.00    -0.237 OA
ATOM     82  O   UNL A   1      42.238  28.411  24.790  1.00  0.00    -0.237 OA
ATOM     83  O   UNL A   1      44.276  27.578  25.871  1.00  0.00    -0.744 OA
ENDBRANCH  77  80
ENDBRANCH  49  73
BRANCH  61  84
ATOM     84  C   UNL A   1      44.362  28.414  35.003  1.00  0.00     0.023 A 
ATOM     85  C   UNL A   1      45.692  28.747  34.680  1.00  0.00     0.012 A 
ATOM     86  C   UNL A   1      44.113  27.449  35.999  1.00  0.00     0.148 A 
ATOM     87  C   UNL A   1      46.756  28.109  35.316  1.00  0.00     0.002 A 
ATOM     88  C   UNL A   1      45.178  26.855  36.666  1.00  0.00     0.091 A 
ATOM     89  F   UNL A   1      42.841  27.132  36.280  1.00  0.00    -0.205 F 
ATOM     90  C   UNL A   1      46.500  27.174  36.317  1.00  0.00     0.022 A 
BRANCH  88  91
ATOM     91  S   UNL A   1      44.945  25.716  38.035  1.00  0.00     0.127 S 
ATOM     92  O   UNL A   1      46.323  25.472  38.457  1.00  0.00    -0.237 OA
ATOM     93  O   UNL A   1      44.153  26.515  38.971  1.00  0.00    -0.237 OA
ATOM     94  O   UNL A   1      44.248  24.561  37.486  1.00  0.00    -0.744 OA
ENDBRANCH  88  91
ENDBRANCH  61  84
ENDBRANCH  35  36
ENDBRANCH  27  30
ENDBRANCH  25  26
ENDBRANCH  24  25
ENDBRANCH   1  24
TORSDOF 20
ENDMDL
