MODEL 1
REMARK VINA RESULT:     -11.4      0.000      0.000
REMARK SMILES C[C@@H]([NH2+]C[C@H]1CCC[C@@H]1C(=O)NCCCNC(=O)c1ccc(-c2c3nc(c(-c4cccc(S(=O)(=O)[O-])c4F)c4ccc([nH]4)c(-c4cccc(S(=O)(=O)[O-])c4F)c4nc(c(-c5cccc(S(=O)(=O)[O-])c5F)c5ccc2[nH]5)C=C4)C=C3)cc1)c1cc(F)ccc1O
REMARK SMILES IDX 13 1 12 2 10 3 11 4 9 6 5 7 6 8 7 9 8 10 4 11 3 12 2 15 1 16
REMARK SMILES IDX 82 17 83 18 88 19 84 20 87 21 85 22 86 23 89 24 14 26 15 27
REMARK SMILES IDX 16 28 17 29 18 31 19 32 20 33 81 34 21 35 80 36 22 37 23 38
REMARK SMILES IDX 24 39 74 40 25 41 79 42 73 43 75 44 26 45 78 46 72 47 71 48
REMARK SMILES IDX 27 50 59 51 39 52 58 53 40 54 43 55 57 56 76 57 41 58 42 59
REMARK SMILES IDX 56 61 77 62 44 63 28 64 29 65 37 66 30 67 32 68 38 69 31 70
REMARK SMILES IDX 33 71 34 72 35 73 36 74 60 75 61 76 69 77 62 78 64 79 70 80
REMARK SMILES IDX 63 81 65 82 66 83 67 84 68 85 45 86 46 87 54 88 47 89 49 90
REMARK SMILES IDX 55 91 48 92 50 93 51 94 52 95 53 96
REMARK H PARENT 12 5 3 13 3 14 89 25 16 30 75 49 43 60
REMARK Flexibility Score: inf
ROOT
ATOM      1  C   UNL A   1      31.808  27.977  27.179  1.00  0.00     0.117 C 
ENDROOT
BRANCH   1   2
ATOM      2  N   UNL A   1      31.075  26.733  27.092  1.00  0.00    -0.356 N 
ATOM      3  C   UNL A   1      31.288  25.598  26.385  1.00  0.00     0.223 C 
ATOM      4  O   UNL A   1      30.514  24.658  26.614  1.00  0.00    -0.275 OA
ATOM      5  H   UNL A   1      30.268  26.706  27.655  1.00  0.00     0.163 HD
BRANCH   3   6
ATOM      6  C   UNL A   1      32.434  25.383  25.392  1.00  0.00     0.087 C 
ATOM      7  C   UNL A   1      32.042  24.445  24.241  1.00  0.00     0.057 C 
ATOM      8  C   UNL A   1      32.568  23.088  24.742  1.00  0.00     0.010 C 
ATOM      9  C   UNL A   1      33.909  23.431  25.401  1.00  0.00     0.001 C 
ATOM     10  C   UNL A   1      33.772  24.870  25.902  1.00  0.00     0.014 C 
BRANCH   7  11
ATOM     11  C   UNL A   1      32.697  24.694  22.860  1.00  0.00     0.265 C 
BRANCH  11  12
ATOM     12  N   UNL A   1      32.033  25.455  21.806  1.00  0.00    -0.340 N 
ATOM     13  H   UNL A   1      32.492  25.213  20.928  1.00  0.00     0.346 HD
ATOM     14  H   UNL A   1      31.052  25.189  21.894  1.00  0.00     0.346 HD
BRANCH  12  15
ATOM     15  C   UNL A   1      32.011  26.928  21.894  1.00  0.00     0.214 C 
ATOM     16  C   UNL A   1      33.238  27.373  22.695  1.00  0.00     0.081 C 
BRANCH  15  17
ATOM     17  C   UNL A   1      30.761  27.594  22.454  1.00  0.00     0.054 A 
ATOM     18  C   UNL A   1      29.821  26.861  23.204  1.00  0.00     0.053 A 
ATOM     19  C   UNL A   1      30.466  28.952  22.219  1.00  0.00     0.124 A 
ATOM     20  C   UNL A   1      28.592  27.419  23.555  1.00  0.00     0.123 A 
ATOM     21  C   UNL A   1      29.242  29.513  22.600  1.00  0.00     0.050 A 
ATOM     22  F   UNL A   1      27.677  26.658  24.171  1.00  0.00    -0.207 F 
ATOM     23  C   UNL A   1      28.287  28.735  23.244  1.00  0.00     0.043 A 
BRANCH  19  24
ATOM     24  O   UNL A   1      31.302  29.814  21.564  1.00  0.00    -0.507 OA
ATOM     25  H   UNL A   1      31.924  30.321  22.048  1.00  0.00     0.293 HD
ENDBRANCH  19  24
ENDBRANCH  15  17
ENDBRANCH  12  15
ENDBRANCH  11  12
ENDBRANCH   7  11
ENDBRANCH   3   6
ENDBRANCH   1   2
BRANCH   1  26
ATOM     26  C   UNL A   1      31.753  28.797  25.900  1.00  0.00     0.042 C 
BRANCH  26  27
ATOM     27  C   UNL A   1      32.986  29.655  25.693  1.00  0.00     0.118 C 
BRANCH  27  28
ATOM     28  N   UNL A   1      32.732  31.058  26.004  1.00  0.00    -0.352 N 
ATOM     29  C   UNL A   1      33.209  31.839  27.025  1.00  0.00     0.251 C 
ATOM     30  H   UNL A   1      32.120  31.515  25.384  1.00  0.00     0.163 HD
ATOM     31  O   UNL A   1      32.649  32.899  27.285  1.00  0.00    -0.269 OA
BRANCH  29  32
ATOM     32  C   UNL A   1      34.394  31.410  27.794  1.00  0.00     0.039 A 
ATOM     33  C   UNL A   1      34.421  30.129  28.349  1.00  0.00     0.014 A 
ATOM     34  C   UNL A   1      35.463  32.286  27.996  1.00  0.00     0.014 A 
ATOM     35  C   UNL A   1      35.547  29.714  29.062  1.00  0.00     0.010 A 
ATOM     36  C   UNL A   1      36.625  31.833  28.601  1.00  0.00     0.010 A 
ATOM     37  C   UNL A   1      36.670  30.552  29.165  1.00  0.00    -0.014 A 
BRANCH  37  38
ATOM     38  C   UNL A   1      37.899  30.116  29.867  1.00  0.00     0.031 A 
ATOM     39  C   UNL A   1      38.205  30.628  31.248  1.00  0.00     0.074 A 
ATOM     40  C   UNL A   1      38.779  29.327  29.219  1.00  0.00     0.049 A 
ATOM     41  N   UNL A   1      39.244  30.387  32.003  1.00  0.00    -0.248 NA
ATOM     42  C   UNL A   1      37.236  31.562  31.848  1.00  0.00     0.031 C 
ATOM     43  C   UNL A   1      38.636  28.856  27.838  1.00  0.00     0.029 A 
ATOM     44  N   UNL A   1      39.976  28.801  29.626  1.00  0.00    -0.354 N 
ATOM     45  C   UNL A   1      39.073  31.166  33.142  1.00  0.00     0.074 A 
ATOM     46  C   UNL A   1      37.856  31.923  32.962  1.00  0.00     0.031 C 
ATOM     47  C   UNL A   1      39.696  28.096  27.521  1.00  0.00     0.029 A 
ATOM     48  C   UNL A   1      40.604  28.049  28.661  1.00  0.00     0.049 A 
ATOM     49  H   UNL A   1      40.353  28.948  30.524  1.00  0.00     0.167 HD
ATOM     50  C   UNL A   1      39.843  31.218  34.255  1.00  0.00     0.034 A 
ATOM     51  C   UNL A   1      41.780  27.394  28.695  1.00  0.00     0.034 A 
ATOM     52  C   UNL A   1      41.023  30.422  34.446  1.00  0.00     0.049 A 
ATOM     53  C   UNL A   1      42.578  27.411  29.970  1.00  0.00     0.074 A 
ATOM     54  C   UNL A   1      41.822  30.320  35.571  1.00  0.00     0.029 A 
ATOM     55  N   UNL A   1      41.578  29.591  33.483  1.00  0.00    -0.354 N 
ATOM     56  N   UNL A   1      42.313  28.018  31.101  1.00  0.00    -0.248 NA
ATOM     57  C   UNL A   1      43.815  26.621  29.986  1.00  0.00     0.031 C 
ATOM     58  C   UNL A   1      42.873  29.443  35.279  1.00  0.00     0.029 A 
ATOM     59  C   UNL A   1      42.713  28.978  33.984  1.00  0.00     0.049 A 
ATOM     60  H   UNL A   1      41.216  29.458  32.577  1.00  0.00     0.167 HD
ATOM     61  C   UNL A   1      43.331  27.659  31.974  1.00  0.00     0.074 A 
ATOM     62  C   UNL A   1      44.202  26.757  31.247  1.00  0.00     0.031 C 
ATOM     63  C   UNL A   1      43.540  28.050  33.256  1.00  0.00     0.034 A 
BRANCH  50  64
ATOM     64  C   UNL A   1      39.393  32.123  35.375  1.00  0.00     0.023 A 
ATOM     65  C   UNL A   1      38.557  31.613  36.390  1.00  0.00     0.012 A 
ATOM     66  C   UNL A   1      39.835  33.457  35.453  1.00  0.00     0.148 A 
ATOM     67  C   UNL A   1      38.136  32.425  37.442  1.00  0.00     0.002 A 
ATOM     68  C   UNL A   1      39.450  34.248  36.530  1.00  0.00     0.091 A 
ATOM     69  F   UNL A   1      40.610  33.934  34.468  1.00  0.00    -0.205 F 
ATOM     70  C   UNL A   1      38.591  33.737  37.518  1.00  0.00     0.022 A 
BRANCH  68  71
ATOM     71  S   UNL A   1      40.045  35.927  36.764  1.00  0.00     0.127 S 
ATOM     72  O   UNL A   1      39.672  36.551  35.495  1.00  0.00    -0.237 OA
ATOM     73  O   UNL A   1      39.262  36.372  37.916  1.00  0.00    -0.237 OA
ATOM     74  O   UNL A   1      41.477  35.816  37.008  1.00  0.00    -0.744 OA
ENDBRANCH  68  71
ENDBRANCH  50  64
BRANCH  51  75
ATOM     75  C   UNL A   1      42.225  26.604  27.514  1.00  0.00     0.023 A 
ATOM     76  C   UNL A   1      43.029  27.219  26.533  1.00  0.00     0.012 A 
ATOM     77  C   UNL A   1      41.894  25.243  27.374  1.00  0.00     0.148 A 
ATOM     78  C   UNL A   1      43.466  26.503  25.419  1.00  0.00     0.002 A 
ATOM     79  C   UNL A   1      42.380  24.520  26.290  1.00  0.00     0.091 A 
ATOM     80  F   UNL A   1      41.122  24.677  28.313  1.00  0.00    -0.205 F 
ATOM     81  C   UNL A   1      43.151  25.153  25.303  1.00  0.00     0.022 A 
BRANCH  79  82
ATOM     82  S   UNL A   1      42.138  22.747  26.131  1.00  0.00     0.127 S 
ATOM     83  O   UNL A   1      42.787  22.470  24.853  1.00  0.00    -0.237 OA
ATOM     84  O   UNL A   1      42.848  22.239  27.306  1.00  0.00    -0.237 OA
ATOM     85  O   UNL A   1      40.697  22.543  26.170  1.00  0.00    -0.744 OA
ENDBRANCH  79  82
ENDBRANCH  51  75
BRANCH  63  86
ATOM     86  C   UNL A   1      44.743  27.484  33.964  1.00  0.00     0.023 A 
ATOM     87  C   UNL A   1      45.977  28.160  33.897  1.00  0.00     0.012 A 
ATOM     88  C   UNL A   1      44.635  26.313  34.739  1.00  0.00     0.148 A 
ATOM     89  C   UNL A   1      47.097  27.657  34.556  1.00  0.00     0.002 A 
ATOM     90  C   UNL A   1      45.742  25.846  35.437  1.00  0.00     0.091 A 
ATOM     91  F   UNL A   1      43.456  25.674  34.774  1.00  0.00    -0.205 F 
ATOM     92  C   UNL A   1      46.976  26.507  35.335  1.00  0.00     0.022 A 
BRANCH  90  93
ATOM     93  S   UNL A   1      45.651  24.433  36.540  1.00  0.00     0.127 S 
ATOM     94  O   UNL A   1      44.648  24.873  37.508  1.00  0.00    -0.237 OA
ATOM     95  O   UNL A   1      45.206  23.365  35.643  1.00  0.00    -0.237 OA
ATOM     96  O   UNL A   1      46.996  24.251  37.068  1.00  0.00    -0.744 OA
ENDBRANCH  90  93
ENDBRANCH  63  86
ENDBRANCH  37  38
ENDBRANCH  29  32
ENDBRANCH  27  28
ENDBRANCH  26  27
ENDBRANCH   1  26
TORSDOF 18
ENDMDL
MODEL 2
REMARK VINA RESULT:     -11.4      2.113      3.705
REMARK SMILES C[C@@H]([NH2+]C[C@H]1CCC[C@@H]1C(=O)NCCCNC(=O)c1ccc(-c2c3nc(c(-c4cccc(S(=O)(=O)[O-])c4F)c4ccc([nH]4)c(-c4cccc(S(=O)(=O)[O-])c4F)c4nc(c(-c5cccc(S(=O)(=O)[O-])c5F)c5ccc2[nH]5)C=C4)C=C3)cc1)c1cc(F)ccc1O
REMARK SMILES IDX 13 1 12 2 10 3 11 4 9 6 5 7 6 8 7 9 8 10 4 11 3 12 2 15 1 16
REMARK SMILES IDX 82 17 83 18 88 19 84 20 87 21 85 22 86 23 89 24 14 26 15 27
REMARK SMILES IDX 16 28 17 29 18 31 19 32 20 33 81 34 21 35 80 36 22 37 23 38
REMARK SMILES IDX 24 39 74 40 25 41 79 42 73 43 75 44 26 45 78 46 72 47 71 48
REMARK SMILES IDX 27 50 59 51 39 52 58 53 40 54 43 55 57 56 76 57 41 58 42 59
REMARK SMILES IDX 56 61 77 62 44 63 28 64 29 65 37 66 30 67 32 68 38 69 31 70
REMARK SMILES IDX 33 71 34 72 35 73 36 74 60 75 61 76 69 77 62 78 64 79 70 80
REMARK SMILES IDX 63 81 65 82 66 83 67 84 68 85 45 86 46 87 54 88 47 89 49 90
REMARK SMILES IDX 55 91 48 92 50 93 51 94 52 95 53 96
REMARK H PARENT 12 5 3 13 3 14 89 25 16 30 75 49 43 60
REMARK Flexibility Score: inf
ROOT
ATOM      1  C   UNL A   1      31.346  27.888  25.912  1.00  0.00     0.117 C 
ENDROOT
BRANCH   1   2
ATOM      2  N   UNL A   1      31.870  27.896  24.564  1.00  0.00    -0.356 N 
ATOM      3  C   UNL A   1      32.357  26.912  23.771  1.00  0.00     0.223 C 
ATOM      4  O   UNL A   1      32.638  27.236  22.609  1.00  0.00    -0.275 OA
ATOM      5  H   UNL A   1      31.872  28.785  24.142  1.00  0.00     0.163 HD
BRANCH   3   6
ATOM      6  C   UNL A   1      32.520  25.447  24.187  1.00  0.00     0.087 C 
ATOM      7  C   UNL A   1      33.379  25.288  25.449  1.00  0.00     0.057 C 
ATOM      8  C   UNL A   1      34.770  25.003  24.854  1.00  0.00     0.010 C 
ATOM      9  C   UNL A   1      34.482  24.083  23.663  1.00  0.00     0.001 C 
ATOM     10  C   UNL A   1      33.077  24.448  23.182  1.00  0.00     0.014 C 
BRANCH   7  11
ATOM     11  C   UNL A   1      33.049  24.109  26.396  1.00  0.00     0.265 C 
BRANCH  11  12
ATOM     12  N   UNL A   1      32.219  22.982  25.981  1.00  0.00    -0.340 N 
ATOM     13  H   UNL A   1      31.315  23.092  26.440  1.00  0.00     0.346 HD
ATOM     14  H   UNL A   1      32.221  23.039  24.963  1.00  0.00     0.346 HD
BRANCH  12  15
ATOM     15  C   UNL A   1      32.684  21.610  26.262  1.00  0.00     0.214 C 
ATOM     16  C   UNL A   1      34.106  21.698  26.827  1.00  0.00     0.081 C 
BRANCH  15  17
ATOM     17  C   UNL A   1      32.643  20.594  25.128  1.00  0.00     0.054 A 
ATOM     18  C   UNL A   1      32.498  21.004  23.789  1.00  0.00     0.053 A 
ATOM     19  C   UNL A   1      32.708  19.205  25.364  1.00  0.00     0.124 A 
ATOM     20  C   UNL A   1      32.271  20.074  22.774  1.00  0.00     0.123 A 
ATOM     21  C   UNL A   1      32.509  18.278  24.335  1.00  0.00     0.050 A 
ATOM     22  F   UNL A   1      32.026  20.507  21.530  1.00  0.00    -0.207 F 
ATOM     23  C   UNL A   1      32.259  18.713  23.039  1.00  0.00     0.043 A 
BRANCH  19  24
ATOM     24  O   UNL A   1      32.910  18.648  26.595  1.00  0.00    -0.507 OA
ATOM     25  H   UNL A   1      32.497  17.836  26.816  1.00  0.00     0.293 HD
ENDBRANCH  19  24
ENDBRANCH  15  17
ENDBRANCH  12  15
ENDBRANCH  11  12
ENDBRANCH   7  11
ENDBRANCH   3   6
ENDBRANCH   1   2
BRANCH   1  26
ATOM     26  C   UNL A   1      32.242  28.604  26.910  1.00  0.00     0.042 C 
BRANCH  26  27
ATOM     27  C   UNL A   1      33.315  29.446  26.247  1.00  0.00     0.118 C 
BRANCH  27  28
ATOM     28  N   UNL A   1      33.192  30.857  26.596  1.00  0.00    -0.352 N 
ATOM     29  C   UNL A   1      33.863  31.599  27.534  1.00  0.00     0.251 C 
ATOM     30  H   UNL A   1      32.520  31.355  26.077  1.00  0.00     0.163 HD
ATOM     31  O   UNL A   1      33.411  32.687  27.878  1.00  0.00    -0.269 OA
BRANCH  29  32
ATOM     32  C   UNL A   1      35.123  31.095  28.113  1.00  0.00     0.039 A 
ATOM     33  C   UNL A   1      36.274  31.884  28.039  1.00  0.00     0.014 A 
ATOM     34  C   UNL A   1      35.177  29.828  28.699  1.00  0.00     0.014 A 
ATOM     35  C   UNL A   1      37.463  31.417  28.601  1.00  0.00     0.010 A 
ATOM     36  C   UNL A   1      36.325  29.418  29.358  1.00  0.00     0.010 A 
ATOM     37  C   UNL A   1      37.488  30.194  29.293  1.00  0.00    -0.014 A 
BRANCH  37  38
ATOM     38  C   UNL A   1      38.722  29.702  29.948  1.00  0.00     0.031 A 
ATOM     39  C   UNL A   1      39.153  30.269  31.274  1.00  0.00     0.074 A 
ATOM     40  C   UNL A   1      39.496  28.809  29.302  1.00  0.00     0.049 A 
ATOM     41  N   UNL A   1      40.216  29.991  31.980  1.00  0.00    -0.248 NA
ATOM     42  C   UNL A   1      38.299  31.312  31.869  1.00  0.00     0.031 C 
ATOM     43  C   UNL A   1      39.231  28.270  27.964  1.00  0.00     0.029 A 
ATOM     44  N   UNL A   1      40.673  28.214  29.670  1.00  0.00    -0.354 N 
ATOM     45  C   UNL A   1      40.179  30.847  33.075  1.00  0.00     0.074 A 
ATOM     46  C   UNL A   1      39.014  31.686  32.918  1.00  0.00     0.031 C 
ATOM     47  C   UNL A   1      40.207  27.410  27.635  1.00  0.00     0.029 A 
ATOM     48  C   UNL A   1      41.179  27.358  28.720  1.00  0.00     0.049 A 
ATOM     49  H   UNL A   1      41.117  28.383  30.533  1.00  0.00     0.167 HD
ATOM     50  C   UNL A   1      41.019  30.902  34.136  1.00  0.00     0.034 A 
ATOM     51  C   UNL A   1      42.301  26.613  28.727  1.00  0.00     0.034 A 
ATOM     52  C   UNL A   1      42.145  30.026  34.307  1.00  0.00     0.049 A 
ATOM     53  C   UNL A   1      43.178  26.642  29.949  1.00  0.00     0.074 A 
ATOM     54  C   UNL A   1      43.003  29.927  35.388  1.00  0.00     0.029 A 
ATOM     55  N   UNL A   1      42.572  29.099  33.369  1.00  0.00    -0.354 N 
ATOM     56  N   UNL A   1      43.032  27.334  31.053  1.00  0.00    -0.248 NA
ATOM     57  C   UNL A   1      44.349  25.757  29.943  1.00  0.00     0.031 C 
ATOM     58  C   UNL A   1      43.963  28.953  35.092  1.00  0.00     0.029 A 
ATOM     59  C   UNL A   1      43.686  28.427  33.840  1.00  0.00     0.049 A 
ATOM     60  H   UNL A   1      42.144  28.942  32.496  1.00  0.00     0.167 HD
ATOM     61  C   UNL A   1      44.073  26.946  31.886  1.00  0.00     0.074 A 
ATOM     62  C   UNL A   1      44.824  25.935  31.168  1.00  0.00     0.031 C 
ATOM     63  C   UNL A   1      44.392  27.394  33.126  1.00  0.00     0.034 A 
BRANCH  50  64
ATOM     64  C   UNL A   1      40.712  31.905  35.220  1.00  0.00     0.023 A 
ATOM     65  C   UNL A   1      41.528  33.046  35.366  1.00  0.00     0.012 A 
ATOM     66  C   UNL A   1      39.593  31.747  36.059  1.00  0.00     0.148 A 
ATOM     67  C   UNL A   1      41.260  33.993  36.353  1.00  0.00     0.002 A 
ATOM     68  C   UNL A   1      39.303  32.719  37.010  1.00  0.00     0.091 A 
ATOM     69  F   UNL A   1      38.840  30.646  35.924  1.00  0.00    -0.205 F 
ATOM     70  C   UNL A   1      40.143  33.835  37.167  1.00  0.00     0.022 A 
BRANCH  68  71
ATOM     71  S   UNL A   1      37.843  32.652  38.055  1.00  0.00     0.127 S 
ATOM     72  O   UNL A   1      38.089  33.759  38.978  1.00  0.00    -0.237 OA
ATOM     73  O   UNL A   1      36.767  32.889  37.092  1.00  0.00    -0.237 OA
ATOM     74  O   UNL A   1      37.840  31.326  38.656  1.00  0.00    -0.744 OA
ENDBRANCH  68  71
ENDBRANCH  50  64
BRANCH  51  75
ATOM     75  C   UNL A   1      42.609  25.722  27.574  1.00  0.00     0.023 A 
ATOM     76  C   UNL A   1      43.452  26.187  26.546  1.00  0.00     0.012 A 
ATOM     77  C   UNL A   1      42.108  24.408  27.509  1.00  0.00     0.148 A 
ATOM     78  C   UNL A   1      43.762  25.373  25.457  1.00  0.00     0.002 A 
ATOM     79  C   UNL A   1      42.468  23.582  26.450  1.00  0.00     0.091 A 
ATOM     80  F   UNL A   1      41.302  23.986  28.493  1.00  0.00    -0.205 F 
ATOM     81  C   UNL A   1      43.280  24.069  25.414  1.00  0.00     0.022 A 
BRANCH  79  82
ATOM     82  S   UNL A   1      42.005  21.847  26.383  1.00  0.00     0.127 S 
ATOM     83  O   UNL A   1      40.571  21.931  26.123  1.00  0.00    -0.237 OA
ATOM     84  O   UNL A   1      42.808  21.363  25.260  1.00  0.00    -0.237 OA
ATOM     85  O   UNL A   1      42.385  21.291  27.674  1.00  0.00    -0.744 OA
ENDBRANCH  79  82
ENDBRANCH  51  75
BRANCH  63  86
ATOM     86  C   UNL A   1      45.590  26.776  33.797  1.00  0.00     0.023 A 
ATOM     87  C   UNL A   1      46.858  27.373  33.653  1.00  0.00     0.012 A 
ATOM     88  C   UNL A   1      45.449  25.637  34.613  1.00  0.00     0.148 A 
ATOM     89  C   UNL A   1      47.976  26.821  34.278  1.00  0.00     0.002 A 
ATOM     90  C   UNL A   1      46.557  25.123  35.275  1.00  0.00     0.091 A 
ATOM     91  F   UNL A   1      44.236  25.073  34.721  1.00  0.00    -0.205 F 
ATOM     92  C   UNL A   1      47.822  25.704  35.097  1.00  0.00     0.022 A 
BRANCH  90  93
ATOM     93  S   UNL A   1      46.433  23.751  36.425  1.00  0.00     0.127 S 
ATOM     94  O   UNL A   1      45.972  22.672  35.553  1.00  0.00    -0.237 OA
ATOM     95  O   UNL A   1      47.813  23.610  36.892  1.00  0.00    -0.237 OA
ATOM     96  O   UNL A   1      45.492  24.174  37.453  1.00  0.00    -0.744 OA
ENDBRANCH  90  93
ENDBRANCH  63  86
ENDBRANCH  37  38
ENDBRANCH  29  32
ENDBRANCH  27  28
ENDBRANCH  26  27
ENDBRANCH   1  26
TORSDOF 18
ENDMDL
MODEL 3
REMARK VINA RESULT:     -11.3      5.322      8.485
REMARK SMILES C[C@@H]([NH2+]C[C@H]1CCC[C@@H]1C(=O)NCCCNC(=O)c1ccc(-c2c3nc(c(-c4cccc(S(=O)(=O)[O-])c4F)c4ccc([nH]4)c(-c4cccc(S(=O)(=O)[O-])c4F)c4nc(c(-c5cccc(S(=O)(=O)[O-])c5F)c5ccc2[nH]5)C=C4)C=C3)cc1)c1cc(F)ccc1O
REMARK SMILES IDX 13 1 12 2 10 3 11 4 9 6 5 7 6 8 7 9 8 10 4 11 3 12 2 15 1 16
REMARK SMILES IDX 82 17 83 18 88 19 84 20 87 21 85 22 86 23 89 24 14 26 15 27
REMARK SMILES IDX 16 28 17 29 18 31 19 32 20 33 81 34 21 35 80 36 22 37 23 38
REMARK SMILES IDX 24 39 74 40 25 41 79 42 73 43 75 44 26 45 78 46 72 47 71 48
REMARK SMILES IDX 27 50 59 51 39 52 58 53 40 54 43 55 57 56 76 57 41 58 42 59
REMARK SMILES IDX 56 61 77 62 44 63 28 64 29 65 37 66 30 67 32 68 38 69 31 70
REMARK SMILES IDX 33 71 34 72 35 73 36 74 60 75 61 76 69 77 62 78 64 79 70 80
REMARK SMILES IDX 63 81 65 82 66 83 67 84 68 85 45 86 46 87 54 88 47 89 49 90
REMARK SMILES IDX 55 91 48 92 50 93 51 94 52 95 53 96
REMARK H PARENT 12 5 3 13 3 14 89 25 16 30 75 49 43 60
REMARK Flexibility Score: inf
ROOT
ATOM      1  C   UNL A   1      36.608  20.144  24.727  1.00  0.00     0.117 C 
ENDROOT
BRANCH   1   2
ATOM      2  N   UNL A   1      35.372  19.444  24.996  1.00  0.00    -0.356 N 
ATOM      3  C   UNL A   1      34.074  19.819  24.901  1.00  0.00     0.223 C 
ATOM      4  O   UNL A   1      33.233  18.935  25.113  1.00  0.00    -0.275 OA
ATOM      5  H   UNL A   1      35.497  18.518  25.306  1.00  0.00     0.163 HD
BRANCH   3   6
ATOM      6  C   UNL A   1      33.589  21.214  24.497  1.00  0.00     0.087 C 
ATOM      7  C   UNL A   1      33.866  22.267  25.580  1.00  0.00     0.057 C 
ATOM      8  C   UNL A   1      32.527  22.305  26.338  1.00  0.00     0.010 C 
ATOM      9  C   UNL A   1      31.472  22.197  25.232  1.00  0.00     0.001 C 
ATOM     10  C   UNL A   1      32.133  21.408  24.100  1.00  0.00     0.014 C 
BRANCH   7  11
ATOM     11  C   UNL A   1      34.156  23.715  25.113  1.00  0.00     0.265 C 
BRANCH  11  12
ATOM     12  N   UNL A   1      33.869  24.877  25.947  1.00  0.00    -0.340 N 
ATOM     13  H   UNL A   1      33.112  24.613  26.577  1.00  0.00     0.346 HD
ATOM     14  H   UNL A   1      34.766  25.094  26.380  1.00  0.00     0.346 HD
BRANCH  12  15
ATOM     15  C   UNL A   1      33.472  26.142  25.297  1.00  0.00     0.214 C 
ATOM     16  C   UNL A   1      33.733  27.284  26.285  1.00  0.00     0.081 C 
BRANCH  15  17
ATOM     17  C   UNL A   1      32.056  26.250  24.747  1.00  0.00     0.054 A 
ATOM     18  C   UNL A   1      31.814  26.765  23.459  1.00  0.00     0.053 A 
ATOM     19  C   UNL A   1      30.927  25.881  25.507  1.00  0.00     0.124 A 
ATOM     20  C   UNL A   1      30.516  27.041  23.029  1.00  0.00     0.123 A 
ATOM     21  C   UNL A   1      29.626  26.134  25.055  1.00  0.00     0.050 A 
ATOM     22  F   UNL A   1      30.329  27.634  21.842  1.00  0.00    -0.207 F 
ATOM     23  C   UNL A   1      29.419  26.744  23.824  1.00  0.00     0.043 A 
BRANCH  19  24
ATOM     24  O   UNL A   1      30.993  25.309  26.747  1.00  0.00    -0.507 OA
ATOM     25  H   UNL A   1      31.780  25.374  27.251  1.00  0.00     0.293 HD
ENDBRANCH  19  24
ENDBRANCH  15  17
ENDBRANCH  12  15
ENDBRANCH  11  12
ENDBRANCH   7  11
ENDBRANCH   3   6
ENDBRANCH   1   2
BRANCH   1  26
ATOM     26  C   UNL A   1      37.847  19.312  25.018  1.00  0.00     0.042 C 
BRANCH  26  27
ATOM     27  C   UNL A   1      38.921  20.084  25.759  1.00  0.00     0.118 C 
BRANCH  27  28
ATOM     28  N   UNL A   1      40.066  19.242  26.090  1.00  0.00    -0.352 N 
ATOM     29  C   UNL A   1      41.376  19.578  26.315  1.00  0.00     0.251 C 
ATOM     30  H   UNL A   1      39.866  18.282  26.162  1.00  0.00     0.163 HD
ATOM     31  O   UNL A   1      42.237  18.704  26.284  1.00  0.00    -0.269 OA
BRANCH  29  32
ATOM     32  C   UNL A   1      41.742  20.979  26.603  1.00  0.00     0.039 A 
ATOM     33  C   UNL A   1      42.216  21.315  27.873  1.00  0.00     0.014 A 
ATOM     34  C   UNL A   1      41.584  21.968  25.628  1.00  0.00     0.014 A 
ATOM     35  C   UNL A   1      42.578  22.635  28.144  1.00  0.00     0.010 A 
ATOM     36  C   UNL A   1      42.055  23.251  25.861  1.00  0.00     0.010 A 
ATOM     37  C   UNL A   1      42.531  23.605  27.129  1.00  0.00    -0.014 A 
BRANCH  37  38
ATOM     38  C   UNL A   1      42.964  25.000  27.372  1.00  0.00     0.031 A 
ATOM     39  C   UNL A   1      42.026  25.982  28.021  1.00  0.00     0.074 A 
ATOM     40  C   UNL A   1      44.171  25.400  26.928  1.00  0.00     0.049 A 
ATOM     41  N   UNL A   1      42.213  27.249  28.282  1.00  0.00    -0.248 NA
ATOM     42  C   UNL A   1      40.688  25.489  28.392  1.00  0.00     0.031 C 
ATOM     43  C   UNL A   1      45.122  24.560  26.191  1.00  0.00     0.029 A 
ATOM     44  N   UNL A   1      44.797  26.615  27.008  1.00  0.00    -0.354 N 
ATOM     45  C   UNL A   1      41.011  27.709  28.808  1.00  0.00     0.074 A 
ATOM     46  C   UNL A   1      40.086  26.600  28.787  1.00  0.00     0.031 C 
ATOM     47  C   UNL A   1      46.217  25.283  25.905  1.00  0.00     0.029 A 
ATOM     48  C   UNL A   1      46.035  26.638  26.410  1.00  0.00     0.049 A 
ATOM     49  H   UNL A   1      44.399  27.399  27.452  1.00  0.00     0.167 HD
ATOM     50  C   UNL A   1      40.716  28.936  29.300  1.00  0.00     0.034 A 
ATOM     51  C   UNL A   1      46.925  27.642  26.287  1.00  0.00     0.034 A 
ATOM     52  C   UNL A   1      41.661  30.016  29.364  1.00  0.00     0.049 A 
ATOM     53  C   UNL A   1      46.599  28.974  26.906  1.00  0.00     0.074 A 
ATOM     54  C   UNL A   1      41.502  31.268  29.932  1.00  0.00     0.029 A 
ATOM     55  N   UNL A   1      42.944  29.974  28.839  1.00  0.00    -0.354 N 
ATOM     56  N   UNL A   1      45.520  29.341  27.553  1.00  0.00    -0.248 NA
ATOM     57  C   UNL A   1      47.630  30.015  26.813  1.00  0.00     0.031 C 
ATOM     58  C   UNL A   1      42.683  31.990  29.729  1.00  0.00     0.029 A 
ATOM     59  C   UNL A   1      43.586  31.180  29.061  1.00  0.00     0.049 A 
ATOM     60  H   UNL A   1      43.339  29.200  28.376  1.00  0.00     0.167 HD
ATOM     61  C   UNL A   1      45.753  30.644  27.973  1.00  0.00     0.074 A 
ATOM     62  C   UNL A   1      47.089  30.990  27.531  1.00  0.00     0.031 C 
ATOM     63  C   UNL A   1      44.932  31.487  28.649  1.00  0.00     0.034 A 
BRANCH  50  64
ATOM     64  C   UNL A   1      39.334  29.151  29.862  1.00  0.00     0.023 A 
ATOM     65  C   UNL A   1      39.040  28.723  31.173  1.00  0.00     0.012 A 
ATOM     66  C   UNL A   1      38.342  29.819  29.118  1.00  0.00     0.148 A 
ATOM     67  C   UNL A   1      37.773  28.919  31.721  1.00  0.00     0.002 A 
ATOM     68  C   UNL A   1      37.096  30.054  29.687  1.00  0.00     0.091 A 
ATOM     69  F   UNL A   1      38.630  30.199  27.864  1.00  0.00    -0.205 F 
ATOM     70  C   UNL A   1      36.806  29.593  30.982  1.00  0.00     0.022 A 
BRANCH  68  71
ATOM     71  S   UNL A   1      35.806  30.984  28.850  1.00  0.00     0.127 S 
ATOM     72  O   UNL A   1      35.154  29.939  28.062  1.00  0.00    -0.237 OA
ATOM     73  O   UNL A   1      35.014  31.486  29.972  1.00  0.00    -0.237 OA
ATOM     74  O   UNL A   1      36.489  32.013  28.079  1.00  0.00    -0.744 OA
ENDBRANCH  68  71
ENDBRANCH  50  64
BRANCH  51  75
ATOM     75  C   UNL A   1      48.234  27.397  25.621  1.00  0.00     0.023 A 
ATOM     76  C   UNL A   1      49.329  26.953  26.390  1.00  0.00     0.012 A 
ATOM     77  C   UNL A   1      48.394  27.561  24.232  1.00  0.00     0.148 A 
ATOM     78  C   UNL A   1      50.566  26.710  25.793  1.00  0.00     0.002 A 
ATOM     79  C   UNL A   1      49.614  27.262  23.636  1.00  0.00     0.091 A 
ATOM     80  F   UNL A   1      47.343  27.991  23.519  1.00  0.00    -0.205 F 
ATOM     81  C   UNL A   1      50.705  26.855  24.417  1.00  0.00     0.022 A 
BRANCH  79  82
ATOM     82  S   UNL A   1      49.844  27.288  21.854  1.00  0.00     0.127 S 
ATOM     83  O   UNL A   1      48.797  26.376  21.404  1.00  0.00    -0.237 OA
ATOM     84  O   UNL A   1      49.609  28.699  21.540  1.00  0.00    -0.237 OA
ATOM     85  O   UNL A   1      51.212  26.845  21.629  1.00  0.00    -0.744 OA
ENDBRANCH  79  82
ENDBRANCH  51  75
BRANCH  63  86
ATOM     86  C   UNL A   1      45.466  32.857  28.975  1.00  0.00     0.023 A 
ATOM     87  C   UNL A   1      46.195  33.061  30.162  1.00  0.00     0.012 A 
ATOM     88  C   UNL A   1      45.292  33.927  28.076  1.00  0.00     0.148 A 
ATOM     89  C   UNL A   1      46.707  34.319  30.472  1.00  0.00     0.002 A 
ATOM     90  C   UNL A   1      45.850  35.166  28.366  1.00  0.00     0.091 A 
ATOM     91  F   UNL A   1      44.579  33.717  26.959  1.00  0.00    -0.205 F 
ATOM     92  C   UNL A   1      46.545  35.368  29.568  1.00  0.00     0.022 A 
BRANCH  90  93
ATOM     93  S   UNL A   1      45.775  36.542  27.215  1.00  0.00     0.127 S 
ATOM     94  O   UNL A   1      46.467  35.995  26.050  1.00  0.00    -0.237 OA
ATOM     95  O   UNL A   1      44.333  36.723  27.040  1.00  0.00    -0.237 OA
ATOM     96  O   UNL A   1      46.443  37.654  27.878  1.00  0.00    -0.744 OA
ENDBRANCH  90  93
ENDBRANCH  63  86
ENDBRANCH  37  38
ENDBRANCH  29  32
ENDBRANCH  27  28
ENDBRANCH  26  27
ENDBRANCH   1  26
TORSDOF 18
ENDMDL
