MODEL 1
REMARK VINA RESULT:     -12.6      0.000      0.000
REMARK SMILES O=C(NCCCNC(=O)c1[nH]ncc1C[N@H+]1CCC[C@H](C(=O)c2ccc3ccccc3c2)C1)c1ccc(-c2c3nc(c(-c4cccc(S(=O)(=O)[O-])c4F)c4ccc([nH]4)c(-c4cccc(S(=O)(=O)[O-])c4F)c4nc(c(-c5cccc(S(=O)(=O)[O-])c5F)c5ccc2[nH]5)C=C4)C=C3)cc1
REMARK SMILES IDX 5 1 4 2 3 3 1 4 2 5 34 7 35 8 96 9 36 10 95 11 37 12 38 13
REMARK SMILES IDX 39 14 89 15 40 16 94 17 88 18 90 19 41 20 93 21 87 22 86 23
REMARK SMILES IDX 42 25 74 26 54 27 73 28 55 29 58 30 72 31 91 32 56 33 57 34
REMARK SMILES IDX 71 36 92 37 59 38 43 39 44 40 52 41 45 42 47 43 53 44 46 45
REMARK SMILES IDX 48 46 49 47 50 48 51 49 75 50 76 51 84 52 77 53 79 54 85 55
REMARK SMILES IDX 78 56 80 57 81 58 82 59 83 60 60 61 61 62 69 63 62 64 64 65
REMARK SMILES IDX 70 66 63 67 65 68 66 69 67 70 68 71 6 72 7 73 8 74 9 76
REMARK SMILES IDX 10 77 11 78 14 79 12 80 13 82 15 83 16 84 17 85 33 86 18 88
REMARK SMILES IDX 20 89 19 90 21 91 22 92 23 93 24 94 32 95 25 96 31 97 26 98
REMARK SMILES IDX 30 99 27 100 29 101 28 102
REMARK H PARENT 3 6 90 24 58 35 7 75 11 81 16 87
REMARK Flexibility Score: inf
ROOT
ATOM      1  C   UNL A   1      33.562  27.634  26.293  1.00  0.00     0.042 C 
ENDROOT
BRANCH   1   2
ATOM      2  C   UNL A   1      34.174  28.873  25.655  1.00  0.00     0.118 C 
BRANCH   2   3
ATOM      3  N   UNL A   1      33.615  30.113  26.180  1.00  0.00    -0.352 N 
ATOM      4  O   UNL A   1      33.238  31.789  27.624  1.00  0.00    -0.269 OA
ATOM      5  C   UNL A   1      33.992  30.894  27.248  1.00  0.00     0.251 C 
ATOM      6  H   UNL A   1      32.834  30.448  25.684  1.00  0.00     0.163 HD
BRANCH   5   7
ATOM      7  C   UNL A   1      35.265  30.644  27.963  1.00  0.00     0.039 A 
ATOM      8  C   UNL A   1      35.487  29.446  28.635  1.00  0.00     0.014 A 
ATOM      9  C   UNL A   1      36.269  31.618  27.945  1.00  0.00     0.014 A 
ATOM     10  C   UNL A   1      36.598  29.307  29.459  1.00  0.00     0.010 A 
ATOM     11  C   UNL A   1      37.450  31.421  28.672  1.00  0.00     0.010 A 
ATOM     12  C   UNL A   1      37.602  30.288  29.483  1.00  0.00    -0.014 A 
BRANCH  12  13
ATOM     13  C   UNL A   1      38.801  30.064  30.337  1.00  0.00     0.031 A 
ATOM     14  C   UNL A   1      38.892  30.630  31.730  1.00  0.00     0.074 A 
ATOM     15  C   UNL A   1      39.797  29.288  29.863  1.00  0.00     0.049 A 
ATOM     16  N   UNL A   1      39.820  30.437  32.632  1.00  0.00    -0.248 NA
ATOM     17  C   UNL A   1      37.819  31.538  32.167  1.00  0.00     0.031 C 
ATOM     18  C   UNL A   1      39.854  28.727  28.511  1.00  0.00     0.029 A 
ATOM     19  N   UNL A   1      40.932  28.806  30.466  1.00  0.00    -0.354 N 
ATOM     20  C   UNL A   1      39.478  31.237  33.715  1.00  0.00     0.074 A 
ATOM     21  C   UNL A   1      38.253  31.922  33.361  1.00  0.00     0.031 C 
ATOM     22  C   UNL A   1      40.918  27.919  28.410  1.00  0.00     0.029 A 
ATOM     23  C   UNL A   1      41.652  27.944  29.671  1.00  0.00     0.049 A 
ATOM     24  H   UNL A   1      41.204  29.054  31.379  1.00  0.00     0.167 HD
ATOM     25  C   UNL A   1      40.112  31.376  34.904  1.00  0.00     0.034 A 
ATOM     26  C   UNL A   1      42.771  27.239  29.927  1.00  0.00     0.034 A 
ATOM     27  C   UNL A   1      41.286  30.637  35.286  1.00  0.00     0.049 A 
ATOM     28  C   UNL A   1      43.400  27.343  31.286  1.00  0.00     0.074 A 
ATOM     29  C   UNL A   1      41.958  30.657  36.496  1.00  0.00     0.029 A 
ATOM     30  N   UNL A   1      41.956  29.738  34.472  1.00  0.00    -0.354 N 
ATOM     31  N   UNL A   1      42.987  28.011  32.335  1.00  0.00    -0.248 NA
ATOM     32  C   UNL A   1      44.638  26.581  31.504  1.00  0.00     0.031 C 
ATOM     33  C   UNL A   1      43.035  29.766  36.413  1.00  0.00     0.029 A 
ATOM     34  C   UNL A   1      43.032  29.194  35.152  1.00  0.00     0.049 A 
ATOM     35  H   UNL A   1      41.703  29.518  33.547  1.00  0.00     0.167 HD
ATOM     36  C   UNL A   1      43.905  27.742  33.341  1.00  0.00     0.074 A 
ATOM     37  C   UNL A   1      44.877  26.821  32.786  1.00  0.00     0.031 C 
ATOM     38  C   UNL A   1      43.957  28.237  34.602  1.00  0.00     0.034 A 
BRANCH  25  39
ATOM     39  C   UNL A   1      39.520  32.328  35.909  1.00  0.00     0.023 A 
ATOM     40  C   UNL A   1      38.555  31.859  36.822  1.00  0.00     0.012 A 
ATOM     41  C   UNL A   1      39.965  33.662  35.996  1.00  0.00     0.148 A 
ATOM     42  C   UNL A   1      38.025  32.708  37.793  1.00  0.00     0.002 A 
ATOM     43  C   UNL A   1      39.456  34.493  36.988  1.00  0.00     0.091 A 
ATOM     44  F   UNL A   1      40.862  34.100  35.101  1.00  0.00    -0.205 F 
ATOM     45  C   UNL A   1      38.483  34.020  37.884  1.00  0.00     0.022 A 
BRANCH  43  46
ATOM     46  S   UNL A   1      40.042  36.177  37.213  1.00  0.00     0.127 S 
ATOM     47  O   UNL A   1      41.467  35.965  37.460  1.00  0.00    -0.237 OA
ATOM     48  O   UNL A   1      39.733  36.795  35.922  1.00  0.00    -0.237 OA
ATOM     49  O   UNL A   1      39.276  36.711  38.331  1.00  0.00    -0.744 OA
ENDBRANCH  43  46
ENDBRANCH  25  39
BRANCH  26  50
ATOM     50  C   UNL A   1      43.305  26.307  28.894  1.00  0.00     0.023 A 
ATOM     51  C   UNL A   1      42.842  24.977  28.862  1.00  0.00     0.012 A 
ATOM     52  C   UNL A   1      44.204  26.744  27.903  1.00  0.00     0.148 A 
ATOM     53  C   UNL A   1      43.275  24.098  27.869  1.00  0.00     0.002 A 
ATOM     54  C   UNL A   1      44.583  25.880  26.882  1.00  0.00     0.091 A 
ATOM     55  F   UNL A   1      44.656  28.006  27.962  1.00  0.00    -0.205 F 
ATOM     56  C   UNL A   1      44.132  24.553  26.870  1.00  0.00     0.022 A 
BRANCH  54  57
ATOM     57  S   UNL A   1      45.550  26.457  25.481  1.00  0.00     0.127 S 
ATOM     58  O   UNL A   1      45.590  25.269  24.633  1.00  0.00    -0.237 OA
ATOM     59  O   UNL A   1      44.732  27.556  24.965  1.00  0.00    -0.237 OA
ATOM     60  O   UNL A   1      46.820  26.885  26.055  1.00  0.00    -0.744 OA
ENDBRANCH  54  57
ENDBRANCH  26  50
BRANCH  38  61
ATOM     61  C   UNL A   1      45.099  27.791  35.470  1.00  0.00     0.023 A 
ATOM     62  C   UNL A   1      46.308  28.514  35.442  1.00  0.00     0.012 A 
ATOM     63  C   UNL A   1      44.962  26.705  36.355  1.00  0.00     0.148 A 
ATOM     64  C   UNL A   1      47.373  28.146  36.263  1.00  0.00     0.002 A 
ATOM     65  C   UNL A   1      46.015  26.366  37.197  1.00  0.00     0.091 A 
ATOM     66  F   UNL A   1      43.814  26.011  36.349  1.00  0.00    -0.205 F 
ATOM     67  C   UNL A   1      47.223  27.080  37.148  1.00  0.00     0.022 A 
BRANCH  65  68
ATOM     68  S   UNL A   1      45.857  25.055  38.415  1.00  0.00     0.127 S 
ATOM     69  O   UNL A   1      47.229  24.929  38.901  1.00  0.00    -0.237 OA
ATOM     70  O   UNL A   1      44.919  25.627  39.383  1.00  0.00    -0.237 OA
ATOM     71  O   UNL A   1      45.331  23.911  37.681  1.00  0.00    -0.744 OA
ENDBRANCH  65  68
ENDBRANCH  38  61
ENDBRANCH  12  13
ENDBRANCH   5   7
ENDBRANCH   2   3
ENDBRANCH   1   2
BRANCH   1  72
ATOM     72  C   UNL A   1      33.668  26.396  25.417  1.00  0.00     0.118 C 
BRANCH  72  73
ATOM     73  N   UNL A   1      33.979  26.726  24.032  1.00  0.00    -0.351 N 
ATOM     74  C   UNL A   1      33.134  26.913  22.969  1.00  0.00     0.269 C 
ATOM     75  H   UNL A   1      34.937  26.831  23.830  1.00  0.00     0.163 HD
ATOM     76  O   UNL A   1      33.603  26.888  21.834  1.00  0.00    -0.268 OA
BRANCH  74  77
ATOM     77  C   UNL A   1      31.734  27.097  23.213  1.00  0.00     0.131 A 
ATOM     78  N   UNL A   1      31.227  28.297  23.629  1.00  0.00    -0.272 N 
ATOM     79  C   UNL A   1      30.657  26.217  23.206  1.00  0.00     0.057 A 
ATOM     80  N   UNL A   1      29.890  28.307  23.750  1.00  0.00    -0.183 NA
ATOM     81  H   UNL A   1      31.791  29.081  23.823  1.00  0.00     0.190 HD
ATOM     82  C   UNL A   1      29.545  27.047  23.482  1.00  0.00     0.145 A 
BRANCH  79  83
ATOM     83  C   UNL A   1      30.683  24.744  22.951  1.00  0.00     0.303 C 
BRANCH  83  84
ATOM     84  N   UNL A   1      31.596  23.987  23.812  1.00  0.00    -0.330 N 
ATOM     85  C   UNL A   1      31.059  23.694  25.142  1.00  0.00     0.262 C 
ATOM     86  C   UNL A   1      32.176  22.815  23.162  1.00  0.00     0.274 C 
ATOM     87  H   UNL A   1      32.374  24.626  23.975  1.00  0.00     0.348 HD
ATOM     88  C   UNL A   1      32.159  23.186  26.066  1.00  0.00     0.062 C 
ATOM     89  C   UNL A   1      33.333  22.238  23.981  1.00  0.00     0.116 C 
ATOM     90  C   UNL A   1      32.964  22.039  25.455  1.00  0.00     0.023 C 
BRANCH  89  91
ATOM     91  C   UNL A   1      34.645  22.968  23.669  1.00  0.00     0.171 C 
ATOM     92  O   UNL A   1      34.678  23.899  22.862  1.00  0.00    -0.294 OA
BRANCH  91  93
ATOM     93  C   UNL A   1      35.893  22.665  24.403  1.00  0.00     0.019 A 
ATOM     94  C   UNL A   1      36.505  21.419  24.290  1.00  0.00     0.012 A 
ATOM     95  C   UNL A   1      36.508  23.687  25.136  1.00  0.00     0.020 A 
ATOM     96  C   UNL A   1      37.682  21.158  24.994  1.00  0.00     0.009 A 
ATOM     97  C   UNL A   1      37.711  23.446  25.823  1.00  0.00    -0.018 A 
ATOM     98  C   UNL A   1      38.292  22.157  25.769  1.00  0.00    -0.018 A 
ATOM     99  C   UNL A   1      38.354  24.454  26.561  1.00  0.00     0.009 A 
ATOM    100  C   UNL A   1      39.476  21.904  26.479  1.00  0.00     0.009 A 
ATOM    101  C   UNL A   1      39.538  24.189  27.252  1.00  0.00     0.001 A 
ATOM    102  C   UNL A   1      40.094  22.914  27.217  1.00  0.00     0.001 A 
ENDBRANCH  91  93
ENDBRANCH  89  91
ENDBRANCH  83  84
ENDBRANCH  79  83
ENDBRANCH  74  77
ENDBRANCH  72  73
ENDBRANCH   1  72
TORSDOF 17
ENDMDL
MODEL 2
REMARK VINA RESULT:     -12.2      1.939      2.807
REMARK SMILES O=C(NCCCNC(=O)c1[nH]ncc1C[N@H+]1CCC[C@H](C(=O)c2ccc3ccccc3c2)C1)c1ccc(-c2c3nc(c(-c4cccc(S(=O)(=O)[O-])c4F)c4ccc([nH]4)c(-c4cccc(S(=O)(=O)[O-])c4F)c4nc(c(-c5cccc(S(=O)(=O)[O-])c5F)c5ccc2[nH]5)C=C4)C=C3)cc1
REMARK SMILES IDX 5 1 4 2 3 3 1 4 2 5 34 7 35 8 96 9 36 10 95 11 37 12 38 13
REMARK SMILES IDX 39 14 89 15 40 16 94 17 88 18 90 19 41 20 93 21 87 22 86 23
REMARK SMILES IDX 42 25 74 26 54 27 73 28 55 29 58 30 72 31 91 32 56 33 57 34
REMARK SMILES IDX 71 36 92 37 59 38 43 39 44 40 52 41 45 42 47 43 53 44 46 45
REMARK SMILES IDX 48 46 49 47 50 48 51 49 75 50 76 51 84 52 77 53 79 54 85 55
REMARK SMILES IDX 78 56 80 57 81 58 82 59 83 60 60 61 61 62 69 63 62 64 64 65
REMARK SMILES IDX 70 66 63 67 65 68 66 69 67 70 68 71 6 72 7 73 8 74 9 76
REMARK SMILES IDX 10 77 11 78 14 79 12 80 13 82 15 83 16 84 17 85 33 86 18 88
REMARK SMILES IDX 20 89 19 90 21 91 22 92 23 93 24 94 32 95 25 96 31 97 26 98
REMARK SMILES IDX 30 99 27 100 29 101 28 102
REMARK H PARENT 3 6 90 24 58 35 7 75 11 81 16 87
REMARK Flexibility Score: inf
ROOT
ATOM      1  C   UNL A   1      31.649  31.653  26.426  1.00  0.00     0.042 C 
ENDROOT
BRANCH   1   2
ATOM      2  C   UNL A   1      32.782  32.234  27.258  1.00  0.00     0.118 C 
BRANCH   2   3
ATOM      3  N   UNL A   1      32.555  33.627  27.626  1.00  0.00    -0.352 N 
ATOM      4  O   UNL A   1      32.653  35.508  28.846  1.00  0.00    -0.269 OA
ATOM      5  C   UNL A   1      33.156  34.421  28.575  1.00  0.00     0.251 C 
ATOM      6  H   UNL A   1      31.851  34.075  27.105  1.00  0.00     0.163 HD
BRANCH   5   7
ATOM      7  C   UNL A   1      34.369  33.964  29.294  1.00  0.00     0.039 A 
ATOM      8  C   UNL A   1      35.636  34.394  28.909  1.00  0.00     0.014 A 
ATOM      9  C   UNL A   1      34.239  33.106  30.390  1.00  0.00     0.014 A 
ATOM     10  C   UNL A   1      36.766  33.806  29.463  1.00  0.00     0.010 A 
ATOM     11  C   UNL A   1      35.381  32.615  31.036  1.00  0.00     0.010 A 
ATOM     12  C   UNL A   1      36.658  32.915  30.543  1.00  0.00    -0.014 A 
BRANCH  12  13
ATOM     13  C   UNL A   1      37.903  32.359  31.141  1.00  0.00     0.031 A 
ATOM     14  C   UNL A   1      38.411  32.829  32.478  1.00  0.00     0.074 A 
ATOM     15  C   UNL A   1      38.551  31.373  30.487  1.00  0.00     0.049 A 
ATOM     16  N   UNL A   1      39.418  32.371  33.178  1.00  0.00    -0.248 NA
ATOM     17  C   UNL A   1      37.718  33.964  33.110  1.00  0.00     0.031 C 
ATOM     18  C   UNL A   1      38.192  30.869  29.159  1.00  0.00     0.029 A 
ATOM     19  N   UNL A   1      39.619  30.595  30.856  1.00  0.00    -0.354 N 
ATOM     20  C   UNL A   1      39.516  33.190  34.296  1.00  0.00     0.074 A 
ATOM     21  C   UNL A   1      38.464  34.178  34.186  1.00  0.00     0.031 C 
ATOM     22  C   UNL A   1      38.970  29.820  28.858  1.00  0.00     0.029 A 
ATOM     23  C   UNL A   1      39.920  29.609  29.944  1.00  0.00     0.049 A 
ATOM     24  H   UNL A   1      40.122  30.729  31.692  1.00  0.00     0.167 HD
ATOM     25  C   UNL A   1      40.387  33.117  35.331  1.00  0.00     0.034 A 
ATOM     26  C   UNL A   1      40.847  28.632  29.980  1.00  0.00     0.034 A 
ATOM     27  C   UNL A   1      41.383  32.089  35.479  1.00  0.00     0.049 A 
ATOM     28  C   UNL A   1      41.738  28.519  31.183  1.00  0.00     0.074 A 
ATOM     29  C   UNL A   1      42.263  31.889  36.528  1.00  0.00     0.029 A 
ATOM     30  N   UNL A   1      41.622  31.080  34.559  1.00  0.00    -0.354 N 
ATOM     31  N   UNL A   1      41.728  29.230  32.283  1.00  0.00    -0.248 NA
ATOM     32  C   UNL A   1      42.755  27.458  31.157  1.00  0.00     0.031 C 
ATOM     33  C   UNL A   1      43.035  30.757  36.242  1.00  0.00     0.029 A 
ATOM     34  C   UNL A   1      42.635  30.254  35.016  1.00  0.00     0.049 A 
ATOM     35  H   UNL A   1      41.143  30.967  33.707  1.00  0.00     0.167 HD
ATOM     36  C   UNL A   1      42.726  28.697  33.088  1.00  0.00     0.074 A 
ATOM     37  C   UNL A   1      43.298  27.580  32.362  1.00  0.00     0.031 C 
ATOM     38  C   UNL A   1      43.153  29.113  34.305  1.00  0.00     0.034 A 
BRANCH  25  39
ATOM     39  C   UNL A   1      40.272  34.149  36.421  1.00  0.00     0.023 A 
ATOM     40  C   UNL A   1      40.647  35.481  36.153  1.00  0.00     0.012 A 
ATOM     41  C   UNL A   1      39.734  33.820  37.680  1.00  0.00     0.148 A 
ATOM     42  C   UNL A   1      40.507  36.467  37.131  1.00  0.00     0.002 A 
ATOM     43  C   UNL A   1      39.566  34.816  38.637  1.00  0.00     0.091 A 
ATOM     44  F   UNL A   1      39.410  32.543  37.926  1.00  0.00    -0.205 F 
ATOM     45  C   UNL A   1      39.956  36.136  38.367  1.00  0.00     0.022 A 
BRANCH  43  46
ATOM     46  S   UNL A   1      38.804  34.485  40.231  1.00  0.00     0.127 S 
ATOM     47  O   UNL A   1      38.600  35.837  40.748  1.00  0.00    -0.237 OA
ATOM     48  O   UNL A   1      37.573  33.786  39.854  1.00  0.00    -0.237 OA
ATOM     49  O   UNL A   1      39.761  33.664  40.958  1.00  0.00    -0.744 OA
ENDBRANCH  43  46
ENDBRANCH  25  39
BRANCH  26  50
ATOM     50  C   UNL A   1      40.906  27.635  28.874  1.00  0.00     0.023 A 
ATOM     51  C   UNL A   1      39.939  26.612  28.817  1.00  0.00     0.012 A 
ATOM     52  C   UNL A   1      41.860  27.734  27.844  1.00  0.00     0.148 A 
ATOM     53  C   UNL A   1      39.930  25.701  27.760  1.00  0.00     0.002 A 
ATOM     54  C   UNL A   1      41.807  26.861  26.763  1.00  0.00     0.091 A 
ATOM     55  F   UNL A   1      42.791  28.697  27.926  1.00  0.00    -0.205 F 
ATOM     56  C   UNL A   1      40.853  25.835  26.725  1.00  0.00     0.022 A 
BRANCH  54  57
ATOM     57  S   UNL A   1      42.861  27.088  25.326  1.00  0.00     0.127 S 
ATOM     58  O   UNL A   1      42.635  25.850  24.587  1.00  0.00    -0.237 OA
ATOM     59  O   UNL A   1      42.297  28.289  24.707  1.00  0.00    -0.237 OA
ATOM     60  O   UNL A   1      44.200  27.279  25.871  1.00  0.00    -0.744 OA
ENDBRANCH  54  57
ENDBRANCH  26  50
BRANCH  38  61
ATOM     61  C   UNL A   1      44.290  28.357  34.932  1.00  0.00     0.023 A 
ATOM     62  C   UNL A   1      45.591  28.895  34.867  1.00  0.00     0.012 A 
ATOM     63  C   UNL A   1      44.070  27.158  35.634  1.00  0.00     0.148 A 
ATOM     64  C   UNL A   1      46.661  28.234  35.470  1.00  0.00     0.002 A 
ATOM     65  C   UNL A   1      45.135  26.524  36.264  1.00  0.00     0.091 A 
ATOM     66  F   UNL A   1      42.829  26.647  35.662  1.00  0.00    -0.205 F 
ATOM     67  C   UNL A   1      46.431  27.056  36.178  1.00  0.00     0.022 A 
BRANCH  65  68
ATOM     68  S   UNL A   1      44.891  25.047  37.258  1.00  0.00     0.127 S 
ATOM     69  O   UNL A   1      44.471  24.074  36.252  1.00  0.00    -0.237 OA
ATOM     70  O   UNL A   1      46.224  24.810  37.815  1.00  0.00    -0.237 OA
ATOM     71  O   UNL A   1      43.888  25.414  38.249  1.00  0.00    -0.744 OA
ENDBRANCH  65  68
ENDBRANCH  38  61
ENDBRANCH  12  13
ENDBRANCH   5   7
ENDBRANCH   2   3
ENDBRANCH   1   2
BRANCH   1  72
ATOM     72  C   UNL A   1      31.711  30.139  26.306  1.00  0.00     0.118 C 
BRANCH  72  73
ATOM     73  N   UNL A   1      32.848  29.695  25.511  1.00  0.00    -0.351 N 
ATOM     74  C   UNL A   1      32.871  28.958  24.355  1.00  0.00     0.269 C 
ATOM     75  H   UNL A   1      33.731  29.965  25.853  1.00  0.00     0.163 HD
ATOM     76  O   UNL A   1      33.929  28.441  24.009  1.00  0.00    -0.268 OA
BRANCH  74  77
ATOM     77  C   UNL A   1      31.658  28.790  23.610  1.00  0.00     0.131 A 
ATOM     78  N   UNL A   1      31.339  29.603  22.558  1.00  0.00    -0.272 N 
ATOM     79  C   UNL A   1      30.563  27.948  23.779  1.00  0.00     0.057 A 
ATOM     80  N   UNL A   1      30.198  29.264  21.939  1.00  0.00    -0.183 NA
ATOM     81  H   UNL A   1      31.896  30.367  22.281  1.00  0.00     0.190 HD
ATOM     82  C   UNL A   1      29.733  28.253  22.674  1.00  0.00     0.145 A 
BRANCH  79  83
ATOM     83  C   UNL A   1      30.336  26.952  24.871  1.00  0.00     0.303 C 
BRANCH  83  84
ATOM     84  N   UNL A   1      30.937  25.636  24.636  1.00  0.00    -0.330 N 
ATOM     85  C   UNL A   1      30.569  24.625  25.629  1.00  0.00     0.262 C 
ATOM     86  C   UNL A   1      30.792  25.163  23.262  1.00  0.00     0.274 C 
ATOM     87  H   UNL A   1      31.936  25.789  24.771  1.00  0.00     0.348 HD
ATOM     88  C   UNL A   1      31.457  23.394  25.498  1.00  0.00     0.062 C 
ATOM     89  C   UNL A   1      31.681  23.946  22.995  1.00  0.00     0.116 C 
ATOM     90  C   UNL A   1      31.527  22.863  24.067  1.00  0.00     0.023 C 
BRANCH  89  91
ATOM     91  C   UNL A   1      33.103  24.377  22.617  1.00  0.00     0.171 C 
ATOM     92  O   UNL A   1      33.326  24.986  21.569  1.00  0.00    -0.294 OA
BRANCH  91  93
ATOM     93  C   UNL A   1      34.241  24.184  23.543  1.00  0.00     0.019 A 
ATOM     94  C   UNL A   1      34.457  25.061  24.603  1.00  0.00     0.012 A 
ATOM     95  C   UNL A   1      35.041  23.044  23.399  1.00  0.00     0.020 A 
ATOM     96  C   UNL A   1      35.539  24.858  25.462  1.00  0.00     0.009 A 
ATOM     97  C   UNL A   1      36.113  22.811  24.277  1.00  0.00    -0.018 A 
ATOM     98  C   UNL A   1      36.379  23.744  25.308  1.00  0.00    -0.018 A 
ATOM     99  C   UNL A   1      36.929  21.673  24.161  1.00  0.00     0.009 A 
ATOM    100  C   UNL A   1      37.468  23.531  26.167  1.00  0.00     0.009 A 
ATOM    101  C   UNL A   1      38.001  21.470  25.032  1.00  0.00     0.001 A 
ATOM    102  C   UNL A   1      38.275  22.402  26.029  1.00  0.00     0.001 A 
ENDBRANCH  91  93
ENDBRANCH  89  91
ENDBRANCH  83  84
ENDBRANCH  79  83
ENDBRANCH  74  77
ENDBRANCH  72  73
ENDBRANCH   1  72
TORSDOF 17
ENDMDL
MODEL 3
REMARK VINA RESULT:     -12.2      2.626      3.812
REMARK SMILES O=C(NCCCNC(=O)c1[nH]ncc1C[N@H+]1CCC[C@H](C(=O)c2ccc3ccccc3c2)C1)c1ccc(-c2c3nc(c(-c4cccc(S(=O)(=O)[O-])c4F)c4ccc([nH]4)c(-c4cccc(S(=O)(=O)[O-])c4F)c4nc(c(-c5cccc(S(=O)(=O)[O-])c5F)c5ccc2[nH]5)C=C4)C=C3)cc1
REMARK SMILES IDX 5 1 4 2 3 3 1 4 2 5 34 7 35 8 96 9 36 10 95 11 37 12 38 13
REMARK SMILES IDX 39 14 89 15 40 16 94 17 88 18 90 19 41 20 93 21 87 22 86 23
REMARK SMILES IDX 42 25 74 26 54 27 73 28 55 29 58 30 72 31 91 32 56 33 57 34
REMARK SMILES IDX 71 36 92 37 59 38 43 39 44 40 52 41 45 42 47 43 53 44 46 45
REMARK SMILES IDX 48 46 49 47 50 48 51 49 75 50 76 51 84 52 77 53 79 54 85 55
REMARK SMILES IDX 78 56 80 57 81 58 82 59 83 60 60 61 61 62 69 63 62 64 64 65
REMARK SMILES IDX 70 66 63 67 65 68 66 69 67 70 68 71 6 72 7 73 8 74 9 76
REMARK SMILES IDX 10 77 11 78 14 79 12 80 13 82 15 83 16 84 17 85 33 86 18 88
REMARK SMILES IDX 20 89 19 90 21 91 22 92 23 93 24 94 32 95 25 96 31 97 26 98
REMARK SMILES IDX 30 99 27 100 29 101 28 102
REMARK H PARENT 3 6 90 24 58 35 7 75 11 81 16 87
REMARK Flexibility Score: inf
ROOT
ATOM      1  C   UNL A   1      31.394  31.884  26.492  1.00  0.00     0.042 C 
ENDROOT
BRANCH   1   2
ATOM      2  C   UNL A   1      32.641  32.383  27.208  1.00  0.00     0.118 C 
BRANCH   2   3
ATOM      3  N   UNL A   1      32.530  33.774  27.632  1.00  0.00    -0.352 N 
ATOM      4  O   UNL A   1      32.804  35.596  28.913  1.00  0.00    -0.269 OA
ATOM      5  C   UNL A   1      33.217  34.485  28.589  1.00  0.00     0.251 C 
ATOM      6  H   UNL A   1      31.846  34.292  27.150  1.00  0.00     0.163 HD
BRANCH   5   7
ATOM      7  C   UNL A   1      34.412  33.913  29.251  1.00  0.00     0.039 A 
ATOM      8  C   UNL A   1      35.687  34.396  28.973  1.00  0.00     0.014 A 
ATOM      9  C   UNL A   1      34.256  32.886  30.188  1.00  0.00     0.014 A 
ATOM     10  C   UNL A   1      36.805  33.723  29.451  1.00  0.00     0.010 A 
ATOM     11  C   UNL A   1      35.383  32.293  30.772  1.00  0.00     0.010 A 
ATOM     12  C   UNL A   1      36.671  32.666  30.366  1.00  0.00    -0.014 A 
BRANCH  12  13
ATOM     13  C   UNL A   1      37.902  32.016  30.894  1.00  0.00     0.031 A 
ATOM     14  C   UNL A   1      38.398  32.288  32.290  1.00  0.00     0.074 A 
ATOM     15  C   UNL A   1      38.547  31.123  30.116  1.00  0.00     0.049 A 
ATOM     16  N   UNL A   1      39.390  31.723  32.930  1.00  0.00    -0.248 NA
ATOM     17  C   UNL A   1      37.709  33.331  33.067  1.00  0.00     0.031 C 
ATOM     18  C   UNL A   1      38.200  30.814  28.727  1.00  0.00     0.029 A 
ATOM     19  N   UNL A   1      39.602  30.288  30.385  1.00  0.00    -0.354 N 
ATOM     20  C   UNL A   1      39.483  32.377  34.153  1.00  0.00     0.074 A 
ATOM     21  C   UNL A   1      38.443  33.383  34.171  1.00  0.00     0.031 C 
ATOM     22  C   UNL A   1      38.970  29.808  28.291  1.00  0.00     0.029 A 
ATOM     23  C   UNL A   1      39.904  29.435  29.347  1.00  0.00     0.049 A 
ATOM     24  H   UNL A   1      40.095  30.297  31.237  1.00  0.00     0.167 HD
ATOM     25  C   UNL A   1      40.339  32.148  35.178  1.00  0.00     0.034 A 
ATOM     26  C   UNL A   1      40.819  28.451  29.256  1.00  0.00     0.034 A 
ATOM     27  C   UNL A   1      41.321  31.096  35.191  1.00  0.00     0.049 A 
ATOM     28  C   UNL A   1      41.694  28.159  30.442  1.00  0.00     0.074 A 
ATOM     29  C   UNL A   1      42.186  30.741  36.212  1.00  0.00     0.029 A 
ATOM     30  N   UNL A   1      41.562  30.223  34.142  1.00  0.00    -0.354 N 
ATOM     31  N   UNL A   1      41.677  28.709  31.631  1.00  0.00    -0.248 NA
ATOM     32  C   UNL A   1      42.699  27.100  30.279  1.00  0.00     0.031 C 
ATOM     33  C   UNL A   1      42.948  29.650  35.780  1.00  0.00     0.029 A 
ATOM     34  C   UNL A   1      42.559  29.328  34.490  1.00  0.00     0.049 A 
ATOM     35  H   UNL A   1      41.092  30.237  33.277  1.00  0.00     0.167 HD
ATOM     36  C   UNL A   1      42.658  28.056  32.364  1.00  0.00     0.074 A 
ATOM     37  C   UNL A   1      43.227  27.045  31.495  1.00  0.00     0.031 C 
ATOM     38  C   UNL A   1      43.074  28.292  33.632  1.00  0.00     0.034 A 
BRANCH  25  39
ATOM     39  C   UNL A   1      40.222  33.019  36.400  1.00  0.00     0.023 A 
ATOM     40  C   UNL A   1      40.941  34.229  36.458  1.00  0.00     0.012 A 
ATOM     41  C   UNL A   1      39.353  32.677  37.455  1.00  0.00     0.148 A 
ATOM     42  C   UNL A   1      40.814  35.077  37.558  1.00  0.00     0.002 A 
ATOM     43  C   UNL A   1      39.207  33.545  38.533  1.00  0.00     0.091 A 
ATOM     44  F   UNL A   1      38.699  31.509  37.396  1.00  0.00    -0.205 F 
ATOM     45  C   UNL A   1      39.939  34.741  38.589  1.00  0.00     0.022 A 
BRANCH  43  46
ATOM     46  S   UNL A   1      38.051  33.216  39.869  1.00  0.00     0.127 S 
ATOM     47  O   UNL A   1      38.167  34.435  40.667  1.00  0.00    -0.237 OA
ATOM     48  O   UNL A   1      36.778  33.071  39.159  1.00  0.00    -0.237 OA
ATOM     49  O   UNL A   1      38.525  31.994  40.503  1.00  0.00    -0.744 OA
ENDBRANCH  43  46
ENDBRANCH  25  39
BRANCH  26  50
ATOM     50  C   UNL A   1      40.882  27.617  28.023  1.00  0.00     0.023 A 
ATOM     51  C   UNL A   1      41.581  28.102  26.900  1.00  0.00     0.012 A 
ATOM     52  C   UNL A   1      40.323  26.326  27.977  1.00  0.00     0.148 A 
ATOM     53  C   UNL A   1      41.711  27.320  25.752  1.00  0.00     0.002 A 
ATOM     54  C   UNL A   1      40.509  25.529  26.854  1.00  0.00     0.091 A 
ATOM     55  F   UNL A   1      39.638  25.889  29.044  1.00  0.00    -0.205 F 
ATOM     56  C   UNL A   1      41.190  26.028  25.734  1.00  0.00     0.022 A 
BRANCH  54  57
ATOM     57  S   UNL A   1      40.006  23.805  26.837  1.00  0.00     0.127 S 
ATOM     58  O   UNL A   1      38.657  23.889  26.288  1.00  0.00    -0.237 OA
ATOM     59  O   UNL A   1      40.997  23.195  25.948  1.00  0.00    -0.237 OA
ATOM     60  O   UNL A   1      40.113  23.371  28.225  1.00  0.00    -0.744 OA
ENDBRANCH  54  57
ENDBRANCH  26  50
BRANCH  38  61
ATOM     61  C   UNL A   1      44.194  27.442  34.160  1.00  0.00     0.023 A 
ATOM     62  C   UNL A   1      45.521  27.903  34.046  1.00  0.00     0.012 A 
ATOM     63  C   UNL A   1      43.939  26.225  34.819  1.00  0.00     0.148 A 
ATOM     64  C   UNL A   1      46.578  27.153  34.558  1.00  0.00     0.002 A 
ATOM     65  C   UNL A   1      44.994  25.500  35.360  1.00  0.00     0.091 A 
ATOM     66  F   UNL A   1      42.672  25.788  34.895  1.00  0.00    -0.205 F 
ATOM     67  C   UNL A   1      46.315  25.958  35.225  1.00  0.00     0.022 A 
BRANCH  65  68
ATOM     68  S   UNL A   1      44.713  23.995  36.300  1.00  0.00     0.127 S 
ATOM     69  O   UNL A   1      44.242  24.522  37.578  1.00  0.00    -0.237 OA
ATOM     70  O   UNL A   1      43.689  23.309  35.510  1.00  0.00    -0.237 OA
ATOM     71  O   UNL A   1      46.001  23.313  36.325  1.00  0.00    -0.744 OA
ENDBRANCH  65  68
ENDBRANCH  38  61
ENDBRANCH  12  13
ENDBRANCH   5   7
ENDBRANCH   2   3
ENDBRANCH   1   2
BRANCH   1  72
ATOM     72  C   UNL A   1      31.581  30.523  25.843  1.00  0.00     0.118 C 
BRANCH  72  73
ATOM     73  N   UNL A   1      32.680  29.774  26.441  1.00  0.00    -0.351 N 
ATOM     74  C   UNL A   1      33.405  28.730  25.929  1.00  0.00     0.269 C 
ATOM     75  H   UNL A   1      32.940  30.061  27.346  1.00  0.00     0.163 HD
ATOM     76  O   UNL A   1      34.079  28.050  26.697  1.00  0.00    -0.268 OA
BRANCH  74  77
ATOM     77  C   UNL A   1      33.327  28.448  24.525  1.00  0.00     0.131 A 
ATOM     78  N   UNL A   1      34.221  28.974  23.634  1.00  0.00    -0.272 N 
ATOM     79  C   UNL A   1      32.399  27.750  23.759  1.00  0.00     0.057 A 
ATOM     80  N   UNL A   1      34.036  28.555  22.372  1.00  0.00    -0.183 NA
ATOM     81  H   UNL A   1      34.934  29.602  23.894  1.00  0.00     0.190 HD
ATOM     82  C   UNL A   1      32.937  27.804  22.452  1.00  0.00     0.145 A 
BRANCH  79  83
ATOM     83  C   UNL A   1      31.140  27.092  24.226  1.00  0.00     0.303 C 
BRANCH  83  84
ATOM     84  N   UNL A   1      31.314  25.735  24.751  1.00  0.00    -0.330 N 
ATOM     85  C   UNL A   1      31.109  25.622  26.196  1.00  0.00     0.262 C 
ATOM     86  C   UNL A   1      30.591  24.718  23.992  1.00  0.00     0.274 C 
ATOM     87  H   UNL A   1      32.303  25.535  24.607  1.00  0.00     0.348 HD
ATOM     88  C   UNL A   1      31.599  24.272  26.705  1.00  0.00     0.062 C 
ATOM     89  C   UNL A   1      31.036  23.307  24.387  1.00  0.00     0.116 C 
ATOM     90  C   UNL A   1      31.038  23.097  25.904  1.00  0.00     0.023 C 
BRANCH  89  91
ATOM     91  C   UNL A   1      32.289  22.889  23.609  1.00  0.00     0.171 C 
ATOM     92  O   UNL A   1      32.804  23.642  22.780  1.00  0.00    -0.294 OA
BRANCH  91  93
ATOM     93  C   UNL A   1      32.996  21.623  23.903  1.00  0.00     0.019 A 
ATOM     94  C   UNL A   1      34.111  21.603  24.738  1.00  0.00     0.012 A 
ATOM     95  C   UNL A   1      32.465  20.425  23.411  1.00  0.00     0.020 A 
ATOM     96  C   UNL A   1      34.761  20.395  24.999  1.00  0.00     0.009 A 
ATOM     97  C   UNL A   1      33.091  19.199  23.694  1.00  0.00    -0.018 A 
ATOM     98  C   UNL A   1      34.268  19.188  24.479  1.00  0.00    -0.018 A 
ATOM     99  C   UNL A   1      32.578  17.981  23.218  1.00  0.00     0.009 A 
ATOM    100  C   UNL A   1      34.914  17.969  24.737  1.00  0.00     0.009 A 
ATOM    101  C   UNL A   1      33.226  16.775  23.495  1.00  0.00     0.001 A 
ATOM    102  C   UNL A   1      34.397  16.770  24.247  1.00  0.00     0.001 A 
ENDBRANCH  91  93
ENDBRANCH  89  91
ENDBRANCH  83  84
ENDBRANCH  79  83
ENDBRANCH  74  77
ENDBRANCH  72  73
ENDBRANCH   1  72
TORSDOF 17
ENDMDL
