MODEL 1
REMARK VINA RESULT:     -11.9      0.000      0.000
REMARK SMILES N#Cc1ccc(C(F)(F)F)nc1N1CCOC[C@H]1C(=O)NCCCNC(=O)c1ccc(-c2c3nc(c(-c4cccc(S(=O)(=O)[O-])c4F)c4ccc([nH]4)c(-c4cccc(S(=O)(=O)[O-])c4F)c4nc(c(-c5cccc(S(=O)(=O)[O-])c5F)c5ccc2[nH]5)C=C4)C=C3)cc1
REMARK SMILES IDX 23 1 22 2 21 3 19 4 20 5 18 7 13 8 14 9 15 10 17 11 16 12
REMARK SMILES IDX 12 13 3 14 4 15 5 16 11 17 6 18 2 19 1 20 7 21 8 22 9 23
REMARK SMILES IDX 10 24 24 25 25 26 26 27 27 29 28 30 29 31 90 32 30 33 89 34
REMARK SMILES IDX 31 35 32 36 33 37 83 38 34 39 88 40 82 41 84 42 35 43 87 44
REMARK SMILES IDX 81 45 80 46 36 48 68 49 48 50 67 51 49 52 52 53 66 54 85 55
REMARK SMILES IDX 50 56 51 57 65 59 86 60 53 61 37 62 38 63 46 64 39 65 41 66
REMARK SMILES IDX 47 67 40 68 42 69 43 70 44 71 45 72 69 73 70 74 78 75 71 76
REMARK SMILES IDX 73 77 79 78 72 79 74 80 75 81 76 82 77 83 54 84 55 85 63 86
REMARK SMILES IDX 56 87 58 88 64 89 57 90 59 91 60 92 61 93 62 94
REMARK H PARENT 21 6 25 28 84 47 52 58
REMARK Flexibility Score: inf
ROOT
ATOM      1  C   UNL A   1      33.978  27.909  26.109  1.00  0.00     0.042 C 
ENDROOT
BRANCH   1   2
ATOM      2  C   UNL A   1      33.290  26.615  25.693  1.00  0.00     0.117 C 
BRANCH   2   3
ATOM      3  N   UNL A   1      33.715  26.169  24.382  1.00  0.00    -0.354 N 
ATOM      4  C   UNL A   1      33.434  25.082  23.611  1.00  0.00     0.245 C 
ATOM      5  O   UNL A   1      33.956  25.118  22.484  1.00  0.00    -0.273 OA
ATOM      6  H   UNL A   1      34.348  26.789  23.953  1.00  0.00     0.163 HD
BRANCH   4   7
ATOM      7  C   UNL A   1      32.481  23.912  23.965  1.00  0.00     0.199 C 
ATOM      8  N   UNL A   1      32.764  23.144  25.199  1.00  0.00    -0.339 N 
ATOM      9  C   UNL A   1      32.242  23.697  26.442  1.00  0.00     0.147 C 
ATOM     10  C   UNL A   1      30.755  24.038  26.299  1.00  0.00     0.181 C 
ATOM     11  C   UNL A   1      30.989  24.309  23.933  1.00  0.00     0.195 C 
ATOM     12  O   UNL A   1      30.477  24.861  25.156  1.00  0.00    -0.377 OA
BRANCH   8  13
ATOM     13  C   UNL A   1      33.553  22.013  25.206  1.00  0.00     0.148 A 
ATOM     14  C   UNL A   1      34.960  22.070  25.208  1.00  0.00     0.095 A 
ATOM     15  C   UNL A   1      35.708  20.908  25.014  1.00  0.00     0.025 A 
ATOM     16  C   UNL A   1      35.058  19.692  24.893  1.00  0.00     0.035 A 
ATOM     17  N   UNL A   1      32.931  20.809  25.175  1.00  0.00    -0.225 NA
ATOM     18  C   UNL A   1      33.671  19.661  25.014  1.00  0.00     0.146 A 
BRANCH  14  19
ATOM     19  C   UNL A   1      35.682  23.279  25.483  1.00  0.00     0.103 C 
ATOM     20  N   UNL A   1      36.260  24.257  25.706  1.00  0.00    -0.192 NA
ENDBRANCH  14  19
BRANCH  18  21
ATOM     21  C   UNL A   1      32.971  18.302  24.971  1.00  0.00     0.433 C 
ATOM     22  F   UNL A   1      31.929  18.264  24.092  1.00  0.00    -0.165 F 
ATOM     23  F   UNL A   1      33.794  17.271  24.641  1.00  0.00    -0.165 F 
ATOM     24  F   UNL A   1      32.422  17.953  26.179  1.00  0.00    -0.165 F 
ENDBRANCH  18  21
ENDBRANCH   8  13
ENDBRANCH   4   7
ENDBRANCH   2   3
ENDBRANCH   1   2
BRANCH   1  25
ATOM     25  C   UNL A   1      33.420  28.506  27.380  1.00  0.00     0.118 C 
BRANCH  25  26
ATOM     26  N   UNL A   1      33.442  29.962  27.347  1.00  0.00    -0.352 N 
ATOM     27  C   UNL A   1      34.370  30.845  27.835  1.00  0.00     0.251 C 
ATOM     28  H   UNL A   1      32.669  30.378  26.901  1.00  0.00     0.163 HD
ATOM     29  O   UNL A   1      34.075  32.034  27.911  1.00  0.00    -0.269 OA
BRANCH  27  30
ATOM     30  C   UNL A   1      35.704  30.378  28.277  1.00  0.00     0.039 A 
ATOM     31  C   UNL A   1      35.821  29.779  29.532  1.00  0.00     0.014 A 
ATOM     32  C   UNL A   1      36.842  30.558  27.486  1.00  0.00     0.014 A 
ATOM     33  C   UNL A   1      37.068  29.346  29.974  1.00  0.00     0.010 A 
ATOM     34  C   UNL A   1      38.054  29.998  27.866  1.00  0.00     0.010 A 
ATOM     35  C   UNL A   1      38.192  29.426  29.134  1.00  0.00    -0.014 A 
BRANCH  35  36
ATOM     36  C   UNL A   1      39.513  28.942  29.598  1.00  0.00     0.031 A 
ATOM     37  C   UNL A   1      40.217  29.613  30.746  1.00  0.00     0.074 A 
ATOM     38  C   UNL A   1      40.083  27.897  28.968  1.00  0.00     0.049 A 
ATOM     39  N   UNL A   1      41.332  29.271  31.337  1.00  0.00    -0.248 NA
ATOM     40  C   UNL A   1      39.610  30.840  31.292  1.00  0.00     0.031 C 
ATOM     41  C   UNL A   1      39.539  27.227  27.782  1.00  0.00     0.029 A 
ATOM     42  N   UNL A   1      41.239  27.212  29.233  1.00  0.00    -0.354 N 
ATOM     43  C   UNL A   1      41.572  30.247  32.296  1.00  0.00     0.074 A 
ATOM     44  C   UNL A   1      40.516  31.225  32.178  1.00  0.00     0.031 C 
ATOM     45  C   UNL A   1      40.337  26.201  27.452  1.00  0.00     0.029 A 
ATOM     46  C   UNL A   1      41.469  26.167  28.370  1.00  0.00     0.049 A 
ATOM     47  H   UNL A   1      41.846  27.444  29.973  1.00  0.00     0.167 HD
ATOM     48  C   UNL A   1      42.567  30.311  33.211  1.00  0.00     0.034 A 
ATOM     49  C   UNL A   1      42.481  25.283  28.321  1.00  0.00     0.034 A 
ATOM     50  C   UNL A   1      43.605  29.325  33.331  1.00  0.00     0.049 A 
ATOM     51  C   UNL A   1      43.553  25.354  29.370  1.00  0.00     0.074 A 
ATOM     52  C   UNL A   1      44.615  29.249  34.273  1.00  0.00     0.029 A 
ATOM     53  N   UNL A   1      43.783  28.256  32.466  1.00  0.00    -0.354 N 
ATOM     54  N   UNL A   1      43.679  26.198  30.366  1.00  0.00    -0.248 NA
ATOM     55  C   UNL A   1      44.599  24.326  29.315  1.00  0.00     0.031 C 
ATOM     56  C   UNL A   1      45.437  28.167  33.943  1.00  0.00     0.029 A 
ATOM     57  C   UNL A   1      44.899  27.526  32.838  1.00  0.00     0.049 A 
ATOM     58  H   UNL A   1      43.200  28.046  31.701  1.00  0.00     0.167 HD
ATOM     59  C   UNL A   1      44.796  25.782  31.079  1.00  0.00     0.074 A 
ATOM     60  C   UNL A   1      45.293  24.594  30.413  1.00  0.00     0.031 C 
ATOM     61  C   UNL A   1      45.365  26.334  32.180  1.00  0.00     0.034 A 
BRANCH  48  62
ATOM     62  C   UNL A   1      42.571  31.480  34.165  1.00  0.00     0.023 A 
ATOM     63  C   UNL A   1      43.255  32.668  33.829  1.00  0.00     0.012 A 
ATOM     64  C   UNL A   1      41.855  31.417  35.376  1.00  0.00     0.148 A 
ATOM     65  C   UNL A   1      43.259  33.758  34.700  1.00  0.00     0.002 A 
ATOM     66  C   UNL A   1      41.817  32.526  36.212  1.00  0.00     0.091 A 
ATOM     67  F   UNL A   1      41.230  30.275  35.689  1.00  0.00    -0.205 F 
ATOM     68  C   UNL A   1      42.530  33.691  35.884  1.00  0.00     0.022 A 
BRANCH  66  69
ATOM     69  S   UNL A   1      40.839  32.570  37.717  1.00  0.00     0.127 S 
ATOM     70  O   UNL A   1      41.684  31.814  38.641  1.00  0.00    -0.237 OA
ATOM     71  O   UNL A   1      40.766  34.005  37.991  1.00  0.00    -0.237 OA
ATOM     72  O   UNL A   1      39.565  31.946  37.390  1.00  0.00    -0.744 OA
ENDBRANCH  66  69
ENDBRANCH  48  62
BRANCH  49  73
ATOM     73  C   UNL A   1      42.503  24.235  27.264  1.00  0.00     0.023 A 
ATOM     74  C   UNL A   1      43.380  24.352  26.169  1.00  0.00     0.012 A 
ATOM     75  C   UNL A   1      41.666  23.106  27.356  1.00  0.00     0.148 A 
ATOM     76  C   UNL A   1      43.394  23.383  25.164  1.00  0.00     0.002 A 
ATOM     77  C   UNL A   1      41.729  22.115  26.387  1.00  0.00     0.091 A 
ATOM     78  F   UNL A   1      40.836  23.018  28.407  1.00  0.00    -0.205 F 
ATOM     79  C   UNL A   1      42.576  22.262  25.278  1.00  0.00     0.022 A 
BRANCH  77  80
ATOM     80  S   UNL A   1      40.813  20.578  26.525  1.00  0.00     0.127 S 
ATOM     81  O   UNL A   1      39.476  20.989  26.103  1.00  0.00    -0.237 OA
ATOM     82  O   UNL A   1      41.524  19.720  25.577  1.00  0.00    -0.237 OA
ATOM     83  O   UNL A   1      40.936  20.166  27.917  1.00  0.00    -0.744 OA
ENDBRANCH  77  80
ENDBRANCH  49  73
BRANCH  61  84
ATOM     84  C   UNL A   1      46.558  25.624  32.767  1.00  0.00     0.023 A 
ATOM     85  C   UNL A   1      47.866  25.997  32.399  1.00  0.00     0.012 A 
ATOM     86  C   UNL A   1      46.373  24.595  33.712  1.00  0.00     0.148 A 
ATOM     87  C   UNL A   1      48.968  25.315  32.913  1.00  0.00     0.002 A 
ATOM     88  C   UNL A   1      47.478  23.964  34.268  1.00  0.00     0.091 A 
ATOM     89  F   UNL A   1      45.121  24.245  34.041  1.00  0.00    -0.205 F 
ATOM     90  C   UNL A   1      48.774  24.306  33.853  1.00  0.00     0.022 A 
BRANCH  88  91
ATOM     91  S   UNL A   1      47.325  22.728  35.561  1.00  0.00     0.127 S 
ATOM     92  O   UNL A   1      48.704  22.257  35.685  1.00  0.00    -0.237 OA
ATOM     93  O   UNL A   1      46.848  23.524  36.693  1.00  0.00    -0.237 OA
ATOM     94  O   UNL A   1      46.370  21.745  35.068  1.00  0.00    -0.744 OA
ENDBRANCH  88  91
ENDBRANCH  61  84
ENDBRANCH  35  36
ENDBRANCH  27  30
ENDBRANCH  25  26
ENDBRANCH   1  25
TORSDOF 16
ENDMDL
MODEL 2
REMARK VINA RESULT:     -11.9      3.178      4.392
REMARK SMILES N#Cc1ccc(C(F)(F)F)nc1N1CCOC[C@H]1C(=O)NCCCNC(=O)c1ccc(-c2c3nc(c(-c4cccc(S(=O)(=O)[O-])c4F)c4ccc([nH]4)c(-c4cccc(S(=O)(=O)[O-])c4F)c4nc(c(-c5cccc(S(=O)(=O)[O-])c5F)c5ccc2[nH]5)C=C4)C=C3)cc1
REMARK SMILES IDX 23 1 22 2 21 3 19 4 20 5 18 7 13 8 14 9 15 10 17 11 16 12
REMARK SMILES IDX 12 13 3 14 4 15 5 16 11 17 6 18 2 19 1 20 7 21 8 22 9 23
REMARK SMILES IDX 10 24 24 25 25 26 26 27 27 29 28 30 29 31 90 32 30 33 89 34
REMARK SMILES IDX 31 35 32 36 33 37 83 38 34 39 88 40 82 41 84 42 35 43 87 44
REMARK SMILES IDX 81 45 80 46 36 48 68 49 48 50 67 51 49 52 52 53 66 54 85 55
REMARK SMILES IDX 50 56 51 57 65 59 86 60 53 61 37 62 38 63 46 64 39 65 41 66
REMARK SMILES IDX 47 67 40 68 42 69 43 70 44 71 45 72 69 73 70 74 78 75 71 76
REMARK SMILES IDX 73 77 79 78 72 79 74 80 75 81 76 82 77 83 54 84 55 85 63 86
REMARK SMILES IDX 56 87 58 88 64 89 57 90 59 91 60 92 61 93 62 94
REMARK H PARENT 21 6 25 28 84 47 52 58
REMARK Flexibility Score: inf
ROOT
ATOM      1  C   UNL A   1      31.914  29.372  26.665  1.00  0.00     0.042 C 
ENDROOT
BRANCH   1   2
ATOM      2  C   UNL A   1      32.118  28.157  27.561  1.00  0.00     0.117 C 
BRANCH   2   3
ATOM      3  N   UNL A   1      32.849  27.101  26.891  1.00  0.00    -0.354 N 
ATOM      4  C   UNL A   1      32.518  26.154  25.971  1.00  0.00     0.245 C 
ATOM      5  O   UNL A   1      33.482  25.474  25.581  1.00  0.00    -0.273 OA
ATOM      6  H   UNL A   1      33.795  27.061  27.160  1.00  0.00     0.163 HD
BRANCH   4   7
ATOM      7  C   UNL A   1      31.126  25.930  25.325  1.00  0.00     0.199 C 
ATOM      8  N   UNL A   1      31.012  26.110  23.860  1.00  0.00    -0.339 N 
ATOM      9  C   UNL A   1      31.371  24.964  23.035  1.00  0.00     0.147 C 
ATOM     10  C   UNL A   1      30.652  23.702  23.522  1.00  0.00     0.181 C 
ATOM     11  C   UNL A   1      30.471  24.593  25.735  1.00  0.00     0.195 C 
ATOM     12  O   UNL A   1      30.831  23.463  24.926  1.00  0.00    -0.377 OA
BRANCH   8  13
ATOM     13  C   UNL A   1      30.673  27.317  23.283  1.00  0.00     0.148 A 
ATOM     14  C   UNL A   1      31.624  28.165  22.685  1.00  0.00     0.095 A 
ATOM     15  C   UNL A   1      31.265  29.456  22.296  1.00  0.00     0.025 A 
ATOM     16  C   UNL A   1      29.952  29.869  22.438  1.00  0.00     0.035 A 
ATOM     17  N   UNL A   1      29.374  27.700  23.337  1.00  0.00    -0.225 NA
ATOM     18  C   UNL A   1      29.015  28.962  22.927  1.00  0.00     0.146 A 
BRANCH  14  19
ATOM     19  C   UNL A   1      32.956  27.731  22.375  1.00  0.00     0.103 C 
ATOM     20  N   UNL A   1      34.030  27.377  22.124  1.00  0.00    -0.192 NA
ENDBRANCH  14  19
BRANCH  18  21
ATOM     21  C   UNL A   1      27.551  29.398  22.992  1.00  0.00     0.433 C 
ATOM     22  F   UNL A   1      27.144  30.075  21.880  1.00  0.00    -0.165 F 
ATOM     23  F   UNL A   1      26.679  28.367  23.159  1.00  0.00    -0.165 F 
ATOM     24  F   UNL A   1      27.301  30.254  24.034  1.00  0.00    -0.165 F 
ENDBRANCH  18  21
ENDBRANCH   8  13
ENDBRANCH   4   7
ENDBRANCH   2   3
ENDBRANCH   1   2
BRANCH   1  25
ATOM     25  C   UNL A   1      33.193  30.113  26.352  1.00  0.00     0.118 C 
BRANCH  25  26
ATOM     26  N   UNL A   1      33.096  31.524  26.698  1.00  0.00    -0.352 N 
ATOM     27  C   UNL A   1      33.801  32.262  27.614  1.00  0.00     0.251 C 
ATOM     28  H   UNL A   1      32.418  32.029  26.194  1.00  0.00     0.163 HD
ATOM     29  O   UNL A   1      33.394  33.381  27.914  1.00  0.00    -0.269 OA
BRANCH  27  30
ATOM     30  C   UNL A   1      35.027  31.721  28.244  1.00  0.00     0.039 A 
ATOM     31  C   UNL A   1      36.186  32.498  28.226  1.00  0.00     0.014 A 
ATOM     32  C   UNL A   1      35.056  30.446  28.815  1.00  0.00     0.014 A 
ATOM     33  C   UNL A   1      37.355  32.004  28.798  1.00  0.00     0.010 A 
ATOM     34  C   UNL A   1      36.179  30.016  29.511  1.00  0.00     0.010 A 
ATOM     35  C   UNL A   1      37.355  30.770  29.471  1.00  0.00    -0.014 A 
BRANCH  35  36
ATOM     36  C   UNL A   1      38.594  30.258  30.102  1.00  0.00     0.031 A 
ATOM     37  C   UNL A   1      38.995  30.704  31.482  1.00  0.00     0.074 A 
ATOM     38  C   UNL A   1      39.367  29.395  29.414  1.00  0.00     0.049 A 
ATOM     39  N   UNL A   1      39.995  30.295  32.218  1.00  0.00    -0.248 NA
ATOM     40  C   UNL A   1      38.187  31.761  32.116  1.00  0.00     0.031 C 
ATOM     41  C   UNL A   1      39.130  28.965  28.032  1.00  0.00     0.029 A 
ATOM     42  N   UNL A   1      40.502  28.721  29.780  1.00  0.00    -0.354 N 
ATOM     43  C   UNL A   1      39.954  31.058  33.378  1.00  0.00     0.074 A 
ATOM     44  C   UNL A   1      38.862  31.991  33.232  1.00  0.00     0.031 C 
ATOM     45  C   UNL A   1      40.064  28.068  27.684  1.00  0.00     0.029 A 
ATOM     46  C   UNL A   1      40.990  27.892  28.797  1.00  0.00     0.049 A 
ATOM     47  H   UNL A   1      40.928  28.820  30.663  1.00  0.00     0.167 HD
ATOM     48  C   UNL A   1      40.738  30.973  34.478  1.00  0.00     0.034 A 
ATOM     49  C   UNL A   1      42.065  27.084  28.792  1.00  0.00     0.034 A 
ATOM     50  C   UNL A   1      41.814  30.031  34.620  1.00  0.00     0.049 A 
ATOM     51  C   UNL A   1      42.897  26.982  30.039  1.00  0.00     0.074 A 
ATOM     52  C   UNL A   1      42.618  29.804  35.721  1.00  0.00     0.029 A 
ATOM     53  N   UNL A   1      42.252  29.176  33.620  1.00  0.00    -0.354 N 
ATOM     54  N   UNL A   1      42.748  27.602  31.184  1.00  0.00    -0.248 NA
ATOM     55  C   UNL A   1      44.018  26.035  30.007  1.00  0.00     0.031 C 
ATOM     56  C   UNL A   1      43.581  28.853  35.368  1.00  0.00     0.029 A 
ATOM     57  C   UNL A   1      43.331  28.435  34.070  1.00  0.00     0.049 A 
ATOM     58  H   UNL A   1      41.854  29.106  32.722  1.00  0.00     0.167 HD
ATOM     59  C   UNL A   1      43.733  27.096  32.022  1.00  0.00     0.074 A 
ATOM     60  C   UNL A   1      44.453  26.098  31.257  1.00  0.00     0.031 C 
ATOM     61  C   UNL A   1      44.021  27.429  33.305  1.00  0.00     0.034 A 
BRANCH  48  62
ATOM     62  C   UNL A   1      40.450  31.915  35.621  1.00  0.00     0.023 A 
ATOM     63  C   UNL A   1      41.292  33.023  35.856  1.00  0.00     0.012 A 
ATOM     64  C   UNL A   1      39.315  31.727  36.433  1.00  0.00     0.148 A 
ATOM     65  C   UNL A   1      41.031  33.905  36.906  1.00  0.00     0.002 A 
ATOM     66  C   UNL A   1      39.031  32.641  37.441  1.00  0.00     0.091 A 
ATOM     67  F   UNL A   1      38.540  30.658  36.210  1.00  0.00    -0.205 F 
ATOM     68  C   UNL A   1      39.895  33.720  37.689  1.00  0.00     0.022 A 
BRANCH  66  69
ATOM     69  S   UNL A   1      37.549  32.540  38.449  1.00  0.00     0.127 S 
ATOM     70  O   UNL A   1      37.894  33.412  39.570  1.00  0.00    -0.237 OA
ATOM     71  O   UNL A   1      36.531  33.079  37.547  1.00  0.00    -0.237 OA
ATOM     72  O   UNL A   1      37.383  31.133  38.785  1.00  0.00    -0.744 OA
ENDBRANCH  66  69
ENDBRANCH  48  62
BRANCH  49  73
ATOM     73  C   UNL A   1      42.388  26.283  27.579  1.00  0.00     0.023 A 
ATOM     74  C   UNL A   1      43.132  26.856  26.531  1.00  0.00     0.012 A 
ATOM     75  C   UNL A   1      41.973  24.942  27.476  1.00  0.00     0.148 A 
ATOM     76  C   UNL A   1      43.424  26.118  25.383  1.00  0.00     0.002 A 
ATOM     77  C   UNL A   1      42.320  24.194  26.359  1.00  0.00     0.091 A 
ATOM     78  F   UNL A   1      41.262  24.419  28.486  1.00  0.00    -0.205 F 
ATOM     79  C   UNL A   1      43.026  24.786  25.301  1.00  0.00     0.022 A 
BRANCH  77  80
ATOM     80  S   UNL A   1      41.967  22.438  26.232  1.00  0.00     0.127 S 
ATOM     81  O   UNL A   1      42.662  22.083  24.997  1.00  0.00    -0.237 OA
ATOM     82  O   UNL A   1      42.579  21.922  27.457  1.00  0.00    -0.237 OA
ATOM     83  O   UNL A   1      40.515  22.327  26.194  1.00  0.00    -0.744 OA
ENDBRANCH  77  80
ENDBRANCH  49  73
BRANCH  61  84
ATOM     84  C   UNL A   1      45.131  26.666  33.982  1.00  0.00     0.023 A 
ATOM     85  C   UNL A   1      46.441  27.183  34.011  1.00  0.00     0.012 A 
ATOM     86  C   UNL A   1      44.859  25.436  34.614  1.00  0.00     0.148 A 
ATOM     87  C   UNL A   1      47.475  26.458  34.604  1.00  0.00     0.002 A 
ATOM     88  C   UNL A   1      45.881  24.752  35.259  1.00  0.00     0.091 A 
ATOM     89  F   UNL A   1      43.609  24.954  34.566  1.00  0.00    -0.205 F 
ATOM     90  C   UNL A   1      47.192  25.249  35.234  1.00  0.00     0.022 A 
BRANCH  88  91
ATOM     91  S   UNL A   1      45.589  23.242  36.184  1.00  0.00     0.127 S 
ATOM     92  O   UNL A   1      44.775  23.729  37.298  1.00  0.00    -0.237 OA
ATOM     93  O   UNL A   1      44.865  22.420  35.213  1.00  0.00    -0.237 OA
ATOM     94  O   UNL A   1      46.904  22.731  36.548  1.00  0.00    -0.744 OA
ENDBRANCH  88  91
ENDBRANCH  61  84
ENDBRANCH  35  36
ENDBRANCH  27  30
ENDBRANCH  25  26
ENDBRANCH   1  25
TORSDOF 16
ENDMDL
MODEL 3
REMARK VINA RESULT:     -11.8      2.232      3.086
REMARK SMILES N#Cc1ccc(C(F)(F)F)nc1N1CCOC[C@H]1C(=O)NCCCNC(=O)c1ccc(-c2c3nc(c(-c4cccc(S(=O)(=O)[O-])c4F)c4ccc([nH]4)c(-c4cccc(S(=O)(=O)[O-])c4F)c4nc(c(-c5cccc(S(=O)(=O)[O-])c5F)c5ccc2[nH]5)C=C4)C=C3)cc1
REMARK SMILES IDX 23 1 22 2 21 3 19 4 20 5 18 7 13 8 14 9 15 10 17 11 16 12
REMARK SMILES IDX 12 13 3 14 4 15 5 16 11 17 6 18 2 19 1 20 7 21 8 22 9 23
REMARK SMILES IDX 10 24 24 25 25 26 26 27 27 29 28 30 29 31 90 32 30 33 89 34
REMARK SMILES IDX 31 35 32 36 33 37 83 38 34 39 88 40 82 41 84 42 35 43 87 44
REMARK SMILES IDX 81 45 80 46 36 48 68 49 48 50 67 51 49 52 52 53 66 54 85 55
REMARK SMILES IDX 50 56 51 57 65 59 86 60 53 61 37 62 38 63 46 64 39 65 41 66
REMARK SMILES IDX 47 67 40 68 42 69 43 70 44 71 45 72 69 73 70 74 78 75 71 76
REMARK SMILES IDX 73 77 79 78 72 79 74 80 75 81 76 82 77 83 54 84 55 85 63 86
REMARK SMILES IDX 56 87 58 88 64 89 57 90 59 91 60 92 61 93 62 94
REMARK H PARENT 21 6 25 28 84 47 52 58
REMARK Flexibility Score: inf
ROOT
ATOM      1  C   UNL A   1      31.877  29.397  26.883  1.00  0.00     0.042 C 
ENDROOT
BRANCH   1   2
ATOM      2  C   UNL A   1      32.289  28.083  27.534  1.00  0.00     0.117 C 
BRANCH   2   3
ATOM      3  N   UNL A   1      31.368  27.009  27.226  1.00  0.00    -0.354 N 
ATOM      4  C   UNL A   1      31.287  26.084  26.230  1.00  0.00     0.245 C 
ATOM      5  O   UNL A   1      30.366  25.264  26.380  1.00  0.00    -0.273 OA
ATOM      6  H   UNL A   1      30.639  26.930  27.882  1.00  0.00     0.163 HD
BRANCH   4   7
ATOM      7  C   UNL A   1      32.263  25.913  25.038  1.00  0.00     0.199 C 
ATOM      8  N   UNL A   1      32.244  24.621  24.314  1.00  0.00    -0.339 N 
ATOM      9  C   UNL A   1      31.239  24.478  23.268  1.00  0.00     0.147 C 
ATOM     10  C   UNL A   1      31.277  25.676  22.316  1.00  0.00     0.181 C 
ATOM     11  C   UNL A   1      32.197  27.076  24.024  1.00  0.00     0.195 C 
ATOM     12  O   UNL A   1      31.202  26.937  22.998  1.00  0.00    -0.377 OA
BRANCH   8  13
ATOM     13  C   UNL A   1      33.064  23.566  24.655  1.00  0.00     0.148 A 
ATOM     14  C   UNL A   1      32.644  22.522  25.501  1.00  0.00     0.095 A 
ATOM     15  C   UNL A   1      33.568  21.588  25.973  1.00  0.00     0.025 A 
ATOM     16  C   UNL A   1      34.882  21.656  25.546  1.00  0.00     0.035 A 
ATOM     17  N   UNL A   1      34.332  23.570  24.175  1.00  0.00    -0.225 NA
ATOM     18  C   UNL A   1      35.234  22.633  24.619  1.00  0.00     0.146 A 
BRANCH  14  19
ATOM     19  C   UNL A   1      31.267  22.318  25.848  1.00  0.00     0.103 C 
ATOM     20  N   UNL A   1      30.154  22.159  26.128  1.00  0.00    -0.192 NA
ENDBRANCH  14  19
BRANCH  18  21
ATOM     21  C   UNL A   1      36.667  22.640  24.084  1.00  0.00     0.433 C 
ATOM     22  F   UNL A   1      36.730  22.638  22.721  1.00  0.00    -0.165 F 
ATOM     23  F   UNL A   1      37.404  23.703  24.504  1.00  0.00    -0.165 F 
ATOM     24  F   UNL A   1      37.379  21.533  24.467  1.00  0.00    -0.165 F 
ENDBRANCH  18  21
ENDBRANCH   8  13
ENDBRANCH   4   7
ENDBRANCH   2   3
ENDBRANCH   1   2
BRANCH   1  25
ATOM     25  C   UNL A   1      33.037  30.173  26.303  1.00  0.00     0.118 C 
BRANCH  25  26
ATOM     26  N   UNL A   1      32.951  31.590  26.623  1.00  0.00    -0.352 N 
ATOM     27  C   UNL A   1      33.658  32.339  27.528  1.00  0.00     0.251 C 
ATOM     28  H   UNL A   1      32.279  32.092  26.107  1.00  0.00     0.163 HD
ATOM     29  O   UNL A   1      33.260  33.467  27.806  1.00  0.00    -0.269 OA
BRANCH  27  30
ATOM     30  C   UNL A   1      34.877  31.800  28.172  1.00  0.00     0.039 A 
ATOM     31  C   UNL A   1      36.041  32.569  28.150  1.00  0.00     0.014 A 
ATOM     32  C   UNL A   1      34.896  30.533  28.762  1.00  0.00     0.014 A 
ATOM     33  C   UNL A   1      37.204  32.077  28.736  1.00  0.00     0.010 A 
ATOM     34  C   UNL A   1      36.012  30.106  29.469  1.00  0.00     0.010 A 
ATOM     35  C   UNL A   1      37.192  30.852  29.426  1.00  0.00    -0.014 A 
BRANCH  35  36
ATOM     36  C   UNL A   1      38.426  30.341  30.070  1.00  0.00     0.031 A 
ATOM     37  C   UNL A   1      38.803  30.779  31.460  1.00  0.00     0.074 A 
ATOM     38  C   UNL A   1      39.213  29.488  29.388  1.00  0.00     0.049 A 
ATOM     39  N   UNL A   1      39.795  30.369  32.207  1.00  0.00    -0.248 NA
ATOM     40  C   UNL A   1      37.980  31.826  32.091  1.00  0.00     0.031 C 
ATOM     41  C   UNL A   1      38.999  29.069  27.999  1.00  0.00     0.029 A 
ATOM     42  N   UNL A   1      40.346  28.818  29.765  1.00  0.00    -0.354 N 
ATOM     43  C   UNL A   1      39.733  31.122  33.373  1.00  0.00     0.074 A 
ATOM     44  C   UNL A   1      38.637  32.051  33.219  1.00  0.00     0.031 C 
ATOM     45  C   UNL A   1      39.943  28.179  27.658  1.00  0.00     0.029 A 
ATOM     46  C   UNL A   1      40.853  27.999  28.783  1.00  0.00     0.049 A 
ATOM     47  H   UNL A   1      40.758  28.912  30.654  1.00  0.00     0.167 HD
ATOM     48  C   UNL A   1      40.500  31.033  34.484  1.00  0.00     0.034 A 
ATOM     49  C   UNL A   1      41.932  27.197  28.787  1.00  0.00     0.034 A 
ATOM     50  C   UNL A   1      41.579  30.095  34.634  1.00  0.00     0.049 A 
ATOM     51  C   UNL A   1      42.746  27.089  30.045  1.00  0.00     0.074 A 
ATOM     52  C   UNL A   1      42.368  29.863  35.745  1.00  0.00     0.029 A 
ATOM     53  N   UNL A   1      42.037  29.251  33.634  1.00  0.00    -0.354 N 
ATOM     54  N   UNL A   1      42.577  27.699  31.193  1.00  0.00    -0.248 NA
ATOM     55  C   UNL A   1      43.873  26.148  30.022  1.00  0.00     0.031 C 
ATOM     56  C   UNL A   1      43.341  28.920  35.399  1.00  0.00     0.029 A 
ATOM     57  C   UNL A   1      43.113  28.511  34.094  1.00  0.00     0.049 A 
ATOM     58  H   UNL A   1      41.652  29.186  32.730  1.00  0.00     0.167 HD
ATOM     59  C   UNL A   1      43.552  27.191  32.041  1.00  0.00     0.074 A 
ATOM     60  C   UNL A   1      44.289  26.203  31.279  1.00  0.00     0.031 C 
ATOM     61  C   UNL A   1      43.820  27.515  33.331  1.00  0.00     0.034 A 
BRANCH  48  62
ATOM     62  C   UNL A   1      40.191  31.963  35.630  1.00  0.00     0.023 A 
ATOM     63  C   UNL A   1      40.963  33.127  35.827  1.00  0.00     0.012 A 
ATOM     64  C   UNL A   1      39.101  31.707  36.484  1.00  0.00     0.148 A 
ATOM     65  C   UNL A   1      40.681  33.999  36.879  1.00  0.00     0.002 A 
ATOM     66  C   UNL A   1      38.792  32.609  37.495  1.00  0.00     0.091 A 
ATOM     67  F   UNL A   1      38.392  30.586  36.296  1.00  0.00    -0.205 F 
ATOM     68  C   UNL A   1      39.589  33.746  37.704  1.00  0.00     0.022 A 
BRANCH  66  69
ATOM     69  S   UNL A   1      37.356  32.418  38.556  1.00  0.00     0.127 S 
ATOM     70  O   UNL A   1      37.774  33.147  39.753  1.00  0.00    -0.237 OA
ATOM     71  O   UNL A   1      36.310  33.077  37.775  1.00  0.00    -0.237 OA
ATOM     72  O   UNL A   1      37.173  30.985  38.735  1.00  0.00    -0.744 OA
ENDBRANCH  66  69
ENDBRANCH  48  62
BRANCH  49  73
ATOM     73  C   UNL A   1      42.277  26.407  27.573  1.00  0.00     0.023 A 
ATOM     74  C   UNL A   1      42.988  27.008  26.517  1.00  0.00     0.012 A 
ATOM     75  C   UNL A   1      41.917  25.050  27.475  1.00  0.00     0.148 A 
ATOM     76  C   UNL A   1      43.300  26.281  25.368  1.00  0.00     0.002 A 
ATOM     77  C   UNL A   1      42.285  24.315  26.356  1.00  0.00     0.091 A 
ATOM     78  F   UNL A   1      41.237  24.500  28.492  1.00  0.00    -0.205 F 
ATOM     79  C   UNL A   1      42.957  24.933  25.292  1.00  0.00     0.022 A 
BRANCH  77  80
ATOM     80  S   UNL A   1      42.003  22.546  26.235  1.00  0.00     0.127 S 
ATOM     81  O   UNL A   1      42.613  22.062  27.471  1.00  0.00    -0.237 OA
ATOM     82  O   UNL A   1      40.542  22.478  26.198  1.00  0.00    -0.237 OA
ATOM     83  O   UNL A   1      42.655  22.123  25.003  1.00  0.00    -0.744 OA
ENDBRANCH  77  80
ENDBRANCH  49  73
BRANCH  61  84
ATOM     84  C   UNL A   1      44.923  26.753  34.018  1.00  0.00     0.023 A 
ATOM     85  C   UNL A   1      46.265  27.164  33.892  1.00  0.00     0.012 A 
ATOM     86  C   UNL A   1      44.617  25.632  34.816  1.00  0.00     0.148 A 
ATOM     87  C   UNL A   1      47.288  26.436  34.496  1.00  0.00     0.002 A 
ATOM     88  C   UNL A   1      45.636  24.950  35.467  1.00  0.00     0.091 A 
ATOM     89  F   UNL A   1      43.336  25.247  34.915  1.00  0.00    -0.205 F 
ATOM     90  C   UNL A   1      46.973  25.336  35.289  1.00  0.00     0.022 A 
BRANCH  88  91
ATOM     91  S   UNL A   1      45.313  23.588  36.591  1.00  0.00     0.127 S 
ATOM     92  O   UNL A   1      44.578  22.662  35.731  1.00  0.00    -0.237 OA
ATOM     93  O   UNL A   1      46.665  23.152  36.943  1.00  0.00    -0.237 OA
ATOM     94  O   UNL A   1      44.552  24.151  37.698  1.00  0.00    -0.744 OA
ENDBRANCH  88  91
ENDBRANCH  61  84
ENDBRANCH  35  36
ENDBRANCH  27  30
ENDBRANCH  25  26
ENDBRANCH   1  25
TORSDOF 16
ENDMDL
