MODEL 1
REMARK VINA RESULT:     -10.8      0.000      0.000
REMARK SMILES O=C(C[N@@H+](C[C@@H]1COc2ccccc2O1)CC(F)(F)F)NCCCNC(=O)c1ccc(-c2c3nc(c(-c4cccc(S(=O)(=O)[O-])c4F)c4ccc([nH]4)c(-c4cccc(S(=O)(=O)[O-])c4F)c4nc(c(-c5cccc(S(=O)(=O)[O-])c5F)c5ccc2[nH]5)C=C4)C=C3)cc1
REMARK SMILES IDX 23 1 22 2 21 3 1 4 2 5 3 7 4 8 5 10 6 11 7 12 15 13 8 14
REMARK SMILES IDX 14 15 9 16 13 17 10 18 12 19 11 20 16 21 17 22 18 23 19 24
REMARK SMILES IDX 20 25 24 26 25 27 26 28 27 30 28 31 29 32 90 33 30 34 89 35
REMARK SMILES IDX 31 36 32 37 33 38 83 39 34 40 88 41 82 42 84 43 35 44 87 45
REMARK SMILES IDX 81 46 80 47 36 49 68 50 48 51 67 52 49 53 52 54 66 55 85 56
REMARK SMILES IDX 50 57 51 58 65 60 86 61 53 62 37 63 38 64 46 65 39 66 41 67
REMARK SMILES IDX 47 68 40 69 42 70 43 71 44 72 45 73 69 74 70 75 78 76 71 77
REMARK SMILES IDX 73 78 79 79 72 80 74 81 75 82 76 83 77 84 54 85 55 86 63 87
REMARK SMILES IDX 56 88 58 89 64 90 57 91 59 92 60 93 61 94 62 95
REMARK H PARENT 21 6 4 9 25 29 84 48 52 59
REMARK Flexibility Score: inf
ROOT
ATOM      1  C   UNL A   1      33.233  27.363  26.529  1.00  0.00     0.042 C 
ENDROOT
BRANCH   1   2
ATOM      2  C   UNL A   1      31.801  27.462  26.017  1.00  0.00     0.118 C 
BRANCH   2   3
ATOM      3  N   UNL A   1      31.400  26.261  25.311  1.00  0.00    -0.351 N 
ATOM      4  O   UNL A   1      31.303  24.950  27.184  1.00  0.00    -0.269 OA
ATOM      5  C   UNL A   1      31.252  25.063  25.961  1.00  0.00     0.275 C 
ATOM      6  H   UNL A   1      31.230  26.308  24.342  1.00  0.00     0.163 HD
BRANCH   5   7
ATOM      7  C   UNL A   1      31.017  23.858  25.057  1.00  0.00     0.363 C 
BRANCH   7   8
ATOM      8  N   UNL A   1      32.245  23.146  24.649  1.00  0.00    -0.316 N 
ATOM      9  H   UNL A   1      32.977  23.542  25.239  1.00  0.00     0.348 HD
BRANCH   8  10
ATOM     10  C   UNL A   1      32.205  21.707  24.995  1.00  0.00     0.312 C 
BRANCH  10  11
ATOM     11  C   UNL A   1      33.092  21.067  26.110  1.00  0.00     0.265 C 
ATOM     12  C   UNL A   1      33.447  21.953  27.299  1.00  0.00     0.281 C 
ATOM     13  O   UNL A   1      34.322  20.562  25.525  1.00  0.00    -0.477 OA
ATOM     14  O   UNL A   1      34.143  23.121  26.853  1.00  0.00    -0.486 OA
ATOM     15  C   UNL A   1      35.343  21.483  25.527  1.00  0.00     0.162 A 
ATOM     16  C   UNL A   1      35.231  22.749  26.108  1.00  0.00     0.161 A 
ATOM     17  C   UNL A   1      36.540  21.112  24.920  1.00  0.00     0.050 A 
ATOM     18  C   UNL A   1      36.249  23.687  25.974  1.00  0.00     0.050 A 
ATOM     19  C   UNL A   1      37.591  22.030  24.840  1.00  0.00     0.004 A 
ATOM     20  C   UNL A   1      37.436  23.326  25.339  1.00  0.00     0.004 A 
ENDBRANCH  10  11
ENDBRANCH   8  10
BRANCH   8  21
ATOM     21  C   UNL A   1      32.806  23.486  23.321  1.00  0.00     0.379 C 
BRANCH  21  22
ATOM     22  C   UNL A   1      33.970  24.476  23.100  1.00  0.00     0.438 C 
ATOM     23  F   UNL A   1      33.777  25.297  22.054  1.00  0.00    -0.165 F 
ATOM     24  F   UNL A   1      34.153  25.240  24.203  1.00  0.00    -0.165 F 
ATOM     25  F   UNL A   1      35.134  23.818  22.888  1.00  0.00    -0.165 F 
ENDBRANCH  21  22
ENDBRANCH   8  21
ENDBRANCH   7   8
ENDBRANCH   5   7
ENDBRANCH   2   3
ENDBRANCH   1   2
BRANCH   1  26
ATOM     26  C   UNL A   1      34.171  28.413  25.945  1.00  0.00     0.118 C 
BRANCH  26  27
ATOM     27  N   UNL A   1      33.805  29.772  26.329  1.00  0.00    -0.352 N 
ATOM     28  C   UNL A   1      34.355  30.604  27.272  1.00  0.00     0.251 C 
ATOM     29  H   UNL A   1      33.043  30.152  25.833  1.00  0.00     0.163 HD
ATOM     30  O   UNL A   1      33.782  31.646  27.570  1.00  0.00    -0.269 OA
BRANCH  28  31
ATOM     31  C   UNL A   1      35.621  30.234  27.938  1.00  0.00     0.039 A 
ATOM     32  C   UNL A   1      35.571  29.699  29.228  1.00  0.00     0.014 A 
ATOM     33  C   UNL A   1      36.850  30.412  27.297  1.00  0.00     0.014 A 
ATOM     34  C   UNL A   1      36.749  29.269  29.843  1.00  0.00     0.010 A 
ATOM     35  C   UNL A   1      38.011  29.914  27.880  1.00  0.00     0.010 A 
ATOM     36  C   UNL A   1      37.972  29.331  29.157  1.00  0.00    -0.014 A 
BRANCH  36  37
ATOM     37  C   UNL A   1      39.211  28.749  29.735  1.00  0.00     0.031 A 
ATOM     38  C   UNL A   1      39.860  29.372  30.940  1.00  0.00     0.074 A 
ATOM     39  C   UNL A   1      39.805  27.713  29.108  1.00  0.00     0.049 A 
ATOM     40  N   UNL A   1      40.979  29.048  31.531  1.00  0.00    -0.248 NA
ATOM     41  C   UNL A   1      39.175  30.526  31.545  1.00  0.00     0.031 C 
ATOM     42  C   UNL A   1      39.314  27.066  27.890  1.00  0.00     0.029 A 
ATOM     43  N   UNL A   1      40.969  27.041  29.393  1.00  0.00    -0.354 N 
ATOM     44  C   UNL A   1      41.152  29.971  32.555  1.00  0.00     0.074 A 
ATOM     45  C   UNL A   1      40.035  30.888  32.486  1.00  0.00     0.031 C 
ATOM     46  C   UNL A   1      40.167  26.094  27.532  1.00  0.00     0.029 A 
ATOM     47  C   UNL A   1      41.285  26.073  28.468  1.00  0.00     0.049 A 
ATOM     48  H   UNL A   1      41.524  27.234  30.183  1.00  0.00     0.167 HD
ATOM     49  C   UNL A   1      42.137  30.036  33.482  1.00  0.00     0.034 A 
ATOM     50  C   UNL A   1      42.365  25.273  28.370  1.00  0.00     0.034 A 
ATOM     51  C   UNL A   1      43.232  29.106  33.563  1.00  0.00     0.049 A 
ATOM     52  C   UNL A   1      43.440  25.362  29.419  1.00  0.00     0.074 A 
ATOM     53  C   UNL A   1      44.231  29.038  34.518  1.00  0.00     0.029 A 
ATOM     54  N   UNL A   1      43.486  28.097  32.648  1.00  0.00    -0.354 N 
ATOM     55  N   UNL A   1      43.502  26.138  30.473  1.00  0.00    -0.248 NA
ATOM     56  C   UNL A   1      44.578  24.443  29.280  1.00  0.00     0.031 C 
ATOM     57  C   UNL A   1      45.110  28.011  34.158  1.00  0.00     0.029 A 
ATOM     58  C   UNL A   1      44.638  27.414  33.002  1.00  0.00     0.049 A 
ATOM     59  H   UNL A   1      42.929  27.894  31.862  1.00  0.00     0.167 HD
ATOM     60  C   UNL A   1      44.669  25.782  31.139  1.00  0.00     0.074 A 
ATOM     61  C   UNL A   1      45.267  24.700  30.384  1.00  0.00     0.031 C 
ATOM     62  C   UNL A   1      45.205  26.313  32.266  1.00  0.00     0.034 A 
BRANCH  49  63
ATOM     63  C   UNL A   1      42.059  31.134  34.513  1.00  0.00     0.023 A 
ATOM     64  C   UNL A   1      41.455  30.878  35.761  1.00  0.00     0.012 A 
ATOM     65  C   UNL A   1      42.637  32.395  34.272  1.00  0.00     0.148 A 
ATOM     66  C   UNL A   1      41.395  31.870  36.739  1.00  0.00     0.002 A 
ATOM     67  C   UNL A   1      42.617  33.363  35.269  1.00  0.00     0.091 A 
ATOM     68  F   UNL A   1      43.191  32.627  33.073  1.00  0.00    -0.205 F 
ATOM     69  C   UNL A   1      41.986  33.107  36.498  1.00  0.00     0.022 A 
BRANCH  67  70
ATOM     70  S   UNL A   1      43.418  34.960  35.088  1.00  0.00     0.127 S 
ATOM     71  O   UNL A   1      43.119  35.587  36.375  1.00  0.00    -0.237 OA
ATOM     72  O   UNL A   1      44.819  34.581  34.905  1.00  0.00    -0.237 OA
ATOM     73  O   UNL A   1      42.801  35.592  33.930  1.00  0.00    -0.744 OA
ENDBRANCH  67  70
ENDBRANCH  49  63
BRANCH  50  74
ATOM     74  C   UNL A   1      42.463  24.288  27.255  1.00  0.00     0.023 A 
ATOM     75  C   UNL A   1      43.099  24.661  26.055  1.00  0.00     0.012 A 
ATOM     76  C   UNL A   1      41.948  22.984  27.385  1.00  0.00     0.148 A 
ATOM     77  C   UNL A   1      43.191  23.762  24.991  1.00  0.00     0.002 A 
ATOM     78  C   UNL A   1      42.094  22.077  26.342  1.00  0.00     0.091 A 
ATOM     79  F   UNL A   1      41.337  22.654  28.531  1.00  0.00    -0.205 F 
ATOM     80  C   UNL A   1      42.698  22.469  25.137  1.00  0.00     0.022 A 
BRANCH  78  81
ATOM     81  S   UNL A   1      41.608  20.354  26.489  1.00  0.00     0.127 S 
ATOM     82  O   UNL A   1      42.192  19.988  27.778  1.00  0.00    -0.237 OA
ATOM     83  O   UNL A   1      40.149  20.452  26.478  1.00  0.00    -0.237 OA
ATOM     84  O   UNL A   1      42.175  19.684  25.327  1.00  0.00    -0.744 OA
ENDBRANCH  78  81
ENDBRANCH  50  74
BRANCH  62  85
ATOM     85  C   UNL A   1      46.493  25.717  32.775  1.00  0.00     0.023 A 
ATOM     86  C   UNL A   1      47.726  26.273  32.383  1.00  0.00     0.012 A 
ATOM     87  C   UNL A   1      46.476  24.647  33.692  1.00  0.00     0.148 A 
ATOM     88  C   UNL A   1      48.925  25.750  32.868  1.00  0.00     0.002 A 
ATOM     89  C   UNL A   1      47.672  24.167  34.211  1.00  0.00     0.091 A 
ATOM     90  F   UNL A   1      45.293  24.121  34.039  1.00  0.00    -0.205 F 
ATOM     91  C   UNL A   1      48.898  24.706  33.790  1.00  0.00     0.022 A 
BRANCH  89  92
ATOM     92  S   UNL A   1      47.733  22.891  35.475  1.00  0.00     0.127 S 
ATOM     93  O   UNL A   1      47.229  23.608  36.645  1.00  0.00    -0.237 OA
ATOM     94  O   UNL A   1      46.822  21.881  34.939  1.00  0.00    -0.237 OA
ATOM     95  O   UNL A   1      49.126  22.470  35.556  1.00  0.00    -0.744 OA
ENDBRANCH  89  92
ENDBRANCH  62  85
ENDBRANCH  36  37
ENDBRANCH  28  31
ENDBRANCH  26  27
ENDBRANCH   1  26
TORSDOF 18
ENDMDL
MODEL 2
REMARK VINA RESULT:     -10.8      4.925      9.646
REMARK SMILES O=C(C[N@@H+](C[C@@H]1COc2ccccc2O1)CC(F)(F)F)NCCCNC(=O)c1ccc(-c2c3nc(c(-c4cccc(S(=O)(=O)[O-])c4F)c4ccc([nH]4)c(-c4cccc(S(=O)(=O)[O-])c4F)c4nc(c(-c5cccc(S(=O)(=O)[O-])c5F)c5ccc2[nH]5)C=C4)C=C3)cc1
REMARK SMILES IDX 23 1 22 2 21 3 1 4 2 5 3 7 4 8 5 10 6 11 7 12 15 13 8 14
REMARK SMILES IDX 14 15 9 16 13 17 10 18 12 19 11 20 16 21 17 22 18 23 19 24
REMARK SMILES IDX 20 25 24 26 25 27 26 28 27 30 28 31 29 32 90 33 30 34 89 35
REMARK SMILES IDX 31 36 32 37 33 38 83 39 34 40 88 41 82 42 84 43 35 44 87 45
REMARK SMILES IDX 81 46 80 47 36 49 68 50 48 51 67 52 49 53 52 54 66 55 85 56
REMARK SMILES IDX 50 57 51 58 65 60 86 61 53 62 37 63 38 64 46 65 39 66 41 67
REMARK SMILES IDX 47 68 40 69 42 70 43 71 44 72 45 73 69 74 70 75 78 76 71 77
REMARK SMILES IDX 73 78 79 79 72 80 74 81 75 82 76 83 77 84 54 85 55 86 63 87
REMARK SMILES IDX 56 88 58 89 64 90 57 91 59 92 60 93 61 94 62 95
REMARK H PARENT 21 6 4 9 25 29 84 48 52 59
REMARK Flexibility Score: inf
ROOT
ATOM      1  C   UNL A   1      35.971  21.383  25.742  1.00  0.00     0.042 C 
ENDROOT
BRANCH   1   2
ATOM      2  C   UNL A   1      34.822  20.851  24.895  1.00  0.00     0.118 C 
BRANCH   2   3
ATOM      3  N   UNL A   1      34.020  21.925  24.343  1.00  0.00    -0.351 N 
ATOM      4  O   UNL A   1      32.014  21.013  24.959  1.00  0.00    -0.269 OA
ATOM      5  C   UNL A   1      32.649  21.877  24.360  1.00  0.00     0.275 C 
ATOM      6  H   UNL A   1      34.470  22.707  23.948  1.00  0.00     0.163 HD
BRANCH   5   7
ATOM      7  C   UNL A   1      31.951  22.981  23.573  1.00  0.00     0.363 C 
BRANCH   7   8
ATOM      8  N   UNL A   1      32.040  24.323  24.185  1.00  0.00    -0.316 N 
ATOM      9  H   UNL A   1      31.516  24.927  23.551  1.00  0.00     0.348 HD
BRANCH   8  10
ATOM     10  C   UNL A   1      31.322  24.403  25.477  1.00  0.00     0.312 C 
BRANCH  10  11
ATOM     11  C   UNL A   1      30.198  25.446  25.771  1.00  0.00     0.265 C 
ATOM     12  C   UNL A   1      29.756  26.327  24.608  1.00  0.00     0.281 C 
ATOM     13  O   UNL A   1      30.602  26.302  26.873  1.00  0.00    -0.477 OA
ATOM     14  O   UNL A   1      30.869  27.069  24.101  1.00  0.00    -0.486 OA
ATOM     15  C   UNL A   1      31.265  27.436  26.465  1.00  0.00     0.162 A 
ATOM     16  C   UNL A   1      31.455  27.770  25.122  1.00  0.00     0.161 A 
ATOM     17  C   UNL A   1      31.755  28.282  27.457  1.00  0.00     0.050 A 
ATOM     18  C   UNL A   1      32.239  28.862  24.763  1.00  0.00     0.050 A 
ATOM     19  C   UNL A   1      32.488  29.417  27.101  1.00  0.00     0.004 A 
ATOM     20  C   UNL A   1      32.755  29.691  25.757  1.00  0.00     0.004 A 
ENDBRANCH  10  11
ENDBRANCH   8  10
BRANCH   8  21
ATOM     21  C   UNL A   1      33.355  25.001  24.121  1.00  0.00     0.379 C 
BRANCH  21  22
ATOM     22  C   UNL A   1      34.311  25.152  25.323  1.00  0.00     0.438 C 
ATOM     23  F   UNL A   1      33.934  24.434  26.395  1.00  0.00    -0.165 F 
ATOM     24  F   UNL A   1      35.563  24.764  24.980  1.00  0.00    -0.165 F 
ATOM     25  F   UNL A   1      34.401  26.445  25.714  1.00  0.00    -0.165 F 
ENDBRANCH  21  22
ENDBRANCH   8  21
ENDBRANCH   7   8
ENDBRANCH   5   7
ENDBRANCH   2   3
ENDBRANCH   1   2
BRANCH   1  26
ATOM     26  C   UNL A   1      37.303  21.452  25.003  1.00  0.00     0.118 C 
BRANCH  26  27
ATOM     27  N   UNL A   1      38.278  20.491  25.506  1.00  0.00    -0.352 N 
ATOM     28  C   UNL A   1      39.488  20.698  26.120  1.00  0.00     0.251 C 
ATOM     29  H   UNL A   1      38.029  19.546  25.385  1.00  0.00     0.163 HD
ATOM     30  O   UNL A   1      40.245  19.751  26.303  1.00  0.00    -0.269 OA
BRANCH  28  31
ATOM     31  C   UNL A   1      39.884  22.058  26.540  1.00  0.00     0.039 A 
ATOM     32  C   UNL A   1      40.905  22.200  27.483  1.00  0.00     0.014 A 
ATOM     33  C   UNL A   1      39.255  23.187  26.009  1.00  0.00     0.014 A 
ATOM     34  C   UNL A   1      41.348  23.477  27.833  1.00  0.00     0.010 A 
ATOM     35  C   UNL A   1      39.748  24.455  26.302  1.00  0.00     0.010 A 
ATOM     36  C   UNL A   1      40.805  24.613  27.212  1.00  0.00    -0.014 A 
BRANCH  36  37
ATOM     37  C   UNL A   1      41.358  25.968  27.463  1.00  0.00     0.031 A 
ATOM     38  C   UNL A   1      42.756  26.318  27.032  1.00  0.00     0.074 A 
ATOM     39  C   UNL A   1      40.630  26.856  28.172  1.00  0.00     0.049 A 
ATOM     40  N   UNL A   1      43.428  27.421  27.233  1.00  0.00    -0.248 NA
ATOM     41  C   UNL A   1      43.506  25.284  26.299  1.00  0.00     0.031 C 
ATOM     42  C   UNL A   1      39.290  26.612  28.708  1.00  0.00     0.029 A 
ATOM     43  N   UNL A   1      40.926  28.130  28.589  1.00  0.00    -0.354 N 
ATOM     44  C   UNL A   1      44.686  27.207  26.684  1.00  0.00     0.074 A 
ATOM     45  C   UNL A   1      44.694  25.856  26.166  1.00  0.00     0.031 C 
ATOM     46  C   UNL A   1      38.880  27.698  29.382  1.00  0.00     0.029 A 
ATOM     47  C   UNL A   1      39.941  28.699  29.362  1.00  0.00     0.049 A 
ATOM     48  H   UNL A   1      41.764  28.592  28.356  1.00  0.00     0.167 HD
ATOM     49  C   UNL A   1      45.732  28.063  26.598  1.00  0.00     0.034 A 
ATOM     50  C   UNL A   1      39.902  29.884  30.001  1.00  0.00     0.034 A 
ATOM     51  C   UNL A   1      45.711  29.415  27.093  1.00  0.00     0.049 A 
ATOM     52  C   UNL A   1      41.075  30.819  29.882  1.00  0.00     0.074 A 
ATOM     53  C   UNL A   1      46.689  30.387  26.976  1.00  0.00     0.029 A 
ATOM     54  N   UNL A   1      44.671  29.981  27.813  1.00  0.00    -0.354 N 
ATOM     55  N   UNL A   1      42.194  30.658  29.220  1.00  0.00    -0.248 NA
ATOM     56  C   UNL A   1      40.965  32.111  30.573  1.00  0.00     0.031 C 
ATOM     57  C   UNL A   1      46.255  31.527  27.660  1.00  0.00     0.029 A 
ATOM     58  C   UNL A   1      44.991  31.281  28.168  1.00  0.00     0.049 A 
ATOM     59  H   UNL A   1      43.827  29.525  28.039  1.00  0.00     0.167 HD
ATOM     60  C   UNL A   1      42.909  31.838  29.390  1.00  0.00     0.074 A 
ATOM     61  C   UNL A   1      42.083  32.715  30.194  1.00  0.00     0.031 C 
ATOM     62  C   UNL A   1      44.145  32.160  28.935  1.00  0.00     0.034 A 
BRANCH  49  63
ATOM     63  C   UNL A   1      46.982  27.578  25.911  1.00  0.00     0.023 A 
ATOM     64  C   UNL A   1      47.927  26.820  26.634  1.00  0.00     0.012 A 
ATOM     65  C   UNL A   1      47.193  27.816  24.539  1.00  0.00     0.148 A 
ATOM     66  C   UNL A   1      49.077  26.338  26.012  1.00  0.00     0.002 A 
ATOM     67  C   UNL A   1      48.319  27.291  23.915  1.00  0.00     0.091 A 
ATOM     68  F   UNL A   1      46.294  28.554  23.872  1.00  0.00    -0.205 F 
ATOM     69  C   UNL A   1      49.267  26.562  24.652  1.00  0.00     0.022 A 
BRANCH  67  70
ATOM     70  S   UNL A   1      48.616  27.456  22.151  1.00  0.00     0.127 S 
ATOM     71  O   UNL A   1      49.910  28.139  22.134  1.00  0.00    -0.237 OA
ATOM     72  O   UNL A   1      48.658  26.060  21.716  1.00  0.00    -0.237 OA
ATOM     73  O   UNL A   1      47.499  28.226  21.624  1.00  0.00    -0.744 OA
ENDBRANCH  67  70
ENDBRANCH  49  63
BRANCH  50  74
ATOM     74  C   UNL A   1      38.692  30.271  30.782  1.00  0.00     0.023 A 
ATOM     75  C   UNL A   1      38.576  29.868  32.126  1.00  0.00     0.012 A 
ATOM     76  C   UNL A   1      37.668  31.047  30.205  1.00  0.00     0.148 A 
ATOM     77  C   UNL A   1      37.446  30.204  32.873  1.00  0.00     0.002 A 
ATOM     78  C   UNL A   1      36.573  31.427  30.972  1.00  0.00     0.091 A 
ATOM     79  F   UNL A   1      37.793  31.410  28.921  1.00  0.00    -0.205 F 
ATOM     80  C   UNL A   1      36.451  30.990  32.301  1.00  0.00     0.022 A 
BRANCH  78  81
ATOM     81  S   UNL A   1      35.309  32.545  30.360  1.00  0.00     0.127 S 
ATOM     82  O   UNL A   1      34.773  31.797  29.225  1.00  0.00    -0.237 OA
ATOM     83  O   UNL A   1      34.413  32.644  31.512  1.00  0.00    -0.237 OA
ATOM     84  O   UNL A   1      36.003  33.782  30.029  1.00  0.00    -0.744 OA
ENDBRANCH  78  81
ENDBRANCH  50  74
BRANCH  62  85
ATOM     85  C   UNL A   1      44.677  33.531  29.268  1.00  0.00     0.023 A 
ATOM     86  C   UNL A   1      45.499  33.710  30.398  1.00  0.00     0.012 A 
ATOM     87  C   UNL A   1      44.414  34.628  28.423  1.00  0.00     0.148 A 
ATOM     88  C   UNL A   1      46.021  34.967  30.703  1.00  0.00     0.002 A 
ATOM     89  C   UNL A   1      44.981  35.865  28.704  1.00  0.00     0.091 A 
ATOM     90  F   UNL A   1      43.616  34.442  27.362  1.00  0.00    -0.205 F 
ATOM     91  C   UNL A   1      45.772  36.040  29.851  1.00  0.00     0.022 A 
BRANCH  89  92
ATOM     92  S   UNL A   1      44.797  37.282  27.615  1.00  0.00     0.127 S 
ATOM     93  O   UNL A   1      45.736  36.956  26.542  1.00  0.00    -0.237 OA
ATOM     94  O   UNL A   1      43.387  37.201  27.237  1.00  0.00    -0.237 OA
ATOM     95  O   UNL A   1      45.145  38.451  28.412  1.00  0.00    -0.744 OA
ENDBRANCH  89  92
ENDBRANCH  62  85
ENDBRANCH  36  37
ENDBRANCH  28  31
ENDBRANCH  26  27
ENDBRANCH   1  26
TORSDOF 18
ENDMDL
MODEL 3
REMARK VINA RESULT:     -10.8      4.488      7.854
REMARK SMILES O=C(C[N@@H+](C[C@@H]1COc2ccccc2O1)CC(F)(F)F)NCCCNC(=O)c1ccc(-c2c3nc(c(-c4cccc(S(=O)(=O)[O-])c4F)c4ccc([nH]4)c(-c4cccc(S(=O)(=O)[O-])c4F)c4nc(c(-c5cccc(S(=O)(=O)[O-])c5F)c5ccc2[nH]5)C=C4)C=C3)cc1
REMARK SMILES IDX 23 1 22 2 21 3 1 4 2 5 3 7 4 8 5 10 6 11 7 12 15 13 8 14
REMARK SMILES IDX 14 15 9 16 13 17 10 18 12 19 11 20 16 21 17 22 18 23 19 24
REMARK SMILES IDX 20 25 24 26 25 27 26 28 27 30 28 31 29 32 90 33 30 34 89 35
REMARK SMILES IDX 31 36 32 37 33 38 83 39 34 40 88 41 82 42 84 43 35 44 87 45
REMARK SMILES IDX 81 46 80 47 36 49 68 50 48 51 67 52 49 53 52 54 66 55 85 56
REMARK SMILES IDX 50 57 51 58 65 60 86 61 53 62 37 63 38 64 46 65 39 66 41 67
REMARK SMILES IDX 47 68 40 69 42 70 43 71 44 72 45 73 69 74 70 75 78 76 71 77
REMARK SMILES IDX 73 78 79 79 72 80 74 81 75 82 76 83 77 84 54 85 55 86 63 87
REMARK SMILES IDX 56 88 58 89 64 90 57 91 59 92 60 93 61 94 62 95
REMARK H PARENT 21 6 4 9 25 29 84 48 52 59
REMARK Flexibility Score: inf
ROOT
ATOM      1  C   UNL A   1      35.654  22.251  24.326  1.00  0.00     0.042 C 
ENDROOT
BRANCH   1   2
ATOM      2  C   UNL A   1      35.285  23.703  24.046  1.00  0.00     0.118 C 
BRANCH   2   3
ATOM      3  N   UNL A   1      33.850  23.883  23.950  1.00  0.00    -0.351 N 
ATOM      4  O   UNL A   1      33.748  23.480  21.700  1.00  0.00    -0.269 OA
ATOM      5  C   UNL A   1      33.200  23.826  22.744  1.00  0.00     0.275 C 
ATOM      6  H   UNL A   1      33.331  24.051  24.770  1.00  0.00     0.163 HD
BRANCH   5   7
ATOM      7  C   UNL A   1      31.729  24.226  22.779  1.00  0.00     0.363 C 
BRANCH   7   8
ATOM      8  N   UNL A   1      31.457  25.512  23.453  1.00  0.00    -0.316 N 
ATOM      9  H   UNL A   1      32.284  25.680  24.026  1.00  0.00     0.348 HD
BRANCH   8  10
ATOM     10  C   UNL A   1      31.405  26.647  22.504  1.00  0.00     0.312 C 
BRANCH  10  11
ATOM     11  C   UNL A   1      32.392  27.857  22.560  1.00  0.00     0.265 C 
ATOM     12  C   UNL A   1      33.816  27.563  23.019  1.00  0.00     0.281 C 
ATOM     13  O   UNL A   1      31.838  28.900  23.406  1.00  0.00    -0.477 OA
ATOM     14  O   UNL A   1      33.802  26.995  24.332  1.00  0.00    -0.486 OA
ATOM     15  C   UNL A   1      32.220  28.791  24.723  1.00  0.00     0.162 A 
ATOM     16  C   UNL A   1      33.117  27.823  25.182  1.00  0.00     0.161 A 
ATOM     17  C   UNL A   1      31.679  29.705  25.623  1.00  0.00     0.050 A 
ATOM     18  C   UNL A   1      33.374  27.677  26.541  1.00  0.00     0.050 A 
ATOM     19  C   UNL A   1      31.986  29.604  26.983  1.00  0.00     0.004 A 
ATOM     20  C   UNL A   1      32.808  28.574  27.446  1.00  0.00     0.004 A 
ENDBRANCH  10  11
ENDBRANCH   8  10
BRANCH   8  21
ATOM     21  C   UNL A   1      30.431  25.503  24.522  1.00  0.00     0.379 C 
BRANCH  21  22
ATOM     22  C   UNL A   1      30.538  24.671  25.818  1.00  0.00     0.438 C 
ATOM     23  F   UNL A   1      31.658  24.921  26.518  1.00  0.00    -0.165 F 
ATOM     24  F   UNL A   1      29.478  24.919  26.624  1.00  0.00    -0.165 F 
ATOM     25  F   UNL A   1      30.518  23.345  25.548  1.00  0.00    -0.165 F 
ENDBRANCH  21  22
ENDBRANCH   8  21
ENDBRANCH   7   8
ENDBRANCH   5   7
ENDBRANCH   2   3
ENDBRANCH   1   2
BRANCH   1  26
ATOM     26  C   UNL A   1      36.313  22.032  25.682  1.00  0.00     0.118 C 
BRANCH  26  27
ATOM     27  N   UNL A   1      37.353  21.010  25.645  1.00  0.00    -0.352 N 
ATOM     28  C   UNL A   1      38.700  21.108  25.894  1.00  0.00     0.251 C 
ATOM     29  H   UNL A   1      37.039  20.108  25.404  1.00  0.00     0.163 HD
ATOM     30  O   UNL A   1      39.436  20.165  25.628  1.00  0.00    -0.269 OA
BRANCH  28  31
ATOM     31  C   UNL A   1      39.260  22.353  26.459  1.00  0.00     0.039 A 
ATOM     32  C   UNL A   1      40.308  22.261  27.378  1.00  0.00     0.014 A 
ATOM     33  C   UNL A   1      38.759  23.603  26.086  1.00  0.00     0.014 A 
ATOM     34  C   UNL A   1      40.905  23.427  27.863  1.00  0.00     0.010 A 
ATOM     35  C   UNL A   1      39.404  24.760  26.511  1.00  0.00     0.010 A 
ATOM     36  C   UNL A   1      40.489  24.685  27.399  1.00  0.00    -0.014 A 
BRANCH  36  37
ATOM     37  C   UNL A   1      41.202  25.927  27.790  1.00  0.00     0.031 A 
ATOM     38  C   UNL A   1      40.482  27.026  28.522  1.00  0.00     0.074 A 
ATOM     39  C   UNL A   1      42.481  26.103  27.397  1.00  0.00     0.049 A 
ATOM     40  N   UNL A   1      40.922  28.205  28.876  1.00  0.00    -0.248 NA
ATOM     41  C   UNL A   1      39.076  26.778  28.882  1.00  0.00     0.031 C 
ATOM     42  C   UNL A   1      43.266  25.143  26.621  1.00  0.00     0.029 A 
ATOM     43  N   UNL A   1      43.333  27.165  27.570  1.00  0.00    -0.354 N 
ATOM     44  C   UNL A   1      39.845  28.852  29.469  1.00  0.00     0.074 A 
ATOM     45  C   UNL A   1      38.721  27.944  29.402  1.00  0.00     0.031 C 
ATOM     46  C   UNL A   1      44.483  25.657  26.384  1.00  0.00     0.029 A 
ATOM     47  C   UNL A   1      44.552  26.998  26.954  1.00  0.00     0.049 A 
ATOM     48  H   UNL A   1      43.095  27.970  28.085  1.00  0.00     0.167 HD
ATOM     49  C   UNL A   1      39.802  30.080  30.039  1.00  0.00     0.034 A 
ATOM     50  C   UNL A   1      45.601  27.836  26.841  1.00  0.00     0.034 A 
ATOM     51  C   UNL A   1      40.930  30.970  30.126  1.00  0.00     0.049 A 
ATOM     52  C   UNL A   1      45.528  29.192  27.491  1.00  0.00     0.074 A 
ATOM     53  C   UNL A   1      41.008  32.197  30.760  1.00  0.00     0.029 A 
ATOM     54  N   UNL A   1      42.169  30.740  29.549  1.00  0.00    -0.354 N 
ATOM     55  N   UNL A   1      44.552  29.721  28.188  1.00  0.00    -0.248 NA
ATOM     56  C   UNL A   1      46.712  30.052  27.364  1.00  0.00     0.031 C 
ATOM     57  C   UNL A   1      42.283  32.726  30.533  1.00  0.00     0.029 A 
ATOM     58  C   UNL A   1      43.012  31.812  29.792  1.00  0.00     0.049 A 
ATOM     59  H   UNL A   1      42.415  29.932  29.041  1.00  0.00     0.167 HD
ATOM     60  C   UNL A   1      45.015  30.964  28.607  1.00  0.00     0.074 A 
ATOM     61  C   UNL A   1      46.369  31.094  28.109  1.00  0.00     0.031 C 
ATOM     62  C   UNL A   1      44.371  31.916  29.326  1.00  0.00     0.034 A 
BRANCH  49  63
ATOM     63  C   UNL A   1      38.497  30.525  30.648  1.00  0.00     0.023 A 
ATOM     64  C   UNL A   1      38.239  30.269  32.010  1.00  0.00     0.012 A 
ATOM     65  C   UNL A   1      37.557  31.251  29.892  1.00  0.00     0.148 A 
ATOM     66  C   UNL A   1      37.050  30.695  32.601  1.00  0.00     0.002 A 
ATOM     67  C   UNL A   1      36.395  31.715  30.499  1.00  0.00     0.091 A 
ATOM     68  F   UNL A   1      37.810  31.470  28.593  1.00  0.00    -0.205 F 
ATOM     69  C   UNL A   1      36.135  31.427  31.850  1.00  0.00     0.022 A 
BRANCH  67  70
ATOM     70  S   UNL A   1      35.191  32.734  29.642  1.00  0.00     0.127 S 
ATOM     71  O   UNL A   1      36.029  33.824  29.144  1.00  0.00    -0.237 OA
ATOM     72  O   UNL A   1      34.698  31.823  28.609  1.00  0.00    -0.237 OA
ATOM     73  O   UNL A   1      34.202  33.116  30.640  1.00  0.00    -0.744 OA
ENDBRANCH  67  70
ENDBRANCH  49  63
BRANCH  50  74
ATOM     74  C   UNL A   1      46.828  27.402  26.114  1.00  0.00     0.023 A 
ATOM     75  C   UNL A   1      46.958  27.688  24.741  1.00  0.00     0.012 A 
ATOM     76  C   UNL A   1      47.869  26.725  26.778  1.00  0.00     0.148 A 
ATOM     77  C   UNL A   1      48.089  27.278  24.035  1.00  0.00     0.002 A 
ATOM     78  C   UNL A   1      49.018  26.372  26.081  1.00  0.00     0.091 A 
ATOM     79  F   UNL A   1      47.720  26.453  28.082  1.00  0.00    -0.205 F 
ATOM     80  C   UNL A   1      49.122  26.630  24.705  1.00  0.00     0.022 A 
BRANCH  78  81
ATOM     81  S   UNL A   1      50.452  25.652  26.888  1.00  0.00     0.127 S 
ATOM     82  O   UNL A   1      49.901  24.409  27.422  1.00  0.00    -0.237 OA
ATOM     83  O   UNL A   1      51.376  25.487  25.766  1.00  0.00    -0.237 OA
ATOM     84  O   UNL A   1      50.879  26.630  27.879  1.00  0.00    -0.744 OA
ENDBRANCH  78  81
ENDBRANCH  50  74
BRANCH  62  85
ATOM     85  C   UNL A   1      45.129  33.179  29.647  1.00  0.00     0.023 A 
ATOM     86  C   UNL A   1      45.886  33.262  30.832  1.00  0.00     0.012 A 
ATOM     87  C   UNL A   1      45.141  34.259  28.742  1.00  0.00     0.148 A 
ATOM     88  C   UNL A   1      46.615  34.413  31.130  1.00  0.00     0.002 A 
ATOM     89  C   UNL A   1      45.912  35.382  29.020  1.00  0.00     0.091 A 
ATOM     90  F   UNL A   1      44.401  34.169  27.628  1.00  0.00    -0.205 F 
ATOM     91  C   UNL A   1      46.637  35.467  30.219  1.00  0.00     0.022 A 
BRANCH  89  92
ATOM     92  S   UNL A   1      46.081  36.748  27.865  1.00  0.00     0.127 S 
ATOM     93  O   UNL A   1      44.723  37.290  27.845  1.00  0.00    -0.237 OA
ATOM     94  O   UNL A   1      47.067  37.596  28.533  1.00  0.00    -0.237 OA
ATOM     95  O   UNL A   1      46.535  36.162  26.611  1.00  0.00    -0.744 OA
ENDBRANCH  89  92
ENDBRANCH  62  85
ENDBRANCH  36  37
ENDBRANCH  28  31
ENDBRANCH  26  27
ENDBRANCH   1  26
TORSDOF 18
ENDMDL
