MODEL 1
REMARK VINA RESULT:     -13.0      0.000      0.000
REMARK SMILES O=C(NCCCNC(=O)c1ccc(-c2c3nc(c(-c4cccc(S(=O)(=O)[O-])c4F)c4ccc([nH]4)c(-c4cccc(S(=O)(=O)[O-])c4F)c4nc(c(-c5cccc(S(=O)(=O)[O-])c5F)c5ccc2[nH]5)C=C4)C=C3)cc1)c1ccc(NC(=O)c2cc(F)cc(Br)c2)cc1
REMARK SMILES IDX 5 1 4 2 3 3 1 4 2 5 73 7 74 8 89 9 75 10 88 11 76 12 77 13
REMARK SMILES IDX 78 14 79 16 80 17 81 18 87 19 82 20 85 21 83 22 84 23 86 24
REMARK SMILES IDX 6 25 7 26 8 27 9 29 10 30 11 31 72 32 12 33 71 34 13 35
REMARK SMILES IDX 14 36 15 37 65 38 16 39 70 40 64 41 66 42 17 43 69 44 63 45
REMARK SMILES IDX 62 46 18 48 50 49 30 50 49 51 31 52 34 53 48 54 67 55 32 56
REMARK SMILES IDX 33 57 47 59 68 60 35 61 19 62 20 63 28 64 21 65 23 66 29 67
REMARK SMILES IDX 22 68 24 69 25 70 26 71 27 72 51 73 52 74 60 75 53 76 55 77
REMARK SMILES IDX 61 78 54 79 56 80 57 81 58 82 59 83 36 84 37 85 45 86 38 87
REMARK SMILES IDX 40 88 46 89 39 90 41 91 42 92 43 93 44 94
REMARK H PARENT 3 6 77 15 7 28 66 47 34 58
REMARK Flexibility Score: inf
ROOT
ATOM      1  C   UNL A   1      32.636  28.959  23.714  1.00  0.00     0.042 C 
ENDROOT
BRANCH   1   2
ATOM      2  C   UNL A   1      33.854  28.613  22.882  1.00  0.00     0.118 C 
BRANCH   2   3
ATOM      3  N   UNL A   1      33.555  27.770  21.725  1.00  0.00    -0.352 N 
ATOM      4  O   UNL A   1      33.142  25.857  20.588  1.00  0.00    -0.269 OA
ATOM      5  C   UNL A   1      33.265  26.425  21.670  1.00  0.00     0.251 C 
ATOM      6  H   UNL A   1      33.560  28.234  20.858  1.00  0.00     0.163 HD
BRANCH   5   7
ATOM      7  C   UNL A   1      33.108  25.659  22.923  1.00  0.00     0.039 A 
ATOM      8  C   UNL A   1      31.884  25.080  23.226  1.00  0.00     0.016 A 
ATOM      9  C   UNL A   1      34.160  25.560  23.834  1.00  0.00     0.016 A 
ATOM     10  C   UNL A   1      31.652  24.586  24.502  1.00  0.00     0.027 A 
ATOM     11  C   UNL A   1      33.947  24.939  25.075  1.00  0.00     0.027 A 
ATOM     12  C   UNL A   1      32.679  24.452  25.429  1.00  0.00     0.041 A 
BRANCH  12  13
ATOM     13  N   UNL A   1      32.532  23.866  26.704  1.00  0.00    -0.322 N 
ATOM     14  C   UNL A   1      32.851  22.625  27.219  1.00  0.00     0.255 C 
ATOM     15  H   UNL A   1      32.117  24.467  27.364  1.00  0.00     0.170 HD
ATOM     16  O   UNL A   1      32.552  22.338  28.376  1.00  0.00    -0.269 OA
BRANCH  14  17
ATOM     17  C   UNL A   1      33.546  21.601  26.421  1.00  0.00     0.044 A 
ATOM     18  C   UNL A   1      32.774  20.662  25.733  1.00  0.00     0.053 A 
ATOM     19  C   UNL A   1      34.941  21.622  26.288  1.00  0.00     0.029 A 
ATOM     20  C   UNL A   1      33.403  19.802  24.842  1.00  0.00     0.125 A 
ATOM     21  C   UNL A   1      35.542  20.773  25.357  1.00  0.00     0.021 A 
ATOM     22  F   UNL A   1      32.672  18.926  24.142  1.00  0.00    -0.207 F 
ATOM     23  C   UNL A   1      34.777  19.864  24.626  1.00  0.00     0.055 A 
ATOM     24  Br  UNL A   1      37.390  20.938  25.001  1.00  0.00    -0.051 Br
ENDBRANCH  14  17
ENDBRANCH  12  13
ENDBRANCH   5   7
ENDBRANCH   2   3
ENDBRANCH   1   2
BRANCH   1  25
ATOM     25  C   UNL A   1      32.928  29.097  25.196  1.00  0.00     0.118 C 
BRANCH  25  26
ATOM     26  N   UNL A   1      32.395  30.330  25.768  1.00  0.00    -0.352 N 
ATOM     27  C   UNL A   1      32.854  31.105  26.806  1.00  0.00     0.251 C 
ATOM     28  H   UNL A   1      31.572  30.659  25.340  1.00  0.00     0.163 HD
ATOM     29  O   UNL A   1      32.150  32.016  27.236  1.00  0.00    -0.269 OA
BRANCH  27  30
ATOM     30  C   UNL A   1      34.172  30.834  27.424  1.00  0.00     0.039 A 
ATOM     31  C   UNL A   1      35.063  31.893  27.628  1.00  0.00     0.014 A 
ATOM     32  C   UNL A   1      34.533  29.541  27.802  1.00  0.00     0.014 A 
ATOM     33  C   UNL A   1      36.272  31.664  28.293  1.00  0.00     0.010 A 
ATOM     34  C   UNL A   1      35.679  29.337  28.561  1.00  0.00     0.010 A 
ATOM     35  C   UNL A   1      36.568  30.392  28.806  1.00  0.00    -0.014 A 
BRANCH  35  36
ATOM     36  C   UNL A   1      37.797  30.124  29.598  1.00  0.00     0.031 A 
ATOM     37  C   UNL A   1      38.843  29.182  29.061  1.00  0.00     0.074 A 
ATOM     38  C   UNL A   1      37.914  30.626  30.843  1.00  0.00     0.049 A 
ATOM     39  N   UNL A   1      39.912  28.714  29.649  1.00  0.00    -0.248 NA
ATOM     40  C   UNL A   1      38.639  28.665  27.696  1.00  0.00     0.031 C 
ATOM     41  C   UNL A   1      36.929  31.479  31.512  1.00  0.00     0.029 A 
ATOM     42  N   UNL A   1      38.903  30.464  31.783  1.00  0.00    -0.354 N 
ATOM     43  C   UNL A   1      40.476  27.814  28.753  1.00  0.00     0.074 A 
ATOM     44  C   UNL A   1      39.612  27.773  27.594  1.00  0.00     0.031 C 
ATOM     45  C   UNL A   1      37.366  31.771  32.748  1.00  0.00     0.029 A 
ATOM     46  C   UNL A   1      38.643  31.104  32.972  1.00  0.00     0.049 A 
ATOM     47  H   UNL A   1      39.718  29.938  31.620  1.00  0.00     0.167 HD
ATOM     48  C   UNL A   1      41.628  27.113  28.865  1.00  0.00     0.034 A 
ATOM     49  C   UNL A   1      39.356  31.148  34.116  1.00  0.00     0.034 A 
ATOM     50  C   UNL A   1      42.526  27.218  29.981  1.00  0.00     0.049 A 
ATOM     51  C   UNL A   1      40.672  30.422  34.184  1.00  0.00     0.074 A 
ATOM     52  C   UNL A   1      43.768  26.630  30.145  1.00  0.00     0.029 A 
ATOM     53  N   UNL A   1      42.287  27.974  31.118  1.00  0.00    -0.354 N 
ATOM     54  N   UNL A   1      41.261  29.696  33.264  1.00  0.00    -0.248 NA
ATOM     55  C   UNL A   1      41.437  30.547  35.432  1.00  0.00     0.031 C 
ATOM     56  C   UNL A   1      44.280  27.033  31.384  1.00  0.00     0.029 A 
ATOM     57  C   UNL A   1      43.358  27.872  31.987  1.00  0.00     0.049 A 
ATOM     58  H   UNL A   1      41.473  28.505  31.282  1.00  0.00     0.167 HD
ATOM     59  C   UNL A   1      42.479  29.307  33.808  1.00  0.00     0.074 A 
ATOM     60  C   UNL A   1      42.552  29.894  35.131  1.00  0.00     0.031 C 
ATOM     61  C   UNL A   1      43.442  28.518  33.271  1.00  0.00     0.034 A 
BRANCH  48  62
ATOM     62  C   UNL A   1      42.023  26.233  27.709  1.00  0.00     0.023 A 
ATOM     63  C   UNL A   1      42.734  26.795  26.629  1.00  0.00     0.012 A 
ATOM     64  C   UNL A   1      41.740  24.853  27.708  1.00  0.00     0.148 A 
ATOM     65  C   UNL A   1      43.128  26.007  25.549  1.00  0.00     0.002 A 
ATOM     66  C   UNL A   1      42.172  24.065  26.645  1.00  0.00     0.091 A 
ATOM     67  F   UNL A   1      41.041  24.341  28.730  1.00  0.00    -0.205 F 
ATOM     68  C   UNL A   1      42.857  24.642  25.562  1.00  0.00     0.022 A 
BRANCH  66  69
ATOM     69  S   UNL A   1      41.932  22.286  26.607  1.00  0.00     0.127 S 
ATOM     70  O   UNL A   1      42.582  21.928  25.347  1.00  0.00    -0.237 OA
ATOM     71  O   UNL A   1      42.646  21.848  27.807  1.00  0.00    -0.237 OA
ATOM     72  O   UNL A   1      40.492  22.078  26.652  1.00  0.00    -0.744 OA
ENDBRANCH  66  69
ENDBRANCH  48  62
BRANCH  49  73
ATOM     73  C   UNL A   1      38.882  31.983  35.254  1.00  0.00     0.023 A 
ATOM     74  C   UNL A   1      38.970  33.387  35.154  1.00  0.00     0.012 A 
ATOM     75  C   UNL A   1      38.313  31.413  36.409  1.00  0.00     0.148 A 
ATOM     76  C   UNL A   1      38.525  34.204  36.193  1.00  0.00     0.002 A 
ATOM     77  C   UNL A   1      37.825  32.235  37.419  1.00  0.00     0.091 A 
ATOM     78  F   UNL A   1      38.253  30.077  36.496  1.00  0.00    -0.205 F 
ATOM     79  C   UNL A   1      37.944  33.631  37.320  1.00  0.00     0.022 A 
BRANCH  77  80
ATOM     80  S   UNL A   1      36.943  31.578  38.840  1.00  0.00     0.127 S 
ATOM     81  O   UNL A   1      37.907  31.787  39.916  1.00  0.00    -0.237 OA
ATOM     82  O   UNL A   1      35.761  32.439  38.895  1.00  0.00    -0.237 OA
ATOM     83  O   UNL A   1      36.652  30.191  38.501  1.00  0.00    -0.744 OA
ENDBRANCH  77  80
ENDBRANCH  49  73
BRANCH  61  84
ATOM     84  C   UNL A   1      44.673  28.261  34.095  1.00  0.00     0.023 A 
ATOM     85  C   UNL A   1      45.762  29.151  34.010  1.00  0.00     0.012 A 
ATOM     86  C   UNL A   1      44.718  27.196  35.014  1.00  0.00     0.148 A 
ATOM     87  C   UNL A   1      46.887  28.970  34.812  1.00  0.00     0.002 A 
ATOM     88  C   UNL A   1      45.826  27.045  35.839  1.00  0.00     0.091 A 
ATOM     89  F   UNL A   1      43.680  26.348  35.064  1.00  0.00    -0.205 F 
ATOM     90  C   UNL A   1      46.914  27.927  35.734  1.00  0.00     0.022 A 
BRANCH  88  91
ATOM     91  S   UNL A   1      45.903  25.782  37.115  1.00  0.00     0.127 S 
ATOM     92  O   UNL A   1      45.898  24.555  36.321  1.00  0.00    -0.237 OA
ATOM     93  O   UNL A   1      47.177  26.077  37.773  1.00  0.00    -0.237 OA
ATOM     94  O   UNL A   1      44.732  25.996  37.954  1.00  0.00    -0.744 OA
ENDBRANCH  88  91
ENDBRANCH  61  84
ENDBRANCH  35  36
ENDBRANCH  27  30
ENDBRANCH  25  26
ENDBRANCH   1  25
TORSDOF 15
ENDMDL
MODEL 2
REMARK VINA RESULT:     -13.0      2.422      3.482
REMARK SMILES O=C(NCCCNC(=O)c1ccc(-c2c3nc(c(-c4cccc(S(=O)(=O)[O-])c4F)c4ccc([nH]4)c(-c4cccc(S(=O)(=O)[O-])c4F)c4nc(c(-c5cccc(S(=O)(=O)[O-])c5F)c5ccc2[nH]5)C=C4)C=C3)cc1)c1ccc(NC(=O)c2cc(F)cc(Br)c2)cc1
REMARK SMILES IDX 5 1 4 2 3 3 1 4 2 5 73 7 74 8 89 9 75 10 88 11 76 12 77 13
REMARK SMILES IDX 78 14 79 16 80 17 81 18 87 19 82 20 85 21 83 22 84 23 86 24
REMARK SMILES IDX 6 25 7 26 8 27 9 29 10 30 11 31 72 32 12 33 71 34 13 35
REMARK SMILES IDX 14 36 15 37 65 38 16 39 70 40 64 41 66 42 17 43 69 44 63 45
REMARK SMILES IDX 62 46 18 48 50 49 30 50 49 51 31 52 34 53 48 54 67 55 32 56
REMARK SMILES IDX 33 57 47 59 68 60 35 61 19 62 20 63 28 64 21 65 23 66 29 67
REMARK SMILES IDX 22 68 24 69 25 70 26 71 27 72 51 73 52 74 60 75 53 76 55 77
REMARK SMILES IDX 61 78 54 79 56 80 57 81 58 82 59 83 36 84 37 85 45 86 38 87
REMARK SMILES IDX 40 88 46 89 39 90 41 91 42 92 43 93 44 94
REMARK H PARENT 3 6 77 15 7 28 66 47 34 58
REMARK Flexibility Score: inf
ROOT
ATOM      1  C   UNL A   1      31.632  31.948  26.567  1.00  0.00     0.042 C 
ENDROOT
BRANCH   1   2
ATOM      2  C   UNL A   1      31.946  30.546  26.087  1.00  0.00     0.118 C 
BRANCH   2   3
ATOM      3  N   UNL A   1      31.816  29.527  27.127  1.00  0.00    -0.352 N 
ATOM      4  O   UNL A   1      31.558  27.452  27.996  1.00  0.00    -0.269 OA
ATOM      5  C   UNL A   1      31.779  28.155  27.013  1.00  0.00     0.251 C 
ATOM      6  H   UNL A   1      31.747  29.873  28.046  1.00  0.00     0.163 HD
BRANCH   5   7
ATOM      7  C   UNL A   1      31.999  27.525  25.696  1.00  0.00     0.039 A 
ATOM      8  C   UNL A   1      30.929  26.955  25.020  1.00  0.00     0.016 A 
ATOM      9  C   UNL A   1      33.280  27.442  25.150  1.00  0.00     0.016 A 
ATOM     10  C   UNL A   1      31.164  26.141  23.920  1.00  0.00     0.027 A 
ATOM     11  C   UNL A   1      33.483  26.723  23.961  1.00  0.00     0.027 A 
ATOM     12  C   UNL A   1      32.421  26.052  23.335  1.00  0.00     0.041 A 
BRANCH  12  13
ATOM     13  N   UNL A   1      32.704  25.326  22.159  1.00  0.00    -0.322 N 
ATOM     14  C   UNL A   1      33.232  24.072  21.922  1.00  0.00     0.255 C 
ATOM     15  H   UNL A   1      32.476  25.814  21.334  1.00  0.00     0.170 HD
ATOM     16  O   UNL A   1      33.440  23.693  20.771  1.00  0.00    -0.269 OA
BRANCH  14  17
ATOM     17  C   UNL A   1      33.573  23.147  23.015  1.00  0.00     0.044 A 
ATOM     18  C   UNL A   1      32.664  22.135  23.333  1.00  0.00     0.053 A 
ATOM     19  C   UNL A   1      34.813  23.229  23.662  1.00  0.00     0.029 A 
ATOM     20  C   UNL A   1      33.045  21.154  24.239  1.00  0.00     0.125 A 
ATOM     21  C   UNL A   1      35.185  22.208  24.539  1.00  0.00     0.021 A 
ATOM     22  F   UNL A   1      32.202  20.152  24.520  1.00  0.00    -0.207 F 
ATOM     23  C   UNL A   1      34.307  21.164  24.827  1.00  0.00     0.055 A 
ATOM     24  Br  UNL A   1      36.935  22.180  25.251  1.00  0.00    -0.051 Br
ENDBRANCH  14  17
ENDBRANCH  12  13
ENDBRANCH   5   7
ENDBRANCH   2   3
ENDBRANCH   1   2
BRANCH   1  25
ATOM     25  C   UNL A   1      32.735  32.570  27.402  1.00  0.00     0.118 C 
BRANCH  25  26
ATOM     26  N   UNL A   1      32.515  33.988  27.670  1.00  0.00    -0.352 N 
ATOM     27  C   UNL A   1      33.104  34.827  28.586  1.00  0.00     0.251 C 
ATOM     28  H   UNL A   1      31.833  34.412  27.101  1.00  0.00     0.163 HD
ATOM     29  O   UNL A   1      32.643  35.952  28.757  1.00  0.00    -0.269 OA
BRANCH  27  30
ATOM     30  C   UNL A   1      34.268  34.375  29.381  1.00  0.00     0.039 A 
ATOM     31  C   UNL A   1      34.055  33.782  30.630  1.00  0.00     0.014 A 
ATOM     32  C   UNL A   1      35.568  34.532  28.902  1.00  0.00     0.014 A 
ATOM     33  C   UNL A   1      35.139  33.269  31.349  1.00  0.00     0.010 A 
ATOM     34  C   UNL A   1      36.628  33.923  29.561  1.00  0.00     0.010 A 
ATOM     35  C   UNL A   1      36.431  33.294  30.798  1.00  0.00    -0.014 A 
BRANCH  35  36
ATOM     36  C   UNL A   1      37.596  32.680  31.484  1.00  0.00     0.031 A 
ATOM     37  C   UNL A   1      38.324  31.529  30.839  1.00  0.00     0.074 A 
ATOM     38  C   UNL A   1      37.923  33.072  32.731  1.00  0.00     0.049 A 
ATOM     39  N   UNL A   1      39.271  30.773  31.329  1.00  0.00    -0.248 NA
ATOM     40  C   UNL A   1      37.902  31.151  29.478  1.00  0.00     0.031 C 
ATOM     41  C   UNL A   1      37.240  34.115  33.501  1.00  0.00     0.029 A 
ATOM     42  N   UNL A   1      38.895  32.614  33.587  1.00  0.00    -0.354 N 
ATOM     43  C   UNL A   1      39.520  29.804  30.364  1.00  0.00     0.074 A 
ATOM     44  C   UNL A   1      38.601  30.044  29.274  1.00  0.00     0.031 C 
ATOM     45  C   UNL A   1      37.818  34.223  34.707  1.00  0.00     0.029 A 
ATOM     46  C   UNL A   1      38.890  33.239  34.812  1.00  0.00     0.049 A 
ATOM     47  H   UNL A   1      39.533  31.905  33.346  1.00  0.00     0.167 HD
ATOM     48  C   UNL A   1      40.455  28.825  30.366  1.00  0.00     0.034 A 
ATOM     49  C   UNL A   1      39.663  33.041  35.898  1.00  0.00     0.034 A 
ATOM     50  C   UNL A   1      41.422  28.640  31.412  1.00  0.00     0.049 A 
ATOM     51  C   UNL A   1      40.746  31.998  35.842  1.00  0.00     0.074 A 
ATOM     52  C   UNL A   1      42.475  27.745  31.462  1.00  0.00     0.029 A 
ATOM     53  N   UNL A   1      41.463  29.374  32.587  1.00  0.00    -0.354 N 
ATOM     54  N   UNL A   1      41.064  31.192  34.858  1.00  0.00    -0.248 NA
ATOM     55  C   UNL A   1      41.599  31.860  37.032  1.00  0.00     0.031 C 
ATOM     56  C   UNL A   1      43.155  27.940  32.669  1.00  0.00     0.029 A 
ATOM     57  C   UNL A   1      42.526  28.957  33.368  1.00  0.00     0.049 A 
ATOM     58  H   UNL A   1      40.828  30.088  32.829  1.00  0.00     0.167 HD
ATOM     59  C   UNL A   1      42.173  30.477  35.295  1.00  0.00     0.074 A 
ATOM     60  C   UNL A   1      42.483  30.958  36.626  1.00  0.00     0.031 C 
ATOM     61  C   UNL A   1      42.859  29.494  34.661  1.00  0.00     0.034 A 
BRANCH  48  62
ATOM     62  C   UNL A   1      40.531  27.932  29.156  1.00  0.00     0.023 A 
ATOM     63  C   UNL A   1      39.638  26.846  29.045  1.00  0.00     0.012 A 
ATOM     64  C   UNL A   1      41.441  28.188  28.112  1.00  0.00     0.148 A 
ATOM     65  C   UNL A   1      39.671  26.008  27.933  1.00  0.00     0.002 A 
ATOM     66  C   UNL A   1      41.441  27.371  26.986  1.00  0.00     0.091 A 
ATOM     67  F   UNL A   1      42.300  29.208  28.246  1.00  0.00    -0.205 F 
ATOM     68  C   UNL A   1      40.564  26.276  26.899  1.00  0.00     0.022 A 
BRANCH  66  69
ATOM     69  S   UNL A   1      42.505  27.679  25.572  1.00  0.00     0.127 S 
ATOM     70  O   UNL A   1      42.268  26.487  24.759  1.00  0.00    -0.237 OA
ATOM     71  O   UNL A   1      41.945  28.913  25.022  1.00  0.00    -0.237 OA
ATOM     72  O   UNL A   1      43.851  27.815  26.111  1.00  0.00    -0.744 OA
ENDBRANCH  66  69
ENDBRANCH  48  62
BRANCH  49  73
ATOM     73  C   UNL A   1      39.500  33.912  37.096  1.00  0.00     0.023 A 
ATOM     74  C   UNL A   1      39.934  35.251  37.030  1.00  0.00     0.012 A 
ATOM     75  C   UNL A   1      38.888  33.448  38.275  1.00  0.00     0.148 A 
ATOM     76  C   UNL A   1      39.787  36.102  38.125  1.00  0.00     0.002 A 
ATOM     77  C   UNL A   1      38.698  34.316  39.345  1.00  0.00     0.091 A 
ATOM     78  F   UNL A   1      38.495  32.166  38.328  1.00  0.00    -0.205 F 
ATOM     79  C   UNL A   1      39.160  35.640  39.278  1.00  0.00     0.022 A 
BRANCH  77  80
ATOM     80  S   UNL A   1      37.780  33.832  40.813  1.00  0.00     0.127 S 
ATOM     81  O   UNL A   1      38.726  32.944  41.480  1.00  0.00    -0.237 OA
ATOM     82  O   UNL A   1      37.566  35.118  41.480  1.00  0.00    -0.237 OA
ATOM     83  O   UNL A   1      36.560  33.212  40.314  1.00  0.00    -0.744 OA
ENDBRANCH  77  80
ENDBRANCH  49  73
BRANCH  61  84
ATOM     84  C   UNL A   1      44.033  28.888  35.380  1.00  0.00     0.023 A 
ATOM     85  C   UNL A   1      45.318  29.434  35.190  1.00  0.00     0.012 A 
ATOM     86  C   UNL A   1      43.852  27.843  36.305  1.00  0.00     0.148 A 
ATOM     87  C   UNL A   1      46.410  28.931  35.895  1.00  0.00     0.002 A 
ATOM     88  C   UNL A   1      44.939  27.374  37.034  1.00  0.00     0.091 A 
ATOM     89  F   UNL A   1      42.625  27.324  36.454  1.00  0.00    -0.205 F 
ATOM     90  C   UNL A   1      46.219  27.912  36.825  1.00  0.00     0.022 A 
BRANCH  88  91
ATOM     91  S   UNL A   1      44.763  26.125  38.314  1.00  0.00     0.127 S 
ATOM     92  O   UNL A   1      44.249  24.988  37.553  1.00  0.00    -0.237 OA
ATOM     93  O   UNL A   1      46.138  25.969  38.791  1.00  0.00    -0.237 OA
ATOM     94  O   UNL A   1      43.849  26.692  39.296  1.00  0.00    -0.744 OA
ENDBRANCH  88  91
ENDBRANCH  61  84
ENDBRANCH  35  36
ENDBRANCH  27  30
ENDBRANCH  25  26
ENDBRANCH   1  25
TORSDOF 15
ENDMDL
MODEL 3
REMARK VINA RESULT:     -12.9      2.506      3.324
REMARK SMILES O=C(NCCCNC(=O)c1ccc(-c2c3nc(c(-c4cccc(S(=O)(=O)[O-])c4F)c4ccc([nH]4)c(-c4cccc(S(=O)(=O)[O-])c4F)c4nc(c(-c5cccc(S(=O)(=O)[O-])c5F)c5ccc2[nH]5)C=C4)C=C3)cc1)c1ccc(NC(=O)c2cc(F)cc(Br)c2)cc1
REMARK SMILES IDX 5 1 4 2 3 3 1 4 2 5 73 7 74 8 89 9 75 10 88 11 76 12 77 13
REMARK SMILES IDX 78 14 79 16 80 17 81 18 87 19 82 20 85 21 83 22 84 23 86 24
REMARK SMILES IDX 6 25 7 26 8 27 9 29 10 30 11 31 72 32 12 33 71 34 13 35
REMARK SMILES IDX 14 36 15 37 65 38 16 39 70 40 64 41 66 42 17 43 69 44 63 45
REMARK SMILES IDX 62 46 18 48 50 49 30 50 49 51 31 52 34 53 48 54 67 55 32 56
REMARK SMILES IDX 33 57 47 59 68 60 35 61 19 62 20 63 28 64 21 65 23 66 29 67
REMARK SMILES IDX 22 68 24 69 25 70 26 71 27 72 51 73 52 74 60 75 53 76 55 77
REMARK SMILES IDX 61 78 54 79 56 80 57 81 58 82 59 83 36 84 37 85 45 86 38 87
REMARK SMILES IDX 40 88 46 89 39 90 41 91 42 92 43 93 44 94
REMARK H PARENT 3 6 77 15 7 28 66 47 34 58
REMARK Flexibility Score: inf
ROOT
ATOM      1  C   UNL A   1      31.721  31.831  26.518  1.00  0.00     0.042 C 
ENDROOT
BRANCH   1   2
ATOM      2  C   UNL A   1      31.940  30.354  26.263  1.00  0.00     0.118 C 
BRANCH   2   3
ATOM      3  N   UNL A   1      32.505  30.063  24.947  1.00  0.00    -0.352 N 
ATOM      4  O   UNL A   1      33.171  28.792  23.196  1.00  0.00    -0.269 OA
ATOM      5  C   UNL A   1      32.557  28.872  24.256  1.00  0.00     0.251 C 
ATOM      6  H   UNL A   1      32.908  30.833  24.485  1.00  0.00     0.163 HD
BRANCH   5   7
ATOM      7  C   UNL A   1      31.875  27.681  24.801  1.00  0.00     0.039 A 
ATOM      8  C   UNL A   1      30.708  27.226  24.205  1.00  0.00     0.016 A 
ATOM      9  C   UNL A   1      32.358  27.044  25.944  1.00  0.00     0.016 A 
ATOM     10  C   UNL A   1      29.927  26.279  24.854  1.00  0.00     0.027 A 
ATOM     11  C   UNL A   1      31.620  25.996  26.518  1.00  0.00     0.027 A 
ATOM     12  C   UNL A   1      30.383  25.607  25.982  1.00  0.00     0.041 A 
BRANCH  12  13
ATOM     13  N   UNL A   1      29.684  24.566  26.627  1.00  0.00    -0.322 N 
ATOM     14  C   UNL A   1      29.971  23.236  26.865  1.00  0.00     0.255 C 
ATOM     15  H   UNL A   1      28.810  24.845  26.984  1.00  0.00     0.170 HD
ATOM     16  O   UNL A   1      29.142  22.510  27.410  1.00  0.00    -0.269 OA
BRANCH  14  17
ATOM     17  C   UNL A   1      31.257  22.632  26.480  1.00  0.00     0.044 A 
ATOM     18  C   UNL A   1      32.352  22.810  27.329  1.00  0.00     0.053 A 
ATOM     19  C   UNL A   1      31.357  21.830  25.336  1.00  0.00     0.029 A 
ATOM     20  C   UNL A   1      33.521  22.106  27.070  1.00  0.00     0.125 A 
ATOM     21  C   UNL A   1      32.531  21.104  25.122  1.00  0.00     0.021 A 
ATOM     22  F   UNL A   1      34.564  22.230  27.900  1.00  0.00    -0.207 F 
ATOM     23  C   UNL A   1      33.615  21.233  25.990  1.00  0.00     0.055 A 
ATOM     24  Br  UNL A   1      32.608  19.849  23.712  1.00  0.00    -0.051 Br
ENDBRANCH  14  17
ENDBRANCH  12  13
ENDBRANCH   5   7
ENDBRANCH   2   3
ENDBRANCH   1   2
BRANCH   1  25
ATOM     25  C   UNL A   1      32.814  32.476  27.349  1.00  0.00     0.118 C 
BRANCH  25  26
ATOM     26  N   UNL A   1      32.546  33.878  27.651  1.00  0.00    -0.352 N 
ATOM     27  C   UNL A   1      33.099  34.712  28.593  1.00  0.00     0.251 C 
ATOM     28  H   UNL A   1      31.855  34.295  27.086  1.00  0.00     0.163 HD
ATOM     29  O   UNL A   1      32.600  35.817  28.789  1.00  0.00    -0.269 OA
BRANCH  27  30
ATOM     30  C   UNL A   1      34.270  34.277  29.388  1.00  0.00     0.039 A 
ATOM     31  C   UNL A   1      34.067  33.684  30.638  1.00  0.00     0.014 A 
ATOM     32  C   UNL A   1      35.568  34.452  28.906  1.00  0.00     0.014 A 
ATOM     33  C   UNL A   1      35.159  33.187  31.357  1.00  0.00     0.010 A 
ATOM     34  C   UNL A   1      36.637  33.858  29.565  1.00  0.00     0.010 A 
ATOM     35  C   UNL A   1      36.449  33.229  30.804  1.00  0.00    -0.014 A 
BRANCH  35  36
ATOM     36  C   UNL A   1      37.624  32.632  31.489  1.00  0.00     0.031 A 
ATOM     37  C   UNL A   1      38.356  31.479  30.854  1.00  0.00     0.074 A 
ATOM     38  C   UNL A   1      37.956  33.042  32.730  1.00  0.00     0.049 A 
ATOM     39  N   UNL A   1      39.312  30.736  31.347  1.00  0.00    -0.248 NA
ATOM     40  C   UNL A   1      37.928  31.080  29.501  1.00  0.00     0.031 C 
ATOM     41  C   UNL A   1      37.270  34.089  33.491  1.00  0.00     0.029 A 
ATOM     42  N   UNL A   1      38.937  32.602  33.584  1.00  0.00    -0.354 N 
ATOM     43  C   UNL A   1      39.562  29.756  30.392  1.00  0.00     0.074 A 
ATOM     44  C   UNL A   1      38.634  29.977  29.306  1.00  0.00     0.031 C 
ATOM     45  C   UNL A   1      37.855  34.216  34.692  1.00  0.00     0.029 A 
ATOM     46  C   UNL A   1      38.936  33.242  34.802  1.00  0.00     0.049 A 
ATOM     47  H   UNL A   1      39.578  31.895  33.348  1.00  0.00     0.167 HD
ATOM     48  C   UNL A   1      40.504  28.785  30.400  1.00  0.00     0.034 A 
ATOM     49  C   UNL A   1      39.717  33.063  35.885  1.00  0.00     0.034 A 
ATOM     50  C   UNL A   1      41.479  28.620  31.441  1.00  0.00     0.049 A 
ATOM     51  C   UNL A   1      40.808  32.027  35.835  1.00  0.00     0.074 A 
ATOM     52  C   UNL A   1      42.540  27.734  31.495  1.00  0.00     0.029 A 
ATOM     53  N   UNL A   1      41.523  29.369  32.607  1.00  0.00    -0.354 N 
ATOM     54  N   UNL A   1      41.125  31.212  34.859  1.00  0.00    -0.248 NA
ATOM     55  C   UNL A   1      41.669  31.910  37.020  1.00  0.00     0.031 C 
ATOM     56  C   UNL A   1      43.226  27.948  32.696  1.00  0.00     0.029 A 
ATOM     57  C   UNL A   1      42.594  28.969  33.386  1.00  0.00     0.049 A 
ATOM     58  H   UNL A   1      40.884  30.080  32.845  1.00  0.00     0.167 HD
ATOM     59  C   UNL A   1      42.242  30.510  35.296  1.00  0.00     0.074 A 
ATOM     60  C   UNL A   1      42.557  31.010  36.619  1.00  0.00     0.031 C 
ATOM     61  C   UNL A   1      42.932  29.525  34.670  1.00  0.00     0.034 A 
BRANCH  48  62
ATOM     62  C   UNL A   1      40.579  27.878  29.200  1.00  0.00     0.023 A 
ATOM     63  C   UNL A   1      39.698  26.780  29.113  1.00  0.00     0.012 A 
ATOM     64  C   UNL A   1      41.475  28.131  28.144  1.00  0.00     0.148 A 
ATOM     65  C   UNL A   1      39.730  25.928  28.010  1.00  0.00     0.002 A 
ATOM     66  C   UNL A   1      41.473  27.300  27.028  1.00  0.00     0.091 A 
ATOM     67  F   UNL A   1      42.323  29.164  28.257  1.00  0.00    -0.205 F 
ATOM     68  C   UNL A   1      40.609  26.194  26.964  1.00  0.00     0.022 A 
BRANCH  66  69
ATOM     69  S   UNL A   1      42.519  27.603  25.600  1.00  0.00     0.127 S 
ATOM     70  O   UNL A   1      43.845  27.665  26.213  1.00  0.00    -0.237 OA
ATOM     71  O   UNL A   1      42.282  26.414  24.781  1.00  0.00    -0.237 OA
ATOM     72  O   UNL A   1      42.039  28.846  25.013  1.00  0.00    -0.744 OA
ENDBRANCH  66  69
ENDBRANCH  48  62
BRANCH  49  73
ATOM     73  C   UNL A   1      39.555  33.947  37.073  1.00  0.00     0.023 A 
ATOM     74  C   UNL A   1      39.967  35.292  36.984  1.00  0.00     0.012 A 
ATOM     75  C   UNL A   1      38.966  33.489  38.266  1.00  0.00     0.148 A 
ATOM     76  C   UNL A   1      39.820  36.156  38.069  1.00  0.00     0.002 A 
ATOM     77  C   UNL A   1      38.776  34.368  39.327  1.00  0.00     0.091 A 
ATOM     78  F   UNL A   1      38.595  32.202  38.341  1.00  0.00    -0.205 F 
ATOM     79  C   UNL A   1      39.216  35.699  39.236  1.00  0.00     0.022 A 
BRANCH  77  80
ATOM     80  S   UNL A   1      37.886  33.890  40.813  1.00  0.00     0.127 S 
ATOM     81  O   UNL A   1      38.900  33.134  41.542  1.00  0.00    -0.237 OA
ATOM     82  O   UNL A   1      37.544  35.188  41.399  1.00  0.00    -0.237 OA
ATOM     83  O   UNL A   1      36.735  33.132  40.342  1.00  0.00    -0.744 OA
ENDBRANCH  77  80
ENDBRANCH  49  73
BRANCH  61  84
ATOM     84  C   UNL A   1      44.115  28.937  35.388  1.00  0.00     0.023 A 
ATOM     85  C   UNL A   1      45.382  29.534  35.241  1.00  0.00     0.012 A 
ATOM     86  C   UNL A   1      43.957  27.853  36.273  1.00  0.00     0.148 A 
ATOM     87  C   UNL A   1      46.480  29.046  35.947  1.00  0.00     0.002 A 
ATOM     88  C   UNL A   1      45.048  27.398  37.004  1.00  0.00     0.091 A 
ATOM     89  F   UNL A   1      42.747  27.285  36.382  1.00  0.00    -0.205 F 
ATOM     90  C   UNL A   1      46.311  27.989  36.837  1.00  0.00     0.022 A 
BRANCH  88  91
ATOM     91  S   UNL A   1      44.897  26.100  38.237  1.00  0.00     0.127 S 
ATOM     92  O   UNL A   1      43.940  26.687  39.173  1.00  0.00    -0.237 OA
ATOM     93  O   UNL A   1      44.373  24.981  37.452  1.00  0.00    -0.237 OA
ATOM     94  O   UNL A   1      46.241  25.890  38.757  1.00  0.00    -0.744 OA
ENDBRANCH  88  91
ENDBRANCH  61  84
ENDBRANCH  35  36
ENDBRANCH  27  30
ENDBRANCH  25  26
ENDBRANCH   1  25
TORSDOF 15
ENDMDL
