MODEL 1
REMARK VINA RESULT:     -11.7      0.000      0.000
REMARK SMILES CNC(=O)[C@H](C)S(=O)(=O)c1cc(C(=O)NCCCNC(=O)c2ccc(-c3c4nc(c(-c5cccc(S(=O)(=O)[O-])c5F)c5ccc([nH]5)c(-c5cccc(S(=O)(=O)[O-])c5F)c5nc(c(-c6cccc(S(=O)(=O)[O-])c6F)c6ccc3[nH]6)C=C5)C=C4)cc2)c(C)cc1C
REMARK SMILES IDX 17 1 16 2 15 3 13 4 14 5 12 7 10 8 11 9 88 10 87 11 89 12
REMARK SMILES IDX 85 13 86 14 7 15 8 16 9 17 5 18 6 19 3 20 1 21 2 22 4 24
REMARK SMILES IDX 18 25 19 26 20 27 21 29 22 30 23 31 84 32 24 33 83 34 25 35
REMARK SMILES IDX 26 36 27 37 77 38 28 39 82 40 76 41 78 42 29 43 81 44 75 45
REMARK SMILES IDX 74 46 30 48 62 49 42 50 61 51 43 52 46 53 60 54 79 55 44 56
REMARK SMILES IDX 45 57 59 59 80 60 47 61 31 62 32 63 40 64 33 65 35 66 41 67
REMARK SMILES IDX 34 68 36 69 37 70 38 71 39 72 63 73 64 74 72 75 65 76 67 77
REMARK SMILES IDX 73 78 66 79 68 80 69 81 70 82 71 83 48 84 49 85 57 86 50 87
REMARK SMILES IDX 52 88 58 89 51 90 53 91 54 92 55 93 56 94
REMARK H PARENT 15 6 2 23 19 28 78 47 46 58
REMARK Flexibility Score: inf
ROOT
ATOM      1  C   UNL A   1      32.715  28.381  25.875  1.00  0.00     0.042 C 
ENDROOT
BRANCH   1   2
ATOM      2  C   UNL A   1      32.521  29.511  24.860  1.00  0.00     0.118 C 
BRANCH   2   3
ATOM      3  N   UNL A   1      33.395  29.314  23.721  1.00  0.00    -0.352 N 
ATOM      4  C   UNL A   1      33.759  28.217  22.986  1.00  0.00     0.251 C 
ATOM      5  O   UNL A   1      34.597  28.408  22.100  1.00  0.00    -0.269 OA
ATOM      6  H   UNL A   1      33.817  30.146  23.409  1.00  0.00     0.163 HD
BRANCH   4   7
ATOM      7  C   UNL A   1      33.146  26.857  23.091  1.00  0.00     0.044 A 
ATOM      8  C   UNL A   1      33.531  24.611  24.053  1.00  0.00     0.071 A 
ATOM      9  C   UNL A   1      33.960  25.922  23.766  1.00  0.00     0.034 A 
ATOM     10  C   UNL A   1      32.316  24.154  23.533  1.00  0.00    -0.032 A 
ATOM     11  C   UNL A   1      31.492  25.099  22.899  1.00  0.00     0.009 A 
ATOM     12  C   UNL A   1      31.727  22.780  23.667  1.00  0.00     0.046 C 
ATOM     13  C   UNL A   1      31.848  26.455  22.747  1.00  0.00    -0.038 A 
ATOM     14  C   UNL A   1      30.739  27.362  22.317  1.00  0.00     0.045 C 
BRANCH   8  15
ATOM     15  S   UNL A   1      34.601  23.633  25.103  1.00  0.00     0.190 S 
ATOM     16  O   UNL A   1      33.753  22.984  26.094  1.00  0.00    -0.223 OA
ATOM     17  O   UNL A   1      35.663  24.487  25.603  1.00  0.00    -0.223 OA
BRANCH  15  18
ATOM     18  C   UNL A   1      35.306  22.343  24.097  1.00  0.00     0.199 C 
ATOM     19  C   UNL A   1      36.424  22.863  23.193  1.00  0.00     0.036 C 
BRANCH  18  20
ATOM     20  C   UNL A   1      35.814  21.209  24.949  1.00  0.00     0.238 C 
ATOM     21  C   UNL A   1      33.719  19.781  24.732  1.00  0.00     0.142 C 
ATOM     22  N   UNL A   1      35.078  20.074  25.124  1.00  0.00    -0.358 N 
ATOM     23  H   UNL A   1      35.546  19.343  25.590  1.00  0.00     0.163 HD
ATOM     24  O   UNL A   1      36.922  21.245  25.487  1.00  0.00    -0.274 OA
ENDBRANCH  18  20
ENDBRANCH  15  18
ENDBRANCH   8  15
ENDBRANCH   4   7
ENDBRANCH   2   3
ENDBRANCH   1   2
BRANCH   1  25
ATOM     25  C   UNL A   1      33.536  28.768  27.097  1.00  0.00     0.118 C 
BRANCH  25  26
ATOM     26  N   UNL A   1      33.594  30.209  27.273  1.00  0.00    -0.352 N 
ATOM     27  C   UNL A   1      34.519  30.981  27.934  1.00  0.00     0.251 C 
ATOM     28  H   UNL A   1      32.856  30.710  26.855  1.00  0.00     0.163 HD
ATOM     29  O   UNL A   1      34.242  32.155  28.176  1.00  0.00    -0.269 OA
BRANCH  27  30
ATOM     30  C   UNL A   1      35.832  30.432  28.364  1.00  0.00     0.039 A 
ATOM     31  C   UNL A   1      35.901  29.732  29.575  1.00  0.00     0.014 A 
ATOM     32  C   UNL A   1      37.003  30.655  27.636  1.00  0.00     0.014 A 
ATOM     33  C   UNL A   1      37.127  29.232  30.030  1.00  0.00     0.010 A 
ATOM     34  C   UNL A   1      38.208  30.083  28.047  1.00  0.00     0.010 A 
ATOM     35  C   UNL A   1      38.290  29.386  29.261  1.00  0.00    -0.014 A 
BRANCH  35  36
ATOM     36  C   UNL A   1      39.600  28.851  29.721  1.00  0.00     0.031 A 
ATOM     37  C   UNL A   1      40.350  29.532  30.838  1.00  0.00     0.074 A 
ATOM     38  C   UNL A   1      40.157  27.801  29.086  1.00  0.00     0.049 A 
ATOM     39  N   UNL A   1      41.521  29.240  31.345  1.00  0.00    -0.248 NA
ATOM     40  C   UNL A   1      39.716  30.714  31.447  1.00  0.00     0.031 C 
ATOM     41  C   UNL A   1      39.577  27.106  27.935  1.00  0.00     0.029 A 
ATOM     42  N   UNL A   1      41.347  27.150  29.300  1.00  0.00    -0.354 N 
ATOM     43  C   UNL A   1      41.781  30.221  32.296  1.00  0.00     0.074 A 
ATOM     44  C   UNL A   1      40.662  31.136  32.274  1.00  0.00     0.031 C 
ATOM     45  C   UNL A   1      40.411  26.128  27.545  1.00  0.00     0.029 A 
ATOM     46  C   UNL A   1      41.593  26.137  28.403  1.00  0.00     0.049 A 
ATOM     47  H   UNL A   1      41.966  27.386  30.029  1.00  0.00     0.167 HD
ATOM     48  C   UNL A   1      42.839  30.335  33.135  1.00  0.00     0.034 A 
ATOM     49  C   UNL A   1      42.649  25.310  28.280  1.00  0.00     0.034 A 
ATOM     50  C   UNL A   1      43.920  29.390  33.200  1.00  0.00     0.049 A 
ATOM     51  C   UNL A   1      43.777  25.411  29.273  1.00  0.00     0.074 A 
ATOM     52  C   UNL A   1      44.981  29.356  34.088  1.00  0.00     0.029 A 
ATOM     53  N   UNL A   1      44.080  28.312  32.344  1.00  0.00    -0.354 N 
ATOM     54  N   UNL A   1      43.918  26.240  30.279  1.00  0.00    -0.248 NA
ATOM     55  C   UNL A   1      44.871  24.438  29.140  1.00  0.00     0.031 C 
ATOM     56  C   UNL A   1      45.791  28.263  33.759  1.00  0.00     0.029 A 
ATOM     57  C   UNL A   1      45.225  27.608  32.677  1.00  0.00     0.049 A 
ATOM     58  H   UNL A   1      43.469  28.081  31.607  1.00  0.00     0.167 HD
ATOM     59  C   UNL A   1      45.098  25.870  30.915  1.00  0.00     0.074 A 
ATOM     60  C   UNL A   1      45.620  24.727  30.195  1.00  0.00     0.031 C 
ATOM     61  C   UNL A   1      45.704  26.439  31.987  1.00  0.00     0.034 A 
BRANCH  48  62
ATOM     62  C   UNL A   1      42.846  31.492  34.102  1.00  0.00     0.023 A 
ATOM     63  C   UNL A   1      43.457  32.705  33.726  1.00  0.00     0.012 A 
ATOM     64  C   UNL A   1      42.203  31.402  35.353  1.00  0.00     0.148 A 
ATOM     65  C   UNL A   1      43.462  33.799  34.591  1.00  0.00     0.002 A 
ATOM     66  C   UNL A   1      42.175  32.510  36.193  1.00  0.00     0.091 A 
ATOM     67  F   UNL A   1      41.645  30.235  35.704  1.00  0.00    -0.205 F 
ATOM     68  C   UNL A   1      42.813  33.705  35.818  1.00  0.00     0.022 A 
BRANCH  66  69
ATOM     69  S   UNL A   1      41.298  32.513  37.761  1.00  0.00     0.127 S 
ATOM     70  O   UNL A   1      42.137  31.631  38.570  1.00  0.00    -0.237 OA
ATOM     71  O   UNL A   1      41.353  33.925  38.145  1.00  0.00    -0.237 OA
ATOM     72  O   UNL A   1      39.960  32.018  37.472  1.00  0.00    -0.744 OA
ENDBRANCH  66  69
ENDBRANCH  48  62
BRANCH  49  73
ATOM     73  C   UNL A   1      42.649  24.260  27.223  1.00  0.00     0.023 A 
ATOM     74  C   UNL A   1      43.338  24.496  26.016  1.00  0.00     0.012 A 
ATOM     75  C   UNL A   1      42.013  23.018  27.419  1.00  0.00     0.148 A 
ATOM     76  C   UNL A   1      43.372  23.525  25.015  1.00  0.00     0.002 A 
ATOM     77  C   UNL A   1      42.098  22.036  26.439  1.00  0.00     0.091 A 
ATOM     78  F   UNL A   1      41.350  22.818  28.566  1.00  0.00    -0.205 F 
ATOM     79  C   UNL A   1      42.764  22.292  25.230  1.00  0.00     0.022 A 
BRANCH  77  80
ATOM     80  S   UNL A   1      41.465  20.373  26.692  1.00  0.00     0.127 S 
ATOM     81  O   UNL A   1      41.856  19.712  25.450  1.00  0.00    -0.237 OA
ATOM     82  O   UNL A   1      42.204  19.942  27.879  1.00  0.00    -0.237 OA
ATOM     83  O   UNL A   1      40.033  20.531  26.906  1.00  0.00    -0.744 OA
ENDBRANCH  77  80
ENDBRANCH  49  73
BRANCH  61  84
ATOM     84  C   UNL A   1      46.991  25.823  32.469  1.00  0.00     0.023 A 
ATOM     85  C   UNL A   1      46.975  24.948  33.572  1.00  0.00     0.012 A 
ATOM     86  C   UNL A   1      48.201  26.049  31.782  1.00  0.00     0.148 A 
ATOM     87  C   UNL A   1      48.147  24.330  34.004  1.00  0.00     0.002 A 
ATOM     88  C   UNL A   1      49.357  25.394  32.190  1.00  0.00     0.091 A 
ATOM     89  F   UNL A   1      48.200  26.901  30.746  1.00  0.00    -0.205 F 
ATOM     90  C   UNL A   1      49.334  24.543  33.306  1.00  0.00     0.022 A 
BRANCH  88  91
ATOM     91  S   UNL A   1      50.908  25.538  31.294  1.00  0.00     0.127 S 
ATOM     92  O   UNL A   1      51.714  24.493  31.922  1.00  0.00    -0.237 OA
ATOM     93  O   UNL A   1      50.502  25.252  29.917  1.00  0.00    -0.237 OA
ATOM     94  O   UNL A   1      51.367  26.903  31.513  1.00  0.00    -0.744 OA
ENDBRANCH  88  91
ENDBRANCH  61  84
ENDBRANCH  35  36
ENDBRANCH  27  30
ENDBRANCH  25  26
ENDBRANCH   1  25
TORSDOF 16
ENDMDL
MODEL 2
REMARK VINA RESULT:     -11.5      2.805      3.630
REMARK SMILES CNC(=O)[C@H](C)S(=O)(=O)c1cc(C(=O)NCCCNC(=O)c2ccc(-c3c4nc(c(-c5cccc(S(=O)(=O)[O-])c5F)c5ccc([nH]5)c(-c5cccc(S(=O)(=O)[O-])c5F)c5nc(c(-c6cccc(S(=O)(=O)[O-])c6F)c6ccc3[nH]6)C=C5)C=C4)cc2)c(C)cc1C
REMARK SMILES IDX 17 1 16 2 15 3 13 4 14 5 12 7 10 8 11 9 88 10 87 11 89 12
REMARK SMILES IDX 85 13 86 14 7 15 8 16 9 17 5 18 6 19 3 20 1 21 2 22 4 24
REMARK SMILES IDX 18 25 19 26 20 27 21 29 22 30 23 31 84 32 24 33 83 34 25 35
REMARK SMILES IDX 26 36 27 37 77 38 28 39 82 40 76 41 78 42 29 43 81 44 75 45
REMARK SMILES IDX 74 46 30 48 62 49 42 50 61 51 43 52 46 53 60 54 79 55 44 56
REMARK SMILES IDX 45 57 59 59 80 60 47 61 31 62 32 63 40 64 33 65 35 66 41 67
REMARK SMILES IDX 34 68 36 69 37 70 38 71 39 72 63 73 64 74 72 75 65 76 67 77
REMARK SMILES IDX 73 78 66 79 68 80 69 81 70 82 71 83 48 84 49 85 57 86 50 87
REMARK SMILES IDX 52 88 58 89 51 90 53 91 54 92 55 93 56 94
REMARK H PARENT 15 6 2 23 19 28 78 47 46 58
REMARK Flexibility Score: inf
ROOT
ATOM      1  C   UNL A   1      31.608  29.021  26.398  1.00  0.00     0.042 C 
ENDROOT
BRANCH   1   2
ATOM      2  C   UNL A   1      32.085  27.727  27.061  1.00  0.00     0.118 C 
BRANCH   2   3
ATOM      3  N   UNL A   1      31.043  26.722  26.999  1.00  0.00    -0.352 N 
ATOM      4  C   UNL A   1      30.483  26.000  25.979  1.00  0.00     0.251 C 
ATOM      5  O   UNL A   1      29.547  25.256  26.286  1.00  0.00    -0.269 OA
ATOM      6  H   UNL A   1      30.654  26.513  27.879  1.00  0.00     0.163 HD
BRANCH   4   7
ATOM      7  C   UNL A   1      30.986  25.950  24.570  1.00  0.00     0.044 A 
ATOM      8  C   UNL A   1      32.360  24.581  23.037  1.00  0.00     0.071 A 
ATOM      9  C   UNL A   1      31.851  24.864  24.319  1.00  0.00     0.034 A 
ATOM     10  C   UNL A   1      32.130  25.479  21.990  1.00  0.00    -0.032 A 
ATOM     11  C   UNL A   1      31.235  26.535  22.234  1.00  0.00     0.009 A 
ATOM     12  C   UNL A   1      32.645  25.391  20.583  1.00  0.00     0.046 C 
ATOM     13  C   UNL A   1      30.596  26.733  23.476  1.00  0.00    -0.038 A 
ATOM     14  C   UNL A   1      29.470  27.717  23.464  1.00  0.00     0.045 C 
BRANCH   8  15
ATOM     15  S   UNL A   1      33.263  23.045  22.857  1.00  0.00     0.190 S 
ATOM     16  O   UNL A   1      34.615  23.390  22.439  1.00  0.00    -0.223 OA
ATOM     17  O   UNL A   1      32.508  22.166  21.984  1.00  0.00    -0.223 OA
BRANCH  15  18
ATOM     18  C   UNL A   1      33.391  22.306  24.473  1.00  0.00     0.199 C 
ATOM     19  C   UNL A   1      32.455  21.107  24.634  1.00  0.00     0.036 C 
BRANCH  18  20
ATOM     20  C   UNL A   1      34.811  21.900  24.771  1.00  0.00     0.238 C 
ATOM     21  C   UNL A   1      35.563  24.196  25.566  1.00  0.00     0.142 C 
ATOM     22  N   UNL A   1      35.695  22.778  25.322  1.00  0.00    -0.358 N 
ATOM     23  H   UNL A   1      36.556  22.386  25.596  1.00  0.00     0.163 HD
ATOM     24  O   UNL A   1      35.217  20.754  24.564  1.00  0.00    -0.274 OA
ENDBRANCH  18  20
ENDBRANCH  15  18
ENDBRANCH   8  15
ENDBRANCH   4   7
ENDBRANCH   2   3
ENDBRANCH   1   2
BRANCH   1  25
ATOM     25  C   UNL A   1      32.722  29.868  25.799  1.00  0.00     0.118 C 
BRANCH  25  26
ATOM     26  N   UNL A   1      32.571  31.274  26.136  1.00  0.00    -0.352 N 
ATOM     27  C   UNL A   1      33.192  32.019  27.109  1.00  0.00     0.251 C 
ATOM     28  H   UNL A   1      31.924  31.768  25.582  1.00  0.00     0.163 HD
ATOM     29  O   UNL A   1      32.732  33.126  27.387  1.00  0.00    -0.269 OA
BRANCH  27  30
ATOM     30  C   UNL A   1      34.391  31.520  27.832  1.00  0.00     0.039 A 
ATOM     31  C   UNL A   1      35.351  32.447  28.259  1.00  0.00     0.014 A 
ATOM     32  C   UNL A   1      34.622  30.157  28.032  1.00  0.00     0.014 A 
ATOM     33  C   UNL A   1      36.510  32.011  28.911  1.00  0.00     0.010 A 
ATOM     34  C   UNL A   1      35.735  29.730  28.757  1.00  0.00     0.010 A 
ATOM     35  C   UNL A   1      36.705  30.648  29.184  1.00  0.00    -0.014 A 
BRANCH  35  36
ATOM     36  C   UNL A   1      37.925  30.166  29.886  1.00  0.00     0.031 A 
ATOM     37  C   UNL A   1      38.255  30.666  31.270  1.00  0.00     0.074 A 
ATOM     38  C   UNL A   1      38.779  29.337  29.254  1.00  0.00     0.049 A 
ATOM     39  N   UNL A   1      39.292  30.395  32.021  1.00  0.00    -0.248 NA
ATOM     40  C   UNL A   1      37.312  31.619  31.879  1.00  0.00     0.031 C 
ATOM     41  C   UNL A   1      38.623  28.848  27.883  1.00  0.00     0.029 A 
ATOM     42  N   UNL A   1      39.965  28.782  29.670  1.00  0.00    -0.354 N 
ATOM     43  C   UNL A   1      39.150  31.173  33.165  1.00  0.00     0.074 A 
ATOM     44  C   UNL A   1      37.942  31.951  32.997  1.00  0.00     0.031 C 
ATOM     45  C   UNL A   1      39.670  28.067  27.572  1.00  0.00     0.029 A 
ATOM     46  C   UNL A   1      40.583  28.015  28.710  1.00  0.00     0.049 A 
ATOM     47  H   UNL A   1      40.337  28.920  30.572  1.00  0.00     0.167 HD
ATOM     48  C   UNL A   1      39.932  31.213  34.270  1.00  0.00     0.034 A 
ATOM     49  C   UNL A   1      41.752  27.346  28.740  1.00  0.00     0.034 A 
ATOM     50  C   UNL A   1      41.096  30.393  34.463  1.00  0.00     0.049 A 
ATOM     51  C   UNL A   1      42.566  27.348  30.007  1.00  0.00     0.074 A 
ATOM     52  C   UNL A   1      41.893  30.279  35.589  1.00  0.00     0.029 A 
ATOM     53  N   UNL A   1      41.632  29.544  33.507  1.00  0.00    -0.354 N 
ATOM     54  N   UNL A   1      42.319  27.954  31.143  1.00  0.00    -0.248 NA
ATOM     55  C   UNL A   1      43.796  26.544  30.011  1.00  0.00     0.031 C 
ATOM     56  C   UNL A   1      42.920  29.371  35.308  1.00  0.00     0.029 A 
ATOM     57  C   UNL A   1      42.753  28.907  34.014  1.00  0.00     0.049 A 
ATOM     58  H   UNL A   1      41.269  29.413  32.601  1.00  0.00     0.167 HD
ATOM     59  C   UNL A   1      43.344  27.580  32.005  1.00  0.00     0.074 A 
ATOM     60  C   UNL A   1      44.201  26.677  31.267  1.00  0.00     0.031 C 
ATOM     61  C   UNL A   1      43.565  27.967  33.286  1.00  0.00     0.034 A 
BRANCH  48  62
ATOM     62  C   UNL A   1      39.516  32.132  35.390  1.00  0.00     0.023 A 
ATOM     63  C   UNL A   1      38.731  31.625  36.447  1.00  0.00     0.012 A 
ATOM     64  C   UNL A   1      39.942  33.475  35.431  1.00  0.00     0.148 A 
ATOM     65  C   UNL A   1      38.348  32.445  37.507  1.00  0.00     0.002 A 
ATOM     66  C   UNL A   1      39.591  34.276  36.512  1.00  0.00     0.091 A 
ATOM     67  F   UNL A   1      40.668  33.947  34.408  1.00  0.00    -0.205 F 
ATOM     68  C   UNL A   1      38.785  33.766  37.545  1.00  0.00     0.022 A 
BRANCH  66  69
ATOM     69  S   UNL A   1      40.168  35.967  36.691  1.00  0.00     0.127 S 
ATOM     70  O   UNL A   1      41.616  35.779  36.762  1.00  0.00    -0.237 OA
ATOM     71  O   UNL A   1      39.696  36.589  35.452  1.00  0.00    -0.237 OA
ATOM     72  O   UNL A   1      39.540  36.479  37.901  1.00  0.00    -0.744 OA
ENDBRANCH  66  69
ENDBRANCH  48  62
BRANCH  49  73
ATOM     73  C   UNL A   1      42.181  26.551  27.554  1.00  0.00     0.023 A 
ATOM     74  C   UNL A   1      42.960  27.168  26.555  1.00  0.00     0.012 A 
ATOM     75  C   UNL A   1      41.863  25.184  27.431  1.00  0.00     0.148 A 
ATOM     76  C   UNL A   1      43.392  26.445  25.443  1.00  0.00     0.002 A 
ATOM     77  C   UNL A   1      42.344  24.457  26.348  1.00  0.00     0.091 A 
ATOM     78  F   UNL A   1      41.109  24.619  28.383  1.00  0.00    -0.205 F 
ATOM     79  C   UNL A   1      43.096  25.089  25.345  1.00  0.00     0.022 A 
BRANCH  77  80
ATOM     80  S   UNL A   1      42.128  22.678  26.215  1.00  0.00     0.127 S 
ATOM     81  O   UNL A   1      40.675  22.556  26.159  1.00  0.00    -0.237 OA
ATOM     82  O   UNL A   1      42.821  22.379  24.961  1.00  0.00    -0.237 OA
ATOM     83  O   UNL A   1      42.770  22.119  27.397  1.00  0.00    -0.744 OA
ENDBRANCH  77  80
ENDBRANCH  49  73
BRANCH  61  84
ATOM     84  C   UNL A   1      44.771  27.399  33.988  1.00  0.00     0.023 A 
ATOM     85  C   UNL A   1      45.983  28.117  33.979  1.00  0.00     0.012 A 
ATOM     86  C   UNL A   1      44.683  26.199  34.719  1.00  0.00     0.148 A 
ATOM     87  C   UNL A   1      47.098  27.633  34.663  1.00  0.00     0.002 A 
ATOM     88  C   UNL A   1      45.784  25.746  35.437  1.00  0.00     0.091 A 
ATOM     89  F   UNL A   1      43.526  25.520  34.700  1.00  0.00    -0.205 F 
ATOM     90  C   UNL A   1      46.995  26.456  35.401  1.00  0.00     0.022 A 
BRANCH  88  91
ATOM     91  S   UNL A   1      45.712  24.290  36.487  1.00  0.00     0.127 S 
ATOM     92  O   UNL A   1      44.627  24.636  37.403  1.00  0.00    -0.237 OA
ATOM     93  O   UNL A   1      45.390  23.230  35.532  1.00  0.00    -0.237 OA
ATOM     94  O   UNL A   1      47.032  24.173  37.093  1.00  0.00    -0.744 OA
ENDBRANCH  88  91
ENDBRANCH  61  84
ENDBRANCH  35  36
ENDBRANCH  27  30
ENDBRANCH  25  26
ENDBRANCH   1  25
TORSDOF 16
ENDMDL
MODEL 3
REMARK VINA RESULT:     -11.5      2.724      3.397
REMARK SMILES CNC(=O)[C@H](C)S(=O)(=O)c1cc(C(=O)NCCCNC(=O)c2ccc(-c3c4nc(c(-c5cccc(S(=O)(=O)[O-])c5F)c5ccc([nH]5)c(-c5cccc(S(=O)(=O)[O-])c5F)c5nc(c(-c6cccc(S(=O)(=O)[O-])c6F)c6ccc3[nH]6)C=C5)C=C4)cc2)c(C)cc1C
REMARK SMILES IDX 17 1 16 2 15 3 13 4 14 5 12 7 10 8 11 9 88 10 87 11 89 12
REMARK SMILES IDX 85 13 86 14 7 15 8 16 9 17 5 18 6 19 3 20 1 21 2 22 4 24
REMARK SMILES IDX 18 25 19 26 20 27 21 29 22 30 23 31 84 32 24 33 83 34 25 35
REMARK SMILES IDX 26 36 27 37 77 38 28 39 82 40 76 41 78 42 29 43 81 44 75 45
REMARK SMILES IDX 74 46 30 48 62 49 42 50 61 51 43 52 46 53 60 54 79 55 44 56
REMARK SMILES IDX 45 57 59 59 80 60 47 61 31 62 32 63 40 64 33 65 35 66 41 67
REMARK SMILES IDX 34 68 36 69 37 70 38 71 39 72 63 73 64 74 72 75 65 76 67 77
REMARK SMILES IDX 73 78 66 79 68 80 69 81 70 82 71 83 48 84 49 85 57 86 50 87
REMARK SMILES IDX 52 88 58 89 51 90 53 91 54 92 55 93 56 94
REMARK H PARENT 15 6 2 23 19 28 78 47 46 58
REMARK Flexibility Score: inf
ROOT
ATOM      1  C   UNL A   1      31.653  28.634  24.981  1.00  0.00     0.042 C 
ENDROOT
BRANCH   1   2
ATOM      2  C   UNL A   1      31.318  28.557  23.490  1.00  0.00     0.118 C 
BRANCH   2   3
ATOM      3  N   UNL A   1      32.531  28.658  22.701  1.00  0.00    -0.352 N 
ATOM      4  C   UNL A   1      33.430  27.741  22.226  1.00  0.00     0.251 C 
ATOM      5  O   UNL A   1      34.409  28.197  21.627  1.00  0.00    -0.269 OA
ATOM      6  H   UNL A   1      32.756  29.584  22.455  1.00  0.00     0.163 HD
BRANCH   4   7
ATOM      7  C   UNL A   1      33.262  26.255  22.267  1.00  0.00     0.044 A 
ATOM      8  C   UNL A   1      33.083  24.355  23.841  1.00  0.00     0.071 A 
ATOM      9  C   UNL A   1      33.312  25.719  23.572  1.00  0.00     0.034 A 
ATOM     10  C   UNL A   1      32.944  23.457  22.778  1.00  0.00    -0.032 A 
ATOM     11  C   UNL A   1      32.854  24.001  21.485  1.00  0.00     0.009 A 
ATOM     12  C   UNL A   1      32.768  21.969  22.859  1.00  0.00     0.046 C 
ATOM     13  C   UNL A   1      32.923  25.385  21.223  1.00  0.00    -0.038 A 
ATOM     14  C   UNL A   1      32.519  25.794  19.842  1.00  0.00     0.045 C 
BRANCH   8  15
ATOM     15  S   UNL A   1      32.969  23.890  25.566  1.00  0.00     0.190 S 
ATOM     16  O   UNL A   1      31.699  23.198  25.739  1.00  0.00    -0.223 OA
ATOM     17  O   UNL A   1      33.191  25.072  26.378  1.00  0.00    -0.223 OA
BRANCH  15  18
ATOM     18  C   UNL A   1      34.257  22.701  25.887  1.00  0.00     0.199 C 
ATOM     19  C   UNL A   1      35.612  23.370  26.121  1.00  0.00     0.036 C 
BRANCH  18  20
ATOM     20  C   UNL A   1      33.902  21.823  27.058  1.00  0.00     0.238 C 
ATOM     21  C   UNL A   1      33.120  19.848  25.658  1.00  0.00     0.142 C 
ATOM     22  N   UNL A   1      33.471  20.542  26.875  1.00  0.00    -0.358 N 
ATOM     23  H   UNL A   1      33.387  20.010  27.699  1.00  0.00     0.163 HD
ATOM     24  O   UNL A   1      34.022  22.211  28.222  1.00  0.00    -0.274 OA
ENDBRANCH  18  20
ENDBRANCH  15  18
ENDBRANCH   8  15
ENDBRANCH   4   7
ENDBRANCH   2   3
ENDBRANCH   1   2
BRANCH   1  25
ATOM     25  C   UNL A   1      32.894  29.453  25.306  1.00  0.00     0.118 C 
BRANCH  25  26
ATOM     26  N   UNL A   1      32.553  30.782  25.783  1.00  0.00    -0.352 N 
ATOM     27  C   UNL A   1      33.016  31.473  26.877  1.00  0.00     0.251 C 
ATOM     28  H   UNL A   1      31.887  31.262  25.239  1.00  0.00     0.163 HD
ATOM     29  O   UNL A   1      32.409  32.480  27.238  1.00  0.00    -0.269 OA
BRANCH  27  30
ATOM     30  C   UNL A   1      34.219  31.030  27.630  1.00  0.00     0.039 A 
ATOM     31  C   UNL A   1      35.218  31.970  27.911  1.00  0.00     0.014 A 
ATOM     32  C   UNL A   1      34.413  29.697  28.000  1.00  0.00     0.014 A 
ATOM     33  C   UNL A   1      36.380  31.583  28.586  1.00  0.00     0.010 A 
ATOM     34  C   UNL A   1      35.531  29.329  28.749  1.00  0.00     0.010 A 
ATOM     35  C   UNL A   1      36.541  30.261  29.030  1.00  0.00    -0.014 A 
BRANCH  35  36
ATOM     36  C   UNL A   1      37.764  29.831  29.760  1.00  0.00     0.031 A 
ATOM     37  C   UNL A   1      38.049  30.360  31.144  1.00  0.00     0.074 A 
ATOM     38  C   UNL A   1      38.660  29.028  29.154  1.00  0.00     0.049 A 
ATOM     39  N   UNL A   1      39.082  30.135  31.917  1.00  0.00    -0.248 NA
ATOM     40  C   UNL A   1      37.060  31.283  31.724  1.00  0.00     0.031 C 
ATOM     41  C   UNL A   1      38.547  28.518  27.786  1.00  0.00     0.029 A 
ATOM     42  N   UNL A   1      39.857  28.522  29.598  1.00  0.00    -0.354 N 
ATOM     43  C   UNL A   1      38.889  30.920  33.049  1.00  0.00     0.074 A 
ATOM     44  C   UNL A   1      37.657  31.651  32.850  1.00  0.00     0.031 C 
ATOM     45  C   UNL A   1      39.628  27.773  27.503  1.00  0.00     0.029 A 
ATOM     46  C   UNL A   1      40.521  27.767  28.659  1.00  0.00     0.049 A 
ATOM     47  H   UNL A   1      40.207  28.683  30.505  1.00  0.00     0.167 HD
ATOM     48  C   UNL A   1      39.648  31.001  34.168  1.00  0.00     0.034 A 
ATOM     49  C   UNL A   1      41.713  27.142  28.718  1.00  0.00     0.034 A 
ATOM     50  C   UNL A   1      40.838  30.227  34.391  1.00  0.00     0.049 A 
ATOM     51  C   UNL A   1      42.502  27.189  30.000  1.00  0.00     0.074 A 
ATOM     52  C   UNL A   1      41.616  30.155  35.534  1.00  0.00     0.029 A 
ATOM     53  N   UNL A   1      41.422  29.387  33.456  1.00  0.00    -0.354 N 
ATOM     54  N   UNL A   1      42.211  27.798  31.125  1.00  0.00    -0.248 NA
ATOM     55  C   UNL A   1      43.760  26.430  30.037  1.00  0.00     0.031 C 
ATOM     56  C   UNL A   1      42.681  29.282  35.283  1.00  0.00     0.029 A 
ATOM     57  C   UNL A   1      42.556  28.798  33.991  1.00  0.00     0.049 A 
ATOM     58  H   UNL A   1      41.082  29.233  32.545  1.00  0.00     0.167 HD
ATOM     59  C   UNL A   1      43.233  27.472  32.010  1.00  0.00     0.074 A 
ATOM     60  C   UNL A   1      44.137  26.592  31.298  1.00  0.00     0.031 C 
ATOM     61  C   UNL A   1      43.416  27.881  33.290  1.00  0.00     0.034 A 
BRANCH  48  62
ATOM     62  C   UNL A   1      39.177  31.917  35.269  1.00  0.00     0.023 A 
ATOM     63  C   UNL A   1      38.227  31.449  36.200  1.00  0.00     0.012 A 
ATOM     64  C   UNL A   1      39.710  33.212  35.420  1.00  0.00     0.148 A 
ATOM     65  C   UNL A   1      37.787  32.265  37.241  1.00  0.00     0.002 A 
ATOM     66  C   UNL A   1      39.298  34.006  36.486  1.00  0.00     0.091 A 
ATOM     67  F   UNL A   1      40.596  33.650  34.515  1.00  0.00    -0.205 F 
ATOM     68  C   UNL A   1      38.329  33.538  37.390  1.00  0.00     0.022 A 
BRANCH  66  69
ATOM     69  S   UNL A   1      39.994  35.630  36.807  1.00  0.00     0.127 S 
ATOM     70  O   UNL A   1      39.329  35.995  38.057  1.00  0.00    -0.237 OA
ATOM     71  O   UNL A   1      41.422  35.336  36.942  1.00  0.00    -0.237 OA
ATOM     72  O   UNL A   1      39.652  36.448  35.651  1.00  0.00    -0.744 OA
ENDBRANCH  66  69
ENDBRANCH  48  62
BRANCH  49  73
ATOM     73  C   UNL A   1      42.193  26.350  27.550  1.00  0.00     0.023 A 
ATOM     74  C   UNL A   1      42.997  26.975  26.577  1.00  0.00     0.012 A 
ATOM     75  C   UNL A   1      41.899  24.979  27.421  1.00  0.00     0.148 A 
ATOM     76  C   UNL A   1      43.477  26.256  25.482  1.00  0.00     0.002 A 
ATOM     77  C   UNL A   1      42.426  24.256  26.356  1.00  0.00     0.091 A 
ATOM     78  F   UNL A   1      41.120  24.405  28.348  1.00  0.00    -0.205 F 
ATOM     79  C   UNL A   1      43.203  24.895  25.378  1.00  0.00     0.022 A 
BRANCH  77  80
ATOM     80  S   UNL A   1      42.240  22.474  26.222  1.00  0.00     0.127 S 
ATOM     81  O   UNL A   1      40.789  22.330  26.136  1.00  0.00    -0.237 OA
ATOM     82  O   UNL A   1      42.963  22.184  24.982  1.00  0.00    -0.237 OA
ATOM     83  O   UNL A   1      42.865  21.926  27.418  1.00  0.00    -0.744 OA
ENDBRANCH  77  80
ENDBRANCH  49  73
BRANCH  61  84
ATOM     84  C   UNL A   1      44.628  27.366  34.020  1.00  0.00     0.023 A 
ATOM     85  C   UNL A   1      45.823  28.111  33.998  1.00  0.00     0.012 A 
ATOM     86  C   UNL A   1      44.561  26.188  34.791  1.00  0.00     0.148 A 
ATOM     87  C   UNL A   1      46.942  27.677  34.707  1.00  0.00     0.002 A 
ATOM     88  C   UNL A   1      45.666  25.786  35.532  1.00  0.00     0.091 A 
ATOM     89  F   UNL A   1      43.421  25.482  34.784  1.00  0.00    -0.205 F 
ATOM     90  C   UNL A   1      46.860  26.523  35.483  1.00  0.00     0.022 A 
BRANCH  88  91
ATOM     91  S   UNL A   1      45.619  24.365  36.630  1.00  0.00     0.127 S 
ATOM     92  O   UNL A   1      45.274  23.286  35.707  1.00  0.00    -0.237 OA
ATOM     93  O   UNL A   1      46.990  24.316  37.140  1.00  0.00    -0.237 OA
ATOM     94  O   UNL A   1      44.614  24.675  37.638  1.00  0.00    -0.744 OA
ENDBRANCH  88  91
ENDBRANCH  61  84
ENDBRANCH  35  36
ENDBRANCH  27  30
ENDBRANCH  25  26
ENDBRANCH   1  25
TORSDOF 16
ENDMDL
