MODEL 1
REMARK VINA RESULT:     -12.3      0.000      0.000
REMARK SMILES C[C@H](c1ccccc1Cl)N(C)c1cccc(F)c1C(=O)NCCCNC(=O)c1ccc(-c2c3nc(c(-c4cccc(S(=O)(=O)[O-])c4F)c4ccc([nH]4)c(-c4cccc(S(=O)(=O)[O-])c4F)c4nc(c(-c5cccc(S(=O)(=O)[O-])c5F)c5ccc2[nH]5)C=C4)C=C3)cc1
REMARK SMILES IDX 23 1 22 2 21 3 19 4 20 5 18 7 12 8 13 9 14 10 16 11 15 12
REMARK SMILES IDX 17 13 10 14 11 15 2 16 1 17 3 18 4 19 8 20 5 21 7 22 9 23
REMARK SMILES IDX 6 24 24 25 25 26 26 27 27 29 28 30 29 31 90 32 30 33 89 34
REMARK SMILES IDX 31 35 32 36 33 37 83 38 34 39 88 40 82 41 84 42 35 43 87 44
REMARK SMILES IDX 81 45 80 46 36 48 68 49 48 50 67 51 49 52 52 53 66 54 85 55
REMARK SMILES IDX 50 56 51 57 65 59 86 60 53 61 37 62 38 63 46 64 39 65 41 66
REMARK SMILES IDX 47 67 40 68 42 69 43 70 44 71 45 72 69 73 70 74 78 75 71 76
REMARK SMILES IDX 73 77 79 78 72 79 74 80 75 81 76 82 77 83 54 84 55 85 63 86
REMARK SMILES IDX 56 87 58 88 64 89 57 90 59 91 60 92 61 93 62 94
REMARK H PARENT 21 6 25 28 84 47 52 58
REMARK Flexibility Score: inf
ROOT
ATOM      1  C   UNL A   1      31.578  31.797  26.466  1.00  0.00     0.042 C 
ENDROOT
BRANCH   1   2
ATOM      2  C   UNL A   1      31.699  30.314  26.154  1.00  0.00     0.118 C 
BRANCH   2   3
ATOM      3  N   UNL A   1      32.631  29.968  25.087  1.00  0.00    -0.352 N 
ATOM      4  C   UNL A   1      32.497  29.167  23.964  1.00  0.00     0.256 C 
ATOM      5  O   UNL A   1      33.390  29.256  23.122  1.00  0.00    -0.269 OA
ATOM      6  H   UNL A   1      33.520  30.379  25.182  1.00  0.00     0.163 HD
BRANCH   4   7
ATOM      7  C   UNL A   1      31.380  28.187  23.810  1.00  0.00     0.098 A 
ATOM      8  C   UNL A   1      31.467  26.854  24.282  1.00  0.00     0.053 A 
ATOM      9  C   UNL A   1      30.268  26.115  24.380  1.00  0.00     0.027 A 
ATOM     10  C   UNL A   1      29.059  26.593  23.882  1.00  0.00     0.005 A 
ATOM     11  C   UNL A   1      30.199  28.583  23.172  1.00  0.00     0.138 A 
ATOM     12  C   UNL A   1      29.039  27.813  23.225  1.00  0.00     0.040 A 
ATOM     13  F   UNL A   1      30.152  29.714  22.450  1.00  0.00    -0.206 F 
BRANCH   8  14
ATOM     14  N   UNL A   1      32.647  26.175  24.568  1.00  0.00    -0.367 N 
ATOM     15  C   UNL A   1      33.185  26.264  25.916  1.00  0.00     0.144 C 
BRANCH  14  16
ATOM     16  C   UNL A   1      33.425  25.486  23.509  1.00  0.00     0.110 C 
ATOM     17  C   UNL A   1      33.043  25.948  22.093  1.00  0.00     0.036 C 
BRANCH  16  18
ATOM     18  C   UNL A   1      33.380  23.961  23.658  1.00  0.00    -0.007 A 
ATOM     19  C   UNL A   1      32.268  23.227  23.185  1.00  0.00     0.007 A 
ATOM     20  C   UNL A   1      34.412  23.232  24.276  1.00  0.00     0.046 A 
ATOM     21  C   UNL A   1      32.177  21.842  23.342  1.00  0.00     0.000 A 
ATOM     22  C   UNL A   1      34.326  21.838  24.418  1.00  0.00     0.021 A 
ATOM     23  Cl  UNL A   1      35.849  23.979  24.884  1.00  0.00    -0.084 Cl
ATOM     24  C   UNL A   1      33.209  21.146  23.958  1.00  0.00     0.002 A 
ENDBRANCH  16  18
ENDBRANCH  14  16
ENDBRANCH   8  14
ENDBRANCH   4   7
ENDBRANCH   2   3
ENDBRANCH   1   2
BRANCH   1  25
ATOM     25  C   UNL A   1      32.722  32.417  27.251  1.00  0.00     0.118 C 
BRANCH  25  26
ATOM     26  N   UNL A   1      32.492  33.804  27.638  1.00  0.00    -0.352 N 
ATOM     27  C   UNL A   1      33.086  34.593  28.597  1.00  0.00     0.251 C 
ATOM     28  H   UNL A   1      31.786  34.256  27.121  1.00  0.00     0.163 HD
ATOM     29  O   UNL A   1      32.624  35.707  28.821  1.00  0.00    -0.269 OA
BRANCH  27  30
ATOM     30  C   UNL A   1      34.252  34.113  29.379  1.00  0.00     0.039 A 
ATOM     31  C   UNL A   1      34.029  33.298  30.494  1.00  0.00     0.014 A 
ATOM     32  C   UNL A   1      35.556  34.478  29.046  1.00  0.00     0.014 A 
ATOM     33  C   UNL A   1      35.113  32.786  31.216  1.00  0.00     0.010 A 
ATOM     34  C   UNL A   1      36.635  33.884  29.697  1.00  0.00     0.010 A 
ATOM     35  C   UNL A   1      36.430  33.038  30.796  1.00  0.00    -0.014 A 
BRANCH  35  36
ATOM     36  C   UNL A   1      37.602  32.433  31.487  1.00  0.00     0.031 A 
ATOM     37  C   UNL A   1      38.364  31.304  30.841  1.00  0.00     0.074 A 
ATOM     38  C   UNL A   1      37.926  32.835  32.733  1.00  0.00     0.049 A 
ATOM     39  N   UNL A   1      39.351  30.596  31.324  1.00  0.00    -0.248 NA
ATOM     40  C   UNL A   1      37.946  30.896  29.486  1.00  0.00     0.031 C 
ATOM     41  C   UNL A   1      37.221  33.864  33.500  1.00  0.00     0.029 A 
ATOM     42  N   UNL A   1      38.915  32.410  33.587  1.00  0.00    -0.354 N 
ATOM     43  C   UNL A   1      39.644  29.640  30.356  1.00  0.00     0.074 A 
ATOM     44  C   UNL A   1      38.709  29.834  29.273  1.00  0.00     0.031 C 
ATOM     45  C   UNL A   1      37.804  33.998  34.701  1.00  0.00     0.029 A 
ATOM     46  C   UNL A   1      38.900  33.040  34.811  1.00  0.00     0.049 A 
ATOM     47  H   UNL A   1      39.574  31.720  33.345  1.00  0.00     0.167 HD
ATOM     48  C   UNL A   1      40.625  28.709  30.356  1.00  0.00     0.034 A 
ATOM     49  C   UNL A   1      39.670  32.861  35.904  1.00  0.00     0.034 A 
ATOM     50  C   UNL A   1      41.593  28.559  31.407  1.00  0.00     0.049 A 
ATOM     51  C   UNL A   1      40.780  31.846  35.858  1.00  0.00     0.074 A 
ATOM     52  C   UNL A   1      42.680  27.705  31.453  1.00  0.00     0.029 A 
ATOM     53  N   UNL A   1      41.593  29.273  32.594  1.00  0.00    -0.354 N 
ATOM     54  N   UNL A   1      41.128  31.051  34.876  1.00  0.00    -0.248 NA
ATOM     55  C   UNL A   1      41.624  31.721  37.055  1.00  0.00     0.031 C 
ATOM     56  C   UNL A   1      43.320  27.881  32.681  1.00  0.00     0.029 A 
ATOM     57  C   UNL A   1      42.655  28.872  33.384  1.00  0.00     0.049 A 
ATOM     58  H   UNL A   1      40.935  29.963  32.839  1.00  0.00     0.167 HD
ATOM     59  C   UNL A   1      42.248  30.359  35.322  1.00  0.00     0.074 A 
ATOM     60  C   UNL A   1      42.534  30.842  36.656  1.00  0.00     0.031 C 
ATOM     61  C   UNL A   1      42.965  29.400  34.687  1.00  0.00     0.034 A 
BRANCH  48  62
ATOM     62  C   UNL A   1      40.761  27.812  29.152  1.00  0.00     0.023 A 
ATOM     63  C   UNL A   1      39.919  26.690  29.025  1.00  0.00     0.012 A 
ATOM     64  C   UNL A   1      41.628  28.151  28.095  1.00  0.00     0.148 A 
ATOM     65  C   UNL A   1      39.946  25.908  27.871  1.00  0.00     0.002 A 
ATOM     66  C   UNL A   1      41.616  27.396  26.928  1.00  0.00     0.091 A 
ATOM     67  F   UNL A   1      42.433  29.212  28.243  1.00  0.00    -0.205 F 
ATOM     68  C   UNL A   1      40.783  26.270  26.817  1.00  0.00     0.022 A 
BRANCH  66  69
ATOM     69  S   UNL A   1      42.584  27.827  25.477  1.00  0.00     0.127 S 
ATOM     70  O   UNL A   1      42.371  26.659  24.623  1.00  0.00    -0.237 OA
ATOM     71  O   UNL A   1      41.921  29.048  25.020  1.00  0.00    -0.237 OA
ATOM     72  O   UNL A   1      43.952  28.010  25.943  1.00  0.00    -0.744 OA
ENDBRANCH  66  69
ENDBRANCH  48  62
BRANCH  49  73
ATOM     73  C   UNL A   1      39.455  33.711  37.111  1.00  0.00     0.023 A 
ATOM     74  C   UNL A   1      39.861  35.059  37.092  1.00  0.00     0.012 A 
ATOM     75  C   UNL A   1      38.811  33.206  38.258  1.00  0.00     0.148 A 
ATOM     76  C   UNL A   1      39.658  35.881  38.201  1.00  0.00     0.002 A 
ATOM     77  C   UNL A   1      38.555  34.046  39.336  1.00  0.00     0.091 A 
ATOM     78  F   UNL A   1      38.441  31.917  38.264  1.00  0.00    -0.205 F 
ATOM     79  C   UNL A   1      38.995  35.379  39.318  1.00  0.00     0.022 A 
BRANCH  77  80
ATOM     80  S   UNL A   1      37.582  33.527  40.755  1.00  0.00     0.127 S 
ATOM     81  O   UNL A   1      37.445  34.776  41.498  1.00  0.00    -0.237 OA
ATOM     82  O   UNL A   1      36.354  33.050  40.117  1.00  0.00    -0.237 OA
ATOM     83  O   UNL A   1      38.362  32.484  41.408  1.00  0.00    -0.744 OA
ENDBRANCH  77  80
ENDBRANCH  49  73
BRANCH  61  84
ATOM     84  C   UNL A   1      44.157  28.813  35.397  1.00  0.00     0.023 A 
ATOM     85  C   UNL A   1      45.412  29.443  35.293  1.00  0.00     0.012 A 
ATOM     86  C   UNL A   1      44.000  27.717  36.268  1.00  0.00     0.148 A 
ATOM     87  C   UNL A   1      46.498  28.979  36.035  1.00  0.00     0.002 A 
ATOM     88  C   UNL A   1      45.072  27.295  37.044  1.00  0.00     0.091 A 
ATOM     89  F   UNL A   1      42.798  27.125  36.341  1.00  0.00    -0.205 F 
ATOM     90  C   UNL A   1      46.325  27.917  36.921  1.00  0.00     0.022 A 
BRANCH  88  91
ATOM     91  S   UNL A   1      44.917  26.011  38.291  1.00  0.00     0.127 S 
ATOM     92  O   UNL A   1      46.312  25.801  38.675  1.00  0.00    -0.237 OA
ATOM     93  O   UNL A   1      44.097  26.666  39.310  1.00  0.00    -0.237 OA
ATOM     94  O   UNL A   1      44.279  24.880  37.632  1.00  0.00    -0.744 OA
ENDBRANCH  88  91
ENDBRANCH  61  84
ENDBRANCH  35  36
ENDBRANCH  27  30
ENDBRANCH  25  26
ENDBRANCH   1  25
TORSDOF 16
ENDMDL
MODEL 2
REMARK VINA RESULT:     -12.3      1.952      2.719
REMARK SMILES C[C@H](c1ccccc1Cl)N(C)c1cccc(F)c1C(=O)NCCCNC(=O)c1ccc(-c2c3nc(c(-c4cccc(S(=O)(=O)[O-])c4F)c4ccc([nH]4)c(-c4cccc(S(=O)(=O)[O-])c4F)c4nc(c(-c5cccc(S(=O)(=O)[O-])c5F)c5ccc2[nH]5)C=C4)C=C3)cc1
REMARK SMILES IDX 23 1 22 2 21 3 19 4 20 5 18 7 12 8 13 9 14 10 16 11 15 12
REMARK SMILES IDX 17 13 10 14 11 15 2 16 1 17 3 18 4 19 8 20 5 21 7 22 9 23
REMARK SMILES IDX 6 24 24 25 25 26 26 27 27 29 28 30 29 31 90 32 30 33 89 34
REMARK SMILES IDX 31 35 32 36 33 37 83 38 34 39 88 40 82 41 84 42 35 43 87 44
REMARK SMILES IDX 81 45 80 46 36 48 68 49 48 50 67 51 49 52 52 53 66 54 85 55
REMARK SMILES IDX 50 56 51 57 65 59 86 60 53 61 37 62 38 63 46 64 39 65 41 66
REMARK SMILES IDX 47 67 40 68 42 69 43 70 44 71 45 72 69 73 70 74 78 75 71 76
REMARK SMILES IDX 73 77 79 78 72 79 74 80 75 81 76 82 77 83 54 84 55 85 63 86
REMARK SMILES IDX 56 87 58 88 64 89 57 90 59 91 60 92 61 93 62 94
REMARK H PARENT 21 6 25 28 84 47 52 58
REMARK Flexibility Score: inf
ROOT
ATOM      1  C   UNL A   1      31.021  31.495  26.505  1.00  0.00     0.042 C 
ENDROOT
BRANCH   1   2
ATOM      2  C   UNL A   1      30.598  31.042  25.116  1.00  0.00     0.118 C 
BRANCH   2   3
ATOM      3  N   UNL A   1      31.505  30.113  24.452  1.00  0.00    -0.352 N 
ATOM      4  C   UNL A   1      31.277  29.047  23.597  1.00  0.00     0.256 C 
ATOM      5  O   UNL A   1      32.262  28.596  23.013  1.00  0.00    -0.269 OA
ATOM      6  H   UNL A   1      32.457  30.272  24.649  1.00  0.00     0.163 HD
BRANCH   4   7
ATOM      7  C   UNL A   1      29.930  28.418  23.447  1.00  0.00     0.098 A 
ATOM      8  C   UNL A   1      29.672  27.075  23.813  1.00  0.00     0.053 A 
ATOM      9  C   UNL A   1      28.324  26.676  23.937  1.00  0.00     0.027 A 
ATOM     10  C   UNL A   1      27.269  27.502  23.555  1.00  0.00     0.005 A 
ATOM     11  C   UNL A   1      28.874  29.169  22.919  1.00  0.00     0.138 A 
ATOM     12  C   UNL A   1      27.552  28.735  22.992  1.00  0.00     0.040 A 
ATOM     13  F   UNL A   1      29.104  30.331  22.285  1.00  0.00    -0.206 F 
BRANCH   8  14
ATOM     14  N   UNL A   1      30.635  26.083  23.970  1.00  0.00    -0.367 N 
ATOM     15  C   UNL A   1      31.119  25.396  22.783  1.00  0.00     0.144 C 
BRANCH  14  16
ATOM     16  C   UNL A   1      31.071  25.625  25.313  1.00  0.00     0.110 C 
ATOM     17  C   UNL A   1      29.899  25.154  26.189  1.00  0.00     0.036 C 
BRANCH  16  18
ATOM     18  C   UNL A   1      31.949  26.663  26.020  1.00  0.00    -0.007 A 
ATOM     19  C   UNL A   1      31.401  27.513  27.007  1.00  0.00     0.007 A 
ATOM     20  C   UNL A   1      33.312  26.831  25.716  1.00  0.00     0.046 A 
ATOM     21  C   UNL A   1      32.164  28.497  27.641  1.00  0.00     0.000 A 
ATOM     22  C   UNL A   1      34.081  27.808  26.367  1.00  0.00     0.021 A 
ATOM     23  Cl  UNL A   1      34.137  25.852  24.552  1.00  0.00    -0.084 Cl
ATOM     24  C   UNL A   1      33.508  28.644  27.321  1.00  0.00     0.002 A 
ENDBRANCH  16  18
ENDBRANCH  14  16
ENDBRANCH   8  14
ENDBRANCH   4   7
ENDBRANCH   2   3
ENDBRANCH   1   2
BRANCH   1  25
ATOM     25  C   UNL A   1      32.378  32.172  26.610  1.00  0.00     0.118 C 
BRANCH  25  26
ATOM     26  N   UNL A   1      32.332  33.502  27.206  1.00  0.00    -0.352 N 
ATOM     27  C   UNL A   1      33.119  34.096  28.167  1.00  0.00     0.251 C 
ATOM     28  H   UNL A   1      31.611  34.075  26.860  1.00  0.00     0.163 HD
ATOM     29  O   UNL A   1      32.797  35.199  28.600  1.00  0.00    -0.269 OA
BRANCH  27  30
ATOM     30  C   UNL A   1      34.327  33.423  28.703  1.00  0.00     0.039 A 
ATOM     31  C   UNL A   1      35.559  34.081  28.622  1.00  0.00     0.014 A 
ATOM     32  C   UNL A   1      34.267  32.145  29.256  1.00  0.00     0.014 A 
ATOM     33  C   UNL A   1      36.704  33.491  29.170  1.00  0.00     0.010 A 
ATOM     34  C   UNL A   1      35.381  31.607  29.895  1.00  0.00     0.010 A 
ATOM     35  C   UNL A   1      36.617  32.267  29.854  1.00  0.00    -0.014 A 
BRANCH  35  36
ATOM     36  C   UNL A   1      37.798  31.660  30.527  1.00  0.00     0.031 A 
ATOM     37  C   UNL A   1      38.609  30.600  29.825  1.00  0.00     0.074 A 
ATOM     38  C   UNL A   1      38.088  31.992  31.802  1.00  0.00     0.049 A 
ATOM     39  N   UNL A   1      39.613  29.896  30.281  1.00  0.00    -0.248 NA
ATOM     40  C   UNL A   1      38.228  30.265  28.441  1.00  0.00     0.031 C 
ATOM     41  C   UNL A   1      37.335  32.947  32.619  1.00  0.00     0.029 A 
ATOM     42  N   UNL A   1      39.077  31.547  32.645  1.00  0.00    -0.354 N 
ATOM     43  C   UNL A   1      39.954  29.014  29.262  1.00  0.00     0.074 A 
ATOM     44  C   UNL A   1      39.030  29.244  28.175  1.00  0.00     0.031 C 
ATOM     45  C   UNL A   1      37.894  33.024  33.836  1.00  0.00     0.029 A 
ATOM     46  C   UNL A   1      39.020  32.098  33.906  1.00  0.00     0.049 A 
ATOM     47  H   UNL A   1      39.763  30.897  32.373  1.00  0.00     0.167 HD
ATOM     48  C   UNL A   1      40.967  28.118  29.221  1.00  0.00     0.034 A 
ATOM     49  C   UNL A   1      39.778  31.877  34.999  1.00  0.00     0.034 A 
ATOM     50  C   UNL A   1      41.922  27.934  30.279  1.00  0.00     0.049 A 
ATOM     51  C   UNL A   1      40.923  30.904  34.911  1.00  0.00     0.074 A 
ATOM     52  C   UNL A   1      43.037  27.117  30.291  1.00  0.00     0.029 A 
ATOM     53  N   UNL A   1      41.878  28.571  31.508  1.00  0.00    -0.354 N 
ATOM     54  N   UNL A   1      41.314  30.185  33.887  1.00  0.00    -0.248 NA
ATOM     55  C   UNL A   1      41.751  30.732  36.113  1.00  0.00     0.031 C 
ATOM     56  C   UNL A   1      43.651  27.236  31.539  1.00  0.00     0.029 A 
ATOM     57  C   UNL A   1      42.940  28.157  32.290  1.00  0.00     0.049 A 
ATOM     58  H   UNL A   1      41.192  29.223  31.783  1.00  0.00     0.167 HD
ATOM     59  C   UNL A   1      42.450  29.504  34.309  1.00  0.00     0.074 A 
ATOM     60  C   UNL A   1      42.697  29.911  35.677  1.00  0.00     0.031 C 
ATOM     61  C   UNL A   1      43.210  28.612  33.630  1.00  0.00     0.034 A 
BRANCH  48  62
ATOM     62  C   UNL A   1      41.153  27.304  27.966  1.00  0.00     0.023 A 
ATOM     63  C   UNL A   1      41.799  27.881  26.855  1.00  0.00     0.012 A 
ATOM     64  C   UNL A   1      40.806  25.939  27.934  1.00  0.00     0.148 A 
ATOM     65  C   UNL A   1      42.085  27.117  25.724  1.00  0.00     0.002 A 
ATOM     66  C   UNL A   1      41.137  25.172  26.823  1.00  0.00     0.091 A 
ATOM     67  F   UNL A   1      40.177  25.414  28.995  1.00  0.00    -0.205 F 
ATOM     68  C   UNL A   1      41.768  25.761  25.714  1.00  0.00     0.022 A 
BRANCH  66  69
ATOM     69  S   UNL A   1      40.858  23.399  26.744  1.00  0.00     0.127 S 
ATOM     70  O   UNL A   1      41.746  23.010  25.649  1.00  0.00    -0.237 OA
ATOM     71  O   UNL A   1      41.295  22.962  28.070  1.00  0.00    -0.237 OA
ATOM     72  O   UNL A   1      39.437  23.223  26.478  1.00  0.00    -0.744 OA
ENDBRANCH  66  69
ENDBRANCH  48  62
BRANCH  49  73
ATOM     73  C   UNL A   1      39.514  32.641  36.254  1.00  0.00     0.023 A 
ATOM     74  C   UNL A   1      40.152  33.879  36.459  1.00  0.00     0.012 A 
ATOM     75  C   UNL A   1      38.603  32.171  37.221  1.00  0.00     0.148 A 
ATOM     76  C   UNL A   1      39.911  34.622  37.615  1.00  0.00     0.002 A 
ATOM     77  C   UNL A   1      38.320  32.945  38.341  1.00  0.00     0.091 A 
ATOM     78  F   UNL A   1      38.014  30.984  37.015  1.00  0.00    -0.205 F 
ATOM     79  C   UNL A   1      38.987  34.162  38.549  1.00  0.00     0.022 A 
BRANCH  77  80
ATOM     80  S   UNL A   1      37.041  32.502  39.522  1.00  0.00     0.127 S 
ATOM     81  O   UNL A   1      35.832  32.611  38.711  1.00  0.00    -0.237 OA
ATOM     82  O   UNL A   1      37.423  31.134  39.879  1.00  0.00    -0.237 OA
ATOM     83  O   UNL A   1      37.160  33.461  40.612  1.00  0.00    -0.744 OA
ENDBRANCH  77  80
ENDBRANCH  49  73
BRANCH  61  84
ATOM     84  C   UNL A   1      44.411  28.022  34.323  1.00  0.00     0.023 A 
ATOM     85  C   UNL A   1      45.635  28.717  34.314  1.00  0.00     0.012 A 
ATOM     86  C   UNL A   1      44.284  26.847  35.091  1.00  0.00     0.148 A 
ATOM     87  C   UNL A   1      46.722  28.241  35.046  1.00  0.00     0.002 A 
ATOM     88  C   UNL A   1      45.354  26.409  35.860  1.00  0.00     0.091 A 
ATOM     89  F   UNL A   1      43.112  26.195  35.074  1.00  0.00    -0.205 F 
ATOM     90  C   UNL A   1      46.578  27.099  35.831  1.00  0.00     0.022 A 
BRANCH  88  91
ATOM     91  S   UNL A   1      45.230  25.015  36.986  1.00  0.00     0.127 S 
ATOM     92  O   UNL A   1      44.970  23.911  36.064  1.00  0.00    -0.237 OA
ATOM     93  O   UNL A   1      46.557  24.995  37.602  1.00  0.00    -0.237 OA
ATOM     94  O   UNL A   1      44.141  25.329  37.901  1.00  0.00    -0.744 OA
ENDBRANCH  88  91
ENDBRANCH  61  84
ENDBRANCH  35  36
ENDBRANCH  27  30
ENDBRANCH  25  26
ENDBRANCH   1  25
TORSDOF 16
ENDMDL
MODEL 3
REMARK VINA RESULT:     -12.1      6.536     11.618
REMARK SMILES C[C@H](c1ccccc1Cl)N(C)c1cccc(F)c1C(=O)NCCCNC(=O)c1ccc(-c2c3nc(c(-c4cccc(S(=O)(=O)[O-])c4F)c4ccc([nH]4)c(-c4cccc(S(=O)(=O)[O-])c4F)c4nc(c(-c5cccc(S(=O)(=O)[O-])c5F)c5ccc2[nH]5)C=C4)C=C3)cc1
REMARK SMILES IDX 23 1 22 2 21 3 19 4 20 5 18 7 12 8 13 9 14 10 16 11 15 12
REMARK SMILES IDX 17 13 10 14 11 15 2 16 1 17 3 18 4 19 8 20 5 21 7 22 9 23
REMARK SMILES IDX 6 24 24 25 25 26 26 27 27 29 28 30 29 31 90 32 30 33 89 34
REMARK SMILES IDX 31 35 32 36 33 37 83 38 34 39 88 40 82 41 84 42 35 43 87 44
REMARK SMILES IDX 81 45 80 46 36 48 68 49 48 50 67 51 49 52 52 53 66 54 85 55
REMARK SMILES IDX 50 56 51 57 65 59 86 60 53 61 37 62 38 63 46 64 39 65 41 66
REMARK SMILES IDX 47 67 40 68 42 69 43 70 44 71 45 72 69 73 70 74 78 75 71 76
REMARK SMILES IDX 73 77 79 78 72 79 74 80 75 81 76 82 77 83 54 84 55 85 63 86
REMARK SMILES IDX 56 87 58 88 64 89 57 90 59 91 60 92 61 93 62 94
REMARK H PARENT 21 6 25 28 84 47 52 58
REMARK Flexibility Score: inf
ROOT
ATOM      1  C   UNL A   1      37.679  19.600  25.031  1.00  0.00     0.042 C 
ENDROOT
BRANCH   1   2
ATOM      2  C   UNL A   1      36.551  20.576  24.733  1.00  0.00     0.118 C 
BRANCH   2   3
ATOM      3  N   UNL A   1      35.738  20.969  25.879  1.00  0.00    -0.352 N 
ATOM      4  C   UNL A   1      34.366  21.037  26.061  1.00  0.00     0.256 C 
ATOM      5  O   UNL A   1      33.976  21.181  27.219  1.00  0.00    -0.269 OA
ATOM      6  H   UNL A   1      36.261  21.235  26.669  1.00  0.00     0.163 HD
BRANCH   4   7
ATOM      7  C   UNL A   1      33.407  21.020  24.916  1.00  0.00     0.098 A 
ATOM      8  C   UNL A   1      32.825  22.201  24.392  1.00  0.00     0.053 A 
ATOM      9  C   UNL A   1      32.198  22.119  23.131  1.00  0.00     0.027 A 
ATOM     10  C   UNL A   1      31.995  20.905  22.482  1.00  0.00     0.005 A 
ATOM     11  C   UNL A   1      33.052  19.800  24.331  1.00  0.00     0.138 A 
ATOM     12  C   UNL A   1      32.377  19.733  23.114  1.00  0.00     0.040 A 
ATOM     13  F   UNL A   1      33.322  18.637  24.946  1.00  0.00    -0.206 F 
BRANCH   8  14
ATOM     14  N   UNL A   1      32.735  23.419  25.059  1.00  0.00    -0.367 N 
ATOM     15  C   UNL A   1      31.713  23.572  26.083  1.00  0.00     0.144 C 
BRANCH  14  16
ATOM     16  C   UNL A   1      33.556  24.589  24.659  1.00  0.00     0.110 C 
ATOM     17  C   UNL A   1      35.000  24.509  25.184  1.00  0.00     0.036 C 
BRANCH  16  18
ATOM     18  C   UNL A   1      32.879  25.918  25.011  1.00  0.00    -0.007 A 
ATOM     19  C   UNL A   1      33.296  26.658  26.140  1.00  0.00     0.007 A 
ATOM     20  C   UNL A   1      31.819  26.447  24.254  1.00  0.00     0.046 A 
ATOM     21  C   UNL A   1      32.673  27.853  26.511  1.00  0.00     0.000 A 
ATOM     22  C   UNL A   1      31.205  27.656  24.619  1.00  0.00     0.021 A 
ATOM     23  Cl  UNL A   1      31.210  25.675  22.831  1.00  0.00    -0.084 Cl
ATOM     24  C   UNL A   1      31.626  28.353  25.748  1.00  0.00     0.002 A 
ENDBRANCH  16  18
ENDBRANCH  14  16
ENDBRANCH   8  14
ENDBRANCH   4   7
ENDBRANCH   2   3
ENDBRANCH   1   2
BRANCH   1  25
ATOM     25  C   UNL A   1      38.914  20.180  25.699  1.00  0.00     0.118 C 
BRANCH  25  26
ATOM     26  N   UNL A   1      40.001  19.222  25.867  1.00  0.00    -0.352 N 
ATOM     27  C   UNL A   1      41.338  19.401  26.144  1.00  0.00     0.251 C 
ATOM     28  H   UNL A   1      39.731  18.281  25.763  1.00  0.00     0.163 HD
ATOM     29  O   UNL A   1      42.088  18.430  26.109  1.00  0.00    -0.269 OA
BRANCH  27  30
ATOM     30  C   UNL A   1      41.890  20.742  26.456  1.00  0.00     0.039 A 
ATOM     31  C   UNL A   1      42.090  21.650  25.409  1.00  0.00     0.014 A 
ATOM     32  C   UNL A   1      42.239  21.106  27.755  1.00  0.00     0.014 A 
ATOM     33  C   UNL A   1      42.557  22.941  25.683  1.00  0.00     0.010 A 
ATOM     34  C   UNL A   1      42.601  22.420  28.040  1.00  0.00     0.010 A 
ATOM     35  C   UNL A   1      42.774  23.354  27.008  1.00  0.00    -0.014 A 
BRANCH  35  36
ATOM     36  C   UNL A   1      43.182  24.747  27.338  1.00  0.00     0.031 A 
ATOM     37  C   UNL A   1      42.181  25.713  27.920  1.00  0.00     0.074 A 
ATOM     38  C   UNL A   1      44.425  25.173  27.030  1.00  0.00     0.049 A 
ATOM     39  N   UNL A   1      42.325  26.985  28.188  1.00  0.00    -0.248 NA
ATOM     40  C   UNL A   1      40.833  25.193  28.213  1.00  0.00     0.031 C 
ATOM     41  C   UNL A   1      45.464  24.359  26.394  1.00  0.00     0.029 A 
ATOM     42  N   UNL A   1      45.020  26.401  27.187  1.00  0.00    -0.354 N 
ATOM     43  C   UNL A   1      41.085  27.422  28.641  1.00  0.00     0.074 A 
ATOM     44  C   UNL A   1      40.188  26.291  28.578  1.00  0.00     0.031 C 
ATOM     45  C   UNL A   1      46.567  25.104  26.226  1.00  0.00     0.029 A 
ATOM     46  C   UNL A   1      46.308  26.459  26.703  1.00  0.00     0.049 A 
ATOM     47  H   UNL A   1      44.568  27.168  27.607  1.00  0.00     0.167 HD
ATOM     48  C   UNL A   1      40.734  28.645  29.099  1.00  0.00     0.034 A 
ATOM     49  C   UNL A   1      47.179  27.487  26.639  1.00  0.00     0.034 A 
ATOM     50  C   UNL A   1      41.644  29.751  29.219  1.00  0.00     0.049 A 
ATOM     51  C   UNL A   1      46.774  28.825  27.195  1.00  0.00     0.074 A 
ATOM     52  C   UNL A   1      41.403  31.001  29.759  1.00  0.00     0.029 A 
ATOM     53  N   UNL A   1      42.962  29.745  28.794  1.00  0.00    -0.354 N 
ATOM     54  N   UNL A   1      45.639  29.176  27.749  1.00  0.00    -0.248 NA
ATOM     55  C   UNL A   1      47.774  29.901  27.146  1.00  0.00     0.031 C 
ATOM     56  C   UNL A   1      42.567  31.762  29.633  1.00  0.00     0.029 A 
ATOM     57  C   UNL A   1      43.544  30.972  29.050  1.00  0.00     0.049 A 
ATOM     58  H   UNL A   1      43.417  28.979  28.373  1.00  0.00     0.167 HD
ATOM     59  C   UNL A   1      45.801  30.499  28.146  1.00  0.00     0.074 A 
ATOM     60  C   UNL A   1      47.150  30.882  27.786  1.00  0.00     0.031 C 
ATOM     61  C   UNL A   1      44.906  31.324  28.741  1.00  0.00     0.034 A 
BRANCH  48  62
ATOM     62  C   UNL A   1      39.321  28.852  29.579  1.00  0.00     0.023 A 
ATOM     63  C   UNL A   1      38.980  28.506  30.902  1.00  0.00     0.012 A 
ATOM     64  C   UNL A   1      38.371  29.503  28.767  1.00  0.00     0.148 A 
ATOM     65  C   UNL A   1      37.711  28.791  31.406  1.00  0.00     0.002 A 
ATOM     66  C   UNL A   1      37.125  29.826  29.291  1.00  0.00     0.091 A 
ATOM     67  F   UNL A   1      38.710  29.808  27.506  1.00  0.00    -0.205 F 
ATOM     68  C   UNL A   1      36.791  29.463  30.606  1.00  0.00     0.022 A 
BRANCH  66  69
ATOM     69  S   UNL A   1      35.900  30.773  28.379  1.00  0.00     0.127 S 
ATOM     70  O   UNL A   1      34.921  31.070  29.424  1.00  0.00    -0.237 OA
ATOM     71  O   UNL A   1      36.679  31.924  27.926  1.00  0.00    -0.237 OA
ATOM     72  O   UNL A   1      35.422  29.899  27.316  1.00  0.00    -0.744 OA
ENDBRANCH  66  69
ENDBRANCH  48  62
BRANCH  49  73
ATOM     73  C   UNL A   1      48.545  27.268  26.080  1.00  0.00     0.023 A 
ATOM     74  C   UNL A   1      49.566  26.778  26.917  1.00  0.00     0.012 A 
ATOM     75  C   UNL A   1      48.827  27.499  24.719  1.00  0.00     0.148 A 
ATOM     76  C   UNL A   1      50.849  26.549  26.417  1.00  0.00     0.002 A 
ATOM     77  C   UNL A   1      50.090  27.209  24.214  1.00  0.00     0.091 A 
ATOM     78  F   UNL A   1      47.846  27.976  23.939  1.00  0.00    -0.205 F 
ATOM     79  C   UNL A   1      51.108  26.753  25.064  1.00  0.00     0.022 A 
BRANCH  77  80
ATOM     80  S   UNL A   1      50.472  27.304  22.460  1.00  0.00     0.127 S 
ATOM     81  O   UNL A   1      50.360  28.737  22.205  1.00  0.00    -0.237 OA
ATOM     82  O   UNL A   1      51.836  26.774  22.422  1.00  0.00    -0.237 OA
ATOM     83  O   UNL A   1      49.485  26.464  21.795  1.00  0.00    -0.744 OA
ENDBRANCH  77  80
ENDBRANCH  49  73
BRANCH  61  84
ATOM     84  C   UNL A   1      45.344  32.725  29.082  1.00  0.00     0.023 A 
ATOM     85  C   UNL A   1      46.018  32.971  30.293  1.00  0.00     0.012 A 
ATOM     86  C   UNL A   1      45.203  33.765  28.141  1.00  0.00     0.148 A 
ATOM     87  C   UNL A   1      46.531  34.238  30.571  1.00  0.00     0.002 A 
ATOM     88  C   UNL A   1      45.763  35.009  28.402  1.00  0.00     0.091 A 
ATOM     89  F   UNL A   1      44.546  33.511  27.000  1.00  0.00    -0.205 F 
ATOM     90  C   UNL A   1      46.418  35.251  29.621  1.00  0.00     0.022 A 
BRANCH  88  91
ATOM     91  S   UNL A   1      45.766  36.340  27.195  1.00  0.00     0.127 S 
ATOM     92  O   UNL A   1      44.338  36.623  27.062  1.00  0.00    -0.237 OA
ATOM     93  O   UNL A   1      46.532  37.380  27.884  1.00  0.00    -0.237 OA
ATOM     94  O   UNL A   1      46.406  35.804  26.002  1.00  0.00    -0.744 OA
ENDBRANCH  88  91
ENDBRANCH  61  84
ENDBRANCH  35  36
ENDBRANCH  27  30
ENDBRANCH  25  26
ENDBRANCH   1  25
TORSDOF 16
ENDMDL
