MODEL 1
REMARK VINA RESULT:     -13.2      0.000      0.000
REMARK SMILES CCc1ccccc1C[N@@H+]1CC2(CCN(C(=O)C3CC3)CC2)C[C@H]1C(=O)NCCCNC(=O)c1ccc(-c2c3nc(c(-c4cccc(S(=O)(=O)[O-])c4F)c4ccc([nH]4)c(-c4cccc(S(=O)(=O)[O-])c4F)c4nc(c(-c5cccc(S(=O)(=O)[O-])c5F)c5ccc2[nH]5)C=C4)C=C3)cc1
REMARK SMILES IDX 29 1 28 2 27 3 25 4 26 5 24 7 10 8 11 9 12 11 23 12 13 13
REMARK SMILES IDX 22 14 14 15 21 16 15 17 16 18 17 19 9 20 8 21 3 22 4 23 5 24
REMARK SMILES IDX 7 25 6 26 2 27 1 28 18 29 19 30 20 31 30 32 31 33 32 34
REMARK SMILES IDX 33 36 34 37 35 38 96 39 36 40 95 41 37 42 38 43 39 44 89 45
REMARK SMILES IDX 40 46 94 47 88 48 90 49 41 50 93 51 87 52 86 53 42 55 74 56
REMARK SMILES IDX 54 57 73 58 55 59 58 60 72 61 91 62 56 63 57 64 71 66 92 67
REMARK SMILES IDX 59 68 43 69 44 70 52 71 45 72 47 73 53 74 46 75 48 76 49 77
REMARK SMILES IDX 50 78 51 79 75 80 76 81 84 82 77 83 79 84 85 85 78 86 80 87
REMARK SMILES IDX 81 88 82 89 83 90 60 91 61 92 69 93 62 94 64 95 70 96 63 97
REMARK SMILES IDX 65 98 66 99 67 100 68 101
REMARK H PARENT 27 6 10 10 31 35 90 54 58 65
REMARK Flexibility Score: inf
ROOT
ATOM      1  C   UNL A   1      32.155  31.100  26.883  1.00  0.00     0.042 C 
ENDROOT
BRANCH   1   2
ATOM      2  C   UNL A   1      32.708  29.771  26.403  1.00  0.00     0.118 C 
BRANCH   2   3
ATOM      3  N   UNL A   1      33.461  29.806  25.182  1.00  0.00    -0.351 N 
ATOM      4  C   UNL A   1      33.399  28.951  24.118  1.00  0.00     0.278 C 
ATOM      5  O   UNL A   1      33.997  29.314  23.094  1.00  0.00    -0.268 OA
ATOM      6  H   UNL A   1      34.108  30.544  25.100  1.00  0.00     0.163 HD
BRANCH   4   7
ATOM      7  C   UNL A   1      32.646  27.583  24.128  1.00  0.00     0.275 C 
ATOM      8  N   UNL A   1      32.718  26.933  22.819  1.00  0.00    -0.320 N 
ATOM      9  C   UNL A   1      33.459  25.680  22.948  1.00  0.00     0.270 C 
ATOM     10  H   UNL A   1      33.264  27.510  22.179  1.00  0.00     0.349 HD
ATOM     11  C   UNL A   1      33.510  25.274  24.445  1.00  0.00     0.029 C 
ATOM     12  C   UNL A   1      33.003  26.534  25.187  1.00  0.00     0.088 C 
ATOM     13  C   UNL A   1      34.899  24.844  24.989  1.00  0.00     0.034 C 
ATOM     14  C   UNL A   1      32.641  24.020  24.714  1.00  0.00     0.034 C 
ATOM     15  C   UNL A   1      35.463  23.668  24.214  1.00  0.00     0.120 C 
ATOM     16  C   UNL A   1      33.188  22.770  23.992  1.00  0.00     0.120 C 
ATOM     17  N   UNL A   1      34.590  22.518  24.350  1.00  0.00    -0.342 N 
ATOM     18  C   UNL A   1      34.980  21.203  24.598  1.00  0.00     0.225 C 
ATOM     19  O   UNL A   1      34.230  20.264  24.329  1.00  0.00    -0.275 OA
BRANCH   8  20
ATOM     20  C   UNL A   1      31.444  26.911  22.065  1.00  0.00     0.299 C 
BRANCH  20  21
ATOM     21  C   UNL A   1      30.323  27.808  22.582  1.00  0.00     0.009 A 
ATOM     22  C   UNL A   1      29.181  27.354  23.285  1.00  0.00    -0.039 A 
ATOM     23  C   UNL A   1      28.093  28.238  23.454  1.00  0.00     0.004 A 
ATOM     24  C   UNL A   1      28.168  29.572  23.054  1.00  0.00     0.000 A 
ATOM     25  C   UNL A   1      30.421  29.190  22.305  1.00  0.00     0.010 A 
ATOM     26  C   UNL A   1      29.357  30.062  22.534  1.00  0.00     0.001 A 
BRANCH  22  27
ATOM     27  C   UNL A   1      29.118  26.041  24.043  1.00  0.00     0.032 C 
ATOM     28  C   UNL A   1      29.621  26.049  25.479  1.00  0.00     0.009 C 
ENDBRANCH  22  27
ENDBRANCH  20  21
ENDBRANCH   8  20
BRANCH  18  29
ATOM     29  C   UNL A   1      36.242  20.830  25.316  1.00  0.00     0.079 C 
ATOM     30  C   UNL A   1      37.254  19.757  25.027  1.00  0.00     0.014 C 
ATOM     31  C   UNL A   1      37.602  21.201  24.773  1.00  0.00     0.014 C 
ENDBRANCH  18  29
ENDBRANCH   4   7
ENDBRANCH   2   3
ENDBRANCH   1   2
BRANCH   1  32
ATOM     32  C   UNL A   1      33.240  32.040  27.384  1.00  0.00     0.118 C 
BRANCH  32  33
ATOM     33  N   UNL A   1      32.764  33.408  27.607  1.00  0.00    -0.352 N 
ATOM     34  C   UNL A   1      33.196  34.354  28.514  1.00  0.00     0.251 C 
ATOM     35  H   UNL A   1      32.025  33.694  27.023  1.00  0.00     0.163 HD
ATOM     36  O   UNL A   1      32.594  35.412  28.630  1.00  0.00    -0.269 OA
BRANCH  34  37
ATOM     37  C   UNL A   1      34.368  34.061  29.371  1.00  0.00     0.039 A 
ATOM     38  C   UNL A   1      34.190  33.372  30.576  1.00  0.00     0.014 A 
ATOM     39  C   UNL A   1      35.648  34.417  28.951  1.00  0.00     0.014 A 
ATOM     40  C   UNL A   1      35.309  32.945  31.300  1.00  0.00     0.010 A 
ATOM     41  C   UNL A   1      36.752  33.893  29.606  1.00  0.00     0.010 A 
ATOM     42  C   UNL A   1      36.599  33.156  30.790  1.00  0.00    -0.014 A 
BRANCH  42  43
ATOM     43  C   UNL A   1      37.827  32.643  31.450  1.00  0.00     0.031 A 
ATOM     44  C   UNL A   1      38.583  31.514  30.802  1.00  0.00     0.074 A 
ATOM     45  C   UNL A   1      38.157  33.060  32.688  1.00  0.00     0.049 A 
ATOM     46  N   UNL A   1      39.511  30.744  31.303  1.00  0.00    -0.248 NA
ATOM     47  C   UNL A   1      38.195  31.166  29.422  1.00  0.00     0.031 C 
ATOM     48  C   UNL A   1      37.457  34.093  33.454  1.00  0.00     0.029 A 
ATOM     49  N   UNL A   1      39.141  32.626  33.544  1.00  0.00    -0.354 N 
ATOM     50  C   UNL A   1      39.761  29.778  30.334  1.00  0.00     0.074 A 
ATOM     51  C   UNL A   1      38.867  30.041  29.229  1.00  0.00     0.031 C 
ATOM     52  C   UNL A   1      38.026  34.209  34.665  1.00  0.00     0.029 A 
ATOM     53  C   UNL A   1      39.103  33.231  34.781  1.00  0.00     0.049 A 
ATOM     54  H   UNL A   1      39.810  31.947  33.296  1.00  0.00     0.167 HD
ATOM     55  C   UNL A   1      40.673  28.778  30.351  1.00  0.00     0.034 A 
ATOM     56  C   UNL A   1      39.837  33.005  35.889  1.00  0.00     0.034 A 
ATOM     57  C   UNL A   1      41.618  28.582  31.414  1.00  0.00     0.049 A 
ATOM     58  C   UNL A   1      40.909  31.948  35.849  1.00  0.00     0.074 A 
ATOM     59  C   UNL A   1      42.660  27.677  31.482  1.00  0.00     0.029 A 
ATOM     60  N   UNL A   1      41.642  29.316  32.591  1.00  0.00    -0.354 N 
ATOM     61  N   UNL A   1      41.224  31.133  34.871  1.00  0.00    -0.248 NA
ATOM     62  C   UNL A   1      41.746  31.797  37.048  1.00  0.00     0.031 C 
ATOM     63  C   UNL A   1      43.312  27.858  32.706  1.00  0.00     0.029 A 
ATOM     64  C   UNL A   1      42.686  28.889  33.390  1.00  0.00     0.049 A 
ATOM     65  H   UNL A   1      41.010  30.034  32.823  1.00  0.00     0.167 HD
ATOM     66  C   UNL A   1      42.323  30.408  35.317  1.00  0.00     0.074 A 
ATOM     67  C   UNL A   1      42.622  30.883  36.653  1.00  0.00     0.031 C 
ATOM     68  C   UNL A   1      43.015  29.430  34.683  1.00  0.00     0.034 A 
BRANCH  55  69
ATOM     69  C   UNL A   1      40.734  27.863  29.157  1.00  0.00     0.023 A 
ATOM     70  C   UNL A   1      39.867  26.753  29.085  1.00  0.00     0.012 A 
ATOM     71  C   UNL A   1      41.615  28.122  28.089  1.00  0.00     0.148 A 
ATOM     72  C   UNL A   1      39.906  25.890  27.990  1.00  0.00     0.002 A 
ATOM     73  C   UNL A   1      41.613  27.284  26.978  1.00  0.00     0.091 A 
ATOM     74  F   UNL A   1      42.448  29.166  28.183  1.00  0.00    -0.205 F 
ATOM     75  C   UNL A   1      40.771  26.161  26.935  1.00  0.00     0.022 A 
BRANCH  73  76
ATOM     76  S   UNL A   1      42.632  27.598  25.532  1.00  0.00     0.127 S 
ATOM     77  O   UNL A   1      42.317  26.443  24.694  1.00  0.00    -0.237 OA
ATOM     78  O   UNL A   1      42.094  28.869  25.046  1.00  0.00    -0.237 OA
ATOM     79  O   UNL A   1      44.003  27.669  26.017  1.00  0.00    -0.744 OA
ENDBRANCH  73  76
ENDBRANCH  55  69
BRANCH  56  80
ATOM     80  C   UNL A   1      39.633  33.851  37.100  1.00  0.00     0.023 A 
ATOM     81  C   UNL A   1      40.091  35.183  37.089  1.00  0.00     0.012 A 
ATOM     82  C   UNL A   1      38.953  33.368  38.234  1.00  0.00     0.148 A 
ATOM     83  C   UNL A   1      39.900  36.012  38.196  1.00  0.00     0.002 A 
ATOM     84  C   UNL A   1      38.720  34.215  39.314  1.00  0.00     0.091 A 
ATOM     85  F   UNL A   1      38.532  32.096  38.229  1.00  0.00    -0.205 F 
ATOM     86  C   UNL A   1      39.206  35.531  39.302  1.00  0.00     0.022 A 
BRANCH  84  87
ATOM     87  S   UNL A   1      37.722  33.726  40.726  1.00  0.00     0.127 S 
ATOM     88  O   UNL A   1      38.631  32.830  41.438  1.00  0.00    -0.237 OA
ATOM     89  O   UNL A   1      37.481  35.010  41.385  1.00  0.00    -0.237 OA
ATOM     90  O   UNL A   1      36.529  33.106  40.167  1.00  0.00    -0.744 OA
ENDBRANCH  84  87
ENDBRANCH  56  80
BRANCH  68  91
ATOM     91  C   UNL A   1      44.208  28.838  35.381  1.00  0.00     0.023 A 
ATOM     92  C   UNL A   1      45.476  29.428  35.223  1.00  0.00     0.012 A 
ATOM     93  C   UNL A   1      44.039  27.784  36.299  1.00  0.00     0.148 A 
ATOM     94  C   UNL A   1      46.564  28.968  35.963  1.00  0.00     0.002 A 
ATOM     95  C   UNL A   1      45.117  27.362  37.067  1.00  0.00     0.091 A 
ATOM     96  F   UNL A   1      42.823  27.229  36.418  1.00  0.00    -0.205 F 
ATOM     97  C   UNL A   1      46.381  27.947  36.895  1.00  0.00     0.022 A 
BRANCH  95  98
ATOM     98  S   UNL A   1      44.953  26.128  38.362  1.00  0.00     0.127 S 
ATOM     99  O   UNL A   1      46.298  26.121  38.937  1.00  0.00    -0.237 OA
ATOM    100  O   UNL A   1      43.926  26.716  39.221  1.00  0.00    -0.237 OA
ATOM    101  O   UNL A   1      44.555  24.894  37.697  1.00  0.00    -0.744 OA
ENDBRANCH  95  98
ENDBRANCH  68  91
ENDBRANCH  42  43
ENDBRANCH  34  37
ENDBRANCH  32  33
ENDBRANCH   1  32
TORSDOF 17
ENDMDL
MODEL 2
REMARK VINA RESULT:     -12.9      5.756     11.058
REMARK SMILES CCc1ccccc1C[N@@H+]1CC2(CCN(C(=O)C3CC3)CC2)C[C@H]1C(=O)NCCCNC(=O)c1ccc(-c2c3nc(c(-c4cccc(S(=O)(=O)[O-])c4F)c4ccc([nH]4)c(-c4cccc(S(=O)(=O)[O-])c4F)c4nc(c(-c5cccc(S(=O)(=O)[O-])c5F)c5ccc2[nH]5)C=C4)C=C3)cc1
REMARK SMILES IDX 29 1 28 2 27 3 25 4 26 5 24 7 10 8 11 9 12 11 23 12 13 13
REMARK SMILES IDX 22 14 14 15 21 16 15 17 16 18 17 19 9 20 8 21 3 22 4 23 5 24
REMARK SMILES IDX 7 25 6 26 2 27 1 28 18 29 19 30 20 31 30 32 31 33 32 34
REMARK SMILES IDX 33 36 34 37 35 38 96 39 36 40 95 41 37 42 38 43 39 44 89 45
REMARK SMILES IDX 40 46 94 47 88 48 90 49 41 50 93 51 87 52 86 53 42 55 74 56
REMARK SMILES IDX 54 57 73 58 55 59 58 60 72 61 91 62 56 63 57 64 71 66 92 67
REMARK SMILES IDX 59 68 43 69 44 70 52 71 45 72 47 73 53 74 46 75 48 76 49 77
REMARK SMILES IDX 50 78 51 79 75 80 76 81 84 82 77 83 79 84 85 85 78 86 80 87
REMARK SMILES IDX 81 88 82 89 83 90 60 91 61 92 69 93 62 94 64 95 70 96 63 97
REMARK SMILES IDX 65 98 66 99 67 100 68 101
REMARK H PARENT 27 6 10 10 31 35 90 54 58 65
REMARK Flexibility Score: inf
ROOT
ATOM      1  C   UNL A   1      36.732  22.315  24.184  1.00  0.00     0.042 C 
ENDROOT
BRANCH   1   2
ATOM      2  C   UNL A   1      35.470  23.156  24.105  1.00  0.00     0.118 C 
BRANCH   2   3
ATOM      3  N   UNL A   1      35.521  24.431  24.762  1.00  0.00    -0.351 N 
ATOM      4  C   UNL A   1      34.506  25.320  24.975  1.00  0.00     0.278 C 
ATOM      5  O   UNL A   1      34.756  26.255  25.750  1.00  0.00    -0.268 OA
ATOM      6  H   UNL A   1      36.404  24.700  25.104  1.00  0.00     0.163 HD
BRANCH   4   7
ATOM      7  C   UNL A   1      33.097  25.227  24.307  1.00  0.00     0.275 C 
ATOM      8  N   UNL A   1      32.033  25.337  25.306  1.00  0.00    -0.320 N 
ATOM      9  C   UNL A   1      31.255  26.545  25.046  1.00  0.00     0.270 C 
ATOM     10  H   UNL A   1      32.444  25.467  26.231  1.00  0.00     0.349 HD
ATOM     11  C   UNL A   1      31.533  27.023  23.595  1.00  0.00     0.029 C 
ATOM     12  C   UNL A   1      32.746  26.171  23.152  1.00  0.00     0.088 C 
ATOM     13  C   UNL A   1      31.837  28.536  23.421  1.00  0.00     0.034 C 
ATOM     14  C   UNL A   1      30.289  26.824  22.694  1.00  0.00     0.034 C 
ATOM     15  C   UNL A   1      30.700  29.397  23.938  1.00  0.00     0.120 C 
ATOM     16  C   UNL A   1      29.105  27.712  23.135  1.00  0.00     0.120 C 
ATOM     17  N   UNL A   1      29.489  29.128  23.186  1.00  0.00    -0.342 N 
ATOM     18  C   UNL A   1      28.593  30.071  22.688  1.00  0.00     0.225 C 
ATOM     19  O   UNL A   1      27.439  29.752  22.402  1.00  0.00    -0.275 OA
BRANCH   8  20
ATOM     20  C   UNL A   1      31.295  24.080  25.568  1.00  0.00     0.299 C 
BRANCH  20  21
ATOM     21  C   UNL A   1      32.114  22.792  25.585  1.00  0.00     0.009 A 
ATOM     22  C   UNL A   1      32.173  21.855  24.525  1.00  0.00    -0.039 A 
ATOM     23  C   UNL A   1      32.731  20.582  24.775  1.00  0.00     0.004 A 
ATOM     24  C   UNL A   1      33.329  20.276  25.997  1.00  0.00     0.000 A 
ATOM     25  C   UNL A   1      32.838  22.502  26.763  1.00  0.00     0.010 A 
ATOM     26  C   UNL A   1      33.436  21.258  26.970  1.00  0.00     0.001 A 
BRANCH  22  27
ATOM     27  C   UNL A   1      31.853  22.188  23.079  1.00  0.00     0.032 C 
ATOM     28  C   UNL A   1      31.918  21.046  22.077  1.00  0.00     0.009 C 
ENDBRANCH  22  27
ENDBRANCH  20  21
ENDBRANCH   8  20
BRANCH  18  29
ATOM     29  C   UNL A   1      28.975  31.477  22.334  1.00  0.00     0.079 C 
ATOM     30  C   UNL A   1      28.128  32.649  21.925  1.00  0.00     0.014 C 
ATOM     31  C   UNL A   1      28.757  32.623  23.294  1.00  0.00     0.014 C 
ENDBRANCH  18  29
ENDBRANCH   4   7
ENDBRANCH   2   3
ENDBRANCH   1   2
BRANCH   1  32
ATOM     32  C   UNL A   1      37.009  21.805  25.589  1.00  0.00     0.118 C 
BRANCH  32  33
ATOM     33  N   UNL A   1      38.028  20.753  25.633  1.00  0.00    -0.352 N 
ATOM     34  C   UNL A   1      39.333  20.808  26.079  1.00  0.00     0.251 C 
ATOM     35  H   UNL A   1      37.738  19.875  25.293  1.00  0.00     0.163 HD
ATOM     36  O   UNL A   1      40.073  19.846  25.929  1.00  0.00    -0.269 OA
BRANCH  34  37
ATOM     37  C   UNL A   1      39.838  22.052  26.703  1.00  0.00     0.039 A 
ATOM     38  C   UNL A   1      40.776  21.976  27.739  1.00  0.00     0.014 A 
ATOM     39  C   UNL A   1      39.427  23.293  26.221  1.00  0.00     0.014 A 
ATOM     40  C   UNL A   1      41.380  23.147  28.212  1.00  0.00     0.010 A 
ATOM     41  C   UNL A   1      40.110  24.436  26.607  1.00  0.00     0.010 A 
ATOM     42  C   UNL A   1      41.090  24.380  27.610  1.00  0.00    -0.014 A 
BRANCH  42  43
ATOM     43  C   UNL A   1      41.767  25.648  27.987  1.00  0.00     0.031 A 
ATOM     44  C   UNL A   1      40.975  26.710  28.702  1.00  0.00     0.074 A 
ATOM     45  C   UNL A   1      43.012  25.910  27.543  1.00  0.00     0.049 A 
ATOM     46  N   UNL A   1      41.267  27.967  28.900  1.00  0.00    -0.248 NA
ATOM     47  C   UNL A   1      39.648  26.315  29.209  1.00  0.00     0.031 C 
ATOM     48  C   UNL A   1      43.853  24.992  26.773  1.00  0.00     0.029 A 
ATOM     49  N   UNL A   1      43.769  27.054  27.633  1.00  0.00    -0.354 N 
ATOM     50  C   UNL A   1      40.134  28.529  29.479  1.00  0.00     0.074 A 
ATOM     51  C   UNL A   1      39.141  27.483  29.575  1.00  0.00     0.031 C 
ATOM     52  C   UNL A   1      45.004  25.607  26.455  1.00  0.00     0.029 A 
ATOM     53  C   UNL A   1      44.968  26.976  26.959  1.00  0.00     0.049 A 
ATOM     54  H   UNL A   1      43.482  27.852  28.133  1.00  0.00     0.167 HD
ATOM     55  C   UNL A   1      39.947  29.796  29.919  1.00  0.00     0.034 A 
ATOM     56  C   UNL A   1      45.919  27.910  26.753  1.00  0.00     0.034 A 
ATOM     57  C   UNL A   1      40.971  30.801  29.903  1.00  0.00     0.049 A 
ATOM     58  C   UNL A   1      45.725  29.286  27.333  1.00  0.00     0.074 A 
ATOM     59  C   UNL A   1      40.930  32.079  30.428  1.00  0.00     0.029 A 
ATOM     60  N   UNL A   1      42.229  30.635  29.342  1.00  0.00    -0.354 N 
ATOM     61  N   UNL A   1      44.702  29.761  28.001  1.00  0.00    -0.248 NA
ATOM     62  C   UNL A   1      46.826  30.246  27.162  1.00  0.00     0.031 C 
ATOM     63  C   UNL A   1      42.162  32.691  30.178  1.00  0.00     0.029 A 
ATOM     64  C   UNL A   1      42.976  31.785  29.515  1.00  0.00     0.049 A 
ATOM     65  H   UNL A   1      42.543  29.820  28.889  1.00  0.00     0.167 HD
ATOM     66  C   UNL A   1      45.052  31.054  28.370  1.00  0.00     0.074 A 
ATOM     67  C   UNL A   1      46.385  31.288  27.854  1.00  0.00     0.031 C 
ATOM     68  C   UNL A   1      44.331  31.969  29.063  1.00  0.00     0.034 A 
BRANCH  55  69
ATOM     69  C   UNL A   1      38.607  30.142  30.512  1.00  0.00     0.023 A 
ATOM     70  C   UNL A   1      38.311  29.759  31.836  1.00  0.00     0.012 A 
ATOM     71  C   UNL A   1      37.659  30.881  29.778  1.00  0.00     0.148 A 
ATOM     72  C   UNL A   1      37.076  30.066  32.406  1.00  0.00     0.002 A 
ATOM     73  C   UNL A   1      36.448  31.225  30.371  1.00  0.00     0.091 A 
ATOM     74  F   UNL A   1      37.946  31.216  28.513  1.00  0.00    -0.205 F 
ATOM     75  C   UNL A   1      36.151  30.807  31.678  1.00  0.00     0.022 A 
BRANCH  73  76
ATOM     76  S   UNL A   1      35.226  32.249  29.542  1.00  0.00     0.127 S 
ATOM     77  O   UNL A   1      36.062  33.305  28.976  1.00  0.00    -0.237 OA
ATOM     78  O   UNL A   1      34.664  31.322  28.558  1.00  0.00    -0.237 OA
ATOM     79  O   UNL A   1      34.292  32.670  30.576  1.00  0.00    -0.744 OA
ENDBRANCH  73  76
ENDBRANCH  55  69
BRANCH  56  80
ATOM     80  C   UNL A   1      47.169  27.548  26.026  1.00  0.00     0.023 A 
ATOM     81  C   UNL A   1      48.198  26.886  26.725  1.00  0.00     0.012 A 
ATOM     82  C   UNL A   1      47.330  27.808  24.652  1.00  0.00     0.148 A 
ATOM     83  C   UNL A   1      49.375  26.513  26.075  1.00  0.00     0.002 A 
ATOM     84  C   UNL A   1      48.484  27.387  23.998  1.00  0.00     0.091 A 
ATOM     85  F   UNL A   1      46.344  28.446  24.007  1.00  0.00    -0.205 F 
ATOM     86  C   UNL A   1      49.514  26.754  24.711  1.00  0.00     0.022 A 
BRANCH  84  87
ATOM     87  S   UNL A   1      48.694  27.535  22.220  1.00  0.00     0.127 S 
ATOM     88  O   UNL A   1      48.648  26.138  21.796  1.00  0.00    -0.237 OA
ATOM     89  O   UNL A   1      47.528  28.333  21.842  1.00  0.00    -0.237 OA
ATOM     90  O   UNL A   1      49.970  28.213  22.032  1.00  0.00    -0.744 OA
ENDBRANCH  84  87
ENDBRANCH  56  80
BRANCH  68  91
ATOM     91  C   UNL A   1      44.974  33.292  29.373  1.00  0.00     0.023 A 
ATOM     92  C   UNL A   1      45.768  33.433  30.526  1.00  0.00     0.012 A 
ATOM     93  C   UNL A   1      44.900  34.349  28.445  1.00  0.00     0.148 A 
ATOM     94  C   UNL A   1      46.473  34.613  30.757  1.00  0.00     0.002 A 
ATOM     95  C   UNL A   1      45.641  35.505  28.657  1.00  0.00     0.091 A 
ATOM     96  F   UNL A   1      44.123  34.194  27.361  1.00  0.00    -0.205 F 
ATOM     97  C   UNL A   1      46.421  35.642  29.817  1.00  0.00     0.022 A 
BRANCH  95  98
ATOM     98  S   UNL A   1      45.718  36.835  27.454  1.00  0.00     0.127 S 
ATOM     99  O   UNL A   1      46.236  36.140  26.275  1.00  0.00    -0.237 OA
ATOM    100  O   UNL A   1      44.318  37.244  27.355  1.00  0.00    -0.237 OA
ATOM    101  O   UNL A   1      46.606  37.842  28.020  1.00  0.00    -0.744 OA
ENDBRANCH  95  98
ENDBRANCH  68  91
ENDBRANCH  42  43
ENDBRANCH  34  37
ENDBRANCH  32  33
ENDBRANCH   1  32
TORSDOF 17
ENDMDL
MODEL 3
REMARK VINA RESULT:     -12.9      0.519      7.499
REMARK SMILES CCc1ccccc1C[N@@H+]1CC2(CCN(C(=O)C3CC3)CC2)C[C@H]1C(=O)NCCCNC(=O)c1ccc(-c2c3nc(c(-c4cccc(S(=O)(=O)[O-])c4F)c4ccc([nH]4)c(-c4cccc(S(=O)(=O)[O-])c4F)c4nc(c(-c5cccc(S(=O)(=O)[O-])c5F)c5ccc2[nH]5)C=C4)C=C3)cc1
REMARK SMILES IDX 29 1 28 2 27 3 25 4 26 5 24 7 10 8 11 9 12 11 23 12 13 13
REMARK SMILES IDX 22 14 14 15 21 16 15 17 16 18 17 19 9 20 8 21 3 22 4 23 5 24
REMARK SMILES IDX 7 25 6 26 2 27 1 28 18 29 19 30 20 31 30 32 31 33 32 34
REMARK SMILES IDX 33 36 34 37 35 38 96 39 36 40 95 41 37 42 38 43 39 44 89 45
REMARK SMILES IDX 40 46 94 47 88 48 90 49 41 50 93 51 87 52 86 53 42 55 74 56
REMARK SMILES IDX 54 57 73 58 55 59 58 60 72 61 91 62 56 63 57 64 71 66 92 67
REMARK SMILES IDX 59 68 43 69 44 70 52 71 45 72 47 73 53 74 46 75 48 76 49 77
REMARK SMILES IDX 50 78 51 79 75 80 76 81 84 82 77 83 79 84 85 85 78 86 80 87
REMARK SMILES IDX 81 88 82 89 83 90 60 91 61 92 69 93 62 94 64 95 70 96 63 97
REMARK SMILES IDX 65 98 66 99 67 100 68 101
REMARK H PARENT 27 6 10 10 31 35 90 54 58 65
REMARK Flexibility Score: inf
ROOT
ATOM      1  C   UNL A   1      31.752  31.520  26.623  1.00  0.00     0.042 C 
ENDROOT
BRANCH   1   2
ATOM      2  C   UNL A   1      32.098  30.121  26.145  1.00  0.00     0.118 C 
BRANCH   2   3
ATOM      3  N   UNL A   1      33.047  30.039  25.072  1.00  0.00    -0.351 N 
ATOM      4  C   UNL A   1      33.179  29.064  24.124  1.00  0.00     0.278 C 
ATOM      5  O   UNL A   1      33.937  29.324  23.179  1.00  0.00    -0.268 OA
ATOM      6  H   UNL A   1      33.688  30.784  25.010  1.00  0.00     0.163 HD
BRANCH   4   7
ATOM      7  C   UNL A   1      32.453  27.681  24.175  1.00  0.00     0.275 C 
ATOM      8  N   UNL A   1      32.503  27.014  22.873  1.00  0.00    -0.320 N 
ATOM      9  C   UNL A   1      33.272  25.778  22.998  1.00  0.00     0.270 C 
ATOM     10  H   UNL A   1      33.019  27.593  22.211  1.00  0.00     0.349 HD
ATOM     11  C   UNL A   1      33.372  25.395  24.500  1.00  0.00     0.029 C 
ATOM     12  C   UNL A   1      32.860  26.655  25.238  1.00  0.00     0.088 C 
ATOM     13  C   UNL A   1      34.784  25.000  25.011  1.00  0.00     0.034 C 
ATOM     14  C   UNL A   1      32.536  24.128  24.810  1.00  0.00     0.034 C 
ATOM     15  C   UNL A   1      35.349  23.824  24.237  1.00  0.00     0.120 C 
ATOM     16  C   UNL A   1      33.088  22.878  24.091  1.00  0.00     0.120 C 
ATOM     17  N   UNL A   1      34.504  22.659  24.413  1.00  0.00    -0.342 N 
ATOM     18  C   UNL A   1      34.927  21.356  24.668  1.00  0.00     0.225 C 
ATOM     19  O   UNL A   1      34.189  20.399  24.433  1.00  0.00    -0.275 OA
BRANCH   8  20
ATOM     20  C   UNL A   1      31.209  26.956  22.155  1.00  0.00     0.299 C 
BRANCH  20  21
ATOM     21  C   UNL A   1      30.129  27.937  22.603  1.00  0.00     0.009 A 
ATOM     22  C   UNL A   1      28.915  27.573  23.235  1.00  0.00    -0.039 A 
ATOM     23  C   UNL A   1      27.888  28.537  23.337  1.00  0.00     0.004 A 
ATOM     24  C   UNL A   1      28.088  29.859  22.943  1.00  0.00     0.000 A 
ATOM     25  C   UNL A   1      30.347  29.306  22.332  1.00  0.00     0.010 A 
ATOM     26  C   UNL A   1      29.339  30.257  22.496  1.00  0.00     0.001 A 
BRANCH  22  27
ATOM     27  C   UNL A   1      28.708  26.271  23.987  1.00  0.00     0.032 C 
ATOM     28  C   UNL A   1      29.443  26.115  25.310  1.00  0.00     0.009 C 
ENDBRANCH  22  27
ENDBRANCH  20  21
ENDBRANCH   8  20
BRANCH  18  29
ATOM     29  C   UNL A   1      36.215  21.018  25.356  1.00  0.00     0.079 C 
ATOM     30  C   UNL A   1      37.361  20.150  24.919  1.00  0.00     0.014 C 
ATOM     31  C   UNL A   1      37.524  21.647  24.941  1.00  0.00     0.014 C 
ENDBRANCH  18  29
ENDBRANCH   4   7
ENDBRANCH   2   3
ENDBRANCH   1   2
BRANCH   1  32
ATOM     32  C   UNL A   1      32.928  32.222  27.282  1.00  0.00     0.118 C 
BRANCH  32  33
ATOM     33  N   UNL A   1      32.671  33.636  27.571  1.00  0.00    -0.352 N 
ATOM     34  C   UNL A   1      33.214  34.449  28.546  1.00  0.00     0.251 C 
ATOM     35  H   UNL A   1      32.013  34.070  26.983  1.00  0.00     0.163 HD
ATOM     36  O   UNL A   1      32.787  35.583  28.705  1.00  0.00    -0.269 OA
BRANCH  34  37
ATOM     37  C   UNL A   1      34.288  33.922  29.420  1.00  0.00     0.039 A 
ATOM     38  C   UNL A   1      33.953  33.190  30.564  1.00  0.00     0.014 A 
ATOM     39  C   UNL A   1      35.625  34.104  29.071  1.00  0.00     0.014 A 
ATOM     40  C   UNL A   1      34.960  32.549  31.294  1.00  0.00     0.010 A 
ATOM     41  C   UNL A   1      36.606  33.373  29.725  1.00  0.00     0.010 A 
ATOM     42  C   UNL A   1      36.289  32.592  30.846  1.00  0.00    -0.014 A 
BRANCH  42  43
ATOM     43  C   UNL A   1      37.394  31.852  31.509  1.00  0.00     0.031 A 
ATOM     44  C   UNL A   1      37.929  32.365  32.819  1.00  0.00     0.074 A 
ATOM     45  C   UNL A   1      38.020  30.848  30.864  1.00  0.00     0.049 A 
ATOM     46  N   UNL A   1      39.031  32.049  33.444  1.00  0.00    -0.248 NA
ATOM     47  C   UNL A   1      37.145  33.421  33.485  1.00  0.00     0.031 C 
ATOM     48  C   UNL A   1      37.645  30.311  29.555  1.00  0.00     0.029 A 
ATOM     49  N   UNL A   1      39.142  30.131  31.205  1.00  0.00    -0.354 N 
ATOM     50  C   UNL A   1      39.112  32.918  34.527  1.00  0.00     0.074 A 
ATOM     51  C   UNL A   1      37.963  33.792  34.458  1.00  0.00     0.031 C 
ATOM     52  C   UNL A   1      38.522  29.358  29.199  1.00  0.00     0.029 A 
ATOM     53  C   UNL A   1      39.546  29.244  30.232  1.00  0.00     0.049 A 
ATOM     54  H   UNL A   1      39.612  30.242  32.063  1.00  0.00     0.167 HD
ATOM     55  C   UNL A   1      40.045  32.965  35.507  1.00  0.00     0.034 A 
ATOM     56  C   UNL A   1      40.632  28.446  30.171  1.00  0.00     0.034 A 
ATOM     57  C   UNL A   1      41.131  32.033  35.615  1.00  0.00     0.049 A 
ATOM     58  C   UNL A   1      41.606  28.452  31.320  1.00  0.00     0.074 A 
ATOM     59  C   UNL A   1      42.064  31.914  36.628  1.00  0.00     0.029 A 
ATOM     60  N   UNL A   1      41.420  31.049  34.682  1.00  0.00    -0.354 N 
ATOM     61  N   UNL A   1      41.591  29.186  32.407  1.00  0.00    -0.248 NA
ATOM     62  C   UNL A   1      42.726  27.502  31.254  1.00  0.00     0.031 C 
ATOM     63  C   UNL A   1      42.924  30.861  36.304  1.00  0.00     0.029 A 
ATOM     64  C   UNL A   1      42.513  30.313  35.098  1.00  0.00     0.049 A 
ATOM     65  H   UNL A   1      40.921  30.896  33.848  1.00  0.00     0.167 HD
ATOM     66  C   UNL A   1      42.667  28.756  33.173  1.00  0.00     0.074 A 
ATOM     67  C   UNL A   1      43.311  27.693  32.428  1.00  0.00     0.031 C 
ATOM     68  C   UNL A   1      43.091  29.207  34.379  1.00  0.00     0.034 A 
BRANCH  55  69
ATOM     69  C   UNL A   1      39.891  34.019  36.572  1.00  0.00     0.023 A 
ATOM     70  C   UNL A   1      40.177  35.364  36.266  1.00  0.00     0.012 A 
ATOM     71  C   UNL A   1      39.424  33.686  37.858  1.00  0.00     0.148 A 
ATOM     72  C   UNL A   1      40.045  36.358  37.236  1.00  0.00     0.002 A 
ATOM     73  C   UNL A   1      39.248  34.689  38.806  1.00  0.00     0.091 A 
ATOM     74  F   UNL A   1      39.179  32.399  38.140  1.00  0.00    -0.205 F 
ATOM     75  C   UNL A   1      39.571  36.022  38.500  1.00  0.00     0.022 A 
BRANCH  73  76
ATOM     76  S   UNL A   1      38.565  34.367  40.436  1.00  0.00     0.127 S 
ATOM     77  O   UNL A   1      39.666  33.655  41.081  1.00  0.00    -0.237 OA
ATOM     78  O   UNL A   1      38.331  35.720  40.945  1.00  0.00    -0.237 OA
ATOM     79  O   UNL A   1      37.355  33.588  40.214  1.00  0.00    -0.744 OA
ENDBRANCH  73  76
ENDBRANCH  55  69
BRANCH  56  80
ATOM     80  C   UNL A   1      40.810  27.522  29.015  1.00  0.00     0.023 A 
ATOM     81  C   UNL A   1      40.022  26.357  28.943  1.00  0.00     0.012 A 
ATOM     82  C   UNL A   1      41.710  27.807  27.969  1.00  0.00     0.148 A 
ATOM     83  C   UNL A   1      40.145  25.478  27.866  1.00  0.00     0.002 A 
ATOM     84  C   UNL A   1      41.791  26.954  26.873  1.00  0.00     0.091 A 
ATOM     85  F   UNL A   1      42.457  28.916  28.060  1.00  0.00    -0.205 F 
ATOM     86  C   UNL A   1      41.021  25.782  26.827  1.00  0.00     0.022 A 
BRANCH  84  87
ATOM     87  S   UNL A   1      42.791  27.331  25.429  1.00  0.00     0.127 S 
ATOM     88  O   UNL A   1      42.676  26.096  24.655  1.00  0.00    -0.237 OA
ATOM     89  O   UNL A   1      42.087  28.481  24.864  1.00  0.00    -0.237 OA
ATOM     90  O   UNL A   1      44.120  27.635  25.942  1.00  0.00    -0.744 OA
ENDBRANCH  84  87
ENDBRANCH  56  80
BRANCH  68  91
ATOM     91  C   UNL A   1      44.267  28.524  35.019  1.00  0.00     0.023 A 
ATOM     92  C   UNL A   1      45.575  28.952  34.718  1.00  0.00     0.012 A 
ATOM     93  C   UNL A   1      44.064  27.556  36.021  1.00  0.00     0.148 A 
ATOM     94  C   UNL A   1      46.665  28.415  35.401  1.00  0.00     0.002 A 
ATOM     95  C   UNL A   1      45.152  27.059  36.729  1.00  0.00     0.091 A 
ATOM     96  F   UNL A   1      42.809  27.155  36.277  1.00  0.00    -0.205 F 
ATOM     97  C   UNL A   1      46.453  27.482  36.414  1.00  0.00     0.022 A 
BRANCH  95  98
ATOM     98  S   UNL A   1      44.966  25.936  38.118  1.00  0.00     0.127 S 
ATOM     99  O   UNL A   1      44.583  24.694  37.446  1.00  0.00    -0.237 OA
ATOM    100  O   UNL A   1      46.312  25.929  38.691  1.00  0.00    -0.237 OA
ATOM    101  O   UNL A   1      43.944  26.518  38.976  1.00  0.00    -0.744 OA
ENDBRANCH  95  98
ENDBRANCH  68  91
ENDBRANCH  42  43
ENDBRANCH  34  37
ENDBRANCH  32  33
ENDBRANCH   1  32
TORSDOF 17
ENDMDL
