MODEL 1
REMARK VINA RESULT:     -12.4      0.000      0.000
REMARK SMILES Cc1ccc(C(=O)Nc2cccc(F)c2C(=O)NCCCNC(=O)c2ccc(-c3c4nc(c(-c5cccc(S(=O)(=O)[O-])c5F)c5ccc([nH]5)c(-c5cccc(S(=O)(=O)[O-])c5F)c5nc(c(-c6cccc(S(=O)(=O)[O-])c6F)c6ccc3[nH]6)C=C5)C=C4)cc2)c(F)c1
REMARK SMILES IDX 20 1 19 2 18 3 16 4 17 5 15 7 9 8 10 9 11 10 13 11 12 12
REMARK SMILES IDX 14 13 8 14 6 15 7 16 5 18 1 19 2 20 3 21 90 22 4 23 88 24
REMARK SMILES IDX 89 25 21 26 22 27 23 28 24 30 25 31 26 32 87 33 27 34 86 35
REMARK SMILES IDX 28 36 29 37 30 38 80 39 31 40 85 41 79 42 81 43 32 44 84 45
REMARK SMILES IDX 78 46 77 47 33 49 65 50 45 51 64 52 46 53 49 54 63 55 82 56
REMARK SMILES IDX 47 57 48 58 62 60 83 61 50 62 34 63 35 64 43 65 36 66 38 67
REMARK SMILES IDX 44 68 37 69 39 70 40 71 41 72 42 73 66 74 67 75 75 76 68 77
REMARK SMILES IDX 70 78 76 79 69 80 71 81 72 82 73 83 74 84 51 85 52 86 60 87
REMARK SMILES IDX 53 88 55 89 61 90 54 91 56 92 57 93 58 94 59 95
REMARK H PARENT 18 6 8 17 22 29 81 48 49 59
REMARK Flexibility Score: inf
ROOT
ATOM      1  C   UNL A   1      33.193  28.970  23.982  1.00  0.00     0.042 C 
ENDROOT
BRANCH   1   2
ATOM      2  C   UNL A   1      31.952  28.920  23.091  1.00  0.00     0.118 C 
BRANCH   2   3
ATOM      3  N   UNL A   1      31.869  27.664  22.373  1.00  0.00    -0.352 N 
ATOM      4  C   UNL A   1      31.799  26.337  22.686  1.00  0.00     0.256 C 
ATOM      5  O   UNL A   1      31.806  25.607  21.686  1.00  0.00    -0.269 OA
ATOM      6  H   UNL A   1      31.860  27.805  21.399  1.00  0.00     0.163 HD
BRANCH   4   7
ATOM      7  C   UNL A   1      31.712  25.686  24.037  1.00  0.00     0.099 A 
ATOM      8  C   UNL A   1      32.875  25.026  24.533  1.00  0.00     0.057 A 
ATOM      9  C   UNL A   1      32.922  24.515  25.844  1.00  0.00     0.027 A 
ATOM     10  C   UNL A   1      31.783  24.500  26.633  1.00  0.00     0.005 A 
ATOM     11  C   UNL A   1      30.582  25.633  24.857  1.00  0.00     0.138 A 
ATOM     12  C   UNL A   1      30.604  25.017  26.118  1.00  0.00     0.040 A 
ATOM     13  F   UNL A   1      29.407  26.159  24.512  1.00  0.00    -0.206 F 
BRANCH   8  14
ATOM     14  N   UNL A   1      33.989  24.812  23.691  1.00  0.00    -0.321 N 
ATOM     15  C   UNL A   1      34.689  23.652  23.417  1.00  0.00     0.258 C 
ATOM     16  O   UNL A   1      35.722  23.706  22.752  1.00  0.00    -0.269 OA
ATOM     17  H   UNL A   1      34.320  25.616  23.228  1.00  0.00     0.170 HD
BRANCH  15  18
ATOM     18  C   UNL A   1      34.137  22.320  23.789  1.00  0.00     0.075 A 
ATOM     19  C   UNL A   1      32.529  18.512  25.039  1.00  0.00     0.044 C 
ATOM     20  C   UNL A   1      33.096  19.824  24.589  1.00  0.00    -0.048 A 
ATOM     21  C   UNL A   1      32.394  20.622  23.683  1.00  0.00     0.004 A 
ATOM     22  C   UNL A   1      34.358  20.243  25.024  1.00  0.00     0.043 A 
ATOM     23  C   UNL A   1      32.930  21.841  23.259  1.00  0.00     0.017 A 
ATOM     24  C   UNL A   1      34.865  21.486  24.636  1.00  0.00     0.136 A 
ATOM     25  F   UNL A   1      36.060  21.853  25.121  1.00  0.00    -0.206 F 
ENDBRANCH  15  18
ENDBRANCH   8  14
ENDBRANCH   4   7
ENDBRANCH   2   3
ENDBRANCH   1   2
BRANCH   1  26
ATOM     26  C   UNL A   1      32.861  29.155  25.467  1.00  0.00     0.118 C 
BRANCH  26  27
ATOM     27  N   UNL A   1      32.597  30.552  25.799  1.00  0.00    -0.352 N 
ATOM     28  C   UNL A   1      33.048  31.336  26.830  1.00  0.00     0.251 C 
ATOM     29  H   UNL A   1      31.989  31.011  25.175  1.00  0.00     0.163 HD
ATOM     30  O   UNL A   1      32.456  32.387  27.075  1.00  0.00    -0.269 OA
BRANCH  28  31
ATOM     31  C   UNL A   1      34.233  30.957  27.628  1.00  0.00     0.039 A 
ATOM     32  C   UNL A   1      35.244  31.903  27.827  1.00  0.00     0.014 A 
ATOM     33  C   UNL A   1      34.404  29.653  28.097  1.00  0.00     0.014 A 
ATOM     34  C   UNL A   1      36.407  31.549  28.515  1.00  0.00     0.010 A 
ATOM     35  C   UNL A   1      35.521  29.326  28.860  1.00  0.00     0.010 A 
ATOM     36  C   UNL A   1      36.549  30.259  29.051  1.00  0.00    -0.014 A 
BRANCH  36  37
ATOM     37  C   UNL A   1      37.780  29.859  29.780  1.00  0.00     0.031 A 
ATOM     38  C   UNL A   1      38.047  30.395  31.163  1.00  0.00     0.074 A 
ATOM     39  C   UNL A   1      38.687  29.070  29.173  1.00  0.00     0.049 A 
ATOM     40  N   UNL A   1      39.078  30.188  31.939  1.00  0.00    -0.248 NA
ATOM     41  C   UNL A   1      37.041  31.303  31.739  1.00  0.00     0.031 C 
ATOM     42  C   UNL A   1      38.577  28.556  27.807  1.00  0.00     0.029 A 
ATOM     43  N   UNL A   1      39.886  28.574  29.618  1.00  0.00    -0.354 N 
ATOM     44  C   UNL A   1      38.864  30.968  33.070  1.00  0.00     0.074 A 
ATOM     45  C   UNL A   1      37.627  31.684  32.866  1.00  0.00     0.031 C 
ATOM     46  C   UNL A   1      39.654  27.803  27.532  1.00  0.00     0.029 A 
ATOM     47  C   UNL A   1      40.544  27.802  28.689  1.00  0.00     0.049 A 
ATOM     48  H   UNL A   1      40.242  28.754  30.518  1.00  0.00     0.167 HD
ATOM     49  C   UNL A   1      39.611  31.048  34.196  1.00  0.00     0.034 A 
ATOM     50  C   UNL A   1      41.727  27.160  28.762  1.00  0.00     0.034 A 
ATOM     51  C   UNL A   1      40.800  30.275  34.423  1.00  0.00     0.049 A 
ATOM     52  C   UNL A   1      42.510  27.219  30.046  1.00  0.00     0.074 A 
ATOM     53  C   UNL A   1      41.566  30.199  35.573  1.00  0.00     0.029 A 
ATOM     54  N   UNL A   1      41.394  29.444  33.487  1.00  0.00    -0.354 N 
ATOM     55  N   UNL A   1      42.209  27.833  31.165  1.00  0.00    -0.248 NA
ATOM     56  C   UNL A   1      43.777  26.475  30.093  1.00  0.00     0.031 C 
ATOM     57  C   UNL A   1      42.636  29.336  35.325  1.00  0.00     0.029 A 
ATOM     58  C   UNL A   1      42.525  28.859  34.028  1.00  0.00     0.049 A 
ATOM     59  H   UNL A   1      41.061  29.292  32.574  1.00  0.00     0.167 HD
ATOM     60  C   UNL A   1      43.232  27.532  32.055  1.00  0.00     0.074 A 
ATOM     61  C   UNL A   1      44.153  26.661  31.353  1.00  0.00     0.031 C 
ATOM     62  C   UNL A   1      43.403  27.954  33.332  1.00  0.00     0.034 A 
BRANCH  49  63
ATOM     63  C   UNL A   1      39.127  31.942  35.308  1.00  0.00     0.023 A 
ATOM     64  C   UNL A   1      38.195  31.441  36.240  1.00  0.00     0.012 A 
ATOM     65  C   UNL A   1      39.654  33.236  35.484  1.00  0.00     0.148 A 
ATOM     66  C   UNL A   1      37.776  32.222  37.316  1.00  0.00     0.002 A 
ATOM     67  C   UNL A   1      39.265  33.992  36.585  1.00  0.00     0.091 A 
ATOM     68  F   UNL A   1      40.524  33.702  34.577  1.00  0.00    -0.205 F 
ATOM     69  C   UNL A   1      38.320  33.491  37.494  1.00  0.00     0.022 A 
BRANCH  67  70
ATOM     70  S   UNL A   1      39.967  35.605  36.954  1.00  0.00     0.127 S 
ATOM     71  O   UNL A   1      39.278  35.948  38.197  1.00  0.00    -0.237 OA
ATOM     72  O   UNL A   1      41.387  35.292  37.111  1.00  0.00    -0.237 OA
ATOM     73  O   UNL A   1      39.650  36.453  35.814  1.00  0.00    -0.744 OA
ENDBRANCH  67  70
ENDBRANCH  49  63
BRANCH  50  74
ATOM     74  C   UNL A   1      42.187  26.335  27.609  1.00  0.00     0.023 A 
ATOM     75  C   UNL A   1      43.070  26.902  26.670  1.00  0.00     0.012 A 
ATOM     76  C   UNL A   1      41.822  24.981  27.479  1.00  0.00     0.148 A 
ATOM     77  C   UNL A   1      43.569  26.140  25.611  1.00  0.00     0.002 A 
ATOM     78  C   UNL A   1      42.365  24.213  26.455  1.00  0.00     0.091 A 
ATOM     79  F   UNL A   1      40.973  24.463  28.378  1.00  0.00    -0.205 F 
ATOM     80  C   UNL A   1      43.228  24.794  25.512  1.00  0.00     0.022 A 
BRANCH  78  81
ATOM     81  S   UNL A   1      42.099  22.440  26.330  1.00  0.00     0.127 S 
ATOM     82  O   UNL A   1      40.648  22.363  26.197  1.00  0.00    -0.237 OA
ATOM     83  O   UNL A   1      42.849  22.106  25.119  1.00  0.00    -0.237 OA
ATOM     84  O   UNL A   1      42.653  21.872  27.553  1.00  0.00    -0.744 OA
ENDBRANCH  78  81
ENDBRANCH  50  74
BRANCH  62  85
ATOM     85  C   UNL A   1      44.626  27.489  34.079  1.00  0.00     0.023 A 
ATOM     86  C   UNL A   1      45.771  28.307  34.102  1.00  0.00     0.012 A 
ATOM     87  C   UNL A   1      44.585  26.326  34.873  1.00  0.00     0.148 A 
ATOM     88  C   UNL A   1      46.863  27.970  34.900  1.00  0.00     0.002 A 
ATOM     89  C   UNL A   1      45.658  26.022  35.700  1.00  0.00     0.091 A 
ATOM     90  F   UNL A   1      43.486  25.558  34.824  1.00  0.00    -0.205 F 
ATOM     91  C   UNL A   1      46.801  26.839  35.710  1.00  0.00     0.022 A 
BRANCH  89  92
ATOM     92  S   UNL A   1      45.630  24.647  36.858  1.00  0.00     0.127 S 
ATOM     93  O   UNL A   1      46.851  24.882  37.627  1.00  0.00    -0.237 OA
ATOM     94  O   UNL A   1      44.388  24.888  37.593  1.00  0.00    -0.237 OA
ATOM     95  O   UNL A   1      45.631  23.436  36.048  1.00  0.00    -0.744 OA
ENDBRANCH  89  92
ENDBRANCH  62  85
ENDBRANCH  36  37
ENDBRANCH  28  31
ENDBRANCH  26  27
ENDBRANCH   1  26
TORSDOF 15
ENDMDL
MODEL 2
REMARK VINA RESULT:     -12.4      1.903      2.613
REMARK SMILES Cc1ccc(C(=O)Nc2cccc(F)c2C(=O)NCCCNC(=O)c2ccc(-c3c4nc(c(-c5cccc(S(=O)(=O)[O-])c5F)c5ccc([nH]5)c(-c5cccc(S(=O)(=O)[O-])c5F)c5nc(c(-c6cccc(S(=O)(=O)[O-])c6F)c6ccc3[nH]6)C=C5)C=C4)cc2)c(F)c1
REMARK SMILES IDX 20 1 19 2 18 3 16 4 17 5 15 7 9 8 10 9 11 10 13 11 12 12
REMARK SMILES IDX 14 13 8 14 6 15 7 16 5 18 1 19 2 20 3 21 90 22 4 23 88 24
REMARK SMILES IDX 89 25 21 26 22 27 23 28 24 30 25 31 26 32 87 33 27 34 86 35
REMARK SMILES IDX 28 36 29 37 30 38 80 39 31 40 85 41 79 42 81 43 32 44 84 45
REMARK SMILES IDX 78 46 77 47 33 49 65 50 45 51 64 52 46 53 49 54 63 55 82 56
REMARK SMILES IDX 47 57 48 58 62 60 83 61 50 62 34 63 35 64 43 65 36 66 38 67
REMARK SMILES IDX 44 68 37 69 39 70 40 71 41 72 42 73 66 74 67 75 75 76 68 77
REMARK SMILES IDX 70 78 76 79 69 80 71 81 72 82 73 83 74 84 51 85 52 86 60 87
REMARK SMILES IDX 53 88 55 89 61 90 54 91 56 92 57 93 58 94 59 95
REMARK H PARENT 18 6 8 17 22 29 81 48 49 59
REMARK Flexibility Score: inf
ROOT
ATOM      1  C   UNL A   1      31.897  29.138  27.043  1.00  0.00     0.042 C 
ENDROOT
BRANCH   1   2
ATOM      2  C   UNL A   1      32.160  27.636  27.139  1.00  0.00     0.118 C 
BRANCH   2   3
ATOM      3  N   UNL A   1      30.962  26.871  26.855  1.00  0.00    -0.352 N 
ATOM      4  C   UNL A   1      30.413  26.238  25.778  1.00  0.00     0.256 C 
ATOM      5  O   UNL A   1      29.298  25.756  26.022  1.00  0.00    -0.269 OA
ATOM      6  H   UNL A   1      30.391  26.787  27.652  1.00  0.00     0.163 HD
BRANCH   4   7
ATOM      7  C   UNL A   1      30.976  26.056  24.398  1.00  0.00     0.099 A 
ATOM      8  C   UNL A   1      30.986  24.738  23.852  1.00  0.00     0.057 A 
ATOM      9  C   UNL A   1      31.364  24.503  22.517  1.00  0.00     0.027 A 
ATOM     10  C   UNL A   1      31.887  25.527  21.744  1.00  0.00     0.005 A 
ATOM     11  C   UNL A   1      31.528  27.055  23.592  1.00  0.00     0.138 A 
ATOM     12  C   UNL A   1      32.012  26.791  22.302  1.00  0.00     0.040 A 
ATOM     13  F   UNL A   1      31.637  28.326  23.980  1.00  0.00    -0.206 F 
BRANCH   8  14
ATOM     14  N   UNL A   1      30.677  23.625  24.666  1.00  0.00    -0.321 N 
ATOM     15  C   UNL A   1      31.504  22.657  25.202  1.00  0.00     0.258 C 
ATOM     16  O   UNL A   1      31.015  21.688  25.779  1.00  0.00    -0.269 OA
ATOM     17  H   UNL A   1      29.722  23.523  24.885  1.00  0.00     0.170 HD
BRANCH  15  18
ATOM     18  C   UNL A   1      32.983  22.838  25.221  1.00  0.00     0.075 A 
ATOM     19  C   UNL A   1      37.257  23.448  25.118  1.00  0.00     0.044 C 
ATOM     20  C   UNL A   1      35.777  23.220  25.167  1.00  0.00    -0.048 A 
ATOM     21  C   UNL A   1      35.007  23.798  26.178  1.00  0.00     0.004 A 
ATOM     22  C   UNL A   1      35.152  22.382  24.236  1.00  0.00     0.043 A 
ATOM     23  C   UNL A   1      33.628  23.576  26.225  1.00  0.00     0.017 A 
ATOM     24  C   UNL A   1      33.766  22.206  24.258  1.00  0.00     0.136 A 
ATOM     25  F   UNL A   1      33.220  21.427  23.313  1.00  0.00    -0.206 F 
ENDBRANCH  15  18
ENDBRANCH   8  14
ENDBRANCH   4   7
ENDBRANCH   2   3
ENDBRANCH   1   2
BRANCH   1  26
ATOM     26  C   UNL A   1      33.010  29.901  26.316  1.00  0.00     0.118 C 
BRANCH  26  27
ATOM     27  N   UNL A   1      33.022  31.318  26.666  1.00  0.00    -0.352 N 
ATOM     28  C   UNL A   1      33.775  32.018  27.573  1.00  0.00     0.251 C 
ATOM     29  H   UNL A   1      32.378  31.867  26.162  1.00  0.00     0.163 HD
ATOM     30  O   UNL A   1      33.402  33.141  27.908  1.00  0.00    -0.269 OA
BRANCH  28  31
ATOM     31  C   UNL A   1      35.025  31.461  28.133  1.00  0.00     0.039 A 
ATOM     32  C   UNL A   1      34.998  30.186  28.710  1.00  0.00     0.014 A 
ATOM     33  C   UNL A   1      36.197  32.219  28.185  1.00  0.00     0.014 A 
ATOM     34  C   UNL A   1      36.147  29.667  29.310  1.00  0.00     0.010 A 
ATOM     35  C   UNL A   1      37.365  31.666  28.702  1.00  0.00     0.010 A 
ATOM     36  C   UNL A   1      37.347  30.398  29.298  1.00  0.00    -0.014 A 
BRANCH  36  37
ATOM     37  C   UNL A   1      38.578  29.868  29.937  1.00  0.00     0.031 A 
ATOM     38  C   UNL A   1      38.996  30.362  31.299  1.00  0.00     0.074 A 
ATOM     39  C   UNL A   1      39.353  28.994  29.267  1.00  0.00     0.049 A 
ATOM     40  N   UNL A   1      40.051  30.044  32.000  1.00  0.00    -0.248 NA
ATOM     41  C   UNL A   1      38.132  31.365  31.945  1.00  0.00     0.031 C 
ATOM     42  C   UNL A   1      39.095  28.506  27.912  1.00  0.00     0.029 A 
ATOM     43  N   UNL A   1      40.523  28.373  29.627  1.00  0.00    -0.354 N 
ATOM     44  C   UNL A   1      40.000  30.832  33.144  1.00  0.00     0.074 A 
ATOM     45  C   UNL A   1      38.832  31.674  33.028  1.00  0.00     0.031 C 
ATOM     46  C   UNL A   1      40.066  27.647  27.561  1.00  0.00     0.029 A 
ATOM     47  C   UNL A   1      41.031  27.545  28.652  1.00  0.00     0.049 A 
ATOM     48  H   UNL A   1      40.959  28.508  30.499  1.00  0.00     0.167 HD
ATOM     49  C   UNL A   1      40.828  30.826  34.214  1.00  0.00     0.034 A 
ATOM     50  C   UNL A   1      42.143  26.784  28.642  1.00  0.00     0.034 A 
ATOM     51  C   UNL A   1      41.944  29.932  34.356  1.00  0.00     0.049 A 
ATOM     52  C   UNL A   1      43.016  26.752  29.867  1.00  0.00     0.074 A 
ATOM     53  C   UNL A   1      42.777  29.769  35.448  1.00  0.00     0.029 A 
ATOM     54  N   UNL A   1      42.381  29.052  33.380  1.00  0.00    -0.354 N 
ATOM     55  N   UNL A   1      42.860  27.384  31.005  1.00  0.00    -0.248 NA
ATOM     56  C   UNL A   1      44.200  25.880  29.823  1.00  0.00     0.031 C 
ATOM     57  C   UNL A   1      43.731  28.802  35.125  1.00  0.00     0.029 A 
ATOM     58  C   UNL A   1      43.480  28.349  33.839  1.00  0.00     0.049 A 
ATOM     59  H   UNL A   1      41.970  28.943  32.492  1.00  0.00     0.167 HD
ATOM     60  C   UNL A   1      43.906  26.972  31.820  1.00  0.00     0.074 A 
ATOM     61  C   UNL A   1      44.681  26.016  31.054  1.00  0.00     0.031 C 
ATOM     62  C   UNL A   1      44.209  27.363  33.082  1.00  0.00     0.034 A 
BRANCH  49  63
ATOM     63  C   UNL A   1      40.518  31.756  35.358  1.00  0.00     0.023 A 
ATOM     64  C   UNL A   1      41.312  32.907  35.546  1.00  0.00     0.012 A 
ATOM     65  C   UNL A   1      39.399  31.546  36.186  1.00  0.00     0.148 A 
ATOM     66  C   UNL A   1      41.012  33.819  36.556  1.00  0.00     0.002 A 
ATOM     67  C   UNL A   1      39.080  32.483  37.162  1.00  0.00     0.091 A 
ATOM     68  F   UNL A   1      38.668  30.437  36.004  1.00  0.00    -0.205 F 
ATOM     69  C   UNL A   1      39.891  33.614  37.355  1.00  0.00     0.022 A 
BRANCH  67  70
ATOM     70  S   UNL A   1      37.610  32.358  38.189  1.00  0.00     0.127 S 
ATOM     71  O   UNL A   1      36.640  33.124  37.409  1.00  0.00    -0.237 OA
ATOM     72  O   UNL A   1      37.373  30.914  38.208  1.00  0.00    -0.237 OA
ATOM     73  O   UNL A   1      37.968  32.935  39.476  1.00  0.00    -0.744 OA
ENDBRANCH  67  70
ENDBRANCH  49  63
BRANCH  50  74
ATOM     74  C   UNL A   1      42.433  25.926  27.458  1.00  0.00     0.023 A 
ATOM     75  C   UNL A   1      43.195  26.453  26.398  1.00  0.00     0.012 A 
ATOM     76  C   UNL A   1      42.029  24.577  27.409  1.00  0.00     0.148 A 
ATOM     77  C   UNL A   1      43.537  25.659  25.302  1.00  0.00     0.002 A 
ATOM     78  C   UNL A   1      42.420  23.776  26.341  1.00  0.00     0.091 A 
ATOM     79  F   UNL A   1      41.296  24.096  28.422  1.00  0.00    -0.205 F 
ATOM     80  C   UNL A   1      43.162  24.318  25.280  1.00  0.00     0.022 A 
BRANCH  78  81
ATOM     81  S   UNL A   1      42.107  22.007  26.294  1.00  0.00     0.127 S 
ATOM     82  O   UNL A   1      42.461  21.604  27.651  1.00  0.00    -0.237 OA
ATOM     83  O   UNL A   1      40.678  21.959  25.988  1.00  0.00    -0.237 OA
ATOM     84  O   UNL A   1      42.964  21.484  25.236  1.00  0.00    -0.744 OA
ENDBRANCH  78  81
ENDBRANCH  50  74
BRANCH  62  85
ATOM     85  C   UNL A   1      45.426  26.769  33.739  1.00  0.00     0.023 A 
ATOM     86  C   UNL A   1      46.644  27.474  33.701  1.00  0.00     0.012 A 
ATOM     87  C   UNL A   1      45.324  25.598  34.517  1.00  0.00     0.148 A 
ATOM     88  C   UNL A   1      47.747  27.018  34.420  1.00  0.00     0.002 A 
ATOM     89  C   UNL A   1      46.414  25.176  35.268  1.00  0.00     0.091 A 
ATOM     90  F   UNL A   1      44.156  24.939  34.528  1.00  0.00    -0.205 F 
ATOM     91  C   UNL A   1      47.628  25.880  35.215  1.00  0.00     0.022 A 
BRANCH  89  92
ATOM     92  S   UNL A   1      46.328  23.786  36.403  1.00  0.00     0.127 S 
ATOM     93  O   UNL A   1      46.111  22.667  35.487  1.00  0.00    -0.237 OA
ATOM     94  O   UNL A   1      47.649  23.816  37.030  1.00  0.00    -0.237 OA
ATOM     95  O   UNL A   1      45.220  24.069  37.306  1.00  0.00    -0.744 OA
ENDBRANCH  89  92
ENDBRANCH  62  85
ENDBRANCH  36  37
ENDBRANCH  28  31
ENDBRANCH  26  27
ENDBRANCH   1  26
TORSDOF 15
ENDMDL
MODEL 3
REMARK VINA RESULT:     -12.3      5.218     10.070
REMARK SMILES Cc1ccc(C(=O)Nc2cccc(F)c2C(=O)NCCCNC(=O)c2ccc(-c3c4nc(c(-c5cccc(S(=O)(=O)[O-])c5F)c5ccc([nH]5)c(-c5cccc(S(=O)(=O)[O-])c5F)c5nc(c(-c6cccc(S(=O)(=O)[O-])c6F)c6ccc3[nH]6)C=C5)C=C4)cc2)c(F)c1
REMARK SMILES IDX 20 1 19 2 18 3 16 4 17 5 15 7 9 8 10 9 11 10 13 11 12 12
REMARK SMILES IDX 14 13 8 14 6 15 7 16 5 18 1 19 2 20 3 21 90 22 4 23 88 24
REMARK SMILES IDX 89 25 21 26 22 27 23 28 24 30 25 31 26 32 87 33 27 34 86 35
REMARK SMILES IDX 28 36 29 37 30 38 80 39 31 40 85 41 79 42 81 43 32 44 84 45
REMARK SMILES IDX 78 46 77 47 33 49 65 50 45 51 64 52 46 53 49 54 63 55 82 56
REMARK SMILES IDX 47 57 48 58 62 60 83 61 50 62 34 63 35 64 43 65 36 66 38 67
REMARK SMILES IDX 44 68 37 69 39 70 40 71 41 72 42 73 66 74 67 75 75 76 68 77
REMARK SMILES IDX 70 78 76 79 69 80 71 81 72 82 73 83 74 84 51 85 52 86 60 87
REMARK SMILES IDX 53 88 55 89 61 90 54 91 56 92 57 93 58 94 59 95
REMARK H PARENT 18 6 8 17 22 29 81 48 49 59
REMARK Flexibility Score: inf
ROOT
ATOM      1  C   UNL A   1      34.777  21.762  26.605  1.00  0.00     0.042 C 
ENDROOT
BRANCH   1   2
ATOM      2  C   UNL A   1      33.708  20.799  26.086  1.00  0.00     0.118 C 
BRANCH   2   3
ATOM      3  N   UNL A   1      32.406  21.433  26.042  1.00  0.00    -0.352 N 
ATOM      4  C   UNL A   1      31.830  22.488  25.396  1.00  0.00     0.256 C 
ATOM      5  O   UNL A   1      30.657  22.683  25.746  1.00  0.00    -0.269 OA
ATOM      6  H   UNL A   1      31.765  20.981  26.636  1.00  0.00     0.163 HD
BRANCH   4   7
ATOM      7  C   UNL A   1      32.417  23.397  24.355  1.00  0.00     0.099 A 
ATOM      8  C   UNL A   1      32.701  24.743  24.730  1.00  0.00     0.057 A 
ATOM      9  C   UNL A   1      33.380  25.617  23.861  1.00  0.00     0.027 A 
ATOM     10  C   UNL A   1      33.652  25.239  22.556  1.00  0.00     0.005 A 
ATOM     11  C   UNL A   1      32.691  23.062  23.026  1.00  0.00     0.138 A 
ATOM     12  C   UNL A   1      33.262  23.978  22.129  1.00  0.00     0.040 A 
ATOM     13  F   UNL A   1      32.435  21.860  22.511  1.00  0.00    -0.206 F 
BRANCH   8  14
ATOM     14  N   UNL A   1      32.245  25.251  25.968  1.00  0.00    -0.321 N 
ATOM     15  C   UNL A   1      31.589  26.433  26.258  1.00  0.00     0.258 C 
ATOM     16  O   UNL A   1      31.396  26.750  27.430  1.00  0.00    -0.269 OA
ATOM     17  H   UNL A   1      32.422  24.673  26.745  1.00  0.00     0.170 HD
BRANCH  15  18
ATOM     18  C   UNL A   1      30.984  27.258  25.176  1.00  0.00     0.075 A 
ATOM     19  C   UNL A   1      29.387  29.647  21.952  1.00  0.00     0.044 C 
ATOM     20  C   UNL A   1      29.927  28.826  23.084  1.00  0.00    -0.048 A 
ATOM     21  C   UNL A   1      29.388  27.569  23.363  1.00  0.00     0.004 A 
ATOM     22  C   UNL A   1      30.938  29.328  23.911  1.00  0.00     0.043 A 
ATOM     23  C   UNL A   1      29.888  26.810  24.424  1.00  0.00     0.017 A 
ATOM     24  C   UNL A   1      31.468  28.542  24.938  1.00  0.00     0.136 A 
ATOM     25  F   UNL A   1      32.467  29.061  25.669  1.00  0.00    -0.206 F 
ENDBRANCH  15  18
ENDBRANCH   8  14
ENDBRANCH   4   7
ENDBRANCH   2   3
ENDBRANCH   1   2
BRANCH   1  26
ATOM     26  C   UNL A   1      35.892  22.030  25.587  1.00  0.00     0.118 C 
BRANCH  26  27
ATOM     27  N   UNL A   1      36.939  21.016  25.643  1.00  0.00    -0.352 N 
ATOM     28  C   UNL A   1      38.302  21.129  25.750  1.00  0.00     0.251 C 
ATOM     29  H   UNL A   1      36.611  20.088  25.596  1.00  0.00     0.163 HD
ATOM     30  O   UNL A   1      38.999  20.154  25.474  1.00  0.00    -0.269 OA
BRANCH  28  31
ATOM     31  C   UNL A   1      38.939  22.382  26.208  1.00  0.00     0.039 A 
ATOM     32  C   UNL A   1      38.435  23.604  25.748  1.00  0.00     0.014 A 
ATOM     33  C   UNL A   1      40.086  22.363  27.005  1.00  0.00     0.014 A 
ATOM     34  C   UNL A   1      39.063  24.798  26.108  1.00  0.00     0.010 A 
ATOM     35  C   UNL A   1      40.657  23.557  27.437  1.00  0.00     0.010 A 
ATOM     36  C   UNL A   1      40.173  24.785  26.969  1.00  0.00    -0.014 A 
BRANCH  36  37
ATOM     37  C   UNL A   1      40.860  26.044  27.357  1.00  0.00     0.031 A 
ATOM     38  C   UNL A   1      42.291  26.281  26.947  1.00  0.00     0.074 A 
ATOM     39  C   UNL A   1      40.220  26.940  28.132  1.00  0.00     0.049 A 
ATOM     40  N   UNL A   1      43.065  27.297  27.220  1.00  0.00    -0.248 NA
ATOM     41  C   UNL A   1      42.947  25.228  26.153  1.00  0.00     0.031 C 
ATOM     42  C   UNL A   1      38.863  26.783  28.658  1.00  0.00     0.029 A 
ATOM     43  N   UNL A   1      40.629  28.153  28.626  1.00  0.00    -0.354 N 
ATOM     44  C   UNL A   1      44.304  26.989  26.668  1.00  0.00     0.074 A 
ATOM     45  C   UNL A   1      44.193  25.675  26.080  1.00  0.00     0.031 C 
ATOM     46  C   UNL A   1      38.545  27.866  29.386  1.00  0.00     0.029 A 
ATOM     47  C   UNL A   1      39.683  28.782  29.402  1.00  0.00     0.049 A 
ATOM     48  H   UNL A   1      41.517  28.537  28.443  1.00  0.00     0.167 HD
ATOM     49  C   UNL A   1      45.422  27.750  26.620  1.00  0.00     0.034 A 
ATOM     50  C   UNL A   1      39.723  29.964  30.047  1.00  0.00     0.034 A 
ATOM     51  C   UNL A   1      45.502  29.087  27.141  1.00  0.00     0.049 A 
ATOM     52  C   UNL A   1      40.958  30.817  29.930  1.00  0.00     0.074 A 
ATOM     53  C   UNL A   1      46.551  29.983  27.043  1.00  0.00     0.029 A 
ATOM     54  N   UNL A   1      44.495  29.720  27.852  1.00  0.00    -0.354 N 
ATOM     55  N   UNL A   1      42.063  30.577  29.265  1.00  0.00    -0.248 NA
ATOM     56  C   UNL A   1      40.944  32.115  30.621  1.00  0.00     0.031 C 
ATOM     57  C   UNL A   1      46.186  31.153  27.714  1.00  0.00     0.029 A 
ATOM     58  C   UNL A   1      44.902  30.992  28.211  1.00  0.00     0.049 A 
ATOM     59  H   UNL A   1      43.621  29.323  28.069  1.00  0.00     0.167 HD
ATOM     60  C   UNL A   1      42.864  31.699  29.437  1.00  0.00     0.074 A 
ATOM     61  C   UNL A   1      42.110  32.631  30.251  1.00  0.00     0.031 C 
ATOM     62  C   UNL A   1      44.119  31.927  28.978  1.00  0.00     0.034 A 
BRANCH  49  63
ATOM     63  C   UNL A   1      46.630  27.195  25.912  1.00  0.00     0.023 A 
ATOM     64  C   UNL A   1      47.360  26.147  26.511  1.00  0.00     0.012 A 
ATOM     65  C   UNL A   1      46.990  27.641  24.626  1.00  0.00     0.148 A 
ATOM     66  C   UNL A   1      48.444  25.570  25.852  1.00  0.00     0.002 A 
ATOM     67  C   UNL A   1      48.044  27.030  23.957  1.00  0.00     0.091 A 
ATOM     68  F   UNL A   1      46.296  28.651  24.081  1.00  0.00    -0.205 F 
ATOM     69  C   UNL A   1      48.778  26.003  24.572  1.00  0.00     0.022 A 
BRANCH  67  70
ATOM     70  S   UNL A   1      48.504  27.454  22.272  1.00  0.00     0.127 S 
ATOM     71  O   UNL A   1      48.653  26.132  21.666  1.00  0.00    -0.237 OA
ATOM     72  O   UNL A   1      47.334  28.205  21.815  1.00  0.00    -0.237 OA
ATOM     73  O   UNL A   1      49.730  28.233  22.372  1.00  0.00    -0.744 OA
ENDBRANCH  67  70
ENDBRANCH  49  63
BRANCH  50  74
ATOM     74  C   UNL A   1      38.517  30.440  30.783  1.00  0.00     0.023 A 
ATOM     75  C   UNL A   1      38.443  30.246  32.176  1.00  0.00     0.012 A 
ATOM     76  C   UNL A   1      37.488  31.146  30.132  1.00  0.00     0.148 A 
ATOM     77  C   UNL A   1      37.357  30.733  32.906  1.00  0.00     0.002 A 
ATOM     78  C   UNL A   1      36.436  31.676  30.872  1.00  0.00     0.091 A 
ATOM     79  F   UNL A   1      37.571  31.312  28.805  1.00  0.00    -0.205 F 
ATOM     80  C   UNL A   1      36.362  31.459  32.257  1.00  0.00     0.022 A 
BRANCH  78  81
ATOM     81  S   UNL A   1      35.186  32.745  30.149  1.00  0.00     0.127 S 
ATOM     82  O   UNL A   1      34.355  33.061  31.306  1.00  0.00    -0.237 OA
ATOM     83  O   UNL A   1      35.992  33.857  29.645  1.00  0.00    -0.237 OA
ATOM     84  O   UNL A   1      34.544  31.951  29.108  1.00  0.00    -0.744 OA
ENDBRANCH  78  81
ENDBRANCH  50  74
BRANCH  62  85
ATOM     85  C   UNL A   1      44.778  33.235  29.329  1.00  0.00     0.023 A 
ATOM     86  C   UNL A   1      45.586  33.313  30.479  1.00  0.00     0.012 A 
ATOM     87  C   UNL A   1      44.720  34.330  28.444  1.00  0.00     0.148 A 
ATOM     88  C   UNL A   1      46.320  34.466  30.750  1.00  0.00     0.002 A 
ATOM     89  C   UNL A   1      45.491  35.458  28.696  1.00  0.00     0.091 A 
ATOM     90  F   UNL A   1      43.935  34.235  27.361  1.00  0.00    -0.205 F 
ATOM     91  C   UNL A   1      46.287  35.530  29.852  1.00  0.00     0.022 A 
BRANCH  89  92
ATOM     92  S   UNL A   1      45.598  36.835  27.547  1.00  0.00     0.127 S 
ATOM     93  O   UNL A   1      44.215  37.310  27.524  1.00  0.00    -0.237 OA
ATOM     94  O   UNL A   1      46.540  37.728  28.220  1.00  0.00    -0.237 OA
ATOM     95  O   UNL A   1      46.081  36.278  26.291  1.00  0.00    -0.744 OA
ENDBRANCH  89  92
ENDBRANCH  62  85
ENDBRANCH  36  37
ENDBRANCH  28  31
ENDBRANCH  26  27
ENDBRANCH   1  26
TORSDOF 15
ENDMDL
