MODEL 1
REMARK VINA RESULT:     -14.4      0.000      0.000
REMARK SMILES Cc1ccc(S(=O)(=O)N2c3ccc(C(=O)NCCCNC(=O)c4ccc(-c5c6nc(c(-c7cccc(S(=O)(=O)[O-])c7F)c7ccc([nH]7)c(-c7cccc(S(=O)(=O)[O-])c7F)c7nc(c(-c8cccc(S(=O)(=O)[O-])c8F)c8ccc5[nH]8)C=C7)C=C6)cc4)cc3C[C@H]2C)cc1
REMARK SMILES IDX 18 1 17 2 16 3 14 4 15 5 13 7 9 8 10 9 89 10 11 11 87 12
REMARK SMILES IDX 88 13 90 14 12 15 86 16 6 17 7 18 8 19 5 20 1 21 2 22 3 23
REMARK SMILES IDX 92 24 4 25 91 26 19 27 20 28 21 29 22 31 23 32 24 33 85 34
REMARK SMILES IDX 25 35 84 36 26 37 27 38 28 39 78 40 29 41 83 42 77 43 79 44
REMARK SMILES IDX 30 45 82 46 76 47 75 48 31 50 63 51 43 52 62 53 44 54 47 55
REMARK SMILES IDX 61 56 80 57 45 58 46 59 60 61 81 62 48 63 32 64 33 65 41 66
REMARK SMILES IDX 34 67 36 68 42 69 35 70 37 71 38 72 39 73 40 74 64 75 65 76
REMARK SMILES IDX 73 77 66 78 68 79 74 80 67 81 69 82 70 83 71 84 72 85 49 86
REMARK SMILES IDX 50 87 58 88 51 89 53 90 59 91 52 92 54 93 55 94 56 95 57 96
REMARK H PARENT 16 6 20 30 79 49 47 60
REMARK Flexibility Score: inf
ROOT
ATOM      1  C   UNL A   1      32.911  30.720  26.838  1.00  0.00     0.042 C 
ENDROOT
BRANCH   1   2
ATOM      2  C   UNL A   1      32.181  29.649  26.026  1.00  0.00     0.118 C 
BRANCH   2   3
ATOM      3  N   UNL A   1      32.568  29.671  24.623  1.00  0.00    -0.352 N 
ATOM      4  C   UNL A   1      33.049  28.713  23.766  1.00  0.00     0.251 C 
ATOM      5  O   UNL A   1      33.207  29.048  22.589  1.00  0.00    -0.269 OA
ATOM      6  H   UNL A   1      32.464  30.556  24.202  1.00  0.00     0.163 HD
BRANCH   4   7
ATOM      7  C   UNL A   1      33.413  27.310  24.156  1.00  0.00     0.040 A 
ATOM      8  N   UNL A   1      34.583  23.287  24.770  1.00  0.00    -0.263 N 
ATOM      9  C   UNL A   1      34.204  24.677  24.695  1.00  0.00     0.055 A 
ATOM     10  C   UNL A   1      34.901  22.928  23.326  1.00  0.00     0.101 C 
ATOM     11  C   UNL A   1      34.027  25.540  25.748  1.00  0.00     0.028 A 
ATOM     12  C   UNL A   1      33.994  25.095  23.386  1.00  0.00    -0.021 A 
ATOM     13  C   UNL A   1      34.163  23.956  22.440  1.00  0.00     0.063 C 
ATOM     14  C   UNL A   1      36.422  23.049  23.146  1.00  0.00     0.032 C 
ATOM     15  C   UNL A   1      33.608  26.844  25.468  1.00  0.00     0.016 A 
ATOM     16  C   UNL A   1      33.606  26.396  23.101  1.00  0.00     0.019 A 
BRANCH   8  17
ATOM     17  S   UNL A   1      33.348  22.356  25.541  1.00  0.00     0.264 S 
ATOM     18  O   UNL A   1      32.072  22.758  24.981  1.00  0.00    -0.201 OA
ATOM     19  O   UNL A   1      33.578  22.392  26.973  1.00  0.00    -0.201 OA
BRANCH  17  20
ATOM     20  C   UNL A   1      33.562  20.646  25.089  1.00  0.00     0.088 A 
ATOM     21  C   UNL A   1      33.880  16.664  23.495  1.00  0.00     0.044 C 
ATOM     22  C   UNL A   1      33.762  18.034  24.091  1.00  0.00    -0.051 A 
ATOM     23  C   UNL A   1      32.521  18.675  24.133  1.00  0.00     0.005 A 
ATOM     24  C   UNL A   1      34.883  18.682  24.622  1.00  0.00     0.005 A 
ATOM     25  C   UNL A   1      32.420  19.977  24.625  1.00  0.00     0.022 A 
ATOM     26  C   UNL A   1      34.781  19.979  25.134  1.00  0.00     0.022 A 
ENDBRANCH  17  20
ENDBRANCH   8  17
ENDBRANCH   4   7
ENDBRANCH   2   3
ENDBRANCH   1   2
BRANCH   1  27
ATOM     27  C   UNL A   1      34.234  30.252  27.402  1.00  0.00     0.118 C 
BRANCH  27  28
ATOM     28  N   UNL A   1      35.118  31.346  27.781  1.00  0.00    -0.352 N 
ATOM     29  C   UNL A   1      36.393  31.290  28.318  1.00  0.00     0.251 C 
ATOM     30  H   UNL A   1      34.758  32.252  27.635  1.00  0.00     0.163 HD
ATOM     31  O   UNL A   1      36.919  32.308  28.733  1.00  0.00    -0.269 OA
BRANCH  29  32
ATOM     32  C   UNL A   1      37.121  29.999  28.270  1.00  0.00     0.039 A 
ATOM     33  C   UNL A   1      37.199  29.245  29.446  1.00  0.00     0.014 A 
ATOM     34  C   UNL A   1      37.920  29.686  27.174  1.00  0.00     0.014 A 
ATOM     35  C   UNL A   1      38.241  28.334  29.606  1.00  0.00     0.010 A 
ATOM     36  C   UNL A   1      39.017  28.881  27.372  1.00  0.00     0.010 A 
ATOM     37  C   UNL A   1      39.203  28.242  28.603  1.00  0.00    -0.014 A 
BRANCH  37  38
ATOM     38  C   UNL A   1      40.474  27.551  28.742  1.00  0.00     0.031 A 
ATOM     39  C   UNL A   1      40.555  26.099  28.495  1.00  0.00     0.074 A 
ATOM     40  C   UNL A   1      41.603  28.268  28.938  1.00  0.00     0.049 A 
ATOM     41  N   UNL A   1      41.489  25.344  28.966  1.00  0.00    -0.248 NA
ATOM     42  C   UNL A   1      39.559  25.377  27.709  1.00  0.00     0.031 C 
ATOM     43  C   UNL A   1      42.971  27.818  28.712  1.00  0.00     0.029 A 
ATOM     44  N   UNL A   1      41.746  29.499  29.587  1.00  0.00    -0.354 N 
ATOM     45  C   UNL A   1      41.367  24.117  28.356  1.00  0.00     0.074 A 
ATOM     46  C   UNL A   1      40.120  24.168  27.628  1.00  0.00     0.031 C 
ATOM     47  C   UNL A   1      43.800  28.584  29.437  1.00  0.00     0.029 A 
ATOM     48  C   UNL A   1      42.974  29.444  30.267  1.00  0.00     0.049 A 
ATOM     49  H   UNL A   1      41.113  30.253  29.572  1.00  0.00     0.167 HD
ATOM     50  C   UNL A   1      42.405  23.237  28.394  1.00  0.00     0.034 A 
ATOM     51  C   UNL A   1      43.121  29.621  31.610  1.00  0.00     0.034 A 
ATOM     52  C   UNL A   1      43.546  23.786  29.127  1.00  0.00     0.049 A 
ATOM     53  C   UNL A   1      43.799  28.453  32.297  1.00  0.00     0.074 A 
ATOM     54  C   UNL A   1      44.678  24.470  28.711  1.00  0.00     0.029 A 
ATOM     55  N   UNL A   1      43.480  23.934  30.507  1.00  0.00    -0.354 N 
ATOM     56  N   UNL A   1      44.029  27.301  31.731  1.00  0.00    -0.248 NA
ATOM     57  C   UNL A   1      44.248  28.481  33.686  1.00  0.00     0.031 C 
ATOM     58  C   UNL A   1      45.271  25.071  29.848  1.00  0.00     0.029 A 
ATOM     59  C   UNL A   1      44.511  24.745  30.958  1.00  0.00     0.049 A 
ATOM     60  H   UNL A   1      42.797  23.520  31.084  1.00  0.00     0.167 HD
ATOM     61  C   UNL A   1      44.507  26.411  32.659  1.00  0.00     0.074 A 
ATOM     62  C   UNL A   1      44.701  27.225  33.847  1.00  0.00     0.031 C 
ATOM     63  C   UNL A   1      44.640  25.075  32.373  1.00  0.00     0.034 A 
BRANCH  50  64
ATOM     64  C   UNL A   1      42.503  22.054  27.455  1.00  0.00     0.023 A 
ATOM     65  C   UNL A   1      41.695  20.930  27.729  1.00  0.00     0.012 A 
ATOM     66  C   UNL A   1      43.386  21.942  26.358  1.00  0.00     0.148 A 
ATOM     67  C   UNL A   1      41.826  19.725  27.037  1.00  0.00     0.002 A 
ATOM     68  C   UNL A   1      43.572  20.716  25.711  1.00  0.00     0.091 A 
ATOM     69  F   UNL A   1      44.010  23.037  25.901  1.00  0.00    -0.205 F 
ATOM     70  C   UNL A   1      42.795  19.604  26.052  1.00  0.00     0.022 A 
BRANCH  68  71
ATOM     71  S   UNL A   1      44.897  20.449  24.522  1.00  0.00     0.127 S 
ATOM     72  O   UNL A   1      44.687  19.053  24.126  1.00  0.00    -0.237 OA
ATOM     73  O   UNL A   1      44.592  21.425  23.480  1.00  0.00    -0.237 OA
ATOM     74  O   UNL A   1      46.136  20.667  25.259  1.00  0.00    -0.744 OA
ENDBRANCH  68  71
ENDBRANCH  50  64
BRANCH  51  75
ATOM     75  C   UNL A   1      42.098  30.511  32.226  1.00  0.00     0.023 A 
ATOM     76  C   UNL A   1      42.086  31.860  31.802  1.00  0.00     0.012 A 
ATOM     77  C   UNL A   1      40.968  29.994  32.880  1.00  0.00     0.148 A 
ATOM     78  C   UNL A   1      40.938  32.643  31.925  1.00  0.00     0.002 A 
ATOM     79  C   UNL A   1      39.820  30.779  32.993  1.00  0.00     0.091 A 
ATOM     80  F   UNL A   1      40.999  28.724  33.306  1.00  0.00    -0.205 F 
ATOM     81  C   UNL A   1      39.795  32.091  32.491  1.00  0.00     0.022 A 
BRANCH  79  82
ATOM     82  S   UNL A   1      38.276  30.117  33.633  1.00  0.00     0.127 S 
ATOM     83  O   UNL A   1      38.246  28.795  33.015  1.00  0.00    -0.237 OA
ATOM     84  O   UNL A   1      38.514  30.119  35.076  1.00  0.00    -0.237 OA
ATOM     85  O   UNL A   1      37.257  31.060  33.197  1.00  0.00    -0.744 OA
ENDBRANCH  79  82
ENDBRANCH  51  75
BRANCH  63  86
ATOM     86  C   UNL A   1      44.910  23.959  33.374  1.00  0.00     0.023 A 
ATOM     87  C   UNL A   1      43.964  22.959  33.668  1.00  0.00     0.012 A 
ATOM     88  C   UNL A   1      46.193  23.795  33.963  1.00  0.00     0.148 A 
ATOM     89  C   UNL A   1      44.245  21.892  34.532  1.00  0.00     0.002 A 
ATOM     90  C   UNL A   1      46.504  22.672  34.731  1.00  0.00     0.091 A 
ATOM     91  F   UNL A   1      47.132  24.739  33.806  1.00  0.00    -0.205 F 
ATOM     92  C   UNL A   1      45.523  21.733  35.043  1.00  0.00     0.022 A 
BRANCH  90  93
ATOM     93  S   UNL A   1      48.204  22.325  35.207  1.00  0.00     0.127 S 
ATOM     94  O   UNL A   1      48.388  23.208  36.356  1.00  0.00    -0.237 OA
ATOM     95  O   UNL A   1      48.158  20.899  35.540  1.00  0.00    -0.237 OA
ATOM     96  O   UNL A   1      48.988  22.631  34.019  1.00  0.00    -0.744 OA
ENDBRANCH  90  93
ENDBRANCH  63  86
ENDBRANCH  37  38
ENDBRANCH  29  32
ENDBRANCH  27  28
ENDBRANCH   1  27
TORSDOF 15
ENDMDL
MODEL 2
REMARK VINA RESULT:     -14.4      1.721      2.463
REMARK SMILES Cc1ccc(S(=O)(=O)N2c3ccc(C(=O)NCCCNC(=O)c4ccc(-c5c6nc(c(-c7cccc(S(=O)(=O)[O-])c7F)c7ccc([nH]7)c(-c7cccc(S(=O)(=O)[O-])c7F)c7nc(c(-c8cccc(S(=O)(=O)[O-])c8F)c8ccc5[nH]8)C=C7)C=C6)cc4)cc3C[C@H]2C)cc1
REMARK SMILES IDX 18 1 17 2 16 3 14 4 15 5 13 7 9 8 10 9 89 10 11 11 87 12
REMARK SMILES IDX 88 13 90 14 12 15 86 16 6 17 7 18 8 19 5 20 1 21 2 22 3 23
REMARK SMILES IDX 92 24 4 25 91 26 19 27 20 28 21 29 22 31 23 32 24 33 85 34
REMARK SMILES IDX 25 35 84 36 26 37 27 38 28 39 78 40 29 41 83 42 77 43 79 44
REMARK SMILES IDX 30 45 82 46 76 47 75 48 31 50 63 51 43 52 62 53 44 54 47 55
REMARK SMILES IDX 61 56 80 57 45 58 46 59 60 61 81 62 48 63 32 64 33 65 41 66
REMARK SMILES IDX 34 67 36 68 42 69 35 70 37 71 38 72 39 73 40 74 64 75 65 76
REMARK SMILES IDX 73 77 66 78 68 79 74 80 67 81 69 82 70 83 71 84 72 85 49 86
REMARK SMILES IDX 50 87 58 88 51 89 53 90 59 91 52 92 54 93 55 94 56 95 57 96
REMARK H PARENT 16 6 20 30 79 49 47 60
REMARK Flexibility Score: inf
ROOT
ATOM      1  C   UNL A   1      32.286  30.621  26.777  1.00  0.00     0.042 C 
ENDROOT
BRANCH   1   2
ATOM      2  C   UNL A   1      31.904  29.697  25.619  1.00  0.00     0.118 C 
BRANCH   2   3
ATOM      3  N   UNL A   1      32.914  29.692  24.570  1.00  0.00    -0.352 N 
ATOM      4  C   UNL A   1      33.392  28.716  23.732  1.00  0.00     0.251 C 
ATOM      5  O   UNL A   1      34.214  29.067  22.882  1.00  0.00    -0.269 OA
ATOM      6  H   UNL A   1      33.341  30.569  24.435  1.00  0.00     0.163 HD
BRANCH   4   7
ATOM      7  C   UNL A   1      33.011  27.265  23.789  1.00  0.00     0.040 A 
ATOM      8  N   UNL A   1      32.011  23.205  24.453  1.00  0.00    -0.263 N 
ATOM      9  C   UNL A   1      32.277  24.581  24.112  1.00  0.00     0.055 A 
ATOM     10  C   UNL A   1      32.339  23.138  25.938  1.00  0.00     0.101 C 
ATOM     11  C   UNL A   1      31.942  25.220  22.943  1.00  0.00     0.028 A 
ATOM     12  C   UNL A   1      32.970  25.247  25.116  1.00  0.00    -0.021 A 
ATOM     13  C   UNL A   1      33.290  24.317  26.235  1.00  0.00     0.063 C 
ATOM     14  C   UNL A   1      31.019  23.298  26.708  1.00  0.00     0.032 C 
ATOM     15  C   UNL A   1      32.335  26.551  22.784  1.00  0.00     0.016 A 
ATOM     16  C   UNL A   1      33.338  26.577  24.975  1.00  0.00     0.019 A 
BRANCH   8  17
ATOM     17  S   UNL A   1      32.892  22.135  23.421  1.00  0.00     0.264 S 
ATOM     18  O   UNL A   1      33.006  22.765  22.120  1.00  0.00    -0.201 OA
ATOM     19  O   UNL A   1      32.330  20.805  23.558  1.00  0.00    -0.201 OA
BRANCH  17  20
ATOM     20  C   UNL A   1      34.556  21.991  24.042  1.00  0.00     0.088 A 
ATOM     21  C   UNL A   1      38.507  22.167  25.730  1.00  0.00     0.044 C 
ATOM     22  C   UNL A   1      37.146  22.077  25.110  1.00  0.00    -0.051 A 
ATOM     23  C   UNL A   1      36.761  22.996  24.130  1.00  0.00     0.005 A 
ATOM     24  C   UNL A   1      36.250  21.072  25.492  1.00  0.00     0.005 A 
ATOM     25  C   UNL A   1      35.470  22.958  23.601  1.00  0.00     0.022 A 
ATOM     26  C   UNL A   1      34.963  21.019  24.949  1.00  0.00     0.022 A 
ENDBRANCH  17  20
ENDBRANCH   8  17
ENDBRANCH   4   7
ENDBRANCH   2   3
ENDBRANCH   1   2
BRANCH   1  27
ATOM     27  C   UNL A   1      33.561  30.211  27.480  1.00  0.00     0.118 C 
BRANCH  27  28
ATOM     28  N   UNL A   1      34.168  31.292  28.245  1.00  0.00    -0.352 N 
ATOM     29  C   UNL A   1      35.317  31.272  29.019  1.00  0.00     0.251 C 
ATOM     30  H   UNL A   1      33.697  32.155  28.207  1.00  0.00     0.163 HD
ATOM     31  O   UNL A   1      35.584  32.226  29.727  1.00  0.00    -0.269 OA
BRANCH  29  32
ATOM     32  C   UNL A   1      36.244  30.124  28.874  1.00  0.00     0.039 A 
ATOM     33  C   UNL A   1      36.652  29.458  30.035  1.00  0.00     0.014 A 
ATOM     34  C   UNL A   1      36.890  29.895  27.662  1.00  0.00     0.014 A 
ATOM     35  C   UNL A   1      37.851  28.749  30.029  1.00  0.00     0.010 A 
ATOM     36  C   UNL A   1      38.131  29.301  27.682  1.00  0.00     0.010 A 
ATOM     37  C   UNL A   1      38.632  28.770  28.876  1.00  0.00    -0.014 A 
BRANCH  37  38
ATOM     38  C   UNL A   1      40.010  28.316  28.806  1.00  0.00     0.031 A 
ATOM     39  C   UNL A   1      40.306  26.888  28.577  1.00  0.00     0.074 A 
ATOM     40  C   UNL A   1      41.010  29.225  28.789  1.00  0.00     0.049 A 
ATOM     41  N   UNL A   1      41.425  26.330  28.893  1.00  0.00    -0.248 NA
ATOM     42  C   UNL A   1      39.337  25.968  27.990  1.00  0.00     0.031 C 
ATOM     43  C   UNL A   1      42.380  29.006  28.338  1.00  0.00     0.029 A 
ATOM     44  N   UNL A   1      41.039  30.492  29.380  1.00  0.00    -0.354 N 
ATOM     45  C   UNL A   1      41.422  25.071  28.337  1.00  0.00     0.074 A 
ATOM     46  C   UNL A   1      40.082  24.871  27.835  1.00  0.00     0.031 C 
ATOM     47  C   UNL A   1      43.168  29.937  28.893  1.00  0.00     0.029 A 
ATOM     48  C   UNL A   1      42.354  30.683  29.837  1.00  0.00     0.049 A 
ATOM     49  H   UNL A   1      40.289  31.125  29.459  1.00  0.00     0.167 HD
ATOM     50  C   UNL A   1      42.592  24.385  28.212  1.00  0.00     0.034 A 
ATOM     51  C   UNL A   1      42.689  30.949  31.130  1.00  0.00     0.034 A 
ATOM     52  C   UNL A   1      43.723  25.158  28.725  1.00  0.00     0.049 A 
ATOM     53  C   UNL A   1      43.669  29.951  31.713  1.00  0.00     0.074 A 
ATOM     54  C   UNL A   1      44.629  26.005  28.106  1.00  0.00     0.029 A 
ATOM     55  N   UNL A   1      43.864  25.361  30.092  1.00  0.00    -0.354 N 
ATOM     56  N   UNL A   1      44.002  28.829  31.137  1.00  0.00    -0.248 NA
ATOM     57  C   UNL A   1      44.332  30.124  33.001  1.00  0.00     0.031 C 
ATOM     58  C   UNL A   1      45.288  26.755  29.111  1.00  0.00     0.029 A 
ATOM     59  C   UNL A   1      44.794  26.358  30.342  1.00  0.00     0.049 A 
ATOM     60  H   UNL A   1      43.372  24.865  30.787  1.00  0.00     0.167 HD
ATOM     61  C   UNL A   1      44.779  28.081  31.985  1.00  0.00     0.074 A 
ATOM     62  C   UNL A   1      45.021  28.975  33.106  1.00  0.00     0.031 C 
ATOM     63  C   UNL A   1      45.098  26.776  31.706  1.00  0.00     0.034 A 
BRANCH  50  64
ATOM     64  C   UNL A   1      42.740  23.192  27.293  1.00  0.00     0.023 A 
ATOM     65  C   UNL A   1      42.042  22.013  27.632  1.00  0.00     0.012 A 
ATOM     66  C   UNL A   1      43.573  23.126  26.154  1.00  0.00     0.148 A 
ATOM     67  C   UNL A   1      42.238  20.806  26.958  1.00  0.00     0.002 A 
ATOM     68  C   UNL A   1      43.826  21.903  25.524  1.00  0.00     0.091 A 
ATOM     69  F   UNL A   1      44.080  24.256  25.643  1.00  0.00    -0.205 F 
ATOM     70  C   UNL A   1      43.162  20.740  25.927  1.00  0.00     0.022 A 
BRANCH  68  71
ATOM     71  S   UNL A   1      45.108  21.716  24.273  1.00  0.00     0.127 S 
ATOM     72  O   UNL A   1      44.727  20.462  23.618  1.00  0.00    -0.237 OA
ATOM     73  O   UNL A   1      44.925  22.908  23.449  1.00  0.00    -0.237 OA
ATOM     74  O   UNL A   1      46.365  21.633  25.007  1.00  0.00    -0.744 OA
ENDBRANCH  68  71
ENDBRANCH  50  64
BRANCH  51  75
ATOM     75  C   UNL A   1      41.642  31.680  31.897  1.00  0.00     0.023 A 
ATOM     76  C   UNL A   1      41.317  32.982  31.453  1.00  0.00     0.012 A 
ATOM     77  C   UNL A   1      40.750  31.010  32.751  1.00  0.00     0.148 A 
ATOM     78  C   UNL A   1      40.085  33.561  31.759  1.00  0.00     0.002 A 
ATOM     79  C   UNL A   1      39.516  31.589  33.045  1.00  0.00     0.091 A 
ATOM     80  F   UNL A   1      41.080  29.789  33.191  1.00  0.00    -0.205 F 
ATOM     81  C   UNL A   1      39.171  32.849  32.528  1.00  0.00     0.022 A 
BRANCH  79  82
ATOM     82  S   UNL A   1      38.246  30.704  33.960  1.00  0.00     0.127 S 
ATOM     83  O   UNL A   1      38.740  30.817  35.329  1.00  0.00    -0.237 OA
ATOM     84  O   UNL A   1      37.049  31.494  33.669  1.00  0.00    -0.237 OA
ATOM     85  O   UNL A   1      38.233  29.369  33.383  1.00  0.00    -0.744 OA
ENDBRANCH  79  82
ENDBRANCH  51  75
BRANCH  63  86
ATOM     86  C   UNL A   1      45.726  25.773  32.667  1.00  0.00     0.023 A 
ATOM     87  C   UNL A   1      47.118  25.650  32.832  1.00  0.00     0.012 A 
ATOM     88  C   UNL A   1      44.922  25.002  33.551  1.00  0.00     0.148 A 
ATOM     89  C   UNL A   1      47.688  24.781  33.772  1.00  0.00     0.002 A 
ATOM     90  C   UNL A   1      45.492  24.223  34.560  1.00  0.00     0.091 A 
ATOM     91  F   UNL A   1      43.589  24.992  33.414  1.00  0.00    -0.205 F 
ATOM     92  C   UNL A   1      46.876  24.086  34.654  1.00  0.00     0.022 A 
BRANCH  90  93
ATOM     93  S   UNL A   1      44.470  23.505  35.855  1.00  0.00     0.127 S 
ATOM     94  O   UNL A   1      44.066  24.684  36.617  1.00  0.00    -0.237 OA
ATOM     95  O   UNL A   1      43.388  22.873  35.096  1.00  0.00    -0.237 OA
ATOM     96  O   UNL A   1      45.347  22.561  36.534  1.00  0.00    -0.744 OA
ENDBRANCH  90  93
ENDBRANCH  63  86
ENDBRANCH  37  38
ENDBRANCH  29  32
ENDBRANCH  27  28
ENDBRANCH   1  27
TORSDOF 15
ENDMDL
MODEL 3
REMARK VINA RESULT:     -14.4      1.684      2.090
REMARK SMILES Cc1ccc(S(=O)(=O)N2c3ccc(C(=O)NCCCNC(=O)c4ccc(-c5c6nc(c(-c7cccc(S(=O)(=O)[O-])c7F)c7ccc([nH]7)c(-c7cccc(S(=O)(=O)[O-])c7F)c7nc(c(-c8cccc(S(=O)(=O)[O-])c8F)c8ccc5[nH]8)C=C7)C=C6)cc4)cc3C[C@H]2C)cc1
REMARK SMILES IDX 18 1 17 2 16 3 14 4 15 5 13 7 9 8 10 9 89 10 11 11 87 12
REMARK SMILES IDX 88 13 90 14 12 15 86 16 6 17 7 18 8 19 5 20 1 21 2 22 3 23
REMARK SMILES IDX 92 24 4 25 91 26 19 27 20 28 21 29 22 31 23 32 24 33 85 34
REMARK SMILES IDX 25 35 84 36 26 37 27 38 28 39 78 40 29 41 83 42 77 43 79 44
REMARK SMILES IDX 30 45 82 46 76 47 75 48 31 50 63 51 43 52 62 53 44 54 47 55
REMARK SMILES IDX 61 56 80 57 45 58 46 59 60 61 81 62 48 63 32 64 33 65 41 66
REMARK SMILES IDX 34 67 36 68 42 69 35 70 37 71 38 72 39 73 40 74 64 75 65 76
REMARK SMILES IDX 73 77 66 78 68 79 74 80 67 81 69 82 70 83 71 84 72 85 49 86
REMARK SMILES IDX 50 87 58 88 51 89 53 90 59 91 52 92 54 93 55 94 56 95 57 96
REMARK H PARENT 16 6 20 30 79 49 47 60
REMARK Flexibility Score: inf
ROOT
ATOM      1  C   UNL A   1      32.368  30.625  26.695  1.00  0.00     0.042 C 
ENDROOT
BRANCH   1   2
ATOM      2  C   UNL A   1      31.829  29.495  25.815  1.00  0.00     0.118 C 
BRANCH   2   3
ATOM      3  N   UNL A   1      32.370  29.550  24.465  1.00  0.00    -0.352 N 
ATOM      4  C   UNL A   1      33.006  28.630  23.670  1.00  0.00     0.251 C 
ATOM      5  O   UNL A   1      33.273  28.981  22.518  1.00  0.00    -0.269 OA
ATOM      6  H   UNL A   1      32.256  30.429  24.034  1.00  0.00     0.163 HD
BRANCH   4   7
ATOM      7  C   UNL A   1      33.415  27.252  24.101  1.00  0.00     0.040 A 
ATOM      8  N   UNL A   1      34.695  23.282  24.830  1.00  0.00    -0.263 N 
ATOM      9  C   UNL A   1      34.283  24.660  24.714  1.00  0.00     0.055 A 
ATOM     10  C   UNL A   1      34.972  22.873  23.390  1.00  0.00     0.101 C 
ATOM     11  C   UNL A   1      34.122  25.560  25.739  1.00  0.00     0.028 A 
ATOM     12  C   UNL A   1      34.019  25.021  23.398  1.00  0.00    -0.021 A 
ATOM     13  C   UNL A   1      34.182  23.849  22.492  1.00  0.00     0.063 C 
ATOM     14  C   UNL A   1      36.483  23.020  23.153  1.00  0.00     0.032 C 
ATOM     15  C   UNL A   1      33.665  26.842  25.422  1.00  0.00     0.016 A 
ATOM     16  C   UNL A   1      33.592  26.301  23.076  1.00  0.00     0.019 A 
BRANCH   8  17
ATOM     17  S   UNL A   1      33.509  22.356  25.678  1.00  0.00     0.264 S 
ATOM     18  O   UNL A   1      32.200  22.814  25.254  1.00  0.00    -0.201 OA
ATOM     19  O   UNL A   1      33.871  22.331  27.083  1.00  0.00    -0.201 OA
BRANCH  17  20
ATOM     20  C   UNL A   1      33.628  20.659  25.148  1.00  0.00     0.088 A 
ATOM     21  C   UNL A   1      33.711  16.741  23.378  1.00  0.00     0.044 C 
ATOM     22  C   UNL A   1      33.676  18.087  24.035  1.00  0.00    -0.051 A 
ATOM     23  C   UNL A   1      32.468  18.784  24.141  1.00  0.00     0.005 A 
ATOM     24  C   UNL A   1      34.840  18.658  24.560  1.00  0.00     0.005 A 
ATOM     25  C   UNL A   1      32.444  20.066  24.690  1.00  0.00     0.022 A 
ATOM     26  C   UNL A   1      34.815  19.935  25.129  1.00  0.00     0.022 A 
ENDBRANCH  17  20
ENDBRANCH   8  17
ENDBRANCH   4   7
ENDBRANCH   2   3
ENDBRANCH   1   2
BRANCH   1  27
ATOM     27  C   UNL A   1      33.525  30.205  27.574  1.00  0.00     0.118 C 
BRANCH  27  28
ATOM     28  N   UNL A   1      34.099  31.306  28.335  1.00  0.00    -0.352 N 
ATOM     29  C   UNL A   1      35.269  31.337  29.076  1.00  0.00     0.251 C 
ATOM     30  H   UNL A   1      33.583  32.145  28.322  1.00  0.00     0.163 HD
ATOM     31  O   UNL A   1      35.507  32.295  29.789  1.00  0.00    -0.269 OA
BRANCH  29  32
ATOM     32  C   UNL A   1      36.249  30.239  28.890  1.00  0.00     0.039 A 
ATOM     33  C   UNL A   1      36.628  29.499  30.015  1.00  0.00     0.014 A 
ATOM     34  C   UNL A   1      36.961  30.132  27.699  1.00  0.00     0.014 A 
ATOM     35  C   UNL A   1      37.854  28.839  30.016  1.00  0.00     0.010 A 
ATOM     36  C   UNL A   1      38.222  29.585  27.736  1.00  0.00     0.010 A 
ATOM     37  C   UNL A   1      38.687  28.980  28.909  1.00  0.00    -0.014 A 
BRANCH  37  38
ATOM     38  C   UNL A   1      40.085  28.585  28.874  1.00  0.00     0.031 A 
ATOM     39  C   UNL A   1      40.449  27.183  28.594  1.00  0.00     0.074 A 
ATOM     40  C   UNL A   1      41.046  29.533  28.940  1.00  0.00     0.049 A 
ATOM     41  N   UNL A   1      41.577  26.655  28.930  1.00  0.00    -0.248 NA
ATOM     42  C   UNL A   1      39.543  26.253  27.927  1.00  0.00     0.031 C 
ATOM     43  C   UNL A   1      42.440  29.390  28.535  1.00  0.00     0.029 A 
ATOM     44  N   UNL A   1      40.999  30.772  29.587  1.00  0.00    -0.354 N 
ATOM     45  C   UNL A   1      41.649  25.425  28.318  1.00  0.00     0.074 A 
ATOM     46  C   UNL A   1      40.339  25.195  27.754  1.00  0.00     0.031 C 
ATOM     47  C   UNL A   1      43.167  30.326  29.163  1.00  0.00     0.029 A 
ATOM     48  C   UNL A   1      42.286  30.993  30.105  1.00  0.00     0.049 A 
ATOM     49  H   UNL A   1      40.221  31.370  29.665  1.00  0.00     0.167 HD
ATOM     50  C   UNL A   1      42.849  24.793  28.209  1.00  0.00     0.034 A 
ATOM     51  C   UNL A   1      42.560  31.212  31.422  1.00  0.00     0.034 A 
ATOM     52  C   UNL A   1      43.927  25.585  28.802  1.00  0.00     0.049 A 
ATOM     53  C   UNL A   1      43.557  30.228  31.998  1.00  0.00     0.074 A 
ATOM     54  C   UNL A   1      44.820  26.496  28.259  1.00  0.00     0.029 A 
ATOM     55  N   UNL A   1      44.006  25.730  30.182  1.00  0.00    -0.354 N 
ATOM     56  N   UNL A   1      43.959  29.148  31.386  1.00  0.00    -0.248 NA
ATOM     57  C   UNL A   1      44.162  30.367  33.319  1.00  0.00     0.031 C 
ATOM     58  C   UNL A   1      45.408  27.224  29.323  1.00  0.00     0.029 A 
ATOM     59  C   UNL A   1      44.884  26.750  30.514  1.00  0.00     0.049 A 
ATOM     60  H   UNL A   1      43.509  25.183  30.833  1.00  0.00     0.167 HD
ATOM     61  C   UNL A   1      44.734  28.393  32.231  1.00  0.00     0.074 A 
ATOM     62  C   UNL A   1      44.895  29.242  33.399  1.00  0.00     0.031 C 
ATOM     63  C   UNL A   1      45.117  27.116  31.907  1.00  0.00     0.034 A 
BRANCH  50  64
ATOM     64  C   UNL A   1      43.083  23.651  27.244  1.00  0.00     0.023 A 
ATOM     65  C   UNL A   1      43.747  23.942  26.032  1.00  0.00     0.012 A 
ATOM     66  C   UNL A   1      42.636  22.322  27.414  1.00  0.00     0.148 A 
ATOM     67  C   UNL A   1      43.864  23.010  24.999  1.00  0.00     0.002 A 
ATOM     68  C   UNL A   1      42.686  21.410  26.354  1.00  0.00     0.091 A 
ATOM     69  F   UNL A   1      42.209  21.920  28.618  1.00  0.00    -0.205 F 
ATOM     70  C   UNL A   1      43.297  21.754  25.144  1.00  0.00     0.022 A 
BRANCH  68  71
ATOM     71  S   UNL A   1      41.856  19.813  26.422  1.00  0.00     0.127 S 
ATOM     72  O   UNL A   1      40.441  20.196  26.430  1.00  0.00    -0.237 OA
ATOM     73  O   UNL A   1      42.302  19.170  25.189  1.00  0.00    -0.237 OA
ATOM     74  O   UNL A   1      42.300  19.191  27.664  1.00  0.00    -0.744 OA
ENDBRANCH  68  71
ENDBRANCH  50  64
BRANCH  51  75
ATOM     75  C   UNL A   1      41.454  31.863  32.177  1.00  0.00     0.023 A 
ATOM     76  C   UNL A   1      41.187  33.219  31.877  1.00  0.00     0.012 A 
ATOM     77  C   UNL A   1      40.479  31.112  32.854  1.00  0.00     0.148 A 
ATOM     78  C   UNL A   1      39.939  33.783  32.142  1.00  0.00     0.002 A 
ATOM     79  C   UNL A   1      39.230  31.678  33.107  1.00  0.00     0.091 A 
ATOM     80  F   UNL A   1      40.753  29.837  33.162  1.00  0.00    -0.205 F 
ATOM     81  C   UNL A   1      38.949  33.001  32.727  1.00  0.00     0.022 A 
BRANCH  79  82
ATOM     82  S   UNL A   1      37.870  30.714  33.782  1.00  0.00     0.127 S 
ATOM     83  O   UNL A   1      38.262  29.357  33.411  1.00  0.00    -0.237 OA
ATOM     84  O   UNL A   1      37.959  31.014  35.211  1.00  0.00    -0.237 OA
ATOM     85  O   UNL A   1      36.680  31.245  33.135  1.00  0.00    -0.744 OA
ENDBRANCH  79  82
ENDBRANCH  51  75
BRANCH  63  86
ATOM     86  C   UNL A   1      45.749  26.095  32.846  1.00  0.00     0.023 A 
ATOM     87  C   UNL A   1      47.139  26.004  33.042  1.00  0.00     0.012 A 
ATOM     88  C   UNL A   1      44.946  25.270  33.680  1.00  0.00     0.148 A 
ATOM     89  C   UNL A   1      47.709  25.116  33.964  1.00  0.00     0.002 A 
ATOM     90  C   UNL A   1      45.511  24.470  34.674  1.00  0.00     0.091 A 
ATOM     91  F   UNL A   1      43.617  25.230  33.509  1.00  0.00    -0.205 F 
ATOM     92  C   UNL A   1      46.896  24.367  34.799  1.00  0.00     0.022 A 
BRANCH  90  93
ATOM     93  S   UNL A   1      44.479  23.677  35.915  1.00  0.00     0.127 S 
ATOM     94  O   UNL A   1      45.464  22.968  36.728  1.00  0.00    -0.237 OA
ATOM     95  O   UNL A   1      43.849  24.818  36.585  1.00  0.00    -0.237 OA
ATOM     96  O   UNL A   1      43.552  22.853  35.151  1.00  0.00    -0.744 OA
ENDBRANCH  90  93
ENDBRANCH  63  86
ENDBRANCH  37  38
ENDBRANCH  29  32
ENDBRANCH  27  28
ENDBRANCH   1  27
TORSDOF 15
ENDMDL
