MODEL 1
REMARK VINA RESULT:     -14.2      0.000      0.000
REMARK SMILES Cc1ccc(C(=O)NCCCNC(=O)c2ccc(-c3c4nc(c(-c5cccc(S(=O)(=O)[O-])c5F)c5ccc([nH]5)c(-c5cccc(S(=O)(=O)[O-])c5F)c5nc(c(-c6cccc(S(=O)(=O)[O-])c6F)c6ccc3[nH]6)C=C5)C=C4)cc2)c(NC(=O)CN2C(=O)/C(=C/c3ccccc3C)SC2=S)c1
REMARK SMILES IDX 9 1 8 2 6 3 7 4 5 6 1 7 2 8 3 9 98 10 4 11 78 12 79 13 80 14
REMARK SMILES IDX 81 16 82 17 83 18 84 19 96 20 85 21 86 22 95 23 97 24 87 25
REMARK SMILES IDX 88 26 89 27 93 28 90 29 92 30 94 31 91 32 10 33 11 34 12 35
REMARK SMILES IDX 13 36 14 38 15 39 16 40 77 41 17 42 76 43 18 44 19 45 20 46
REMARK SMILES IDX 70 47 21 48 75 49 69 50 71 51 22 52 74 53 68 54 67 55 23 57
REMARK SMILES IDX 55 58 35 59 54 60 36 61 39 62 53 63 72 64 37 65 38 66 52 68
REMARK SMILES IDX 73 69 40 70 24 71 25 72 33 73 26 74 28 75 34 76 27 77 29 78
REMARK SMILES IDX 30 79 31 80 32 81 56 82 57 83 65 84 58 85 60 86 66 87 59 88
REMARK SMILES IDX 61 89 62 90 63 91 64 92 41 93 42 94 50 95 43 96 45 97 51 98
REMARK SMILES IDX 44 99 46 100 47 101 48 102 49 103
REMARK H PARENT 8 5 79 15 12 37 71 56 39 67
REMARK Flexibility Score: inf
ROOT
ATOM      1  C   UNL A   1      34.037  28.250  26.349  1.00  0.00     0.118 C 
ENDROOT
BRANCH   1   2
ATOM      2  N   UNL A   1      34.133  28.920  25.051  1.00  0.00    -0.352 N 
ATOM      3  C   UNL A   1      33.365  28.869  23.905  1.00  0.00     0.253 C 
ATOM      4  O   UNL A   1      33.839  29.209  22.825  1.00  0.00    -0.269 OA
ATOM      5  H   UNL A   1      34.901  29.531  24.981  1.00  0.00     0.163 HD
BRANCH   3   6
ATOM      6  C   UNL A   1      31.986  28.379  23.835  1.00  0.00     0.063 A 
ATOM      7  C   UNL A   1      29.106  30.537  21.801  1.00  0.00     0.044 C 
ATOM      8  C   UNL A   1      29.883  29.521  22.585  1.00  0.00    -0.049 A 
ATOM      9  C   UNL A   1      30.029  29.739  23.954  1.00  0.00     0.004 A 
ATOM     10  C   UNL A   1      30.548  28.421  21.994  1.00  0.00     0.030 A 
ATOM     11  C   UNL A   1      31.095  29.145  24.596  1.00  0.00     0.016 A 
ATOM     12  C   UNL A   1      31.565  27.751  22.699  1.00  0.00     0.054 A 
BRANCH  12  13
ATOM     13  N   UNL A   1      32.197  26.615  22.167  1.00  0.00    -0.324 N 
ATOM     14  C   UNL A   1      32.874  25.524  22.619  1.00  0.00     0.244 C 
ATOM     15  H   UNL A   1      32.133  26.606  21.184  1.00  0.00     0.170 HD
ATOM     16  O   UNL A   1      33.282  24.851  21.646  1.00  0.00    -0.273 OA
BRANCH  14  17
ATOM     17  C   UNL A   1      33.072  24.840  24.030  1.00  0.00     0.227 C 
BRANCH  17  18
ATOM     18  N   UNL A   1      33.327  23.482  24.559  1.00  0.00    -0.283 N 
ATOM     19  C   UNL A   1      32.253  22.629  24.830  1.00  0.00     0.266 C 
ATOM     20  C   UNL A   1      34.512  23.076  25.151  1.00  0.00     0.148 C 
ATOM     21  O   UNL A   1      31.082  22.876  24.686  1.00  0.00    -0.268 OA
ATOM     22  C   UNL A   1      32.777  21.274  25.234  1.00  0.00     0.081 C 
ATOM     23  S   UNL A   1      34.359  21.451  25.845  1.00  0.00    -0.054 SA
ATOM     24  S   UNL A   1      35.955  23.913  25.267  1.00  0.00    -0.052 S 
ATOM     25  C   UNL A   1      32.128  20.173  24.817  1.00  0.00     0.029 C 
BRANCH  25  26
ATOM     26  C   UNL A   1      32.518  18.745  24.708  1.00  0.00    -0.021 A 
ATOM     27  C   UNL A   1      32.872  17.990  25.843  1.00  0.00     0.008 A 
ATOM     28  C   UNL A   1      32.728  18.166  23.437  1.00  0.00    -0.044 A 
ATOM     29  C   UNL A   1      33.322  16.667  25.729  1.00  0.00     0.001 A 
ATOM     30  C   UNL A   1      33.144  16.823  23.340  1.00  0.00     0.004 A 
ATOM     31  C   UNL A   1      32.491  18.912  22.149  1.00  0.00     0.045 C 
ATOM     32  C   UNL A   1      33.435  16.076  24.477  1.00  0.00     0.000 A 
ENDBRANCH  25  26
ENDBRANCH  17  18
ENDBRANCH  14  17
ENDBRANCH  12  13
ENDBRANCH   3   6
ENDBRANCH   1   2
BRANCH   1  33
ATOM     33  C   UNL A   1      33.657  29.180  27.499  1.00  0.00     0.042 C 
BRANCH  33  34
ATOM     34  C   UNL A   1      33.972  30.650  27.208  1.00  0.00     0.118 C 
BRANCH  34  35
ATOM     35  N   UNL A   1      34.397  31.386  28.397  1.00  0.00    -0.352 N 
ATOM     36  C   UNL A   1      35.459  31.216  29.268  1.00  0.00     0.251 C 
ATOM     37  H   UNL A   1      33.817  32.150  28.620  1.00  0.00     0.163 HD
ATOM     38  O   UNL A   1      35.566  32.013  30.197  1.00  0.00    -0.269 OA
BRANCH  36  39
ATOM     39  C   UNL A   1      36.507  30.192  29.027  1.00  0.00     0.039 A 
ATOM     40  C   UNL A   1      36.831  29.293  30.054  1.00  0.00     0.014 A 
ATOM     41  C   UNL A   1      37.278  30.198  27.874  1.00  0.00     0.014 A 
ATOM     42  C   UNL A   1      38.057  28.627  30.034  1.00  0.00     0.010 A 
ATOM     43  C   UNL A   1      38.538  29.655  27.900  1.00  0.00     0.010 A 
ATOM     44  C   UNL A   1      38.949  28.924  29.010  1.00  0.00    -0.014 A 
BRANCH  44  45
ATOM     45  C   UNL A   1      40.329  28.486  28.941  1.00  0.00     0.031 A 
ATOM     46  C   UNL A   1      40.614  27.069  28.701  1.00  0.00     0.074 A 
ATOM     47  C   UNL A   1      41.286  29.438  28.887  1.00  0.00     0.049 A 
ATOM     48  N   UNL A   1      41.719  26.486  29.003  1.00  0.00    -0.248 NA
ATOM     49  C   UNL A   1      39.626  26.184  28.099  1.00  0.00     0.031 C 
ATOM     50  C   UNL A   1      42.676  29.311  28.479  1.00  0.00     0.029 A 
ATOM     51  N   UNL A   1      41.200  30.738  29.395  1.00  0.00    -0.354 N 
ATOM     52  C   UNL A   1      41.705  25.250  28.386  1.00  0.00     0.074 A 
ATOM     53  C   UNL A   1      40.345  25.070  27.941  1.00  0.00     0.031 C 
ATOM     54  C   UNL A   1      43.369  30.340  29.001  1.00  0.00     0.029 A 
ATOM     55  C   UNL A   1      42.470  31.034  29.913  1.00  0.00     0.049 A 
ATOM     56  H   UNL A   1      40.410  31.325  29.391  1.00  0.00     0.167 HD
ATOM     57  C   UNL A   1      42.892  24.617  28.163  1.00  0.00     0.034 A 
ATOM     58  C   UNL A   1      42.691  31.246  31.248  1.00  0.00     0.034 A 
ATOM     59  C   UNL A   1      44.000  25.411  28.726  1.00  0.00     0.049 A 
ATOM     60  C   UNL A   1      43.671  30.244  31.834  1.00  0.00     0.074 A 
ATOM     61  C   UNL A   1      44.861  26.334  28.152  1.00  0.00     0.029 A 
ATOM     62  N   UNL A   1      44.108  25.580  30.104  1.00  0.00    -0.354 N 
ATOM     63  N   UNL A   1      44.069  29.162  31.224  1.00  0.00    -0.248 NA
ATOM     64  C   UNL A   1      44.244  30.367  33.172  1.00  0.00     0.031 C 
ATOM     65  C   UNL A   1      45.409  27.130  29.194  1.00  0.00     0.029 A 
ATOM     66  C   UNL A   1      44.917  26.669  30.405  1.00  0.00     0.049 A 
ATOM     67  H   UNL A   1      43.670  25.008  30.774  1.00  0.00     0.167 HD
ATOM     68  C   UNL A   1      44.788  28.381  32.087  1.00  0.00     0.074 A 
ATOM     69  C   UNL A   1      44.948  29.224  33.262  1.00  0.00     0.031 C 
ATOM     70  C   UNL A   1      45.126  27.086  31.791  1.00  0.00     0.034 A 
BRANCH  57  71
ATOM     71  C   UNL A   1      43.113  23.500  27.147  1.00  0.00     0.023 A 
ATOM     72  C   UNL A   1      43.746  23.856  25.933  1.00  0.00     0.012 A 
ATOM     73  C   UNL A   1      42.704  22.147  27.247  1.00  0.00     0.148 A 
ATOM     74  C   UNL A   1      43.871  22.974  24.853  1.00  0.00     0.002 A 
ATOM     75  C   UNL A   1      42.774  21.278  26.149  1.00  0.00     0.091 A 
ATOM     76  F   UNL A   1      42.320  21.652  28.424  1.00  0.00    -0.205 F 
ATOM     77  C   UNL A   1      43.352  21.693  24.948  1.00  0.00     0.022 A 
BRANCH  75  78
ATOM     78  S   UNL A   1      42.081  19.612  26.174  1.00  0.00     0.127 S 
ATOM     79  O   UNL A   1      42.588  19.086  27.444  1.00  0.00    -0.237 OA
ATOM     80  O   UNL A   1      40.642  19.871  26.157  1.00  0.00    -0.237 OA
ATOM     81  O   UNL A   1      42.609  18.933  24.996  1.00  0.00    -0.744 OA
ENDBRANCH  75  78
ENDBRANCH  57  71
BRANCH  58  82
ATOM     82  C   UNL A   1      41.483  31.766  31.973  1.00  0.00     0.023 A 
ATOM     83  C   UNL A   1      40.953  33.001  31.527  1.00  0.00     0.012 A 
ATOM     84  C   UNL A   1      40.649  30.905  32.706  1.00  0.00     0.148 A 
ATOM     85  C   UNL A   1      39.579  33.245  31.589  1.00  0.00     0.002 A 
ATOM     86  C   UNL A   1      39.284  31.177  32.795  1.00  0.00     0.091 A 
ATOM     87  F   UNL A   1      41.172  29.797  33.247  1.00  0.00    -0.205 F 
ATOM     88  C   UNL A   1      38.737  32.306  32.171  1.00  0.00     0.022 A 
BRANCH  86  89
ATOM     89  S   UNL A   1      38.185  30.039  33.643  1.00  0.00     0.127 S 
ATOM     90  O   UNL A   1      38.732  28.747  33.240  1.00  0.00    -0.237 OA
ATOM     91  O   UNL A   1      38.386  30.369  35.053  1.00  0.00    -0.237 OA
ATOM     92  O   UNL A   1      36.863  30.375  33.134  1.00  0.00    -0.744 OA
ENDBRANCH  86  89
ENDBRANCH  58  82
BRANCH  70  93
ATOM     93  C   UNL A   1      45.692  26.091  32.790  1.00  0.00     0.023 A 
ATOM     94  C   UNL A   1      47.077  25.936  32.994  1.00  0.00     0.012 A 
ATOM     95  C   UNL A   1      44.839  25.366  33.662  1.00  0.00     0.148 A 
ATOM     96  C   UNL A   1      47.595  25.039  33.935  1.00  0.00     0.002 A 
ATOM     97  C   UNL A   1      45.359  24.572  34.682  1.00  0.00     0.091 A 
ATOM     98  F   UNL A   1      43.510  25.419  33.496  1.00  0.00    -0.205 F 
ATOM     99  C   UNL A   1      46.736  24.371  34.793  1.00  0.00     0.022 A 
BRANCH  97 100
ATOM    100  S   UNL A   1      44.304  23.913  35.979  1.00  0.00     0.127 S 
ATOM    101  O   UNL A   1      43.970  25.115  36.740  1.00  0.00    -0.237 OA
ATOM    102  O   UNL A   1      43.189  23.345  35.218  1.00  0.00    -0.237 OA
ATOM    103  O   UNL A   1      45.119  22.921  36.668  1.00  0.00    -0.744 OA
ENDBRANCH  97 100
ENDBRANCH  70  93
ENDBRANCH  44  45
ENDBRANCH  36  39
ENDBRANCH  34  35
ENDBRANCH  33  34
ENDBRANCH   1  33
TORSDOF 17
ENDMDL
MODEL 2
REMARK VINA RESULT:     -14.1      1.956      2.600
REMARK SMILES Cc1ccc(C(=O)NCCCNC(=O)c2ccc(-c3c4nc(c(-c5cccc(S(=O)(=O)[O-])c5F)c5ccc([nH]5)c(-c5cccc(S(=O)(=O)[O-])c5F)c5nc(c(-c6cccc(S(=O)(=O)[O-])c6F)c6ccc3[nH]6)C=C5)C=C4)cc2)c(NC(=O)CN2C(=O)/C(=C/c3ccccc3C)SC2=S)c1
REMARK SMILES IDX 9 1 8 2 6 3 7 4 5 6 1 7 2 8 3 9 98 10 4 11 78 12 79 13 80 14
REMARK SMILES IDX 81 16 82 17 83 18 84 19 96 20 85 21 86 22 95 23 97 24 87 25
REMARK SMILES IDX 88 26 89 27 93 28 90 29 92 30 94 31 91 32 10 33 11 34 12 35
REMARK SMILES IDX 13 36 14 38 15 39 16 40 77 41 17 42 76 43 18 44 19 45 20 46
REMARK SMILES IDX 70 47 21 48 75 49 69 50 71 51 22 52 74 53 68 54 67 55 23 57
REMARK SMILES IDX 55 58 35 59 54 60 36 61 39 62 53 63 72 64 37 65 38 66 52 68
REMARK SMILES IDX 73 69 40 70 24 71 25 72 33 73 26 74 28 75 34 76 27 77 29 78
REMARK SMILES IDX 30 79 31 80 32 81 56 82 57 83 65 84 58 85 60 86 66 87 59 88
REMARK SMILES IDX 61 89 62 90 63 91 64 92 41 93 42 94 50 95 43 96 45 97 51 98
REMARK SMILES IDX 44 99 46 100 47 101 48 102 49 103
REMARK H PARENT 8 5 79 15 12 37 71 56 39 67
REMARK Flexibility Score: inf
ROOT
ATOM      1  C   UNL A   1      32.164  30.081  26.426  1.00  0.00     0.118 C 
ENDROOT
BRANCH   1   2
ATOM      2  N   UNL A   1      32.700  30.046  25.065  1.00  0.00    -0.352 N 
ATOM      3  C   UNL A   1      32.202  29.572  23.867  1.00  0.00     0.253 C 
ATOM      4  O   UNL A   1      32.964  29.299  22.944  1.00  0.00    -0.269 OA
ATOM      5  H   UNL A   1      33.598  30.441  24.987  1.00  0.00     0.163 HD
BRANCH   3   6
ATOM      6  C   UNL A   1      30.789  29.302  23.589  1.00  0.00     0.063 A 
ATOM      7  C   UNL A   1      28.499  32.072  21.548  1.00  0.00     0.044 C 
ATOM      8  C   UNL A   1      29.030  30.872  22.276  1.00  0.00    -0.049 A 
ATOM      9  C   UNL A   1      29.034  30.915  23.669  1.00  0.00     0.004 A 
ATOM     10  C   UNL A   1      29.609  29.758  21.625  1.00  0.00     0.030 A 
ATOM     11  C   UNL A   1      29.922  30.103  24.342  1.00  0.00     0.016 A 
ATOM     12  C   UNL A   1      30.432  28.871  22.345  1.00  0.00     0.054 A 
BRANCH  12  13
ATOM     13  N   UNL A   1      30.967  27.720  21.744  1.00  0.00    -0.324 N 
ATOM     14  C   UNL A   1      31.437  26.501  22.126  1.00  0.00     0.244 C 
ATOM     15  H   UNL A   1      31.017  27.825  20.766  1.00  0.00     0.170 HD
ATOM     16  O   UNL A   1      31.864  25.884  21.124  1.00  0.00    -0.273 OA
BRANCH  14  17
ATOM     17  C   UNL A   1      31.379  25.648  23.455  1.00  0.00     0.227 C 
BRANCH  17  18
ATOM     18  N   UNL A   1      32.282  24.771  24.232  1.00  0.00    -0.283 N 
ATOM     19  C   UNL A   1      32.247  23.388  24.032  1.00  0.00     0.266 C 
ATOM     20  C   UNL A   1      32.928  25.140  25.399  1.00  0.00     0.148 C 
ATOM     21  O   UNL A   1      31.530  22.786  23.273  1.00  0.00    -0.268 OA
ATOM     22  C   UNL A   1      33.341  22.735  24.841  1.00  0.00     0.081 C 
ATOM     23  S   UNL A   1      33.750  23.756  26.144  1.00  0.00    -0.054 SA
ATOM     24  S   UNL A   1      32.995  26.649  26.117  1.00  0.00    -0.052 S 
ATOM     25  C   UNL A   1      34.006  21.693  24.314  1.00  0.00     0.029 C 
BRANCH  25  26
ATOM     26  C   UNL A   1      35.311  21.057  24.630  1.00  0.00    -0.021 A 
ATOM     27  C   UNL A   1      36.507  21.799  24.643  1.00  0.00     0.008 A 
ATOM     28  C   UNL A   1      35.403  19.652  24.735  1.00  0.00    -0.044 A 
ATOM     29  C   UNL A   1      37.747  21.182  24.857  1.00  0.00     0.001 A 
ATOM     30  C   UNL A   1      36.651  19.050  24.988  1.00  0.00     0.004 A 
ATOM     31  C   UNL A   1      34.205  18.743  24.626  1.00  0.00     0.045 C 
ATOM     32  C   UNL A   1      37.816  19.809  25.054  1.00  0.00     0.000 A 
ENDBRANCH  25  26
ENDBRANCH  17  18
ENDBRANCH  14  17
ENDBRANCH  12  13
ENDBRANCH   3   6
ENDBRANCH   1   2
BRANCH   1  33
ATOM     33  C   UNL A   1      33.063  30.803  27.427  1.00  0.00     0.042 C 
BRANCH  33  34
ATOM     34  C   UNL A   1      34.524  30.352  27.352  1.00  0.00     0.118 C 
BRANCH  34  35
ATOM     35  N   UNL A   1      35.458  31.365  27.839  1.00  0.00    -0.352 N 
ATOM     36  C   UNL A   1      36.766  31.288  28.286  1.00  0.00     0.251 C 
ATOM     37  H   UNL A   1      35.086  32.277  27.852  1.00  0.00     0.163 HD
ATOM     38  O   UNL A   1      37.311  32.333  28.636  1.00  0.00    -0.269 OA
BRANCH  36  39
ATOM     39  C   UNL A   1      37.535  30.019  28.227  1.00  0.00     0.039 A 
ATOM     40  C   UNL A   1      37.521  29.162  29.338  1.00  0.00     0.014 A 
ATOM     41  C   UNL A   1      38.385  29.731  27.170  1.00  0.00     0.014 A 
ATOM     42  C   UNL A   1      38.531  28.213  29.497  1.00  0.00     0.010 A 
ATOM     43  C   UNL A   1      39.456  28.897  27.371  1.00  0.00     0.010 A 
ATOM     44  C   UNL A   1      39.561  28.187  28.563  1.00  0.00    -0.014 A 
BRANCH  44  45
ATOM     45  C   UNL A   1      40.783  27.416  28.677  1.00  0.00     0.031 A 
ATOM     46  C   UNL A   1      40.725  25.962  28.505  1.00  0.00     0.074 A 
ATOM     47  C   UNL A   1      41.950  28.095  28.721  1.00  0.00     0.049 A 
ATOM     48  N   UNL A   1      41.603  25.139  28.956  1.00  0.00    -0.248 NA
ATOM     49  C   UNL A   1      39.621  25.321  27.804  1.00  0.00     0.031 C 
ATOM     50  C   UNL A   1      43.300  27.604  28.493  1.00  0.00     0.029 A 
ATOM     51  N   UNL A   1      42.139  29.401  29.186  1.00  0.00    -0.354 N 
ATOM     52  C   UNL A   1      41.347  23.915  28.368  1.00  0.00     0.074 A 
ATOM     53  C   UNL A   1      40.046  24.056  27.761  1.00  0.00     0.031 C 
ATOM     54  C   UNL A   1      44.167  28.454  29.074  1.00  0.00     0.029 A 
ATOM     55  C   UNL A   1      43.374  29.398  29.852  1.00  0.00     0.049 A 
ATOM     56  H   UNL A   1      41.530  30.165  29.070  1.00  0.00     0.167 HD
ATOM     57  C   UNL A   1      42.351  22.995  28.310  1.00  0.00     0.034 A 
ATOM     58  C   UNL A   1      43.486  29.618  31.199  1.00  0.00     0.034 A 
ATOM     59  C   UNL A   1      43.553  23.517  28.989  1.00  0.00     0.049 A 
ATOM     60  C   UNL A   1      44.106  28.435  31.925  1.00  0.00     0.074 A 
ATOM     61  C   UNL A   1      44.679  24.163  28.506  1.00  0.00     0.029 A 
ATOM     62  N   UNL A   1      43.540  23.726  30.365  1.00  0.00    -0.354 N 
ATOM     63  N   UNL A   1      44.283  27.258  31.393  1.00  0.00    -0.248 NA
ATOM     64  C   UNL A   1      44.533  28.482  33.320  1.00  0.00     0.031 C 
ATOM     65  C   UNL A   1      45.288  24.851  29.591  1.00  0.00     0.029 A 
ATOM     66  C   UNL A   1      44.559  24.593  30.741  1.00  0.00     0.049 A 
ATOM     67  H   UNL A   1      42.897  23.316  30.988  1.00  0.00     0.167 HD
ATOM     68  C   UNL A   1      44.676  26.369  32.356  1.00  0.00     0.074 A 
ATOM     69  C   UNL A   1      44.908  27.206  33.523  1.00  0.00     0.031 C 
ATOM     70  C   UNL A   1      44.706  25.016  32.133  1.00  0.00     0.034 A 
BRANCH  57  71
ATOM     71  C   UNL A   1      42.397  21.806  27.354  1.00  0.00     0.023 A 
ATOM     72  C   UNL A   1      41.403  20.813  27.521  1.00  0.00     0.012 A 
ATOM     73  C   UNL A   1      43.360  21.540  26.350  1.00  0.00     0.148 A 
ATOM     74  C   UNL A   1      41.416  19.598  26.826  1.00  0.00     0.002 A 
ATOM     75  C   UNL A   1      43.411  20.303  25.693  1.00  0.00     0.091 A 
ATOM     76  F   UNL A   1      44.189  22.505  25.949  1.00  0.00    -0.205 F 
ATOM     77  C   UNL A   1      42.442  19.327  25.935  1.00  0.00     0.022 A 
BRANCH  75  78
ATOM     78  S   UNL A   1      44.738  19.852  24.556  1.00  0.00     0.127 S 
ATOM     79  O   UNL A   1      45.933  20.056  25.379  1.00  0.00    -0.237 OA
ATOM     80  O   UNL A   1      44.437  18.452  24.263  1.00  0.00    -0.237 OA
ATOM     81  O   UNL A   1      44.633  20.765  23.424  1.00  0.00    -0.744 OA
ENDBRANCH  75  78
ENDBRANCH  57  71
BRANCH  58  82
ATOM     82  C   UNL A   1      42.375  30.460  31.757  1.00  0.00     0.023 A 
ATOM     83  C   UNL A   1      42.182  31.733  31.167  1.00  0.00     0.012 A 
ATOM     84  C   UNL A   1      41.308  29.880  32.463  1.00  0.00     0.148 A 
ATOM     85  C   UNL A   1      40.901  32.281  31.070  1.00  0.00     0.002 A 
ATOM     86  C   UNL A   1      40.040  30.456  32.391  1.00  0.00     0.091 A 
ATOM     87  F   UNL A   1      41.515  28.741  33.136  1.00  0.00    -0.205 F 
ATOM     88  C   UNL A   1      39.820  31.612  31.632  1.00  0.00     0.022 A 
BRANCH  86  89
ATOM     89  S   UNL A   1      38.642  29.676  33.206  1.00  0.00     0.127 S 
ATOM     90  O   UNL A   1      37.517  30.326  32.543  1.00  0.00    -0.237 OA
ATOM     91  O   UNL A   1      38.809  28.262  32.872  1.00  0.00    -0.237 OA
ATOM     92  O   UNL A   1      38.836  29.983  34.615  1.00  0.00    -0.744 OA
ENDBRANCH  86  89
ENDBRANCH  58  82
BRANCH  70  93
ATOM     93  C   UNL A   1      44.882  23.967  33.216  1.00  0.00     0.023 A 
ATOM     94  C   UNL A   1      43.860  23.059  33.558  1.00  0.00     0.012 A 
ATOM     95  C   UNL A   1      46.139  23.768  33.844  1.00  0.00     0.148 A 
ATOM     96  C   UNL A   1      44.034  22.075  34.537  1.00  0.00     0.002 A 
ATOM     97  C   UNL A   1      46.344  22.708  34.724  1.00  0.00     0.091 A 
ATOM     98  F   UNL A   1      47.146  24.623  33.613  1.00  0.00    -0.205 F 
ATOM     99  C   UNL A   1      45.283  21.887  35.108  1.00  0.00     0.022 A 
BRANCH  97 100
ATOM    100  S   UNL A   1      47.997  22.257  35.270  1.00  0.00     0.127 S 
ATOM    101  O   UNL A   1      48.369  23.406  36.093  1.00  0.00    -0.237 OA
ATOM    102  O   UNL A   1      47.754  21.024  36.022  1.00  0.00    -0.237 OA
ATOM    103  O   UNL A   1      48.765  22.065  34.047  1.00  0.00    -0.744 OA
ENDBRANCH  97 100
ENDBRANCH  70  93
ENDBRANCH  44  45
ENDBRANCH  36  39
ENDBRANCH  34  35
ENDBRANCH  33  34
ENDBRANCH   1  33
TORSDOF 17
ENDMDL
MODEL 3
REMARK VINA RESULT:     -13.3      2.926      4.610
REMARK SMILES Cc1ccc(C(=O)NCCCNC(=O)c2ccc(-c3c4nc(c(-c5cccc(S(=O)(=O)[O-])c5F)c5ccc([nH]5)c(-c5cccc(S(=O)(=O)[O-])c5F)c5nc(c(-c6cccc(S(=O)(=O)[O-])c6F)c6ccc3[nH]6)C=C5)C=C4)cc2)c(NC(=O)CN2C(=O)/C(=C/c3ccccc3C)SC2=S)c1
REMARK SMILES IDX 9 1 8 2 6 3 7 4 5 6 1 7 2 8 3 9 98 10 4 11 78 12 79 13 80 14
REMARK SMILES IDX 81 16 82 17 83 18 84 19 96 20 85 21 86 22 95 23 97 24 87 25
REMARK SMILES IDX 88 26 89 27 93 28 90 29 92 30 94 31 91 32 10 33 11 34 12 35
REMARK SMILES IDX 13 36 14 38 15 39 16 40 77 41 17 42 76 43 18 44 19 45 20 46
REMARK SMILES IDX 70 47 21 48 75 49 69 50 71 51 22 52 74 53 68 54 67 55 23 57
REMARK SMILES IDX 55 58 35 59 54 60 36 61 39 62 53 63 72 64 37 65 38 66 52 68
REMARK SMILES IDX 73 69 40 70 24 71 25 72 33 73 26 74 28 75 34 76 27 77 29 78
REMARK SMILES IDX 30 79 31 80 32 81 56 82 57 83 65 84 58 85 60 86 66 87 59 88
REMARK SMILES IDX 61 89 62 90 63 91 64 92 41 93 42 94 50 95 43 96 45 97 51 98
REMARK SMILES IDX 44 99 46 100 47 101 48 102 49 103
REMARK H PARENT 8 5 79 15 12 37 71 56 39 67
REMARK Flexibility Score: inf
ROOT
ATOM      1  C   UNL A   1      33.944  29.949  27.086  1.00  0.00     0.118 C 
ENDROOT
BRANCH   1   2
ATOM      2  N   UNL A   1      32.987  29.158  27.861  1.00  0.00    -0.352 N 
ATOM      3  C   UNL A   1      31.857  28.443  27.518  1.00  0.00     0.253 C 
ATOM      4  O   UNL A   1      31.006  28.185  28.364  1.00  0.00    -0.269 OA
ATOM      5  H   UNL A   1      33.191  29.130  28.824  1.00  0.00     0.163 HD
BRANCH   3   6
ATOM      6  C   UNL A   1      31.530  27.980  26.167  1.00  0.00     0.063 A 
ATOM      7  C   UNL A   1      34.347  28.201  23.149  1.00  0.00     0.044 C 
ATOM      8  C   UNL A   1      33.126  27.965  23.990  1.00  0.00    -0.049 A 
ATOM      9  C   UNL A   1      32.235  29.026  24.141  1.00  0.00     0.004 A 
ATOM     10  C   UNL A   1      32.891  26.768  24.706  1.00  0.00     0.030 A 
ATOM     11  C   UNL A   1      31.410  29.028  25.246  1.00  0.00     0.016 A 
ATOM     12  C   UNL A   1      31.966  26.751  25.766  1.00  0.00     0.054 A 
BRANCH  12  13
ATOM     13  N   UNL A   1      31.662  25.564  26.452  1.00  0.00    -0.324 N 
ATOM     14  C   UNL A   1      31.832  24.224  26.287  1.00  0.00     0.244 C 
ATOM     15  H   UNL A   1      31.189  25.757  27.295  1.00  0.00     0.170 HD
ATOM     16  O   UNL A   1      31.276  23.613  27.227  1.00  0.00    -0.273 OA
BRANCH  14  17
ATOM     17  C   UNL A   1      32.707  23.319  25.332  1.00  0.00     0.227 C 
BRANCH  17  18
ATOM     18  N   UNL A   1      34.058  22.716  25.334  1.00  0.00    -0.283 N 
ATOM     19  C   UNL A   1      35.161  23.482  24.946  1.00  0.00     0.266 C 
ATOM     20  C   UNL A   1      34.314  21.355  25.348  1.00  0.00     0.148 C 
ATOM     21  O   UNL A   1      35.150  24.632  24.583  1.00  0.00    -0.268 OA
ATOM     22  C   UNL A   1      36.425  22.686  25.155  1.00  0.00     0.081 C 
ATOM     23  S   UNL A   1      36.044  21.024  25.132  1.00  0.00    -0.054 SA
ATOM     24  S   UNL A   1      33.230  20.096  25.531  1.00  0.00    -0.052 S 
ATOM     25  C   UNL A   1      37.525  23.316  25.602  1.00  0.00     0.029 C 
BRANCH  25  26
ATOM     26  C   UNL A   1      38.779  22.841  26.240  1.00  0.00    -0.021 A 
ATOM     27  C   UNL A   1      39.281  21.547  26.003  1.00  0.00     0.008 A 
ATOM     28  C   UNL A   1      39.391  23.612  27.252  1.00  0.00    -0.044 A 
ATOM     29  C   UNL A   1      40.417  21.070  26.672  1.00  0.00     0.001 A 
ATOM     30  C   UNL A   1      40.554  23.135  27.889  1.00  0.00     0.004 A 
ATOM     31  C   UNL A   1      38.878  24.966  27.673  1.00  0.00     0.045 C 
ATOM     32  C   UNL A   1      41.068  21.874  27.598  1.00  0.00     0.000 A 
ENDBRANCH  25  26
ENDBRANCH  17  18
ENDBRANCH  14  17
ENDBRANCH  12  13
ENDBRANCH   3   6
ENDBRANCH   1   2
BRANCH   1  33
ATOM     33  C   UNL A   1      34.921  30.752  27.941  1.00  0.00     0.042 C 
BRANCH  33  34
ATOM     34  C   UNL A   1      34.896  32.251  27.629  1.00  0.00     0.118 C 
BRANCH  34  35
ATOM     35  N   UNL A   1      34.238  33.038  28.670  1.00  0.00    -0.352 N 
ATOM     36  C   UNL A   1      34.663  33.479  29.912  1.00  0.00     0.251 C 
ATOM     37  H   UNL A   1      33.318  33.307  28.445  1.00  0.00     0.163 HD
ATOM     38  O   UNL A   1      33.873  34.142  30.581  1.00  0.00    -0.269 OA
BRANCH  36  39
ATOM     39  C   UNL A   1      36.059  33.274  30.376  1.00  0.00     0.039 A 
ATOM     40  C   UNL A   1      37.112  33.820  29.627  1.00  0.00     0.014 A 
ATOM     41  C   UNL A   1      36.357  32.435  31.438  1.00  0.00     0.014 A 
ATOM     42  C   UNL A   1      38.403  33.310  29.769  1.00  0.00     0.010 A 
ATOM     43  C   UNL A   1      37.588  31.833  31.500  1.00  0.00     0.010 A 
ATOM     44  C   UNL A   1      38.591  32.227  30.620  1.00  0.00    -0.014 A 
BRANCH  44  45
ATOM     45  C   UNL A   1      39.808  31.448  30.737  1.00  0.00     0.031 A 
ATOM     46  C   UNL A   1      39.910  30.176  30.015  1.00  0.00     0.074 A 
ATOM     47  C   UNL A   1      40.871  32.032  31.330  1.00  0.00     0.049 A 
ATOM     48  N   UNL A   1      40.716  29.225  30.325  1.00  0.00    -0.248 NA
ATOM     49  C   UNL A   1      39.062  29.880  28.868  1.00  0.00     0.031 C 
ATOM     50  C   UNL A   1      42.271  31.641  31.282  1.00  0.00     0.029 A 
ATOM     51  N   UNL A   1      40.838  33.051  32.288  1.00  0.00    -0.354 N 
ATOM     52  C   UNL A   1      40.708  28.331  29.272  1.00  0.00     0.074 A 
ATOM     53  C   UNL A   1      39.585  28.723  28.457  1.00  0.00     0.031 C 
ATOM     54  C   UNL A   1      42.902  32.181  32.342  1.00  0.00     0.029 A 
ATOM     55  C   UNL A   1      41.872  32.764  33.192  1.00  0.00     0.049 A 
ATOM     56  H   UNL A   1      40.215  33.812  32.322  1.00  0.00     0.167 HD
ATOM     57  C   UNL A   1      41.768  27.486  29.124  1.00  0.00     0.034 A 
ATOM     58  C   UNL A   1      41.638  32.441  34.502  1.00  0.00     0.034 A 
ATOM     59  C   UNL A   1      42.724  27.678  30.231  1.00  0.00     0.049 A 
ATOM     60  C   UNL A   1      42.158  31.057  34.855  1.00  0.00     0.074 A 
ATOM     61  C   UNL A   1      43.878  28.438  30.333  1.00  0.00     0.029 A 
ATOM     62  N   UNL A   1      42.364  27.336  31.531  1.00  0.00    -0.354 N 
ATOM     63  N   UNL A   1      42.552  30.175  33.978  1.00  0.00    -0.248 NA
ATOM     64  C   UNL A   1      42.231  30.549  36.221  1.00  0.00     0.031 C 
ATOM     65  C   UNL A   1      44.151  28.638  31.714  1.00  0.00     0.029 A 
ATOM     66  C   UNL A   1      43.190  27.968  32.454  1.00  0.00     0.049 A 
ATOM     67  H   UNL A   1      41.625  26.730  31.767  1.00  0.00     0.167 HD
ATOM     68  C   UNL A   1      42.771  28.974  34.596  1.00  0.00     0.074 A 
ATOM     69  C   UNL A   1      42.647  29.287  36.010  1.00  0.00     0.031 C 
ATOM     70  C   UNL A   1      42.962  27.814  33.889  1.00  0.00     0.034 A 
BRANCH  57  71
ATOM     71  C   UNL A   1      42.138  26.760  27.833  1.00  0.00     0.023 A 
ATOM     72  C   UNL A   1      41.409  27.110  26.672  1.00  0.00     0.012 A 
ATOM     73  C   UNL A   1      43.090  25.725  27.666  1.00  0.00     0.148 A 
ATOM     74  C   UNL A   1      41.531  26.418  25.461  1.00  0.00     0.002 A 
ATOM     75  C   UNL A   1      43.174  24.994  26.473  1.00  0.00     0.091 A 
ATOM     76  F   UNL A   1      43.989  25.485  28.621  1.00  0.00    -0.205 F 
ATOM     77  C   UNL A   1      42.389  25.335  25.370  1.00  0.00     0.022 A 
BRANCH  75  78
ATOM     78  S   UNL A   1      44.230  23.542  26.288  1.00  0.00     0.127 S 
ATOM     79  O   UNL A   1      45.451  24.119  25.719  1.00  0.00    -0.237 OA
ATOM     80  O   UNL A   1      44.366  23.075  27.666  1.00  0.00    -0.237 OA
ATOM     81  O   UNL A   1      43.526  22.636  25.387  1.00  0.00    -0.744 OA
ENDBRANCH  75  78
ENDBRANCH  57  71
BRANCH  58  82
ATOM     82  C   UNL A   1      40.362  33.023  35.038  1.00  0.00     0.023 A 
ATOM     83  C   UNL A   1      39.181  32.266  34.837  1.00  0.00     0.012 A 
ATOM     84  C   UNL A   1      40.376  33.983  36.063  1.00  0.00     0.148 A 
ATOM     85  C   UNL A   1      38.156  32.290  35.785  1.00  0.00     0.002 A 
ATOM     86  C   UNL A   1      39.328  34.025  36.983  1.00  0.00     0.091 A 
ATOM     87  F   UNL A   1      41.434  34.796  36.180  1.00  0.00    -0.205 F 
ATOM     88  C   UNL A   1      38.256  33.127  36.889  1.00  0.00     0.022 A 
BRANCH  86  89
ATOM     89  S   UNL A   1      39.374  35.178  38.358  1.00  0.00     0.127 S 
ATOM     90  O   UNL A   1      39.346  36.462  37.666  1.00  0.00    -0.237 OA
ATOM     91  O   UNL A   1      38.153  34.862  39.099  1.00  0.00    -0.237 OA
ATOM     92  O   UNL A   1      40.603  34.843  39.063  1.00  0.00    -0.744 OA
ENDBRANCH  86  89
ENDBRANCH  58  82
BRANCH  70  93
ATOM     93  C   UNL A   1      42.955  26.423  34.498  1.00  0.00     0.023 A 
ATOM     94  C   UNL A   1      41.830  25.899  35.164  1.00  0.00     0.012 A 
ATOM     95  C   UNL A   1      44.045  25.535  34.305  1.00  0.00     0.148 A 
ATOM     96  C   UNL A   1      41.817  24.606  35.701  1.00  0.00     0.002 A 
ATOM     97  C   UNL A   1      43.978  24.209  34.727  1.00  0.00     0.091 A 
ATOM     98  F   UNL A   1      45.173  25.974  33.727  1.00  0.00    -0.205 F 
ATOM     99  C   UNL A   1      42.884  23.754  35.465  1.00  0.00     0.022 A 
BRANCH  97 100
ATOM    100  S   UNL A   1      45.205  23.002  34.207  1.00  0.00     0.127 S 
ATOM    101  O   UNL A   1      46.406  23.477  34.890  1.00  0.00    -0.237 OA
ATOM    102  O   UNL A   1      44.658  21.751  34.738  1.00  0.00    -0.237 OA
ATOM    103  O   UNL A   1      45.220  23.074  32.753  1.00  0.00    -0.744 OA
ENDBRANCH  97 100
ENDBRANCH  70  93
ENDBRANCH  44  45
ENDBRANCH  36  39
ENDBRANCH  34  35
ENDBRANCH  33  34
ENDBRANCH   1  33
TORSDOF 17
ENDMDL
