MODEL 1
REMARK VINA RESULT:     -13.5      0.000      0.000
REMARK SMILES C/C(=C\C(=O)c1c(O)n(C)c2ccccc2c1=O)Nc1ccc(C(=O)NCCCNC(=O)c2ccc(-c3c4nc(c(-c5cccc(S(=O)(=O)[O-])c5F)c5ccc([nH]5)c(-c5cccc(S(=O)(=O)[O-])c5F)c5nc(c(-c6cccc(S(=O)(=O)[O-])c6F)c6ccc3[nH]6)C=C5)C=C4)cc2)cc1
REMARK SMILES IDX 27 1 26 2 24 3 25 4 23 6 20 7 21 8 97 9 22 10 96 11 19 12
REMARK SMILES IDX 2 14 1 15 3 16 4 17 5 18 6 19 7 20 17 21 9 22 16 23 18 24
REMARK SMILES IDX 10 25 11 26 15 27 12 28 14 29 13 30 8 31 28 33 29 34 30 35
REMARK SMILES IDX 31 36 32 38 33 39 34 40 95 41 35 42 94 43 36 44 37 45 38 46
REMARK SMILES IDX 88 47 39 48 93 49 87 50 89 51 40 52 92 53 86 54 85 55 41 57
REMARK SMILES IDX 73 58 53 59 72 60 54 61 57 62 71 63 90 64 55 65 56 66 70 68
REMARK SMILES IDX 91 69 58 70 42 71 43 72 51 73 44 74 46 75 52 76 45 77 47 78
REMARK SMILES IDX 48 79 49 80 50 81 74 82 75 83 83 84 76 85 78 86 84 87 77 88
REMARK SMILES IDX 79 89 80 90 81 91 82 92 59 93 60 94 68 95 61 96 63 97 69 98
REMARK SMILES IDX 62 99 64 100 65 101 66 102 67 103
REMARK H PARENT 26 5 19 13 8 32 30 37 89 56 57 67
REMARK Flexibility Score: inf
ROOT
ATOM      1  C   UNL A   1      30.575  30.833  25.096  1.00  0.00     0.118 C 
ENDROOT
BRANCH   1   2
ATOM      2  N   UNL A   1      30.080  30.776  23.733  1.00  0.00    -0.352 N 
ATOM      3  C   UNL A   1      29.682  29.812  22.854  1.00  0.00     0.251 C 
ATOM      4  O   UNL A   1      29.294  30.240  21.760  1.00  0.00    -0.269 OA
ATOM      5  H   UNL A   1      30.013  31.675  23.336  1.00  0.00     0.163 HD
BRANCH   3   6
ATOM      6  C   UNL A   1      29.685  28.336  23.075  1.00  0.00     0.039 A 
ATOM      7  C   UNL A   1      30.078  25.548  23.575  1.00  0.00     0.038 A 
ATOM      8  C   UNL A   1      31.043  26.304  22.918  1.00  0.00     0.027 A 
ATOM      9  C   UNL A   1      28.873  26.185  23.887  1.00  0.00     0.027 A 
ATOM     10  C   UNL A   1      30.862  27.673  22.692  1.00  0.00     0.016 A 
ATOM     11  C   UNL A   1      28.678  27.554  23.636  1.00  0.00     0.016 A 
BRANCH   7  12
ATOM     12  N   UNL A   1      30.295  24.237  24.048  1.00  0.00    -0.359 N 
ATOM     13  H   UNL A   1      29.870  23.514  23.533  1.00  0.00     0.166 HD
BRANCH  12  14
ATOM     14  C   UNL A   1      31.045  23.838  25.168  1.00  0.00     0.016 C 
ATOM     15  C   UNL A   1      30.337  23.796  26.503  1.00  0.00     0.064 C 
ATOM     16  C   UNL A   1      32.339  23.479  24.998  1.00  0.00     0.074 C 
BRANCH  16  17
ATOM     17  C   UNL A   1      33.374  22.872  25.903  1.00  0.00     0.196 C 
ATOM     18  O   UNL A   1      33.905  23.574  26.759  1.00  0.00    -0.289 OA
BRANCH  17  19
ATOM     19  C   UNL A   1      33.846  21.498  25.660  1.00  0.00     0.130 A 
ATOM     20  C   UNL A   1      35.166  21.222  25.639  1.00  0.00     0.206 A 
ATOM     21  C   UNL A   1      32.885  20.444  25.268  1.00  0.00     0.204 A 
ATOM     22  N   UNL A   1      35.688  20.028  25.148  1.00  0.00    -0.315 N 
ATOM     23  C   UNL A   1      33.433  19.123  24.892  1.00  0.00     0.047 A 
ATOM     24  O   UNL A   1      31.679  20.662  25.205  1.00  0.00    -0.288 OA
ATOM     25  C   UNL A   1      37.104  19.895  24.784  1.00  0.00     0.153 C 
ATOM     26  C   UNL A   1      34.828  18.952  24.817  1.00  0.00     0.055 A 
ATOM     27  C   UNL A   1      32.543  18.087  24.566  1.00  0.00     0.014 A 
ATOM     28  C   UNL A   1      35.293  17.690  24.406  1.00  0.00     0.027 A 
ATOM     29  C   UNL A   1      33.035  16.851  24.160  1.00  0.00     0.001 A 
ATOM     30  C   UNL A   1      34.409  16.654  24.079  1.00  0.00     0.002 A 
BRANCH  20  31
ATOM     31  O   UNL A   1      36.108  22.155  26.037  1.00  0.00    -0.494 OA
ATOM     32  H   UNL A   1      36.723  22.494  25.416  1.00  0.00     0.295 HD
ENDBRANCH  20  31
ENDBRANCH  17  19
ENDBRANCH  16  17
ENDBRANCH  12  14
ENDBRANCH   7  12
ENDBRANCH   3   6
ENDBRANCH   1   2
BRANCH   1  33
ATOM     33  C   UNL A   1      31.756  29.893  25.307  1.00  0.00     0.042 C 
BRANCH  33  34
ATOM     34  C   UNL A   1      32.605  30.266  26.519  1.00  0.00     0.118 C 
BRANCH  34  35
ATOM     35  N   UNL A   1      32.564  31.696  26.811  1.00  0.00    -0.352 N 
ATOM     36  C   UNL A   1      33.396  32.488  27.571  1.00  0.00     0.251 C 
ATOM     37  H   UNL A   1      31.812  32.176  26.393  1.00  0.00     0.163 HD
ATOM     38  O   UNL A   1      33.030  33.613  27.886  1.00  0.00    -0.269 OA
BRANCH  36  39
ATOM     39  C   UNL A   1      34.705  31.972  28.027  1.00  0.00     0.039 A 
ATOM     40  C   UNL A   1      34.844  30.641  28.413  1.00  0.00     0.014 A 
ATOM     41  C   UNL A   1      35.812  32.823  28.063  1.00  0.00     0.014 A 
ATOM     42  C   UNL A   1      36.008  30.223  29.041  1.00  0.00     0.010 A 
ATOM     43  C   UNL A   1      37.028  32.363  28.582  1.00  0.00     0.010 A 
ATOM     44  C   UNL A   1      37.119  31.075  29.133  1.00  0.00    -0.014 A 
BRANCH  44  45
ATOM     45  C   UNL A   1      38.353  30.583  29.800  1.00  0.00     0.031 A 
ATOM     46  C   UNL A   1      38.681  30.973  31.217  1.00  0.00     0.074 A 
ATOM     47  C   UNL A   1      39.153  29.721  29.140  1.00  0.00     0.049 A 
ATOM     48  N   UNL A   1      39.699  30.605  31.953  1.00  0.00    -0.248 NA
ATOM     49  C   UNL A   1      37.759  31.896  31.900  1.00  0.00     0.031 C 
ATOM     50  C   UNL A   1      38.952  29.277  27.757  1.00  0.00     0.029 A 
ATOM     51  N   UNL A   1      40.274  29.039  29.544  1.00  0.00    -0.354 N 
ATOM     52  C   UNL A   1      39.568  31.285  33.157  1.00  0.00     0.074 A 
ATOM     53  C   UNL A   1      38.372  32.092  33.060  1.00  0.00     0.031 C 
ATOM     54  C   UNL A   1      39.871  28.350  27.453  1.00  0.00     0.029 A 
ATOM     55  C   UNL A   1      40.769  28.184  28.589  1.00  0.00     0.049 A 
ATOM     56  H   UNL A   1      40.682  29.153  30.433  1.00  0.00     0.167 HD
ATOM     57  C   UNL A   1      40.360  31.228  34.253  1.00  0.00     0.034 A 
ATOM     58  C   UNL A   1      41.834  27.361  28.613  1.00  0.00     0.034 A 
ATOM     59  C   UNL A   1      41.511  30.376  34.376  1.00  0.00     0.049 A 
ATOM     60  C   UNL A   1      42.685  27.301  29.846  1.00  0.00     0.074 A 
ATOM     61  C   UNL A   1      42.349  30.220  35.466  1.00  0.00     0.029 A 
ATOM     62  N   UNL A   1      41.981  29.531  33.384  1.00  0.00    -0.354 N 
ATOM     63  N   UNL A   1      42.510  27.915  30.990  1.00  0.00    -0.248 NA
ATOM     64  C   UNL A   1      43.873  26.439  29.796  1.00  0.00     0.031 C 
ATOM     65  C   UNL A   1      43.329  29.281  35.132  1.00  0.00     0.029 A 
ATOM     66  C   UNL A   1      43.096  28.849  33.836  1.00  0.00     0.049 A 
ATOM     67  H   UNL A   1      41.581  29.430  32.490  1.00  0.00     0.167 HD
ATOM     68  C   UNL A   1      43.563  27.511  31.800  1.00  0.00     0.074 A 
ATOM     69  C   UNL A   1      44.358  26.581  31.024  1.00  0.00     0.031 C 
ATOM     70  C   UNL A   1      43.853  27.896  33.066  1.00  0.00     0.034 A 
BRANCH  57  71
ATOM     71  C   UNL A   1      39.987  32.072  35.441  1.00  0.00     0.023 A 
ATOM     72  C   UNL A   1      40.548  33.356  35.576  1.00  0.00     0.012 A 
ATOM     73  C   UNL A   1      39.018  31.634  36.365  1.00  0.00     0.148 A 
ATOM     74  C   UNL A   1      40.157  34.193  36.622  1.00  0.00     0.002 A 
ATOM     75  C   UNL A   1      38.613  32.485  37.387  1.00  0.00     0.091 A 
ATOM     76  F   UNL A   1      38.511  30.402  36.223  1.00  0.00    -0.205 F 
ATOM     77  C   UNL A   1      39.184  33.761  37.520  1.00  0.00     0.022 A 
BRANCH  75  78
ATOM     78  S   UNL A   1      37.329  32.047  38.566  1.00  0.00     0.127 S 
ATOM     79  O   UNL A   1      36.238  32.928  38.152  1.00  0.00    -0.237 OA
ATOM     80  O   UNL A   1      37.113  30.629  38.271  1.00  0.00    -0.237 OA
ATOM     81  O   UNL A   1      37.882  32.320  39.884  1.00  0.00    -0.744 OA
ENDBRANCH  75  78
ENDBRANCH  57  71
BRANCH  58  82
ATOM     82  C   UNL A   1      42.110  26.503  27.430  1.00  0.00     0.023 A 
ATOM     83  C   UNL A   1      42.868  27.023  26.365  1.00  0.00     0.012 A 
ATOM     84  C   UNL A   1      41.722  25.149  27.408  1.00  0.00     0.148 A 
ATOM     85  C   UNL A   1      43.239  26.208  25.295  1.00  0.00     0.002 A 
ATOM     86  C   UNL A   1      42.135  24.331  26.364  1.00  0.00     0.091 A 
ATOM     87  F   UNL A   1      40.999  24.682  28.434  1.00  0.00    -0.205 F 
ATOM     88  C   UNL A   1      42.885  24.860  25.302  1.00  0.00     0.022 A 
BRANCH  86  89
ATOM     89  S   UNL A   1      41.838  22.560  26.347  1.00  0.00     0.127 S 
ATOM     90  O   UNL A   1      40.378  22.502  26.306  1.00  0.00    -0.237 OA
ATOM     91  O   UNL A   1      42.506  22.159  25.109  1.00  0.00    -0.237 OA
ATOM     92  O   UNL A   1      42.451  22.043  27.562  1.00  0.00    -0.744 OA
ENDBRANCH  86  89
ENDBRANCH  58  82
BRANCH  70  93
ATOM     93  C   UNL A   1      45.081  27.321  33.710  1.00  0.00     0.023 A 
ATOM     94  C   UNL A   1      46.298  28.023  33.617  1.00  0.00     0.012 A 
ATOM     95  C   UNL A   1      45.002  26.161  34.504  1.00  0.00     0.148 A 
ATOM     96  C   UNL A   1      47.424  27.575  34.304  1.00  0.00     0.002 A 
ATOM     97  C   UNL A   1      46.120  25.739  35.212  1.00  0.00     0.091 A 
ATOM     98  F   UNL A   1      43.832  25.509  34.566  1.00  0.00    -0.205 F 
ATOM     99  C   UNL A   1      47.333  26.442  35.110  1.00  0.00     0.022 A 
BRANCH  97 100
ATOM    100  S   UNL A   1      46.083  24.337  36.334  1.00  0.00     0.127 S 
ATOM    101  O   UNL A   1      45.579  23.274  35.464  1.00  0.00    -0.237 OA
ATOM    102  O   UNL A   1      47.491  24.203  36.707  1.00  0.00    -0.237 OA
ATOM    103  O   UNL A   1      45.196  24.715  37.426  1.00  0.00    -0.744 OA
ENDBRANCH  97 100
ENDBRANCH  70  93
ENDBRANCH  44  45
ENDBRANCH  36  39
ENDBRANCH  34  35
ENDBRANCH  33  34
ENDBRANCH   1  33
TORSDOF 18
ENDMDL
MODEL 2
REMARK VINA RESULT:     -13.0      2.269      3.311
REMARK SMILES C/C(=C\C(=O)c1c(O)n(C)c2ccccc2c1=O)Nc1ccc(C(=O)NCCCNC(=O)c2ccc(-c3c4nc(c(-c5cccc(S(=O)(=O)[O-])c5F)c5ccc([nH]5)c(-c5cccc(S(=O)(=O)[O-])c5F)c5nc(c(-c6cccc(S(=O)(=O)[O-])c6F)c6ccc3[nH]6)C=C5)C=C4)cc2)cc1
REMARK SMILES IDX 27 1 26 2 24 3 25 4 23 6 20 7 21 8 97 9 22 10 96 11 19 12
REMARK SMILES IDX 2 14 1 15 3 16 4 17 5 18 6 19 7 20 17 21 9 22 16 23 18 24
REMARK SMILES IDX 10 25 11 26 15 27 12 28 14 29 13 30 8 31 28 33 29 34 30 35
REMARK SMILES IDX 31 36 32 38 33 39 34 40 95 41 35 42 94 43 36 44 37 45 38 46
REMARK SMILES IDX 88 47 39 48 93 49 87 50 89 51 40 52 92 53 86 54 85 55 41 57
REMARK SMILES IDX 73 58 53 59 72 60 54 61 57 62 71 63 90 64 55 65 56 66 70 68
REMARK SMILES IDX 91 69 58 70 42 71 43 72 51 73 44 74 46 75 52 76 45 77 47 78
REMARK SMILES IDX 48 79 49 80 50 81 74 82 75 83 83 84 76 85 78 86 84 87 77 88
REMARK SMILES IDX 79 89 80 90 81 91 82 92 59 93 60 94 68 95 61 96 63 97 69 98
REMARK SMILES IDX 62 99 64 100 65 101 66 102 67 103
REMARK H PARENT 26 5 19 13 8 32 30 37 89 56 57 67
REMARK Flexibility Score: inf
ROOT
ATOM      1  C   UNL A   1      32.572  29.885  25.185  1.00  0.00     0.118 C 
ENDROOT
BRANCH   1   2
ATOM      2  N   UNL A   1      31.301  29.950  24.490  1.00  0.00    -0.352 N 
ATOM      3  C   UNL A   1      30.478  29.086  23.829  1.00  0.00     0.251 C 
ATOM      4  O   UNL A   1      29.436  29.593  23.398  1.00  0.00    -0.269 OA
ATOM      5  H   UNL A   1      30.933  30.863  24.496  1.00  0.00     0.163 HD
BRANCH   3   6
ATOM      6  C   UNL A   1      30.717  27.634  23.573  1.00  0.00     0.039 A 
ATOM      7  C   UNL A   1      30.797  24.802  23.189  1.00  0.00     0.038 A 
ATOM      8  C   UNL A   1      30.076  25.367  24.236  1.00  0.00     0.027 A 
ATOM      9  C   UNL A   1      31.558  25.670  22.399  1.00  0.00     0.027 A 
ATOM     10  C   UNL A   1      30.018  26.753  24.414  1.00  0.00     0.016 A 
ATOM     11  C   UNL A   1      31.523  27.062  22.592  1.00  0.00     0.016 A 
BRANCH   7  12
ATOM     12  N   UNL A   1      30.702  23.447  22.809  1.00  0.00    -0.359 N 
ATOM     13  H   UNL A   1      29.957  23.217  22.208  1.00  0.00     0.166 HD
BRANCH  12  14
ATOM     14  C   UNL A   1      31.542  22.385  23.185  1.00  0.00     0.016 C 
ATOM     15  C   UNL A   1      32.230  21.615  22.082  1.00  0.00     0.064 C 
ATOM     16  C   UNL A   1      31.726  22.128  24.502  1.00  0.00     0.074 C 
BRANCH  16  17
ATOM     17  C   UNL A   1      32.638  21.206  25.260  1.00  0.00     0.196 C 
ATOM     18  O   UNL A   1      32.149  20.361  26.007  1.00  0.00    -0.289 OA
BRANCH  17  19
ATOM     19  C   UNL A   1      34.095  21.418  25.220  1.00  0.00     0.130 A 
ATOM     20  C   UNL A   1      34.923  20.417  24.857  1.00  0.00     0.206 A 
ATOM     21  C   UNL A   1      34.673  22.677  25.741  1.00  0.00     0.204 A 
ATOM     22  N   UNL A   1      36.300  20.455  25.061  1.00  0.00    -0.315 N 
ATOM     23  C   UNL A   1      36.147  22.774  25.815  1.00  0.00     0.047 A 
ATOM     24  O   UNL A   1      33.965  23.592  26.148  1.00  0.00    -0.288 OA
ATOM     25  C   UNL A   1      37.122  19.239  25.016  1.00  0.00     0.153 C 
ATOM     26  C   UNL A   1      36.929  21.648  25.495  1.00  0.00     0.055 A 
ATOM     27  C   UNL A   1      36.727  23.975  26.255  1.00  0.00     0.014 A 
ATOM     28  C   UNL A   1      38.322  21.782  25.629  1.00  0.00     0.027 A 
ATOM     29  C   UNL A   1      38.108  24.073  26.381  1.00  0.00     0.001 A 
ATOM     30  C   UNL A   1      38.905  22.977  26.069  1.00  0.00     0.002 A 
BRANCH  20  31
ATOM     31  O   UNL A   1      34.440  19.235  24.323  1.00  0.00    -0.494 OA
ATOM     32  H   UNL A   1      33.520  19.058  24.332  1.00  0.00     0.295 HD
ENDBRANCH  20  31
ENDBRANCH  17  19
ENDBRANCH  16  17
ENDBRANCH  12  14
ENDBRANCH   7  12
ENDBRANCH   3   6
ENDBRANCH   1   2
BRANCH   1  33
ATOM     33  C   UNL A   1      32.638  28.691  26.131  1.00  0.00     0.042 C 
BRANCH  33  34
ATOM     34  C   UNL A   1      33.632  28.888  27.271  1.00  0.00     0.118 C 
BRANCH  34  35
ATOM     35  N   UNL A   1      33.714  30.280  27.707  1.00  0.00    -0.352 N 
ATOM     36  C   UNL A   1      34.684  30.949  28.420  1.00  0.00     0.251 C 
ATOM     37  H   UNL A   1      32.943  30.835  27.446  1.00  0.00     0.163 HD
ATOM     38  O   UNL A   1      34.430  32.049  28.893  1.00  0.00    -0.269 OA
BRANCH  36  39
ATOM     39  C   UNL A   1      36.009  30.329  28.638  1.00  0.00     0.039 A 
ATOM     40  C   UNL A   1      36.238  29.523  29.751  1.00  0.00     0.014 A 
ATOM     41  C   UNL A   1      37.037  30.547  27.717  1.00  0.00     0.014 A 
ATOM     42  C   UNL A   1      37.531  29.129  30.062  1.00  0.00     0.010 A 
ATOM     43  C   UNL A   1      38.317  30.039  27.969  1.00  0.00     0.010 A 
ATOM     44  C   UNL A   1      38.590  29.377  29.176  1.00  0.00    -0.014 A 
BRANCH  44  45
ATOM     45  C   UNL A   1      39.958  28.923  29.540  1.00  0.00     0.031 A 
ATOM     46  C   UNL A   1      40.719  29.569  30.667  1.00  0.00     0.074 A 
ATOM     47  C   UNL A   1      40.492  27.870  28.888  1.00  0.00     0.049 A 
ATOM     48  N   UNL A   1      41.906  29.270  31.131  1.00  0.00    -0.248 NA
ATOM     49  C   UNL A   1      40.077  30.697  31.363  1.00  0.00     0.031 C 
ATOM     50  C   UNL A   1      39.861  27.165  27.767  1.00  0.00     0.029 A 
ATOM     51  N   UNL A   1      41.666  27.187  29.085  1.00  0.00    -0.354 N 
ATOM     52  C   UNL A   1      42.173  30.198  32.130  1.00  0.00     0.074 A 
ATOM     53  C   UNL A   1      41.025  31.075  32.211  1.00  0.00     0.031 C 
ATOM     54  C   UNL A   1      40.617  26.114  27.425  1.00  0.00     0.029 A 
ATOM     55  C   UNL A   1      41.820  26.107  28.249  1.00  0.00     0.049 A 
ATOM     56  H   UNL A   1      42.333  27.446  29.762  1.00  0.00     0.167 HD
ATOM     57  C   UNL A   1      43.264  30.299  32.924  1.00  0.00     0.034 A 
ATOM     58  C   UNL A   1      42.819  25.211  28.143  1.00  0.00     0.034 A 
ATOM     59  C   UNL A   1      44.375  29.388  32.890  1.00  0.00     0.049 A 
ATOM     60  C   UNL A   1      44.009  25.333  29.046  1.00  0.00     0.074 A 
ATOM     61  C   UNL A   1      45.507  29.387  33.688  1.00  0.00     0.029 A 
ATOM     62  N   UNL A   1      44.493  28.313  32.024  1.00  0.00    -0.354 N 
ATOM     63  N   UNL A   1      44.213  26.187  30.018  1.00  0.00    -0.248 NA
ATOM     64  C   UNL A   1      45.102  24.373  28.844  1.00  0.00     0.031 C 
ATOM     65  C   UNL A   1      46.311  28.311  33.302  1.00  0.00     0.029 A 
ATOM     66  C   UNL A   1      45.677  27.640  32.268  1.00  0.00     0.049 A 
ATOM     67  H   UNL A   1      43.833  28.064  31.338  1.00  0.00     0.167 HD
ATOM     68  C   UNL A   1      45.455  25.866  30.549  1.00  0.00     0.074 A 
ATOM     69  C   UNL A   1      45.947  24.723  29.806  1.00  0.00     0.031 C 
ATOM     70  C   UNL A   1      46.134  26.480  31.548  1.00  0.00     0.034 A 
BRANCH  57  71
ATOM     71  C   UNL A   1      43.299  31.405  33.942  1.00  0.00     0.023 A 
ATOM     72  C   UNL A   1      43.935  32.619  33.619  1.00  0.00     0.012 A 
ATOM     73  C   UNL A   1      42.626  31.277  35.174  1.00  0.00     0.148 A 
ATOM     74  C   UNL A   1      43.911  33.690  34.512  1.00  0.00     0.002 A 
ATOM     75  C   UNL A   1      42.582  32.359  36.046  1.00  0.00     0.091 A 
ATOM     76  F   UNL A   1      42.042  30.107  35.464  1.00  0.00    -0.205 F 
ATOM     77  C   UNL A   1      43.227  33.563  35.719  1.00  0.00     0.022 A 
BRANCH  75  78
ATOM     78  S   UNL A   1      41.685  32.319  37.602  1.00  0.00     0.127 S 
ATOM     79  O   UNL A   1      41.709  33.729  37.991  1.00  0.00    -0.237 OA
ATOM     80  O   UNL A   1      40.372  31.824  37.185  1.00  0.00    -0.237 OA
ATOM     81  O   UNL A   1      42.428  31.422  38.473  1.00  0.00    -0.744 OA
ENDBRANCH  75  78
ENDBRANCH  57  71
BRANCH  58  82
ATOM     82  C   UNL A   1      42.693  24.102  27.160  1.00  0.00     0.023 A 
ATOM     83  C   UNL A   1      43.227  24.263  25.868  1.00  0.00     0.012 A 
ATOM     84  C   UNL A   1      42.149  22.858  27.535  1.00  0.00     0.148 A 
ATOM     85  C   UNL A   1      43.225  23.201  24.964  1.00  0.00     0.002 A 
ATOM     86  C   UNL A   1      42.193  21.791  26.647  1.00  0.00     0.091 A 
ATOM     87  F   UNL A   1      41.646  22.734  28.771  1.00  0.00    -0.205 F 
ATOM     88  C   UNL A   1      42.722  21.962  25.358  1.00  0.00     0.022 A 
BRANCH  86  89
ATOM     89  S   UNL A   1      41.689  20.129  27.105  1.00  0.00     0.127 S 
ATOM     90  O   UNL A   1      40.555  20.395  27.988  1.00  0.00    -0.237 OA
ATOM     91  O   UNL A   1      41.338  19.557  25.805  1.00  0.00    -0.237 OA
ATOM     92  O   UNL A   1      42.849  19.523  27.741  1.00  0.00    -0.744 OA
ENDBRANCH  86  89
ENDBRANCH  58  82
BRANCH  70  93
ATOM     93  C   UNL A   1      47.487  25.940  31.911  1.00  0.00     0.023 A 
ATOM     94  C   UNL A   1      48.618  26.396  31.208  1.00  0.00     0.012 A 
ATOM     95  C   UNL A   1      47.648  25.087  33.020  1.00  0.00     0.148 A 
ATOM     96  C   UNL A   1      49.897  26.005  31.602  1.00  0.00     0.002 A 
ATOM     97  C   UNL A   1      48.927  24.728  33.426  1.00  0.00     0.091 A 
ATOM     98  F   UNL A   1      46.551  24.664  33.663  1.00  0.00    -0.205 F 
ATOM     99  C   UNL A   1      50.052  25.182  32.716  1.00  0.00     0.022 A 
BRANCH  97 100
ATOM    100  S   UNL A   1      49.234  23.734  34.890  1.00  0.00     0.127 S 
ATOM    101  O   UNL A   1      49.153  22.377  34.350  1.00  0.00    -0.237 OA
ATOM    102  O   UNL A   1      50.580  24.159  35.275  1.00  0.00    -0.237 OA
ATOM    103  O   UNL A   1      48.189  24.084  35.843  1.00  0.00    -0.744 OA
ENDBRANCH  97 100
ENDBRANCH  70  93
ENDBRANCH  44  45
ENDBRANCH  36  39
ENDBRANCH  34  35
ENDBRANCH  33  34
ENDBRANCH   1  33
TORSDOF 18
ENDMDL
MODEL 3
REMARK VINA RESULT:     -12.8      5.058     11.046
REMARK SMILES C/C(=C\C(=O)c1c(O)n(C)c2ccccc2c1=O)Nc1ccc(C(=O)NCCCNC(=O)c2ccc(-c3c4nc(c(-c5cccc(S(=O)(=O)[O-])c5F)c5ccc([nH]5)c(-c5cccc(S(=O)(=O)[O-])c5F)c5nc(c(-c6cccc(S(=O)(=O)[O-])c6F)c6ccc3[nH]6)C=C5)C=C4)cc2)cc1
REMARK SMILES IDX 27 1 26 2 24 3 25 4 23 6 20 7 21 8 97 9 22 10 96 11 19 12
REMARK SMILES IDX 2 14 1 15 3 16 4 17 5 18 6 19 7 20 17 21 9 22 16 23 18 24
REMARK SMILES IDX 10 25 11 26 15 27 12 28 14 29 13 30 8 31 28 33 29 34 30 35
REMARK SMILES IDX 31 36 32 38 33 39 34 40 95 41 35 42 94 43 36 44 37 45 38 46
REMARK SMILES IDX 88 47 39 48 93 49 87 50 89 51 40 52 92 53 86 54 85 55 41 57
REMARK SMILES IDX 73 58 53 59 72 60 54 61 57 62 71 63 90 64 55 65 56 66 70 68
REMARK SMILES IDX 91 69 58 70 42 71 43 72 51 73 44 74 46 75 52 76 45 77 47 78
REMARK SMILES IDX 48 79 49 80 50 81 74 82 75 83 83 84 76 85 78 86 84 87 77 88
REMARK SMILES IDX 79 89 80 90 81 91 82 92 59 93 60 94 68 95 61 96 63 97 69 98
REMARK SMILES IDX 62 99 64 100 65 101 66 102 67 103
REMARK H PARENT 26 5 19 13 8 32 30 37 89 56 57 67
REMARK Flexibility Score: inf
ROOT
ATOM      1  C   UNL A   1      36.279  33.836  30.129  1.00  0.00     0.118 C 
ENDROOT
BRANCH   1   2
ATOM      2  N   UNL A   1      36.136  34.438  31.442  1.00  0.00    -0.352 N 
ATOM      3  C   UNL A   1      36.556  34.175  32.713  1.00  0.00     0.251 C 
ATOM      4  O   UNL A   1      36.204  35.009  33.555  1.00  0.00    -0.269 OA
ATOM      5  H   UNL A   1      35.590  35.256  31.405  1.00  0.00     0.163 HD
BRANCH   3   6
ATOM      6  C   UNL A   1      37.362  33.005  33.170  1.00  0.00     0.039 A 
ATOM      7  C   UNL A   1      39.011  30.990  34.351  1.00  0.00     0.038 A 
ATOM      8  C   UNL A   1      39.376  32.331  34.389  1.00  0.00     0.027 A 
ATOM      9  C   UNL A   1      37.861  30.662  33.627  1.00  0.00     0.027 A 
ATOM     10  C   UNL A   1      38.561  33.321  33.830  1.00  0.00     0.016 A 
ATOM     11  C   UNL A   1      37.053  31.653  33.041  1.00  0.00     0.016 A 
BRANCH   7  12
ATOM     12  N   UNL A   1      39.653  29.979  35.098  1.00  0.00    -0.359 N 
ATOM     13  H   UNL A   1      39.265  29.780  35.980  1.00  0.00     0.166 HD
BRANCH  12  14
ATOM     14  C   UNL A   1      40.779  29.222  34.733  1.00  0.00     0.016 C 
ATOM     15  C   UNL A   1      40.718  28.466  33.426  1.00  0.00     0.064 C 
ATOM     16  C   UNL A   1      41.867  29.233  35.538  1.00  0.00     0.074 C 
BRANCH  16  17
ATOM     17  C   UNL A   1      43.262  28.690  35.404  1.00  0.00     0.196 C 
ATOM     18  O   UNL A   1      44.182  29.461  35.146  1.00  0.00    -0.289 OA
BRANCH  17  19
ATOM     19  C   UNL A   1      43.488  27.234  35.433  1.00  0.00     0.130 A 
ATOM     20  C   UNL A   1      43.665  26.593  36.606  1.00  0.00     0.206 A 
ATOM     21  C   UNL A   1      43.694  26.493  34.169  1.00  0.00     0.204 A 
ATOM     22  N   UNL A   1      44.154  25.292  36.697  1.00  0.00    -0.315 N 
ATOM     23  C   UNL A   1      44.066  25.065  34.266  1.00  0.00     0.047 A 
ATOM     24  O   UNL A   1      43.613  27.046  33.077  1.00  0.00    -0.288 OA
ATOM     25  C   UNL A   1      44.691  24.754  37.954  1.00  0.00     0.153 C 
ATOM     26  C   UNL A   1      44.312  24.501  35.532  1.00  0.00     0.055 A 
ATOM     27  C   UNL A   1      44.217  24.322  33.084  1.00  0.00     0.014 A 
ATOM     28  C   UNL A   1      44.710  23.154  35.562  1.00  0.00     0.027 A 
ATOM     29  C   UNL A   1      44.615  22.991  33.148  1.00  0.00     0.001 A 
ATOM     30  C   UNL A   1      44.863  22.408  34.385  1.00  0.00     0.002 A 
BRANCH  20  31
ATOM     31  O   UNL A   1      43.445  27.224  37.818  1.00  0.00    -0.494 OA
ATOM     32  H   UNL A   1      44.143  27.307  38.437  1.00  0.00     0.295 HD
ENDBRANCH  20  31
ENDBRANCH  17  19
ENDBRANCH  16  17
ENDBRANCH  12  14
ENDBRANCH   7  12
ENDBRANCH   3   6
ENDBRANCH   1   2
BRANCH   1  33
ATOM     33  C   UNL A   1      34.932  33.425  29.546  1.00  0.00     0.042 C 
BRANCH  33  34
ATOM     34  C   UNL A   1      35.027  32.963  28.095  1.00  0.00     0.118 C 
BRANCH  34  35
ATOM     35  N   UNL A   1      34.223  31.773  27.834  1.00  0.00    -0.352 N 
ATOM     36  C   UNL A   1      34.580  30.448  27.713  1.00  0.00     0.251 C 
ATOM     37  H   UNL A   1      33.260  31.948  27.724  1.00  0.00     0.163 HD
ATOM     38  O   UNL A   1      33.779  29.652  27.241  1.00  0.00    -0.269 OA
BRANCH  36  39
ATOM     39  C   UNL A   1      35.929  30.000  28.123  1.00  0.00     0.039 A 
ATOM     40  C   UNL A   1      36.160  29.546  29.419  1.00  0.00     0.014 A 
ATOM     41  C   UNL A   1      36.978  30.026  27.199  1.00  0.00     0.014 A 
ATOM     42  C   UNL A   1      37.460  29.338  29.854  1.00  0.00     0.010 A 
ATOM     43  C   UNL A   1      38.274  29.693  27.609  1.00  0.00     0.010 A 
ATOM     44  C   UNL A   1      38.537  29.405  28.957  1.00  0.00    -0.014 A 
BRANCH  44  45
ATOM     45  C   UNL A   1      39.914  29.159  29.462  1.00  0.00     0.031 A 
ATOM     46  C   UNL A   1      40.648  27.885  29.134  1.00  0.00     0.074 A 
ATOM     47  C   UNL A   1      40.533  30.127  30.168  1.00  0.00     0.049 A 
ATOM     48  N   UNL A   1      41.863  27.531  29.469  1.00  0.00    -0.248 NA
ATOM     49  C   UNL A   1      39.934  26.874  28.336  1.00  0.00     0.031 C 
ATOM     50  C   UNL A   1      39.924  31.401  30.564  1.00  0.00     0.029 A 
ATOM     51  N   UNL A   1      41.814  30.210  30.654  1.00  0.00    -0.354 N 
ATOM     52  C   UNL A   1      42.040  26.247  28.970  1.00  0.00     0.074 A 
ATOM     53  C   UNL A   1      40.809  25.877  28.308  1.00  0.00     0.031 C 
ATOM     54  C   UNL A   1      40.847  32.162  31.167  1.00  0.00     0.029 A 
ATOM     55  C   UNL A   1      42.091  31.409  31.267  1.00  0.00     0.049 A 
ATOM     56  H   UNL A   1      42.470  29.481  30.572  1.00  0.00     0.167 HD
ATOM     57  C   UNL A   1      43.135  25.454  29.038  1.00  0.00     0.034 A 
ATOM     58  C   UNL A   1      43.216  31.857  31.855  1.00  0.00     0.034 A 
ATOM     59  C   UNL A   1      44.381  25.847  29.638  1.00  0.00     0.049 A 
ATOM     60  C   UNL A   1      44.421  30.968  31.901  1.00  0.00     0.074 A 
ATOM     61  C   UNL A   1      45.559  25.125  29.716  1.00  0.00     0.029 A 
ATOM     62  N   UNL A   1      44.616  27.066  30.251  1.00  0.00    -0.354 N 
ATOM     63  N   UNL A   1      44.580  29.778  31.377  1.00  0.00    -0.248 NA
ATOM     64  C   UNL A   1      45.600  31.478  32.615  1.00  0.00     0.031 C 
ATOM     65  C   UNL A   1      46.507  25.908  30.379  1.00  0.00     0.029 A 
ATOM     66  C   UNL A   1      45.921  27.119  30.709  1.00  0.00     0.049 A 
ATOM     67  H   UNL A   1      43.954  27.789  30.347  1.00  0.00     0.167 HD
ATOM     68  C   UNL A   1      45.877  29.396  31.691  1.00  0.00     0.074 A 
ATOM     69  C   UNL A   1      46.470  30.492  32.431  1.00  0.00     0.031 C 
ATOM     70  C   UNL A   1      46.509  28.232  31.408  1.00  0.00     0.034 A 
BRANCH  57  71
ATOM     71  C   UNL A   1      43.064  24.093  28.404  1.00  0.00     0.023 A 
ATOM     72  C   UNL A   1      42.316  23.079  29.033  1.00  0.00     0.012 A 
ATOM     73  C   UNL A   1      43.654  23.846  27.149  1.00  0.00     0.148 A 
ATOM     74  C   UNL A   1      42.165  21.831  28.426  1.00  0.00     0.002 A 
ATOM     75  C   UNL A   1      43.475  22.611  26.538  1.00  0.00     0.091 A 
ATOM     76  F   UNL A   1      44.373  24.823  26.579  1.00  0.00    -0.205 F 
ATOM     77  C   UNL A   1      42.735  21.602  27.176  1.00  0.00     0.022 A 
BRANCH  75  78
ATOM     78  S   UNL A   1      44.122  22.229  24.906  1.00  0.00     0.127 S 
ATOM     79  O   UNL A   1      43.314  23.104  24.057  1.00  0.00    -0.237 OA
ATOM     80  O   UNL A   1      45.525  22.628  25.032  1.00  0.00    -0.237 OA
ATOM     81  O   UNL A   1      43.907  20.803  24.710  1.00  0.00    -0.744 OA
ENDBRANCH  75  78
ENDBRANCH  57  71
BRANCH  58  82
ATOM     82  C   UNL A   1      43.241  33.239  32.405  1.00  0.00     0.023 A 
ATOM     83  C   UNL A   1      43.459  34.322  31.534  1.00  0.00     0.012 A 
ATOM     84  C   UNL A   1      42.942  33.488  33.759  1.00  0.00     0.148 A 
ATOM     85  C   UNL A   1      43.375  35.634  32.001  1.00  0.00     0.002 A 
ATOM     86  C   UNL A   1      42.812  34.796  34.206  1.00  0.00     0.091 A 
ATOM     87  F   UNL A   1      42.742  32.437  34.566  1.00  0.00    -0.205 F 
ATOM     88  C   UNL A   1      43.037  35.871  33.332  1.00  0.00     0.022 A 
BRANCH  86  89
ATOM     89  S   UNL A   1      42.258  35.201  35.866  1.00  0.00     0.127 S 
ATOM     90  O   UNL A   1      43.524  35.465  36.547  1.00  0.00    -0.237 OA
ATOM     91  O   UNL A   1      41.430  36.382  35.623  1.00  0.00    -0.237 OA
ATOM     92  O   UNL A   1      41.526  34.033  36.337  1.00  0.00    -0.744 OA
ENDBRANCH  86  89
ENDBRANCH  58  82
BRANCH  70  93
ATOM     93  C   UNL A   1      47.919  28.064  31.893  1.00  0.00     0.023 A 
ATOM     94  C   UNL A   1      48.979  28.550  31.104  1.00  0.00     0.012 A 
ATOM     95  C   UNL A   1      48.184  27.543  33.174  1.00  0.00     0.148 A 
ATOM     96  C   UNL A   1      50.287  28.517  31.582  1.00  0.00     0.002 A 
ATOM     97  C   UNL A   1      49.486  27.543  33.658  1.00  0.00     0.091 A 
ATOM     98  F   UNL A   1      47.156  27.080  33.899  1.00  0.00    -0.205 F 
ATOM     99  C   UNL A   1      50.539  28.025  32.861  1.00  0.00     0.022 A 
BRANCH  97 100
ATOM    100  S   UNL A   1      49.903  27.000  35.318  1.00  0.00     0.127 S 
ATOM    101  O   UNL A   1      49.062  27.874  36.136  1.00  0.00    -0.237 OA
ATOM    102  O   UNL A   1      49.489  25.597  35.297  1.00  0.00    -0.237 OA
ATOM    103  O   UNL A   1      51.337  27.210  35.464  1.00  0.00    -0.744 OA
ENDBRANCH  97 100
ENDBRANCH  70  93
ENDBRANCH  44  45
ENDBRANCH  36  39
ENDBRANCH  34  35
ENDBRANCH  33  34
ENDBRANCH   1  33
TORSDOF 18
ENDMDL
