MODEL 1
REMARK VINA RESULT:     -13.1      0.000      0.000
REMARK SMILES C[C@H]1CCCC[C@H]1[N@H+]1[C@@H](C(=O)NCCCNC(=O)c2ccc(-c3c4nc(c(-c5cccc(S(=O)(=O)[O-])c5F)c5ccc([nH]5)c(-c5cccc(S(=O)(=O)[O-])c5F)c5nc(c(-c6cccc(S(=O)(=O)[O-])c6F)c6ccc3[nH]6)C=C5)C=C4)cc2)CC[C@@H]2CCCC[C@@H]21
REMARK SMILES IDX 15 1 14 2 13 3 12 4 10 5 11 6 9 8 8 9 89 10 82 12 84 13
REMARK SMILES IDX 88 14 83 15 85 16 87 17 86 18 7 19 1 20 2 21 3 22 4 23 6 24
REMARK SMILES IDX 5 25 16 26 17 27 18 29 19 30 20 31 81 32 21 33 80 34 22 35
REMARK SMILES IDX 23 36 24 37 74 38 25 39 79 40 73 41 75 42 26 43 78 44 72 45
REMARK SMILES IDX 71 46 27 48 59 49 39 50 58 51 40 52 43 53 57 54 76 55 41 56
REMARK SMILES IDX 42 57 56 59 77 60 44 61 28 62 29 63 37 64 30 65 32 66 38 67
REMARK SMILES IDX 31 68 33 69 34 70 35 71 36 72 60 73 61 74 69 75 62 76 64 77
REMARK SMILES IDX 70 78 63 79 65 80 66 81 67 82 68 83 45 84 46 85 54 86 47 87
REMARK SMILES IDX 49 88 55 89 48 90 50 91 51 92 52 93 53 94
REMARK H PARENT 12 7 8 11 16 28 75 47 43 58
REMARK Flexibility Score: inf
ROOT
ATOM      1  C   UNL A   1      32.582  29.091  25.498  1.00  0.00     0.118 C 
ENDROOT
BRANCH   1   2
ATOM      2  C   UNL A   1      33.530  29.083  24.304  1.00  0.00     0.042 C 
BRANCH   2   3
ATOM      3  C   UNL A   1      32.851  28.810  22.967  1.00  0.00     0.118 C 
BRANCH   3   4
ATOM      4  N   UNL A   1      33.454  27.729  22.189  1.00  0.00    -0.351 N 
ATOM      5  C   UNL A   1      33.107  26.401  22.090  1.00  0.00     0.278 C 
ATOM      6  O   UNL A   1      33.547  25.764  21.128  1.00  0.00    -0.268 OA
ATOM      7  H   UNL A   1      34.232  27.995  21.648  1.00  0.00     0.163 HD
BRANCH   5   8
ATOM      8  C   UNL A   1      32.118  25.793  23.073  1.00  0.00     0.274 C 
ATOM      9  N   UNL A   1      32.280  24.410  23.608  1.00  0.00    -0.319 N 
ATOM     10  C   UNL A   1      31.054  23.990  24.370  1.00  0.00     0.188 C 
ATOM     11  H   UNL A   1      33.089  24.574  24.207  1.00  0.00     0.349 HD
ATOM     12  C   UNL A   1      30.669  26.126  22.703  1.00  0.00     0.076 C 
ATOM     13  C   UNL A   1      30.334  25.191  25.048  1.00  0.00     0.048 C 
ATOM     14  C   UNL A   1      31.217  22.892  25.454  1.00  0.00     0.065 C 
ATOM     15  C   UNL A   1      29.843  26.201  23.992  1.00  0.00     0.016 C 
ATOM     16  C   UNL A   1      31.199  25.815  26.177  1.00  0.00     0.010 C 
ATOM     17  C   UNL A   1      31.460  23.418  26.872  1.00  0.00     0.006 C 
ATOM     18  C   UNL A   1      32.113  24.788  26.858  1.00  0.00     0.001 C 
BRANCH   9  19
ATOM     19  C   UNL A   1      33.029  23.322  22.928  1.00  0.00     0.187 C 
ATOM     20  C   UNL A   1      35.506  23.698  23.765  1.00  0.00     0.014 C 
ATOM     21  C   UNL A   1      34.357  22.733  23.486  1.00  0.00     0.044 C 
ATOM     22  C   UNL A   1      34.085  21.830  24.679  1.00  0.00     0.009 C 
ATOM     23  C   UNL A   1      33.285  20.603  24.259  1.00  0.00     0.001 C 
ATOM     24  C   UNL A   1      32.202  22.118  22.404  1.00  0.00     0.065 C 
ATOM     25  C   UNL A   1      32.176  20.826  23.230  1.00  0.00     0.006 C 
ENDBRANCH   9  19
ENDBRANCH   5   8
ENDBRANCH   3   4
ENDBRANCH   2   3
ENDBRANCH   1   2
BRANCH   1  26
ATOM     26  N   UNL A   1      32.220  30.442  25.914  1.00  0.00    -0.352 N 
ATOM     27  C   UNL A   1      32.767  31.268  26.865  1.00  0.00     0.251 C 
ATOM     28  H   UNL A   1      31.455  30.827  25.429  1.00  0.00     0.163 HD
ATOM     29  O   UNL A   1      32.165  32.294  27.178  1.00  0.00    -0.269 OA
BRANCH  27  30
ATOM     30  C   UNL A   1      34.052  30.942  27.527  1.00  0.00     0.039 A 
ATOM     31  C   UNL A   1      34.998  31.959  27.696  1.00  0.00     0.014 A 
ATOM     32  C   UNL A   1      34.357  29.642  27.937  1.00  0.00     0.014 A 
ATOM     33  C   UNL A   1      36.214  31.688  28.332  1.00  0.00     0.010 A 
ATOM     34  C   UNL A   1      35.534  29.390  28.642  1.00  0.00     0.010 A 
ATOM     35  C   UNL A   1      36.478  30.408  28.847  1.00  0.00    -0.014 A 
BRANCH  35  36
ATOM     36  C   UNL A   1      37.718  30.126  29.620  1.00  0.00     0.031 A 
ATOM     37  C   UNL A   1      38.766  29.188  29.080  1.00  0.00     0.074 A 
ATOM     38  C   UNL A   1      37.866  30.651  30.854  1.00  0.00     0.049 A 
ATOM     39  N   UNL A   1      39.876  28.780  29.640  1.00  0.00    -0.248 NA
ATOM     40  C   UNL A   1      38.524  28.614  27.746  1.00  0.00     0.031 C 
ATOM     41  C   UNL A   1      36.895  31.518  31.525  1.00  0.00     0.029 A 
ATOM     42  N   UNL A   1      38.874  30.509  31.776  1.00  0.00    -0.354 N 
ATOM     43  C   UNL A   1      40.446  27.878  28.749  1.00  0.00     0.074 A 
ATOM     44  C   UNL A   1      39.544  27.775  27.622  1.00  0.00     0.031 C 
ATOM     45  C   UNL A   1      37.354  31.833  32.745  1.00  0.00     0.029 A 
ATOM     46  C   UNL A   1      38.632  31.163  32.962  1.00  0.00     0.049 A 
ATOM     47  H   UNL A   1      39.693  29.990  31.603  1.00  0.00     0.167 HD
ATOM     48  C   UNL A   1      41.624  27.216  28.845  1.00  0.00     0.034 A 
ATOM     49  C   UNL A   1      39.348  31.207  34.104  1.00  0.00     0.034 A 
ATOM     50  C   UNL A   1      42.536  27.342  29.952  1.00  0.00     0.049 A 
ATOM     51  C   UNL A   1      40.661  30.477  34.177  1.00  0.00     0.074 A 
ATOM     52  C   UNL A   1      43.791  26.777  30.100  1.00  0.00     0.029 A 
ATOM     53  N   UNL A   1      42.289  28.071  31.104  1.00  0.00    -0.354 N 
ATOM     54  N   UNL A   1      41.255  29.752  33.260  1.00  0.00    -0.248 NA
ATOM     55  C   UNL A   1      41.420  30.597  35.431  1.00  0.00     0.031 C 
ATOM     56  C   UNL A   1      44.287  27.133  31.358  1.00  0.00     0.029 A 
ATOM     57  C   UNL A   1      43.359  27.957  31.976  1.00  0.00     0.049 A 
ATOM     58  H   UNL A   1      41.472  28.593  31.278  1.00  0.00     0.167 HD
ATOM     59  C   UNL A   1      42.471  29.364  33.810  1.00  0.00     0.074 A 
ATOM     60  C   UNL A   1      42.538  29.950  35.132  1.00  0.00     0.031 C 
ATOM     61  C   UNL A   1      43.440  28.582  33.272  1.00  0.00     0.034 A 
BRANCH  48  62
ATOM     62  C   UNL A   1      42.020  26.316  27.700  1.00  0.00     0.023 A 
ATOM     63  C   UNL A   1      42.830  26.821  26.662  1.00  0.00     0.012 A 
ATOM     64  C   UNL A   1      41.644  24.959  27.682  1.00  0.00     0.148 A 
ATOM     65  C   UNL A   1      43.228  26.003  25.607  1.00  0.00     0.002 A 
ATOM     66  C   UNL A   1      42.084  24.136  26.651  1.00  0.00     0.091 A 
ATOM     67  F   UNL A   1      40.860  24.499  28.667  1.00  0.00    -0.205 F 
ATOM     68  C   UNL A   1      42.863  24.660  25.606  1.00  0.00     0.022 A 
BRANCH  66  69
ATOM     69  S   UNL A   1      41.740  22.373  26.601  1.00  0.00     0.127 S 
ATOM     70  O   UNL A   1      40.280  22.360  26.526  1.00  0.00    -0.237 OA
ATOM     71  O   UNL A   1      42.417  21.964  25.369  1.00  0.00    -0.237 OA
ATOM     72  O   UNL A   1      42.308  21.817  27.820  1.00  0.00    -0.744 OA
ENDBRANCH  66  69
ENDBRANCH  48  62
BRANCH  49  73
ATOM     73  C   UNL A   1      38.861  32.016  35.258  1.00  0.00     0.023 A 
ATOM     74  C   UNL A   1      38.947  33.421  35.204  1.00  0.00     0.012 A 
ATOM     75  C   UNL A   1      38.297  31.406  36.394  1.00  0.00     0.148 A 
ATOM     76  C   UNL A   1      38.515  34.201  36.276  1.00  0.00     0.002 A 
ATOM     77  C   UNL A   1      37.815  32.191  37.434  1.00  0.00     0.091 A 
ATOM     78  F   UNL A   1      38.233  30.067  36.429  1.00  0.00    -0.205 F 
ATOM     79  C   UNL A   1      37.940  33.588  37.386  1.00  0.00     0.022 A 
BRANCH  77  80
ATOM     80  S   UNL A   1      36.944  31.496  38.842  1.00  0.00     0.127 S 
ATOM     81  O   UNL A   1      37.905  31.707  39.923  1.00  0.00    -0.237 OA
ATOM     82  O   UNL A   1      35.751  32.344  38.905  1.00  0.00    -0.237 OA
ATOM     83  O   UNL A   1      36.677  30.108  38.497  1.00  0.00    -0.744 OA
ENDBRANCH  77  80
ENDBRANCH  49  73
BRANCH  61  84
ATOM     84  C   UNL A   1      44.685  28.346  34.089  1.00  0.00     0.023 A 
ATOM     85  C   UNL A   1      45.766  29.246  34.005  1.00  0.00     0.012 A 
ATOM     86  C   UNL A   1      44.753  27.268  34.995  1.00  0.00     0.148 A 
ATOM     87  C   UNL A   1      46.910  29.056  34.779  1.00  0.00     0.002 A 
ATOM     88  C   UNL A   1      45.873  27.115  35.802  1.00  0.00     0.091 A 
ATOM     89  F   UNL A   1      43.722  26.413  35.049  1.00  0.00    -0.205 F 
ATOM     90  C   UNL A   1      46.958  27.999  35.687  1.00  0.00     0.022 A 
BRANCH  88  91
ATOM     91  S   UNL A   1      45.984  25.844  37.067  1.00  0.00     0.127 S 
ATOM     92  O   UNL A   1      45.977  24.623  36.264  1.00  0.00    -0.237 OA
ATOM     93  O   UNL A   1      47.269  26.150  37.700  1.00  0.00    -0.237 OA
ATOM     94  O   UNL A   1      44.825  26.032  37.930  1.00  0.00    -0.744 OA
ENDBRANCH  88  91
ENDBRANCH  61  84
ENDBRANCH  35  36
ENDBRANCH  27  30
ENDBRANCH   1  26
TORSDOF 14
ENDMDL
MODEL 2
REMARK VINA RESULT:     -13.1      2.211      7.827
REMARK SMILES C[C@H]1CCCC[C@H]1[N@H+]1[C@@H](C(=O)NCCCNC(=O)c2ccc(-c3c4nc(c(-c5cccc(S(=O)(=O)[O-])c5F)c5ccc([nH]5)c(-c5cccc(S(=O)(=O)[O-])c5F)c5nc(c(-c6cccc(S(=O)(=O)[O-])c6F)c6ccc3[nH]6)C=C5)C=C4)cc2)CC[C@@H]2CCCC[C@@H]21
REMARK SMILES IDX 15 1 14 2 13 3 12 4 10 5 11 6 9 8 8 9 89 10 82 12 84 13
REMARK SMILES IDX 88 14 83 15 85 16 87 17 86 18 7 19 1 20 2 21 3 22 4 23 6 24
REMARK SMILES IDX 5 25 16 26 17 27 18 29 19 30 20 31 81 32 21 33 80 34 22 35
REMARK SMILES IDX 23 36 24 37 74 38 25 39 79 40 73 41 75 42 26 43 78 44 72 45
REMARK SMILES IDX 71 46 27 48 59 49 39 50 58 51 40 52 43 53 57 54 76 55 41 56
REMARK SMILES IDX 42 57 56 59 77 60 44 61 28 62 29 63 37 64 30 65 32 66 38 67
REMARK SMILES IDX 31 68 33 69 34 70 35 71 36 72 60 73 61 74 69 75 62 76 64 77
REMARK SMILES IDX 70 78 63 79 65 80 66 81 67 82 68 83 45 84 46 85 54 86 47 87
REMARK SMILES IDX 49 88 55 89 48 90 50 91 51 92 52 93 53 94
REMARK H PARENT 12 7 8 11 16 28 75 47 43 58
REMARK Flexibility Score: inf
ROOT
ATOM      1  C   UNL A   1      33.352  28.658  27.064  1.00  0.00     0.118 C 
ENDROOT
BRANCH   1   2
ATOM      2  C   UNL A   1      34.055  28.043  25.859  1.00  0.00     0.042 C 
BRANCH   2   3
ATOM      3  C   UNL A   1      33.700  28.692  24.527  1.00  0.00     0.118 C 
BRANCH   3   4
ATOM      4  N   UNL A   1      34.116  27.932  23.350  1.00  0.00    -0.351 N 
ATOM      5  C   UNL A   1      33.487  26.905  22.683  1.00  0.00     0.278 C 
ATOM      6  O   UNL A   1      33.866  26.651  21.536  1.00  0.00    -0.268 OA
ATOM      7  H   UNL A   1      34.986  28.197  22.975  1.00  0.00     0.163 HD
BRANCH   5   8
ATOM      8  C   UNL A   1      32.289  26.207  23.308  1.00  0.00     0.274 C 
ATOM      9  N   UNL A   1      32.330  24.773  23.715  1.00  0.00    -0.319 N 
ATOM     10  C   UNL A   1      30.957  24.288  24.087  1.00  0.00     0.188 C 
ATOM     11  H   UNL A   1      32.955  24.861  24.516  1.00  0.00     0.349 HD
ATOM     12  C   UNL A   1      30.978  26.596  22.616  1.00  0.00     0.076 C 
ATOM     13  C   UNL A   1      30.068  25.418  24.683  1.00  0.00     0.048 C 
ATOM     14  C   UNL A   1      30.853  23.078  25.052  1.00  0.00     0.065 C 
ATOM     15  C   UNL A   1      29.847  26.541  23.650  1.00  0.00     0.016 C 
ATOM     16  C   UNL A   1      30.604  25.906  26.056  1.00  0.00     0.010 C 
ATOM     17  C   UNL A   1      30.717  23.445  26.533  1.00  0.00     0.006 C 
ATOM     18  C   UNL A   1      31.329  24.800  26.834  1.00  0.00     0.001 C 
BRANCH   9  19
ATOM     19  C   UNL A   1      33.246  23.756  23.137  1.00  0.00     0.187 C 
ATOM     20  C   UNL A   1      35.463  24.096  24.533  1.00  0.00     0.014 C 
ATOM     21  C   UNL A   1      34.436  23.142  23.930  1.00  0.00     0.044 C 
ATOM     22  C   UNL A   1      33.935  22.139  24.959  1.00  0.00     0.009 C 
ATOM     23  C   UNL A   1      33.288  20.939  24.278  1.00  0.00     0.001 C 
ATOM     24  C   UNL A   1      32.595  22.587  22.350  1.00  0.00     0.065 C 
ATOM     25  C   UNL A   1      32.429  21.231  23.047  1.00  0.00     0.006 C 
ENDBRANCH   9  19
ENDBRANCH   5   8
ENDBRANCH   3   4
ENDBRANCH   2   3
ENDBRANCH   1   2
BRANCH   1  26
ATOM     26  N   UNL A   1      33.522  30.105  27.131  1.00  0.00    -0.352 N 
ATOM     27  C   UNL A   1      34.524  30.870  27.677  1.00  0.00     0.251 C 
ATOM     28  H   UNL A   1      32.796  30.622  26.712  1.00  0.00     0.163 HD
ATOM     29  O   UNL A   1      34.352  32.083  27.787  1.00  0.00    -0.269 OA
BRANCH  27  30
ATOM     30  C   UNL A   1      35.793  30.263  28.144  1.00  0.00     0.039 A 
ATOM     31  C   UNL A   1      36.888  30.242  27.273  1.00  0.00     0.014 A 
ATOM     32  C   UNL A   1      35.904  29.673  29.405  1.00  0.00     0.014 A 
ATOM     33  C   UNL A   1      38.105  29.692  27.690  1.00  0.00     0.010 A 
ATOM     34  C   UNL A   1      37.139  29.199  29.848  1.00  0.00     0.010 A 
ATOM     35  C   UNL A   1      38.253  29.200  28.996  1.00  0.00    -0.014 A 
BRANCH  35  36
ATOM     36  C   UNL A   1      39.568  28.709  29.493  1.00  0.00     0.031 A 
ATOM     37  C   UNL A   1      40.293  29.432  30.598  1.00  0.00     0.074 A 
ATOM     38  C   UNL A   1      40.154  27.655  28.890  1.00  0.00     0.049 A 
ATOM     39  N   UNL A   1      41.470  29.184  31.113  1.00  0.00    -0.248 NA
ATOM     40  C   UNL A   1      39.620  30.602  31.184  1.00  0.00     0.031 C 
ATOM     41  C   UNL A   1      39.593  26.907  27.762  1.00  0.00     0.029 A 
ATOM     42  N   UNL A   1      41.364  27.046  29.120  1.00  0.00    -0.354 N 
ATOM     43  C   UNL A   1      41.694  30.181  32.055  1.00  0.00     0.074 A 
ATOM     44  C   UNL A   1      40.544  31.058  32.019  1.00  0.00     0.031 C 
ATOM     45  C   UNL A   1      40.452  25.941  27.403  1.00  0.00     0.029 A 
ATOM     46  C   UNL A   1      41.641  26.021  28.245  1.00  0.00     0.049 A 
ATOM     47  H   UNL A   1      41.974  27.317  29.844  1.00  0.00     0.167 HD
ATOM     48  C   UNL A   1      42.748  30.341  32.892  1.00  0.00     0.034 A 
ATOM     49  C   UNL A   1      42.734  25.242  28.121  1.00  0.00     0.034 A 
ATOM     50  C   UNL A   1      43.878  29.452  32.949  1.00  0.00     0.049 A 
ATOM     51  C   UNL A   1      43.882  25.429  29.075  1.00  0.00     0.074 A 
ATOM     52  C   UNL A   1      44.953  29.483  33.821  1.00  0.00     0.029 A 
ATOM     53  N   UNL A   1      44.089  28.382  32.094  1.00  0.00    -0.354 N 
ATOM     54  N   UNL A   1      44.005  26.283  30.061  1.00  0.00    -0.248 NA
ATOM     55  C   UNL A   1      45.029  24.521  28.921  1.00  0.00     0.031 C 
ATOM     56  C   UNL A   1      45.833  28.455  33.469  1.00  0.00     0.029 A 
ATOM     57  C   UNL A   1      45.285  27.755  32.406  1.00  0.00     0.049 A 
ATOM     58  H   UNL A   1      43.480  28.107  31.372  1.00  0.00     0.167 HD
ATOM     59  C   UNL A   1      45.221  25.992  30.668  1.00  0.00     0.074 A 
ATOM     60  C   UNL A   1      45.787  24.869  29.952  1.00  0.00     0.031 C 
ATOM     61  C   UNL A   1      45.820  26.608  31.718  1.00  0.00     0.034 A 
BRANCH  48  62
ATOM     62  C   UNL A   1      42.714  31.506  33.850  1.00  0.00     0.023 A 
ATOM     63  C   UNL A   1      43.193  32.766  33.435  1.00  0.00     0.012 A 
ATOM     64  C   UNL A   1      42.153  31.371  35.135  1.00  0.00     0.148 A 
ATOM     65  C   UNL A   1      43.150  33.862  34.294  1.00  0.00     0.002 A 
ATOM     66  C   UNL A   1      42.070  32.481  35.970  1.00  0.00     0.091 A 
ATOM     67  F   UNL A   1      41.718  30.164  35.520  1.00  0.00    -0.205 F 
ATOM     68  C   UNL A   1      42.580  33.722  35.556  1.00  0.00     0.022 A 
BRANCH  66  69
ATOM     69  S   UNL A   1      41.278  32.426  37.582  1.00  0.00     0.127 S 
ATOM     70  O   UNL A   1      42.148  31.499  38.305  1.00  0.00    -0.237 OA
ATOM     71  O   UNL A   1      41.375  33.819  38.019  1.00  0.00    -0.237 OA
ATOM     72  O   UNL A   1      39.921  31.955  37.348  1.00  0.00    -0.744 OA
ENDBRANCH  66  69
ENDBRANCH  48  62
BRANCH  49  73
ATOM     73  C   UNL A   1      42.774  24.175  27.080  1.00  0.00     0.023 A 
ATOM     74  C   UNL A   1      43.482  24.402  25.883  1.00  0.00     0.012 A 
ATOM     75  C   UNL A   1      42.135  22.936  27.275  1.00  0.00     0.148 A 
ATOM     76  C   UNL A   1      43.521  23.428  24.885  1.00  0.00     0.002 A 
ATOM     77  C   UNL A   1      42.227  21.949  26.302  1.00  0.00     0.091 A 
ATOM     78  F   UNL A   1      41.459  22.745  28.417  1.00  0.00    -0.205 F 
ATOM     79  C   UNL A   1      42.903  22.199  25.097  1.00  0.00     0.022 A 
BRANCH  77  80
ATOM     80  S   UNL A   1      41.573  20.294  26.544  1.00  0.00     0.127 S 
ATOM     81  O   UNL A   1      40.131  20.531  26.495  1.00  0.00    -0.237 OA
ATOM     82  O   UNL A   1      42.120  19.583  25.386  1.00  0.00    -0.237 OA
ATOM     83  O   UNL A   1      42.096  19.846  27.825  1.00  0.00    -0.744 OA
ENDBRANCH  77  80
ENDBRANCH  49  73
BRANCH  61  84
ATOM     84  C   UNL A   1      47.140  26.056  32.194  1.00  0.00     0.023 A 
ATOM     85  C   UNL A   1      48.346  26.533  31.642  1.00  0.00     0.012 A 
ATOM     86  C   UNL A   1      47.186  25.114  33.242  1.00  0.00     0.148 A 
ATOM     87  C   UNL A   1      49.574  26.053  32.097  1.00  0.00     0.002 A 
ATOM     88  C   UNL A   1      48.414  24.681  33.727  1.00  0.00     0.091 A 
ATOM     89  F   UNL A   1      46.029  24.660  33.744  1.00  0.00    -0.205 F 
ATOM     90  C   UNL A   1      49.608  25.138  33.147  1.00  0.00     0.022 A 
BRANCH  88  91
ATOM     91  S   UNL A   1      48.559  23.580  35.139  1.00  0.00     0.127 S 
ATOM     92  O   UNL A   1      50.009  23.495  35.302  1.00  0.00    -0.237 OA
ATOM     93  O   UNL A   1      47.871  24.332  36.190  1.00  0.00    -0.237 OA
ATOM     94  O   UNL A   1      47.901  22.339  34.753  1.00  0.00    -0.744 OA
ENDBRANCH  88  91
ENDBRANCH  61  84
ENDBRANCH  35  36
ENDBRANCH  27  30
ENDBRANCH   1  26
TORSDOF 14
ENDMDL
MODEL 3
REMARK VINA RESULT:     -13.0      1.427      7.648
REMARK SMILES C[C@H]1CCCC[C@H]1[N@H+]1[C@@H](C(=O)NCCCNC(=O)c2ccc(-c3c4nc(c(-c5cccc(S(=O)(=O)[O-])c5F)c5ccc([nH]5)c(-c5cccc(S(=O)(=O)[O-])c5F)c5nc(c(-c6cccc(S(=O)(=O)[O-])c6F)c6ccc3[nH]6)C=C5)C=C4)cc2)CC[C@@H]2CCCC[C@@H]21
REMARK SMILES IDX 15 1 14 2 13 3 12 4 10 5 11 6 9 8 8 9 89 10 82 12 84 13
REMARK SMILES IDX 88 14 83 15 85 16 87 17 86 18 7 19 1 20 2 21 3 22 4 23 6 24
REMARK SMILES IDX 5 25 16 26 17 27 18 29 19 30 20 31 81 32 21 33 80 34 22 35
REMARK SMILES IDX 23 36 24 37 74 38 25 39 79 40 73 41 75 42 26 43 78 44 72 45
REMARK SMILES IDX 71 46 27 48 59 49 39 50 58 51 40 52 43 53 57 54 76 55 41 56
REMARK SMILES IDX 42 57 56 59 77 60 44 61 28 62 29 63 37 64 30 65 32 66 38 67
REMARK SMILES IDX 31 68 33 69 34 70 35 71 36 72 60 73 61 74 69 75 62 76 64 77
REMARK SMILES IDX 70 78 63 79 65 80 66 81 67 82 68 83 45 84 46 85 54 86 47 87
REMARK SMILES IDX 49 88 55 89 48 90 50 91 51 92 52 93 53 94
REMARK H PARENT 12 7 8 11 16 28 75 47 43 58
REMARK Flexibility Score: inf
ROOT
ATOM      1  C   UNL A   1      32.425  29.450  25.869  1.00  0.00     0.118 C 
ENDROOT
BRANCH   1   2
ATOM      2  C   UNL A   1      32.895  29.193  24.442  1.00  0.00     0.042 C 
BRANCH   2   3
ATOM      3  C   UNL A   1      34.041  28.195  24.328  1.00  0.00     0.118 C 
BRANCH   3   4
ATOM      4  N   UNL A   1      34.142  27.530  23.031  1.00  0.00    -0.351 N 
ATOM      5  C   UNL A   1      33.306  26.619  22.428  1.00  0.00     0.278 C 
ATOM      6  O   UNL A   1      33.420  26.455  21.210  1.00  0.00    -0.268 OA
ATOM      7  H   UNL A   1      34.937  27.774  22.504  1.00  0.00     0.163 HD
BRANCH   5   8
ATOM      8  C   UNL A   1      32.205  25.942  23.231  1.00  0.00     0.274 C 
ATOM      9  N   UNL A   1      32.301  24.519  23.666  1.00  0.00    -0.319 N 
ATOM     10  C   UNL A   1      30.992  24.049  24.237  1.00  0.00     0.188 C 
ATOM     11  H   UNL A   1      33.032  24.624  24.369  1.00  0.00     0.349 HD
ATOM     12  C   UNL A   1      30.812  26.319  22.718  1.00  0.00     0.076 C 
ATOM     13  C   UNL A   1      30.196  25.198  24.921  1.00  0.00     0.048 C 
ATOM     14  C   UNL A   1      31.023  22.864  25.238  1.00  0.00     0.065 C 
ATOM     15  C   UNL A   1      29.835  26.296  23.901  1.00  0.00     0.016 C 
ATOM     16  C   UNL A   1      30.918  25.718  26.194  1.00  0.00     0.010 C 
ATOM     17  C   UNL A   1      31.094  23.269  26.713  1.00  0.00     0.006 C 
ATOM     18  C   UNL A   1      31.743  24.629  26.891  1.00  0.00     0.001 C 
BRANCH   9  19
ATOM     19  C   UNL A   1      33.126  23.482  22.992  1.00  0.00     0.187 C 
ATOM     20  C   UNL A   1      35.538  23.913  23.982  1.00  0.00     0.014 C 
ATOM     21  C   UNL A   1      34.443  22.920  23.605  1.00  0.00     0.044 C 
ATOM     22  C   UNL A   1      34.137  21.966  24.749  1.00  0.00     0.009 C 
ATOM     23  C   UNL A   1      33.408  20.727  24.242  1.00  0.00     0.001 C 
ATOM     24  C   UNL A   1      32.375  22.270  22.381  1.00  0.00     0.065 C 
ATOM     25  C   UNL A   1      32.351  20.948  23.159  1.00  0.00     0.006 C 
ENDBRANCH   9  19
ENDBRANCH   5   8
ENDBRANCH   3   4
ENDBRANCH   2   3
ENDBRANCH   1   2
BRANCH   1  26
ATOM     26  N   UNL A   1      32.320  30.873  26.174  1.00  0.00    -0.352 N 
ATOM     27  C   UNL A   1      33.038  31.664  27.038  1.00  0.00     0.251 C 
ATOM     28  H   UNL A   1      31.616  31.347  25.675  1.00  0.00     0.163 HD
ATOM     29  O   UNL A   1      32.635  32.802  27.273  1.00  0.00    -0.269 OA
BRANCH  27  30
ATOM     30  C   UNL A   1      34.270  31.171  27.696  1.00  0.00     0.039 A 
ATOM     31  C   UNL A   1      35.284  32.087  27.998  1.00  0.00     0.014 A 
ATOM     32  C   UNL A   1      34.462  29.815  27.973  1.00  0.00     0.014 A 
ATOM     33  C   UNL A   1      36.452  31.656  28.635  1.00  0.00     0.010 A 
ATOM     34  C   UNL A   1      35.591  29.399  28.679  1.00  0.00     0.010 A 
ATOM     35  C   UNL A   1      36.600  30.313  29.017  1.00  0.00    -0.014 A 
BRANCH  35  36
ATOM     36  C   UNL A   1      37.788  29.855  29.790  1.00  0.00     0.031 A 
ATOM     37  C   UNL A   1      38.058  30.385  31.173  1.00  0.00     0.074 A 
ATOM     38  C   UNL A   1      38.675  29.022  29.210  1.00  0.00     0.049 A 
ATOM     39  N   UNL A   1      39.072  30.145  31.966  1.00  0.00    -0.248 NA
ATOM     40  C   UNL A   1      37.074  31.327  31.732  1.00  0.00     0.031 C 
ATOM     41  C   UNL A   1      38.571  28.489  27.850  1.00  0.00     0.029 A 
ATOM     42  N   UNL A   1      39.856  28.498  29.679  1.00  0.00    -0.354 N 
ATOM     43  C   UNL A   1      38.869  30.928  33.096  1.00  0.00     0.074 A 
ATOM     44  C   UNL A   1      37.649  31.675  32.875  1.00  0.00     0.031 C 
ATOM     45  C   UNL A   1      39.637  27.714  27.596  1.00  0.00     0.029 A 
ATOM     46  C   UNL A   1      40.520  27.723  28.757  1.00  0.00     0.049 A 
ATOM     47  H   UNL A   1      40.193  28.662  30.590  1.00  0.00     0.167 HD
ATOM     48  C   UNL A   1      39.613  31.002  34.226  1.00  0.00     0.034 A 
ATOM     49  C   UNL A   1      41.714  27.100  28.829  1.00  0.00     0.034 A 
ATOM     50  C   UNL A   1      40.809  30.236  34.459  1.00  0.00     0.049 A 
ATOM     51  C   UNL A   1      42.511  27.183  30.102  1.00  0.00     0.074 A 
ATOM     52  C   UNL A   1      41.584  30.180  35.604  1.00  0.00     0.029 A 
ATOM     53  N   UNL A   1      41.413  29.406  33.528  1.00  0.00    -0.354 N 
ATOM     54  N   UNL A   1      42.222  27.808  31.218  1.00  0.00    -0.248 NA
ATOM     55  C   UNL A   1      43.784  26.448  30.139  1.00  0.00     0.031 C 
ATOM     56  C   UNL A   1      42.677  29.345  35.353  1.00  0.00     0.029 A 
ATOM     57  C   UNL A   1      42.560  28.846  34.066  1.00  0.00     0.049 A 
ATOM     58  H   UNL A   1      41.077  29.239  32.617  1.00  0.00     0.167 HD
ATOM     59  C   UNL A   1      43.255  27.510  32.100  1.00  0.00     0.074 A 
ATOM     60  C   UNL A   1      44.165  26.632  31.396  1.00  0.00     0.031 C 
ATOM     61  C   UNL A   1      43.437  27.935  33.375  1.00  0.00     0.034 A 
BRANCH  48  62
ATOM     62  C   UNL A   1      39.134  31.919  35.324  1.00  0.00     0.023 A 
ATOM     63  C   UNL A   1      38.183  31.456  36.257  1.00  0.00     0.012 A 
ATOM     64  C   UNL A   1      39.670  33.214  35.472  1.00  0.00     0.148 A 
ATOM     65  C   UNL A   1      37.743  32.277  37.293  1.00  0.00     0.002 A 
ATOM     66  C   UNL A   1      39.262  34.011  36.537  1.00  0.00     0.091 A 
ATOM     67  F   UNL A   1      40.560  33.645  34.568  1.00  0.00    -0.205 F 
ATOM     68  C   UNL A   1      38.290  33.549  37.439  1.00  0.00     0.022 A 
BRANCH  66  69
ATOM     69  S   UNL A   1      39.966  35.631  36.861  1.00  0.00     0.127 S 
ATOM     70  O   UNL A   1      39.280  36.008  38.097  1.00  0.00    -0.237 OA
ATOM     71  O   UNL A   1      41.387  35.321  37.024  1.00  0.00    -0.237 OA
ATOM     72  O   UNL A   1      39.651  36.447  35.699  1.00  0.00    -0.744 OA
ENDBRANCH  66  69
ENDBRANCH  48  62
BRANCH  49  73
ATOM     73  C   UNL A   1      42.206  26.297  27.673  1.00  0.00     0.023 A 
ATOM     74  C   UNL A   1      43.083  26.888  26.743  1.00  0.00     0.012 A 
ATOM     75  C   UNL A   1      41.828  24.952  27.501  1.00  0.00     0.148 A 
ATOM     76  C   UNL A   1      43.545  26.166  25.643  1.00  0.00     0.002 A 
ATOM     77  C   UNL A   1      42.337  24.221  26.436  1.00  0.00     0.091 A 
ATOM     78  F   UNL A   1      40.985  24.412  28.392  1.00  0.00    -0.205 F 
ATOM     79  C   UNL A   1      43.181  24.831  25.494  1.00  0.00     0.022 A 
BRANCH  77  80
ATOM     80  S   UNL A   1      42.028  22.463  26.238  1.00  0.00     0.127 S 
ATOM     81  O   UNL A   1      42.756  22.168  25.005  1.00  0.00    -0.237 OA
ATOM     82  O   UNL A   1      42.630  21.913  27.455  1.00  0.00    -0.237 OA
ATOM     83  O   UNL A   1      40.582  22.321  26.166  1.00  0.00    -0.744 OA
ENDBRANCH  77  80
ENDBRANCH  49  73
BRANCH  61  84
ATOM     84  C   UNL A   1      44.645  27.424  34.118  1.00  0.00     0.023 A 
ATOM     85  C   UNL A   1      45.848  28.158  34.103  1.00  0.00     0.012 A 
ATOM     86  C   UNL A   1      44.565  26.248  34.892  1.00  0.00     0.148 A 
ATOM     87  C   UNL A   1      46.962  27.712  34.813  1.00  0.00     0.002 A 
ATOM     88  C   UNL A   1      45.661  25.837  35.639  1.00  0.00     0.091 A 
ATOM     89  F   UNL A   1      43.418  25.554  34.881  1.00  0.00    -0.205 F 
ATOM     90  C   UNL A   1      46.865  26.560  35.591  1.00  0.00     0.022 A 
BRANCH  88  91
ATOM     91  S   UNL A   1      45.600  24.423  36.746  1.00  0.00     0.127 S 
ATOM     92  O   UNL A   1      44.513  24.799  37.648  1.00  0.00    -0.237 OA
ATOM     93  O   UNL A   1      45.280  23.328  35.829  1.00  0.00    -0.237 OA
ATOM     94  O   UNL A   1      46.918  24.334  37.360  1.00  0.00    -0.744 OA
ENDBRANCH  88  91
ENDBRANCH  61  84
ENDBRANCH  35  36
ENDBRANCH  27  30
ENDBRANCH   1  26
TORSDOF 14
ENDMDL
