MODEL 1
REMARK VINA RESULT:     -12.3      0.000      0.000
REMARK SMILES Cc1cc(C(=O)NCCCNC(=O)c2ccc(-c3c4nc(c(-c5cccc(S(=O)(=O)[O-])c5F)c5ccc([nH]5)c(-c5cccc(S(=O)(=O)[O-])c5F)c5nc(c(-c6cccc(S(=O)(=O)[O-])c6F)c6ccc3[nH]6)C=C5)C=C4)cc2)ccc1NCCCC(=O)NC1CC1
REMARK SMILES IDX 5 1 6 2 7 3 4 5 1 6 2 7 3 8 79 9 78 10 77 11 80 12 81 14
REMARK SMILES IDX 82 15 83 16 84 17 85 18 86 19 87 21 88 22 89 23 8 24 9 25
REMARK SMILES IDX 10 26 11 27 12 28 13 30 14 31 15 32 76 33 16 34 75 35 17 36
REMARK SMILES IDX 18 37 19 38 69 39 20 40 74 41 68 42 70 43 21 44 73 45 67 46
REMARK SMILES IDX 66 47 22 49 54 50 34 51 53 52 35 53 38 54 52 55 71 56 36 57
REMARK SMILES IDX 37 58 51 60 72 61 39 62 23 63 24 64 32 65 25 66 27 67 33 68
REMARK SMILES IDX 26 69 28 70 29 71 30 72 31 73 55 74 56 75 64 76 57 77 59 78
REMARK SMILES IDX 65 79 58 80 60 81 61 82 62 83 63 84 40 85 41 86 49 87 42 88
REMARK SMILES IDX 44 89 50 90 43 91 45 92 46 93 47 94 48 95
REMARK H PARENT 7 4 80 13 86 20 11 29 70 48 38 59
REMARK Flexibility Score: inf
ROOT
ATOM      1  C   UNL A   1      33.121  28.910  24.301  1.00  0.00     0.251 C 
ATOM      2  O   UNL A   1      33.632  28.930  23.181  1.00  0.00    -0.269 OA
ATOM      3  N   UNL A   1      32.919  30.102  24.965  1.00  0.00    -0.352 N 
ATOM      4  H   UNL A   1      33.336  30.884  24.536  1.00  0.00     0.163 HD
ENDROOT
BRANCH   1   5
ATOM      5  C   UNL A   1      32.698  27.598  24.868  1.00  0.00     0.040 A 
ATOM      6  C   UNL A   1      29.442  25.711  25.315  1.00  0.00     0.046 C 
ATOM      7  C   UNL A   1      30.893  26.068  25.505  1.00  0.00    -0.027 A 
ATOM      8  C   UNL A   1      31.340  27.270  24.908  1.00  0.00     0.019 A 
ATOM      9  C   UNL A   1      31.814  25.224  26.155  1.00  0.00     0.037 A 
ATOM     10  C   UNL A   1      33.167  25.489  25.957  1.00  0.00     0.027 A 
ATOM     11  C   UNL A   1      33.593  26.635  25.304  1.00  0.00     0.016 A 
BRANCH   9  12
ATOM     12  N   UNL A   1      31.417  24.111  26.881  1.00  0.00    -0.385 N 
ATOM     13  H   UNL A   1      31.253  24.206  27.847  1.00  0.00     0.160 HD
BRANCH  12  14
ATOM     14  C   UNL A   1      31.236  22.808  26.258  1.00  0.00     0.113 C 
BRANCH  14  15
ATOM     15  C   UNL A   1      32.476  21.936  26.399  1.00  0.00     0.031 C 
BRANCH  15  16
ATOM     16  C   UNL A   1      33.189  21.615  25.088  1.00  0.00     0.102 C 
BRANCH  16  17
ATOM     17  C   UNL A   1      34.317  20.617  25.200  1.00  0.00     0.220 C 
ATOM     18  O   UNL A   1      35.488  21.002  25.265  1.00  0.00    -0.275 OA
ATOM     19  N   UNL A   1      34.069  19.278  25.271  1.00  0.00    -0.353 N 
ATOM     20  H   UNL A   1      34.846  18.727  25.520  1.00  0.00     0.163 HD
BRANCH  19  21
ATOM     21  C   UNL A   1      32.871  18.546  25.041  1.00  0.00     0.082 C 
ATOM     22  C   UNL A   1      32.716  17.823  23.725  1.00  0.00     0.027 C 
ATOM     23  C   UNL A   1      32.762  17.052  25.003  1.00  0.00     0.027 C 
ENDBRANCH  19  21
ENDBRANCH  16  17
ENDBRANCH  15  16
ENDBRANCH  14  15
ENDBRANCH  12  14
ENDBRANCH   9  12
ENDBRANCH   1   5
BRANCH   3  24
ATOM     24  C   UNL A   1      32.195  30.401  26.192  1.00  0.00     0.118 C 
BRANCH  24  25
ATOM     25  C   UNL A   1      33.074  31.059  27.259  1.00  0.00     0.042 C 
BRANCH  25  26
ATOM     26  C   UNL A   1      34.513  30.592  27.254  1.00  0.00     0.118 C 
BRANCH  26  27
ATOM     27  N   UNL A   1      35.405  31.519  27.951  1.00  0.00    -0.352 N 
ATOM     28  C   UNL A   1      36.657  31.248  28.480  1.00  0.00     0.251 C 
ATOM     29  H   UNL A   1      35.079  32.441  28.057  1.00  0.00     0.163 HD
ATOM     30  O   UNL A   1      37.301  32.122  29.051  1.00  0.00    -0.269 OA
BRANCH  28  31
ATOM     31  C   UNL A   1      37.210  29.901  28.234  1.00  0.00     0.039 A 
ATOM     32  C   UNL A   1      37.294  29.044  29.332  1.00  0.00     0.014 A 
ATOM     33  C   UNL A   1      37.998  29.706  27.101  1.00  0.00     0.014 A 
ATOM     34  C   UNL A   1      38.364  28.161  29.413  1.00  0.00     0.010 A 
ATOM     35  C   UNL A   1      39.113  28.903  27.223  1.00  0.00     0.010 A 
ATOM     36  C   UNL A   1      39.333  28.196  28.412  1.00  0.00    -0.014 A 
BRANCH  36  37
ATOM     37  C   UNL A   1      40.605  27.501  28.509  1.00  0.00     0.031 A 
ATOM     38  C   UNL A   1      40.617  26.037  28.385  1.00  0.00     0.074 A 
ATOM     39  C   UNL A   1      41.764  28.175  28.676  1.00  0.00     0.049 A 
ATOM     40  N   UNL A   1      41.564  25.281  28.818  1.00  0.00    -0.248 NA
ATOM     41  C   UNL A   1      39.494  25.312  27.814  1.00  0.00     0.031 C 
ATOM     42  C   UNL A   1      43.118  27.664  28.499  1.00  0.00     0.029 A 
ATOM     43  N   UNL A   1      41.942  29.414  29.294  1.00  0.00    -0.354 N 
ATOM     44  C   UNL A   1      41.325  24.016  28.331  1.00  0.00     0.074 A 
ATOM     45  C   UNL A   1      39.975  24.068  27.824  1.00  0.00     0.031 C 
ATOM     46  C   UNL A   1      43.958  28.410  29.231  1.00  0.00     0.029 A 
ATOM     47  C   UNL A   1      43.148  29.319  30.021  1.00  0.00     0.049 A 
ATOM     48  H   UNL A   1      41.348  30.196  29.235  1.00  0.00     0.167 HD
ATOM     49  C   UNL A   1      42.362  23.134  28.274  1.00  0.00     0.034 A 
ATOM     50  C   UNL A   1      43.240  29.509  31.372  1.00  0.00     0.034 A 
ATOM     51  C   UNL A   1      43.552  23.670  28.965  1.00  0.00     0.049 A 
ATOM     52  C   UNL A   1      43.829  28.315  32.114  1.00  0.00     0.074 A 
ATOM     53  C   UNL A   1      44.735  24.258  28.545  1.00  0.00     0.029 A 
ATOM     54  N   UNL A   1      43.489  23.885  30.336  1.00  0.00    -0.354 N 
ATOM     55  N   UNL A   1      44.254  27.214  31.555  1.00  0.00    -0.248 NA
ATOM     56  C   UNL A   1      43.848  28.233  33.573  1.00  0.00     0.031 C 
ATOM     57  C   UNL A   1      45.371  24.847  29.679  1.00  0.00     0.029 A 
ATOM     58  C   UNL A   1      44.590  24.597  30.792  1.00  0.00     0.049 A 
ATOM     59  H   UNL A   1      42.754  23.572  30.912  1.00  0.00     0.167 HD
ATOM     60  C   UNL A   1      44.421  26.244  32.517  1.00  0.00     0.074 A 
ATOM     61  C   UNL A   1      44.165  26.944  33.765  1.00  0.00     0.031 C 
ATOM     62  C   UNL A   1      44.671  24.928  32.213  1.00  0.00     0.034 A 
BRANCH  49  63
ATOM     63  C   UNL A   1      42.414  21.930  27.340  1.00  0.00     0.023 A 
ATOM     64  C   UNL A   1      41.439  20.924  27.527  1.00  0.00     0.012 A 
ATOM     65  C   UNL A   1      43.392  21.649  26.355  1.00  0.00     0.148 A 
ATOM     66  C   UNL A   1      41.494  19.686  26.875  1.00  0.00     0.002 A 
ATOM     67  C   UNL A   1      43.492  20.392  25.754  1.00  0.00     0.091 A 
ATOM     68  F   UNL A   1      44.189  22.618  25.908  1.00  0.00    -0.205 F 
ATOM     69  C   UNL A   1      42.545  19.402  26.017  1.00  0.00     0.022 A 
BRANCH  67  70
ATOM     70  S   UNL A   1      44.870  19.941  24.679  1.00  0.00     0.127 S 
ATOM     71  O   UNL A   1      45.995  20.627  25.317  1.00  0.00    -0.237 OA
ATOM     72  O   UNL A   1      44.899  18.484  24.800  1.00  0.00    -0.237 OA
ATOM     73  O   UNL A   1      44.539  20.450  23.353  1.00  0.00    -0.744 OA
ENDBRANCH  67  70
ENDBRANCH  49  63
BRANCH  50  74
ATOM     74  C   UNL A   1      42.161  30.397  31.907  1.00  0.00     0.023 A 
ATOM     75  C   UNL A   1      42.099  31.718  31.400  1.00  0.00     0.012 A 
ATOM     76  C   UNL A   1      41.021  29.858  32.523  1.00  0.00     0.148 A 
ATOM     77  C   UNL A   1      40.880  32.394  31.325  1.00  0.00     0.002 A 
ATOM     78  C   UNL A   1      39.817  30.552  32.469  1.00  0.00     0.091 A 
ATOM     79  F   UNL A   1      41.088  28.644  33.082  1.00  0.00    -0.205 F 
ATOM     80  C   UNL A   1      39.728  31.789  31.816  1.00  0.00     0.022 A 
BRANCH  78  81
ATOM     81  S   UNL A   1      38.329  29.803  33.137  1.00  0.00     0.127 S 
ATOM     82  O   UNL A   1      38.483  30.069  34.562  1.00  0.00    -0.237 OA
ATOM     83  O   UNL A   1      37.265  30.561  32.479  1.00  0.00    -0.237 OA
ATOM     84  O   UNL A   1      38.415  28.411  32.717  1.00  0.00    -0.744 OA
ENDBRANCH  78  81
ENDBRANCH  50  74
BRANCH  62  85
ATOM     85  C   UNL A   1      44.933  23.815  33.231  1.00  0.00     0.023 A 
ATOM     86  C   UNL A   1      43.914  22.949  33.677  1.00  0.00     0.012 A 
ATOM     87  C   UNL A   1      46.201  23.644  33.855  1.00  0.00     0.148 A 
ATOM     88  C   UNL A   1      44.162  21.883  34.551  1.00  0.00     0.002 A 
ATOM     89  C   UNL A   1      46.440  22.603  34.752  1.00  0.00     0.091 A 
ATOM     90  F   UNL A   1      47.180  24.526  33.631  1.00  0.00    -0.205 F 
ATOM     91  C   UNL A   1      45.431  21.697  35.074  1.00  0.00     0.022 A 
BRANCH  89  92
ATOM     92  S   UNL A   1      48.026  22.380  35.574  1.00  0.00     0.127 S 
ATOM     93  O   UNL A   1      47.804  21.131  36.302  1.00  0.00    -0.237 OA
ATOM     94  O   UNL A   1      48.942  22.268  34.439  1.00  0.00    -0.237 OA
ATOM     95  O   UNL A   1      48.227  23.559  36.402  1.00  0.00    -0.744 OA
ENDBRANCH  89  92
ENDBRANCH  62  85
ENDBRANCH  36  37
ENDBRANCH  28  31
ENDBRANCH  26  27
ENDBRANCH  25  26
ENDBRANCH  24  25
ENDBRANCH   3  24
TORSDOF 19
ENDMDL
MODEL 2
REMARK VINA RESULT:     -11.6      1.843      2.370
REMARK SMILES Cc1cc(C(=O)NCCCNC(=O)c2ccc(-c3c4nc(c(-c5cccc(S(=O)(=O)[O-])c5F)c5ccc([nH]5)c(-c5cccc(S(=O)(=O)[O-])c5F)c5nc(c(-c6cccc(S(=O)(=O)[O-])c6F)c6ccc3[nH]6)C=C5)C=C4)cc2)ccc1NCCCC(=O)NC1CC1
REMARK SMILES IDX 5 1 6 2 7 3 4 5 1 6 2 7 3 8 79 9 78 10 77 11 80 12 81 14
REMARK SMILES IDX 82 15 83 16 84 17 85 18 86 19 87 21 88 22 89 23 8 24 9 25
REMARK SMILES IDX 10 26 11 27 12 28 13 30 14 31 15 32 76 33 16 34 75 35 17 36
REMARK SMILES IDX 18 37 19 38 69 39 20 40 74 41 68 42 70 43 21 44 73 45 67 46
REMARK SMILES IDX 66 47 22 49 54 50 34 51 53 52 35 53 38 54 52 55 71 56 36 57
REMARK SMILES IDX 37 58 51 60 72 61 39 62 23 63 24 64 32 65 25 66 27 67 33 68
REMARK SMILES IDX 26 69 28 70 29 71 30 72 31 73 55 74 56 75 64 76 57 77 59 78
REMARK SMILES IDX 65 79 58 80 60 81 61 82 62 83 63 84 40 85 41 86 49 87 42 88
REMARK SMILES IDX 44 89 50 90 43 91 45 92 46 93 47 94 48 95
REMARK H PARENT 7 4 80 13 86 20 11 29 70 48 38 59
REMARK Flexibility Score: inf
ROOT
ATOM      1  C   UNL A   1      31.921  28.572  24.425  1.00  0.00     0.251 C 
ATOM      2  O   UNL A   1      31.684  29.027  23.307  1.00  0.00    -0.269 OA
ATOM      3  N   UNL A   1      31.716  29.372  25.530  1.00  0.00    -0.352 N 
ATOM      4  H   UNL A   1      31.522  30.314  25.321  1.00  0.00     0.163 HD
ENDROOT
BRANCH   1   5
ATOM      5  C   UNL A   1      32.371  27.155  24.537  1.00  0.00     0.040 A 
ATOM      6  C   UNL A   1      30.983  23.926  25.954  1.00  0.00     0.046 C 
ATOM      7  C   UNL A   1      31.997  24.893  25.403  1.00  0.00    -0.027 A 
ATOM      8  C   UNL A   1      31.571  26.229  25.211  1.00  0.00     0.019 A 
ATOM      9  C   UNL A   1      33.288  24.504  24.993  1.00  0.00     0.037 A 
ATOM     10  C   UNL A   1      33.992  25.394  24.185  1.00  0.00     0.027 A 
ATOM     11  C   UNL A   1      33.527  26.677  23.943  1.00  0.00     0.016 A 
BRANCH   9  12
ATOM     12  N   UNL A   1      33.814  23.255  25.285  1.00  0.00    -0.385 N 
ATOM     13  H   UNL A   1      33.591  22.833  26.146  1.00  0.00     0.160 HD
BRANCH  12  14
ATOM     14  C   UNL A   1      34.686  22.550  24.357  1.00  0.00     0.113 C 
BRANCH  14  15
ATOM     15  C   UNL A   1      35.034  21.155  24.856  1.00  0.00     0.031 C 
BRANCH  15  16
ATOM     16  C   UNL A   1      33.976  20.506  25.744  1.00  0.00     0.102 C 
BRANCH  16  17
ATOM     17  C   UNL A   1      32.750  20.003  25.017  1.00  0.00     0.220 C 
ATOM     18  O   UNL A   1      31.727  20.691  24.967  1.00  0.00    -0.275 OA
ATOM     19  N   UNL A   1      32.758  18.802  24.370  1.00  0.00    -0.353 N 
ATOM     20  H   UNL A   1      31.984  18.646  23.782  1.00  0.00     0.163 HD
BRANCH  19  21
ATOM     21  C   UNL A   1      33.702  17.738  24.407  1.00  0.00     0.082 C 
ATOM     22  C   UNL A   1      33.191  16.325  24.259  1.00  0.00     0.027 C 
ATOM     23  C   UNL A   1      34.110  16.902  23.232  1.00  0.00     0.027 C 
ENDBRANCH  19  21
ENDBRANCH  16  17
ENDBRANCH  15  16
ENDBRANCH  14  15
ENDBRANCH  12  14
ENDBRANCH   9  12
ENDBRANCH   1   5
BRANCH   3  24
ATOM     24  C   UNL A   1      31.739  29.061  26.952  1.00  0.00     0.118 C 
BRANCH  24  25
ATOM     25  C   UNL A   1      33.133  29.193  27.570  1.00  0.00     0.042 C 
BRANCH  25  26
ATOM     26  C   UNL A   1      33.996  30.262  26.936  1.00  0.00     0.118 C 
BRANCH  26  27
ATOM     27  N   UNL A   1      34.467  31.252  27.905  1.00  0.00    -0.352 N 
ATOM     28  C   UNL A   1      35.553  31.147  28.759  1.00  0.00     0.251 C 
ATOM     29  H   UNL A   1      33.953  32.090  27.956  1.00  0.00     0.163 HD
ATOM     30  O   UNL A   1      35.833  32.057  29.533  1.00  0.00    -0.269 OA
BRANCH  28  31
ATOM     31  C   UNL A   1      36.401  29.946  28.619  1.00  0.00     0.039 A 
ATOM     32  C   UNL A   1      36.842  29.346  29.798  1.00  0.00     0.014 A 
ATOM     33  C   UNL A   1      37.062  29.741  27.409  1.00  0.00     0.014 A 
ATOM     34  C   UNL A   1      38.106  28.769  29.824  1.00  0.00     0.010 A 
ATOM     35  C   UNL A   1      38.354  29.259  27.456  1.00  0.00     0.010 A 
ATOM     36  C   UNL A   1      38.898  28.850  28.680  1.00  0.00    -0.014 A 
BRANCH  36  37
ATOM     37  C   UNL A   1      40.309  28.503  28.660  1.00  0.00     0.031 A 
ATOM     38  C   UNL A   1      40.683  27.090  28.520  1.00  0.00     0.074 A 
ATOM     39  C   UNL A   1      41.268  29.452  28.736  1.00  0.00     0.049 A 
ATOM     40  N   UNL A   1      41.825  26.604  28.863  1.00  0.00    -0.248 NA
ATOM     41  C   UNL A   1      39.737  26.096  28.038  1.00  0.00     0.031 C 
ATOM     42  C   UNL A   1      42.687  29.301  28.439  1.00  0.00     0.029 A 
ATOM     43  N   UNL A   1      41.177  30.702  29.351  1.00  0.00    -0.354 N 
ATOM     44  C   UNL A   1      41.875  25.315  28.384  1.00  0.00     0.074 A 
ATOM     45  C   UNL A   1      40.518  25.016  27.994  1.00  0.00     0.031 C 
ATOM     46  C   UNL A   1      43.369  30.244  29.105  1.00  0.00     0.029 A 
ATOM     47  C   UNL A   1      42.424  30.925  29.971  1.00  0.00     0.049 A 
ATOM     48  H   UNL A   1      40.400  31.306  29.351  1.00  0.00     0.167 HD
ATOM     49  C   UNL A   1      43.094  24.726  28.228  1.00  0.00     0.034 A 
ATOM     50  C   UNL A   1      42.579  31.148  31.311  1.00  0.00     0.034 A 
ATOM     51  C   UNL A   1      44.162  25.555  28.822  1.00  0.00     0.049 A 
ATOM     52  C   UNL A   1      43.514  30.151  31.987  1.00  0.00     0.074 A 
ATOM     53  C   UNL A   1      45.117  26.420  28.309  1.00  0.00     0.029 A 
ATOM     54  N   UNL A   1      44.163  25.762  30.195  1.00  0.00    -0.354 N 
ATOM     55  N   UNL A   1      44.156  29.189  31.382  1.00  0.00    -0.248 NA
ATOM     56  C   UNL A   1      43.677  30.093  33.439  1.00  0.00     0.031 C 
ATOM     57  C   UNL A   1      45.675  27.164  29.391  1.00  0.00     0.029 A 
ATOM     58  C   UNL A   1      45.081  26.736  30.564  1.00  0.00     0.049 A 
ATOM     59  H   UNL A   1      43.585  25.278  30.829  1.00  0.00     0.167 HD
ATOM     60  C   UNL A   1      44.646  28.304  32.316  1.00  0.00     0.074 A 
ATOM     61  C   UNL A   1      44.327  28.930  33.588  1.00  0.00     0.031 C 
ATOM     62  C   UNL A   1      45.196  27.092  31.977  1.00  0.00     0.034 A 
BRANCH  49  63
ATOM     63  C   UNL A   1      43.371  23.564  27.280  1.00  0.00     0.023 A 
ATOM     64  C   UNL A   1      44.162  23.834  26.141  1.00  0.00     0.012 A 
ATOM     65  C   UNL A   1      42.846  22.251  27.355  1.00  0.00     0.148 A 
ATOM     66  C   UNL A   1      44.324  22.914  25.097  1.00  0.00     0.002 A 
ATOM     67  C   UNL A   1      42.946  21.355  26.288  1.00  0.00     0.091 A 
ATOM     68  F   UNL A   1      42.320  21.805  28.495  1.00  0.00    -0.205 F 
ATOM     69  C   UNL A   1      43.683  21.687  25.151  1.00  0.00     0.022 A 
BRANCH  67  70
ATOM     70  S   UNL A   1      42.083  19.771  26.271  1.00  0.00     0.127 S 
ATOM     71  O   UNL A   1      40.680  20.186  26.227  1.00  0.00    -0.237 OA
ATOM     72  O   UNL A   1      42.575  19.158  25.038  1.00  0.00    -0.237 OA
ATOM     73  O   UNL A   1      42.460  19.085  27.501  1.00  0.00    -0.744 OA
ENDBRANCH  67  70
ENDBRANCH  49  63
BRANCH  50  74
ATOM     74  C   UNL A   1      41.360  31.737  31.946  1.00  0.00     0.023 A 
ATOM     75  C   UNL A   1      40.882  32.962  31.418  1.00  0.00     0.012 A 
ATOM     76  C   UNL A   1      40.482  30.944  32.702  1.00  0.00     0.148 A 
ATOM     77  C   UNL A   1      39.524  33.277  31.468  1.00  0.00     0.002 A 
ATOM     78  C   UNL A   1      39.135  31.280  32.770  1.00  0.00     0.091 A 
ATOM     79  F   UNL A   1      40.940  29.826  33.278  1.00  0.00    -0.205 F 
ATOM     80  C   UNL A   1      38.641  32.410  32.104  1.00  0.00     0.022 A 
BRANCH  78  81
ATOM     81  S   UNL A   1      37.990  30.194  33.623  1.00  0.00     0.127 S 
ATOM     82  O   UNL A   1      38.294  28.907  33.007  1.00  0.00    -0.237 OA
ATOM     83  O   UNL A   1      38.403  30.322  35.019  1.00  0.00    -0.237 OA
ATOM     84  O   UNL A   1      36.681  30.765  33.335  1.00  0.00    -0.744 OA
ENDBRANCH  78  81
ENDBRANCH  50  74
BRANCH  62  85
ATOM     85  C   UNL A   1      45.819  26.094  32.956  1.00  0.00     0.023 A 
ATOM     86  C   UNL A   1      47.196  25.797  32.952  1.00  0.00     0.012 A 
ATOM     87  C   UNL A   1      45.031  25.341  33.872  1.00  0.00     0.148 A 
ATOM     88  C   UNL A   1      47.785  24.940  33.892  1.00  0.00     0.002 A 
ATOM     89  C   UNL A   1      45.611  24.463  34.786  1.00  0.00     0.091 A 
ATOM     90  F   UNL A   1      43.697  25.422  33.829  1.00  0.00    -0.205 F 
ATOM     91  C   UNL A   1      46.994  24.288  34.824  1.00  0.00     0.022 A 
BRANCH  89  92
ATOM     92  S   UNL A   1      44.636  23.479  35.936  1.00  0.00     0.127 S 
ATOM     93  O   UNL A   1      43.841  22.662  35.020  1.00  0.00    -0.237 OA
ATOM     94  O   UNL A   1      45.673  22.745  36.662  1.00  0.00    -0.237 OA
ATOM     95  O   UNL A   1      43.881  24.424  36.745  1.00  0.00    -0.744 OA
ENDBRANCH  89  92
ENDBRANCH  62  85
ENDBRANCH  36  37
ENDBRANCH  28  31
ENDBRANCH  26  27
ENDBRANCH  25  26
ENDBRANCH  24  25
ENDBRANCH   3  24
TORSDOF 19
ENDMDL
MODEL 3
REMARK VINA RESULT:     -11.6      3.091      4.468
REMARK SMILES Cc1cc(C(=O)NCCCNC(=O)c2ccc(-c3c4nc(c(-c5cccc(S(=O)(=O)[O-])c5F)c5ccc([nH]5)c(-c5cccc(S(=O)(=O)[O-])c5F)c5nc(c(-c6cccc(S(=O)(=O)[O-])c6F)c6ccc3[nH]6)C=C5)C=C4)cc2)ccc1NCCCC(=O)NC1CC1
REMARK SMILES IDX 5 1 6 2 7 3 4 5 1 6 2 7 3 8 79 9 78 10 77 11 80 12 81 14
REMARK SMILES IDX 82 15 83 16 84 17 85 18 86 19 87 21 88 22 89 23 8 24 9 25
REMARK SMILES IDX 10 26 11 27 12 28 13 30 14 31 15 32 76 33 16 34 75 35 17 36
REMARK SMILES IDX 18 37 19 38 69 39 20 40 74 41 68 42 70 43 21 44 73 45 67 46
REMARK SMILES IDX 66 47 22 49 54 50 34 51 53 52 35 53 38 54 52 55 71 56 36 57
REMARK SMILES IDX 37 58 51 60 72 61 39 62 23 63 24 64 32 65 25 66 27 67 33 68
REMARK SMILES IDX 26 69 28 70 29 71 30 72 31 73 55 74 56 75 64 76 57 77 59 78
REMARK SMILES IDX 65 79 58 80 60 81 61 82 62 83 63 84 40 85 41 86 49 87 42 88
REMARK SMILES IDX 44 89 50 90 43 91 45 92 46 93 47 94 48 95
REMARK H PARENT 7 4 80 13 86 20 11 29 70 48 38 59
REMARK Flexibility Score: inf
ROOT
ATOM      1  C   UNL A   1      33.223  28.980  25.503  1.00  0.00     0.251 C 
ATOM      2  O   UNL A   1      32.446  29.574  24.756  1.00  0.00    -0.269 OA
ATOM      3  N   UNL A   1      34.261  29.679  26.081  1.00  0.00    -0.352 N 
ATOM      4  H   UNL A   1      34.381  30.593  25.735  1.00  0.00     0.163 HD
ENDROOT
BRANCH   1   5
ATOM      5  C   UNL A   1      32.975  27.537  25.786  1.00  0.00     0.040 A 
ATOM      6  C   UNL A   1      34.926  24.300  25.511  1.00  0.00     0.046 C 
ATOM      7  C   UNL A   1      33.737  25.211  25.668  1.00  0.00    -0.027 A 
ATOM      8  C   UNL A   1      33.962  26.596  25.484  1.00  0.00     0.019 A 
ATOM      9  C   UNL A   1      32.467  24.756  26.074  1.00  0.00     0.037 A 
ATOM     10  C   UNL A   1      31.563  25.716  26.522  1.00  0.00     0.027 A 
ATOM     11  C   UNL A   1      31.827  27.071  26.404  1.00  0.00     0.016 A 
BRANCH   9  12
ATOM     12  N   UNL A   1      32.145  23.409  26.130  1.00  0.00    -0.385 N 
ATOM     13  H   UNL A   1      32.162  22.950  27.001  1.00  0.00     0.160 HD
BRANCH  12  14
ATOM     14  C   UNL A   1      31.784  22.652  24.940  1.00  0.00     0.113 C 
BRANCH  14  15
ATOM     15  C   UNL A   1      32.103  21.172  25.092  1.00  0.00     0.031 C 
BRANCH  15  16
ATOM     16  C   UNL A   1      33.217  20.658  24.183  1.00  0.00     0.102 C 
BRANCH  16  17
ATOM     17  C   UNL A   1      34.445  20.147  24.900  1.00  0.00     0.220 C 
ATOM     18  O   UNL A   1      35.148  20.918  25.560  1.00  0.00    -0.275 OA
ATOM     19  N   UNL A   1      34.781  18.826  24.869  1.00  0.00    -0.353 N 
ATOM     20  H   UNL A   1      35.485  18.565  25.506  1.00  0.00     0.163 HD
BRANCH  19  21
ATOM     21  C   UNL A   1      34.282  17.764  24.065  1.00  0.00     0.082 C 
ATOM     22  C   UNL A   1      34.358  16.359  24.612  1.00  0.00     0.027 C 
ATOM     23  C   UNL A   1      33.030  16.986  24.338  1.00  0.00     0.027 C 
ENDBRANCH  19  21
ENDBRANCH  16  17
ENDBRANCH  15  16
ENDBRANCH  14  15
ENDBRANCH  12  14
ENDBRANCH   9  12
ENDBRANCH   1   5
BRANCH   3  24
ATOM     24  C   UNL A   1      35.209  29.297  27.118  1.00  0.00     0.118 C 
BRANCH  24  25
ATOM     25  C   UNL A   1      35.216  30.262  28.306  1.00  0.00     0.042 C 
BRANCH  25  26
ATOM     26  C   UNL A   1      35.506  31.700  27.938  1.00  0.00     0.118 C 
BRANCH  26  27
ATOM     27  N   UNL A   1      34.478  32.621  28.423  1.00  0.00    -0.352 N 
ATOM     28  C   UNL A   1      34.572  33.508  29.484  1.00  0.00     0.251 C 
ATOM     29  H   UNL A   1      33.620  32.610  27.941  1.00  0.00     0.163 HD
ATOM     30  O   UNL A   1      33.623  34.223  29.791  1.00  0.00    -0.269 OA
BRANCH  28  31
ATOM     31  C   UNL A   1      35.886  33.619  30.148  1.00  0.00     0.039 A 
ATOM     32  C   UNL A   1      36.936  34.133  29.386  1.00  0.00     0.014 A 
ATOM     33  C   UNL A   1      36.125  32.838  31.278  1.00  0.00     0.014 A 
ATOM     34  C   UNL A   1      38.216  33.632  29.587  1.00  0.00     0.010 A 
ATOM     35  C   UNL A   1      37.374  32.267  31.412  1.00  0.00     0.010 A 
ATOM     36  C   UNL A   1      38.393  32.608  30.515  1.00  0.00    -0.014 A 
BRANCH  36  37
ATOM     37  C   UNL A   1      39.624  31.847  30.638  1.00  0.00     0.031 A 
ATOM     38  C   UNL A   1      39.689  30.511  30.031  1.00  0.00     0.074 A 
ATOM     39  C   UNL A   1      40.707  32.358  31.265  1.00  0.00     0.049 A 
ATOM     40  N   UNL A   1      40.530  29.599  30.373  1.00  0.00    -0.248 NA
ATOM     41  C   UNL A   1      38.731  30.086  29.024  1.00  0.00     0.031 C 
ATOM     42  C   UNL A   1      42.075  31.856  31.217  1.00  0.00     0.029 A 
ATOM     43  N   UNL A   1      40.725  33.306  32.290  1.00  0.00    -0.354 N 
ATOM     44  C   UNL A   1      40.425  28.586  29.447  1.00  0.00     0.074 A 
ATOM     45  C   UNL A   1      39.219  28.884  28.714  1.00  0.00     0.031 C 
ATOM     46  C   UNL A   1      42.722  32.264  32.319  1.00  0.00     0.029 A 
ATOM     47  C   UNL A   1      41.743  32.902  33.179  1.00  0.00     0.049 A 
ATOM     48  H   UNL A   1      40.144  34.096  32.374  1.00  0.00     0.167 HD
ATOM     49  C   UNL A   1      41.465  27.714  29.316  1.00  0.00     0.034 A 
ATOM     50  C   UNL A   1      41.533  32.625  34.501  1.00  0.00     0.034 A 
ATOM     51  C   UNL A   1      42.464  27.918  30.383  1.00  0.00     0.049 A 
ATOM     52  C   UNL A   1      41.965  31.219  34.902  1.00  0.00     0.074 A 
ATOM     53  C   UNL A   1      43.701  28.542  30.449  1.00  0.00     0.029 A 
ATOM     54  N   UNL A   1      42.098  27.666  31.699  1.00  0.00    -0.354 N 
ATOM     55  N   UNL A   1      42.521  30.346  34.107  1.00  0.00    -0.248 NA
ATOM     56  C   UNL A   1      41.664  30.654  36.216  1.00  0.00     0.031 C 
ATOM     57  C   UNL A   1      44.062  28.680  31.822  1.00  0.00     0.029 A 
ATOM     58  C   UNL A   1      43.060  28.119  32.592  1.00  0.00     0.049 A 
ATOM     59  H   UNL A   1      41.261  27.222  31.966  1.00  0.00     0.167 HD
ATOM     60  C   UNL A   1      42.489  29.101  34.696  1.00  0.00     0.074 A 
ATOM     61  C   UNL A   1      41.953  29.358  36.023  1.00  0.00     0.031 C 
ATOM     62  C   UNL A   1      42.822  27.950  34.024  1.00  0.00     0.034 A 
BRANCH  49  63
ATOM     63  C   UNL A   1      41.740  26.891  28.062  1.00  0.00     0.023 A 
ATOM     64  C   UNL A   1      41.445  27.489  26.817  1.00  0.00     0.012 A 
ATOM     65  C   UNL A   1      42.174  25.544  27.999  1.00  0.00     0.148 A 
ATOM     66  C   UNL A   1      41.463  26.777  25.612  1.00  0.00     0.002 A 
ATOM     67  C   UNL A   1      42.128  24.810  26.811  1.00  0.00     0.091 A 
ATOM     68  F   UNL A   1      42.730  24.969  29.064  1.00  0.00    -0.205 F 
ATOM     69  C   UNL A   1      41.767  25.424  25.612  1.00  0.00     0.022 A 
BRANCH  67  70
ATOM     70  S   UNL A   1      42.449  23.035  26.758  1.00  0.00     0.127 S 
ATOM     71  O   UNL A   1      41.369  22.503  27.591  1.00  0.00    -0.237 OA
ATOM     72  O   UNL A   1      42.320  22.735  25.332  1.00  0.00    -0.237 OA
ATOM     73  O   UNL A   1      43.781  22.842  27.318  1.00  0.00    -0.744 OA
ENDBRANCH  67  70
ENDBRANCH  49  63
BRANCH  50  74
ATOM     74  C   UNL A   1      40.348  33.345  35.064  1.00  0.00     0.023 A 
ATOM     75  C   UNL A   1      39.077  32.751  34.870  1.00  0.00     0.012 A 
ATOM     76  C   UNL A   1      40.498  34.293  36.088  1.00  0.00     0.148 A 
ATOM     77  C   UNL A   1      38.053  32.943  35.799  1.00  0.00     0.002 A 
ATOM     78  C   UNL A   1      39.462  34.500  36.992  1.00  0.00     0.091 A 
ATOM     79  F   UNL A   1      41.669  34.925  36.231  1.00  0.00    -0.205 F 
ATOM     80  C   UNL A   1      38.263  33.782  36.888  1.00  0.00     0.022 A 
BRANCH  78  81
ATOM     81  S   UNL A   1      39.702  35.611  38.381  1.00  0.00     0.127 S 
ATOM     82  O   UNL A   1      38.523  35.325  39.191  1.00  0.00    -0.237 OA
ATOM     83  O   UNL A   1      40.967  35.149  38.948  1.00  0.00    -0.237 OA
ATOM     84  O   UNL A   1      39.770  36.931  37.768  1.00  0.00    -0.744 OA
ENDBRANCH  78  81
ENDBRANCH  50  74
BRANCH  62  85
ATOM     85  C   UNL A   1      42.873  26.548  34.636  1.00  0.00     0.023 A 
ATOM     86  C   UNL A   1      41.728  25.914  35.160  1.00  0.00     0.012 A 
ATOM     87  C   UNL A   1      44.095  25.835  34.791  1.00  0.00     0.148 A 
ATOM     88  C   UNL A   1      41.753  24.603  35.654  1.00  0.00     0.002 A 
ATOM     89  C   UNL A   1      44.126  24.543  35.314  1.00  0.00     0.091 A 
ATOM     90  F   UNL A   1      45.256  26.424  34.488  1.00  0.00    -0.205 F 
ATOM     91  C   UNL A   1      42.950  23.909  35.712  1.00  0.00     0.022 A 
BRANCH  89  92
ATOM     92  S   UNL A   1      45.660  23.630  35.546  1.00  0.00     0.127 S 
ATOM     93  O   UNL A   1      46.188  23.594  34.182  1.00  0.00    -0.237 OA
ATOM     94  O   UNL A   1      46.397  24.502  36.460  1.00  0.00    -0.237 OA
ATOM     95  O   UNL A   1      45.288  22.339  36.106  1.00  0.00    -0.744 OA
ENDBRANCH  89  92
ENDBRANCH  62  85
ENDBRANCH  36  37
ENDBRANCH  28  31
ENDBRANCH  26  27
ENDBRANCH  25  26
ENDBRANCH  24  25
ENDBRANCH   3  24
TORSDOF 19
ENDMDL
