MODEL 1
REMARK VINA RESULT:     -12.5      0.000      0.000
REMARK SMILES CCCCc1cc(S(F)(F)(F)(F)F)cc2c1O[C@@H](C(F)(F)F)C(C(=O)NCCCNC(=O)c1ccc(-c3c4nc(c(-c5cccc(S(=O)(=O)[O-])c5F)c5ccc([nH]5)c(-c5cccc(S(=O)(=O)[O-])c5F)c5nc(c(-c6cccc(S(=O)(=O)[O-])c6F)c6ccc3[nH]6)C=C5)C=C4)cc1)=C2
REMARK SMILES IDX 28 1 27 2 26 3 24 4 25 5 23 7 5 8 6 9 16 10 7 11 15 12 17 13
REMARK SMILES IDX 14 14 96 15 18 16 4 17 3 18 2 19 1 20 8 21 9 22 10 23 11 24
REMARK SMILES IDX 12 25 13 26 19 27 20 28 21 29 22 30 29 31 30 32 31 33 32 35
REMARK SMILES IDX 33 36 34 37 95 38 35 39 94 40 36 41 37 42 38 43 88 44 39 45
REMARK SMILES IDX 93 46 87 47 89 48 40 49 92 50 86 51 85 52 41 54 73 55 53 56
REMARK SMILES IDX 72 57 54 58 57 59 71 60 90 61 55 62 56 63 70 65 91 66 58 67
REMARK SMILES IDX 42 68 43 69 51 70 44 71 46 72 52 73 45 74 47 75 48 76 49 77
REMARK SMILES IDX 50 78 74 79 75 80 83 81 76 82 78 83 84 84 77 85 79 86 80 87
REMARK SMILES IDX 81 88 82 89 59 90 60 91 68 92 61 93 63 94 69 95 62 96 64 97
REMARK SMILES IDX 65 98 66 99 67 100
REMARK H PARENT 26 6 30 34 89 53 57 64
REMARK Flexibility Score: inf
ROOT
ATOM      1  C   UNL A   1      33.056  27.803  26.025  1.00  0.00     0.042 C 
ENDROOT
BRANCH   1   2
ATOM      2  C   UNL A   1      33.555  26.648  25.174  1.00  0.00     0.118 C 
BRANCH   2   3
ATOM      3  N   UNL A   1      33.555  27.047  23.759  1.00  0.00    -0.352 N 
ATOM      4  C   UNL A   1      33.661  26.026  22.707  1.00  0.00     0.251 C 
ATOM      5  O   UNL A   1      33.661  26.371  21.484  1.00  0.00    -0.270 OA
ATOM      6  H   UNL A   1      33.483  27.999  23.515  1.00  0.00     0.163 HD
BRANCH   4   7
ATOM      7  C   UNL A   1      33.772  24.557  23.082  1.00  0.00     0.067 C 
ATOM      8  C   UNL A   1      33.840  20.647  24.548  1.00  0.00    -0.004 A 
ATOM      9  C   UNL A   1      35.045  20.055  24.881  1.00  0.00     0.032 A 
ATOM     10  C   UNL A   1      33.842  21.952  24.119  1.00  0.00     0.131 A 
ATOM     11  C   UNL A   1      36.221  20.753  24.792  1.00  0.00     0.108 A 
ATOM     12  C   UNL A   1      35.011  22.681  23.999  1.00  0.00     0.019 A 
ATOM     13  O   UNL A   1      32.630  22.560  23.901  1.00  0.00    -0.475 OA
ATOM     14  C   UNL A   1      36.204  22.059  24.346  1.00  0.00     0.036 A 
ATOM     15  C   UNL A   1      34.903  24.067  23.574  1.00  0.00     0.025 C 
ATOM     16  C   UNL A   1      32.588  23.617  22.901  1.00  0.00     0.314 C 
BRANCH   8  17
ATOM     17  C   UNL A   1      32.539  19.868  24.655  1.00  0.00     0.039 C 
BRANCH  17  18
ATOM     18  C   UNL A   1      32.491  18.812  23.563  1.00  0.00     0.005 C 
BRANCH  18  19
ATOM     19  C   UNL A   1      32.854  17.457  24.150  1.00  0.00    -0.003 C 
ATOM     20  C   UNL A   1      33.948  16.818  23.312  1.00  0.00     0.004 C 
ENDBRANCH  18  19
ENDBRANCH  17  18
ENDBRANCH   8  17
BRANCH  11  21
ATOM     21  S   UNL A   1      37.785  19.968  25.256  1.00  0.00     0.310 S 
ATOM     22  F   UNL A   1      38.184  19.720  23.741  1.00  0.00    -0.094 F 
ATOM     23  F   UNL A   1      37.068  18.565  25.224  1.00  0.00    -0.094 F 
ATOM     24  F   UNL A   1      39.132  19.302  25.655  1.00  0.00    -0.094 F 
ATOM     25  F   UNL A   1      38.516  21.363  25.145  1.00  0.00    -0.094 F 
ATOM     26  F   UNL A   1      36.452  20.643  24.740  1.00  0.00    -0.094 F 
ENDBRANCH  11  21
BRANCH  16  27
ATOM     27  C   UNL A   1      31.299  24.405  23.067  1.00  0.00     0.429 C 
ATOM     28  F   UNL A   1      30.263  23.570  23.043  1.00  0.00    -0.167 F 
ATOM     29  F   UNL A   1      31.320  25.049  24.229  1.00  0.00    -0.167 F 
ATOM     30  F   UNL A   1      31.184  25.282  22.074  1.00  0.00    -0.167 F 
ENDBRANCH  16  27
ENDBRANCH   4   7
ENDBRANCH   2   3
ENDBRANCH   1   2
BRANCH   1  31
ATOM     31  C   UNL A   1      33.926  29.026  25.780  1.00  0.00     0.118 C 
BRANCH  31  32
ATOM     32  N   UNL A   1      33.152  30.243  26.065  1.00  0.00    -0.352 N 
ATOM     33  C   UNL A   1      33.605  31.174  27.108  1.00  0.00     0.251 C 
ATOM     34  H   UNL A   1      32.331  30.434  25.557  1.00  0.00     0.163 HD
ATOM     35  O   UNL A   1      32.936  32.227  27.354  1.00  0.00    -0.269 OA
BRANCH  33  36
ATOM     36  C   UNL A   1      34.874  30.879  27.892  1.00  0.00     0.039 A 
ATOM     37  C   UNL A   1      35.874  31.836  27.952  1.00  0.00     0.014 A 
ATOM     38  C   UNL A   1      35.002  29.710  28.507  1.00  0.00     0.014 A 
ATOM     39  C   UNL A   1      37.104  31.349  28.451  1.00  0.00     0.010 A 
ATOM     40  C   UNL A   1      36.193  29.354  29.093  1.00  0.00     0.010 A 
ATOM     41  C   UNL A   1      37.243  30.229  29.137  1.00  0.00    -0.014 A 
BRANCH  41  42
ATOM     42  C   UNL A   1      38.503  29.927  29.932  1.00  0.00     0.031 A 
ATOM     43  C   UNL A   1      39.469  29.109  29.343  1.00  0.00     0.074 A 
ATOM     44  C   UNL A   1      38.622  30.480  31.195  1.00  0.00     0.049 A 
ATOM     45  N   UNL A   1      40.649  28.749  29.851  1.00  0.00    -0.248 NA
ATOM     46  C   UNL A   1      39.329  28.493  28.016  1.00  0.00     0.031 C 
ATOM     47  C   UNL A   1      37.657  31.313  31.793  1.00  0.00     0.029 A 
ATOM     48  N   UNL A   1      39.662  30.334  32.087  1.00  0.00    -0.354 N 
ATOM     49  C   UNL A   1      41.306  27.975  28.985  1.00  0.00     0.074 A 
ATOM     50  C   UNL A   1      40.464  27.793  27.794  1.00  0.00     0.031 C 
ATOM     51  C   UNL A   1      38.102  31.655  33.030  1.00  0.00     0.029 A 
ATOM     52  C   UNL A   1      39.353  31.042  33.228  1.00  0.00     0.049 A 
ATOM     53  H   UNL A   1      40.483  29.812  31.935  1.00  0.00     0.167 HD
ATOM     54  C   UNL A   1      42.574  27.414  29.141  1.00  0.00     0.034 A 
ATOM     55  C   UNL A   1      40.107  31.156  34.385  1.00  0.00     0.034 A 
ATOM     56  C   UNL A   1      43.347  27.564  30.282  1.00  0.00     0.049 A 
ATOM     57  C   UNL A   1      41.350  30.547  34.564  1.00  0.00     0.074 A 
ATOM     58  C   UNL A   1      44.631  27.012  30.452  1.00  0.00     0.029 A 
ATOM     59  N   UNL A   1      43.028  28.252  31.432  1.00  0.00    -0.354 N 
ATOM     60  N   UNL A   1      42.024  29.805  33.683  1.00  0.00    -0.248 NA
ATOM     61  C   UNL A   1      42.143  30.635  35.798  1.00  0.00     0.031 C 
ATOM     62  C   UNL A   1      45.076  27.353  31.691  1.00  0.00     0.029 A 
ATOM     63  C   UNL A   1      44.077  28.125  32.314  1.00  0.00     0.049 A 
ATOM     64  H   UNL A   1      42.193  28.749  31.595  1.00  0.00     0.167 HD
ATOM     65  C   UNL A   1      43.186  29.412  34.208  1.00  0.00     0.074 A 
ATOM     66  C   UNL A   1      43.276  29.934  35.578  1.00  0.00     0.031 C 
ATOM     67  C   UNL A   1      44.177  28.642  33.597  1.00  0.00     0.034 A 
BRANCH  54  68
ATOM     68  C   UNL A   1      43.141  26.591  27.994  1.00  0.00     0.023 A 
ATOM     69  C   UNL A   1      43.922  27.191  27.021  1.00  0.00     0.012 A 
ATOM     70  C   UNL A   1      42.829  25.302  27.930  1.00  0.00     0.148 A 
ATOM     71  C   UNL A   1      44.087  26.407  25.855  1.00  0.00     0.002 A 
ATOM     72  C   UNL A   1      43.143  24.562  26.815  1.00  0.00     0.091 A 
ATOM     73  F   UNL A   1      42.208  24.722  28.953  1.00  0.00    -0.205 F 
ATOM     74  C   UNL A   1      43.862  25.108  25.788  1.00  0.00     0.022 A 
BRANCH  72  75
ATOM     75  S   UNL A   1      42.597  22.839  26.705  1.00  0.00     0.127 S 
ATOM     76  O   UNL A   1      42.891  22.126  28.027  1.00  0.00    -0.237 OA
ATOM     77  O   UNL A   1      41.093  22.798  26.427  1.00  0.00    -0.237 OA
ATOM     78  O   UNL A   1      43.434  22.056  25.436  1.00  0.00    -0.744 OA
ENDBRANCH  72  75
ENDBRANCH  54  68
BRANCH  55  79
ATOM     79  C   UNL A   1      39.547  31.993  35.524  1.00  0.00     0.023 A 
ATOM     80  C   UNL A   1      38.603  31.483  36.400  1.00  0.00     0.012 A 
ATOM     81  C   UNL A   1      40.013  33.230  35.658  1.00  0.00     0.148 A 
ATOM     82  C   UNL A   1      37.992  32.461  37.220  1.00  0.00     0.002 A 
ATOM     83  C   UNL A   1      39.459  34.090  36.575  1.00  0.00     0.091 A 
ATOM     84  F   UNL A   1      41.024  33.638  34.898  1.00  0.00    -0.205 F 
ATOM     85  C   UNL A   1      38.481  33.670  37.432  1.00  0.00     0.022 A 
BRANCH  83  86
ATOM     86  S   UNL A   1      40.034  35.805  36.648  1.00  0.00     0.127 S 
ATOM     87  O   UNL A   1      39.685  36.516  35.337  1.00  0.00    -0.237 OA
ATOM     88  O   UNL A   1      39.351  36.522  37.815  1.00  0.00    -0.237 OA
ATOM     89  O   UNL A   1      41.728  35.830  36.876  1.00  0.00    -0.744 OA
ENDBRANCH  83  86
ENDBRANCH  55  79
BRANCH  67  90
ATOM     90  C   UNL A   1      45.444  28.352  34.386  1.00  0.00     0.023 A 
ATOM     91  C   UNL A   1      46.509  29.234  34.310  1.00  0.00     0.012 A 
ATOM     92  C   UNL A   1      45.507  27.258  35.136  1.00  0.00     0.148 A 
ATOM     93  C   UNL A   1      47.716  28.723  34.841  1.00  0.00     0.002 A 
ATOM     94  C   UNL A   1      46.687  26.891  35.738  1.00  0.00     0.091 A 
ATOM     95  F   UNL A   1      44.419  26.513  35.308  1.00  0.00    -0.205 F 
ATOM     96  C   UNL A   1      47.796  27.685  35.655  1.00  0.00     0.022 A 
BRANCH  94  97
ATOM     97  S   UNL A   1      46.773  25.332  36.653  1.00  0.00     0.127 S 
ATOM     98  O   UNL A   1      45.748  25.351  37.790  1.00  0.00    -0.237 OA
ATOM     99  O   UNL A   1      46.465  24.168  35.708  1.00  0.00    -0.237 OA
ATOM    100  O   UNL A   1      48.342  25.138  37.305  1.00  0.00    -0.744 OA
ENDBRANCH  94  97
ENDBRANCH  67  90
ENDBRANCH  41  42
ENDBRANCH  33  36
ENDBRANCH  31  32
ENDBRANCH   1  31
TORSDOF 18
ENDMDL
MODEL 2
REMARK VINA RESULT:     -11.7      2.329      3.436
REMARK SMILES CCCCc1cc(S(F)(F)(F)(F)F)cc2c1O[C@@H](C(F)(F)F)C(C(=O)NCCCNC(=O)c1ccc(-c3c4nc(c(-c5cccc(S(=O)(=O)[O-])c5F)c5ccc([nH]5)c(-c5cccc(S(=O)(=O)[O-])c5F)c5nc(c(-c6cccc(S(=O)(=O)[O-])c6F)c6ccc3[nH]6)C=C5)C=C4)cc1)=C2
REMARK SMILES IDX 28 1 27 2 26 3 24 4 25 5 23 7 5 8 6 9 16 10 7 11 15 12 17 13
REMARK SMILES IDX 14 14 96 15 18 16 4 17 3 18 2 19 1 20 8 21 9 22 10 23 11 24
REMARK SMILES IDX 12 25 13 26 19 27 20 28 21 29 22 30 29 31 30 32 31 33 32 35
REMARK SMILES IDX 33 36 34 37 95 38 35 39 94 40 36 41 37 42 38 43 88 44 39 45
REMARK SMILES IDX 93 46 87 47 89 48 40 49 92 50 86 51 85 52 41 54 73 55 53 56
REMARK SMILES IDX 72 57 54 58 57 59 71 60 90 61 55 62 56 63 70 65 91 66 58 67
REMARK SMILES IDX 42 68 43 69 51 70 44 71 46 72 52 73 45 74 47 75 48 76 49 77
REMARK SMILES IDX 50 78 74 79 75 80 83 81 76 82 78 83 84 84 77 85 79 86 80 87
REMARK SMILES IDX 81 88 82 89 59 90 60 91 68 92 61 93 63 94 69 95 62 96 64 97
REMARK SMILES IDX 65 98 66 99 67 100
REMARK H PARENT 26 6 30 34 89 53 57 64
REMARK Flexibility Score: inf
ROOT
ATOM      1  C   UNL A   1      34.818  29.848  27.476  1.00  0.00     0.042 C 
ENDROOT
BRANCH   1   2
ATOM      2  C   UNL A   1      33.638  29.766  26.522  1.00  0.00     0.118 C 
BRANCH   2   3
ATOM      3  N   UNL A   1      32.440  29.341  27.261  1.00  0.00    -0.352 N 
ATOM      4  C   UNL A   1      31.876  28.002  27.038  1.00  0.00     0.251 C 
ATOM      5  O   UNL A   1      30.840  27.635  27.677  1.00  0.00    -0.270 OA
ATOM      6  H   UNL A   1      32.017  29.952  27.906  1.00  0.00     0.163 HD
BRANCH   4   7
ATOM      7  C   UNL A   1      32.529  27.058  26.043  1.00  0.00     0.067 C 
ATOM      8  C   UNL A   1      33.893  24.189  23.330  1.00  0.00    -0.004 A 
ATOM      9  C   UNL A   1      34.937  23.351  23.679  1.00  0.00     0.032 A 
ATOM     10  C   UNL A   1      33.430  25.087  24.261  1.00  0.00     0.131 A 
ATOM     11  C   UNL A   1      35.499  23.407  24.927  1.00  0.00     0.108 A 
ATOM     12  C   UNL A   1      33.984  25.184  25.524  1.00  0.00     0.019 A 
ATOM     13  O   UNL A   1      32.321  25.832  23.940  1.00  0.00    -0.475 OA
ATOM     14  C   UNL A   1      35.028  24.325  25.843  1.00  0.00     0.036 A 
ATOM     15  C   UNL A   1      33.397  26.139  26.449  1.00  0.00     0.025 C 
ATOM     16  C   UNL A   1      32.203  27.145  24.557  1.00  0.00     0.314 C 
BRANCH   8  17
ATOM     17  C   UNL A   1      33.272  24.117  21.945  1.00  0.00     0.039 C 
BRANCH  17  18
ATOM     18  C   UNL A   1      32.909  22.676  21.627  1.00  0.00     0.005 C 
BRANCH  18  19
ATOM     19  C   UNL A   1      31.920  22.162  22.661  1.00  0.00    -0.003 C 
ATOM     20  C   UNL A   1      32.384  20.812  23.180  1.00  0.00     0.004 C 
ENDBRANCH  18  19
ENDBRANCH  17  18
ENDBRANCH   8  17
BRANCH  11  21
ATOM     21  S   UNL A   1      36.848  22.284  25.371  1.00  0.00     0.310 S 
ATOM     22  F   UNL A   1      36.986  21.758  23.882  1.00  0.00    -0.094 F 
ATOM     23  F   UNL A   1      35.792  21.138  25.605  1.00  0.00    -0.094 F 
ATOM     24  F   UNL A   1      38.012  21.327  25.752  1.00  0.00    -0.094 F 
ATOM     25  F   UNL A   1      37.899  23.402  24.997  1.00  0.00    -0.094 F 
ATOM     26  F   UNL A   1      35.686  23.233  24.873  1.00  0.00    -0.094 F 
ENDBRANCH  11  21
BRANCH  16  27
ATOM     27  C   UNL A   1      30.777  27.643  24.391  1.00  0.00     0.429 C 
ATOM     28  F   UNL A   1      30.436  27.592  23.106  1.00  0.00    -0.167 F 
ATOM     29  F   UNL A   1      29.953  26.875  25.098  1.00  0.00    -0.167 F 
ATOM     30  F   UNL A   1      30.692  28.898  24.823  1.00  0.00    -0.167 F 
ENDBRANCH  16  27
ENDBRANCH   4   7
ENDBRANCH   2   3
ENDBRANCH   1   2
BRANCH   1  31
ATOM     31  C   UNL A   1      35.274  31.294  27.594  1.00  0.00     0.118 C 
BRANCH  31  32
ATOM     32  N   UNL A   1      34.515  31.961  28.662  1.00  0.00    -0.352 N 
ATOM     33  C   UNL A   1      35.064  32.023  30.024  1.00  0.00     0.251 C 
ATOM     34  H   UNL A   1      33.641  32.367  28.464  1.00  0.00     0.163 HD
ATOM     35  O   UNL A   1      34.408  32.601  30.947  1.00  0.00    -0.269 OA
BRANCH  33  36
ATOM     36  C   UNL A   1      36.415  31.397  30.329  1.00  0.00     0.039 A 
ATOM     37  C   UNL A   1      37.572  32.063  29.960  1.00  0.00     0.014 A 
ATOM     38  C   UNL A   1      36.464  30.222  30.946  1.00  0.00     0.014 A 
ATOM     39  C   UNL A   1      38.738  31.267  30.027  1.00  0.00     0.010 A 
ATOM     40  C   UNL A   1      37.660  29.561  31.098  1.00  0.00     0.010 A 
ATOM     41  C   UNL A   1      38.835  30.136  30.702  1.00  0.00    -0.014 A 
BRANCH  41  42
ATOM     42  C   UNL A   1      40.181  29.506  31.021  1.00  0.00     0.031 A 
ATOM     43  C   UNL A   1      40.659  28.514  30.163  1.00  0.00     0.074 A 
ATOM     44  C   UNL A   1      40.857  29.949  32.144  1.00  0.00     0.049 A 
ATOM     45  N   UNL A   1      41.820  27.860  30.242  1.00  0.00    -0.248 NA
ATOM     46  C   UNL A   1      39.928  28.016  28.988  1.00  0.00     0.031 C 
ATOM     47  C   UNL A   1      40.385  30.955  33.010  1.00  0.00     0.029 A 
ATOM     48  N   UNL A   1      42.073  29.517  32.625  1.00  0.00    -0.354 N 
ATOM     49  C   UNL A   1      41.933  26.998  29.230  1.00  0.00     0.074 A 
ATOM     50  C   UNL A   1      40.715  27.081  28.412  1.00  0.00     0.031 C 
ATOM     51  C   UNL A   1      41.297  31.118  34.004  1.00  0.00     0.029 A 
ATOM     52  C   UNL A   1      42.355  30.219  33.776  1.00  0.00     0.049 A 
ATOM     53  H   UNL A   1      42.642  28.825  32.216  1.00  0.00     0.167 HD
ATOM     54  C   UNL A   1      43.004  26.146  28.956  1.00  0.00     0.034 A 
ATOM     55  C   UNL A   1      43.465  30.093  34.596  1.00  0.00     0.034 A 
ATOM     56  C   UNL A   1      44.135  26.052  29.752  1.00  0.00     0.049 A 
ATOM     57  C   UNL A   1      44.511  29.199  34.354  1.00  0.00     0.074 A 
ATOM     58  C   UNL A   1      45.227  25.204  29.486  1.00  0.00     0.029 A 
ATOM     59  N   UNL A   1      44.406  26.736  30.917  1.00  0.00    -0.354 N 
ATOM     60  N   UNL A   1      44.642  28.365  33.321  1.00  0.00    -0.248 NA
ATOM     61  C   UNL A   1      45.676  29.034  35.233  1.00  0.00     0.031 C 
ATOM     62  C   UNL A   1      46.140  25.368  30.481  1.00  0.00     0.029 A 
ATOM     63  C   UNL A   1      45.632  26.320  31.385  1.00  0.00     0.049 A 
ATOM     64  H   UNL A   1      43.823  27.407  31.341  1.00  0.00     0.167 HD
ATOM     65  C   UNL A   1      45.784  27.683  33.423  1.00  0.00     0.074 A 
ATOM     66  C   UNL A   1      46.462  28.098  34.658  1.00  0.00     0.031 C 
ATOM     67  C   UNL A   1      46.289  26.733  32.534  1.00  0.00     0.034 A 
BRANCH  54  68
ATOM     68  C   UNL A   1      42.927  25.273  27.714  1.00  0.00     0.023 A 
ATOM     69  C   UNL A   1      43.313  25.773  26.482  1.00  0.00     0.012 A 
ATOM     70  C   UNL A   1      42.440  24.044  27.837  1.00  0.00     0.148 A 
ATOM     71  C   UNL A   1      42.872  24.996  25.384  1.00  0.00     0.002 A 
ATOM     72  C   UNL A   1      42.160  23.288  26.724  1.00  0.00     0.091 A 
ATOM     73  F   UNL A   1      42.221  23.540  29.048  1.00  0.00    -0.205 F 
ATOM     74  C   UNL A   1      42.460  23.744  25.470  1.00  0.00     0.022 A 
BRANCH  72  75
ATOM     75  S   UNL A   1      41.382  21.665  26.921  1.00  0.00     0.127 S 
ATOM     76  O   UNL A   1      40.034  21.828  27.626  1.00  0.00    -0.237 OA
ATOM     77  O   UNL A   1      41.164  21.034  25.544  1.00  0.00    -0.237 OA
ATOM     78  O   UNL A   1      42.398  20.656  27.856  1.00  0.00    -0.744 OA
ENDBRANCH  72  75
ENDBRANCH  54  68
BRANCH  55  79
ATOM     79  C   UNL A   1      43.550  30.978  35.829  1.00  0.00     0.023 A 
ATOM     80  C   UNL A   1      43.072  30.555  37.058  1.00  0.00     0.012 A 
ATOM     81  C   UNL A   1      44.117  32.171  35.684  1.00  0.00     0.148 A 
ATOM     82  C   UNL A   1      42.976  31.585  38.023  1.00  0.00     0.002 A 
ATOM     83  C   UNL A   1      44.107  33.079  36.715  1.00  0.00     0.091 A 
ATOM     84  F   UNL A   1      44.700  32.488  34.532  1.00  0.00    -0.205 F 
ATOM     85  C   UNL A   1      43.597  32.748  37.939  1.00  0.00     0.022 A 
BRANCH  83  86
ATOM     86  S   UNL A   1      44.780  34.739  36.448  1.00  0.00     0.127 S 
ATOM     87  O   UNL A   1      46.226  34.788  36.947  1.00  0.00    -0.237 OA
ATOM     88  O   UNL A   1      44.742  35.069  34.954  1.00  0.00    -0.237 OA
ATOM     89  O   UNL A   1      43.841  35.880  37.308  1.00  0.00    -0.744 OA
ENDBRANCH  83  86
ENDBRANCH  55  79
BRANCH  67  90
ATOM     90  C   UNL A   1      47.641  26.113  32.844  1.00  0.00     0.023 A 
ATOM     91  C   UNL A   1      48.781  26.639  32.260  1.00  0.00     0.012 A 
ATOM     92  C   UNL A   1      47.708  25.076  33.673  1.00  0.00     0.148 A 
ATOM     93  C   UNL A   1      49.924  25.815  32.387  1.00  0.00     0.002 A 
ATOM     94  C   UNL A   1      48.891  24.400  33.853  1.00  0.00     0.091 A 
ATOM     95  F   UNL A   1      46.620  24.690  34.333  1.00  0.00    -0.205 F 
ATOM     96  C   UNL A   1      50.045  24.831  33.260  1.00  0.00     0.022 A 
BRANCH  94  97
ATOM     97  S   UNL A   1      48.921  22.919  34.893  1.00  0.00     0.127 S 
ATOM     98  O   UNL A   1      48.574  23.301  36.334  1.00  0.00    -0.237 OA
ATOM     99  O   UNL A   1      47.897  21.909  34.371  1.00  0.00    -0.237 OA
ATOM    100  O   UNL A   1      50.482  22.223  34.850  1.00  0.00    -0.744 OA
ENDBRANCH  94  97
ENDBRANCH  67  90
ENDBRANCH  41  42
ENDBRANCH  33  36
ENDBRANCH  31  32
ENDBRANCH   1  31
TORSDOF 18
ENDMDL
MODEL 3
REMARK VINA RESULT:     -11.6      1.770      2.230
REMARK SMILES CCCCc1cc(S(F)(F)(F)(F)F)cc2c1O[C@@H](C(F)(F)F)C(C(=O)NCCCNC(=O)c1ccc(-c3c4nc(c(-c5cccc(S(=O)(=O)[O-])c5F)c5ccc([nH]5)c(-c5cccc(S(=O)(=O)[O-])c5F)c5nc(c(-c6cccc(S(=O)(=O)[O-])c6F)c6ccc3[nH]6)C=C5)C=C4)cc1)=C2
REMARK SMILES IDX 28 1 27 2 26 3 24 4 25 5 23 7 5 8 6 9 16 10 7 11 15 12 17 13
REMARK SMILES IDX 14 14 96 15 18 16 4 17 3 18 2 19 1 20 8 21 9 22 10 23 11 24
REMARK SMILES IDX 12 25 13 26 19 27 20 28 21 29 22 30 29 31 30 32 31 33 32 35
REMARK SMILES IDX 33 36 34 37 95 38 35 39 94 40 36 41 37 42 38 43 88 44 39 45
REMARK SMILES IDX 93 46 87 47 89 48 40 49 92 50 86 51 85 52 41 54 73 55 53 56
REMARK SMILES IDX 72 57 54 58 57 59 71 60 90 61 55 62 56 63 70 65 91 66 58 67
REMARK SMILES IDX 42 68 43 69 51 70 44 71 46 72 52 73 45 74 47 75 48 76 49 77
REMARK SMILES IDX 50 78 74 79 75 80 83 81 76 82 78 83 84 84 77 85 79 86 80 87
REMARK SMILES IDX 81 88 82 89 59 90 60 91 68 92 61 93 63 94 69 95 62 96 64 97
REMARK SMILES IDX 65 98 66 99 67 100
REMARK H PARENT 26 6 30 34 89 53 57 64
REMARK Flexibility Score: inf
ROOT
ATOM      1  C   UNL A   1      33.489  29.046  23.862  1.00  0.00     0.042 C 
ENDROOT
BRANCH   1   2
ATOM      2  C   UNL A   1      32.019  28.659  23.852  1.00  0.00     0.118 C 
BRANCH   2   3
ATOM      3  N   UNL A   1      31.506  28.645  25.230  1.00  0.00    -0.352 N 
ATOM      4  C   UNL A   1      31.527  27.399  26.009  1.00  0.00     0.251 C 
ATOM      5  O   UNL A   1      31.083  27.388  27.201  1.00  0.00    -0.270 OA
ATOM      6  H   UNL A   1      31.150  29.471  25.631  1.00  0.00     0.163 HD
BRANCH   4   7
ATOM      7  C   UNL A   1      32.077  26.125  25.391  1.00  0.00     0.067 C 
ATOM      8  C   UNL A   1      33.267  22.370  24.001  1.00  0.00    -0.004 A 
ATOM      9  C   UNL A   1      34.544  21.909  24.265  1.00  0.00     0.032 A 
ATOM     10  C   UNL A   1      32.885  23.585  24.516  1.00  0.00     0.131 A 
ATOM     11  C   UNL A   1      35.414  22.642  25.028  1.00  0.00     0.108 A 
ATOM     12  C   UNL A   1      33.741  24.361  25.274  1.00  0.00     0.019 A 
ATOM     13  O   UNL A   1      31.580  23.977  24.340  1.00  0.00    -0.475 OA
ATOM     14  C   UNL A   1      35.016  23.867  25.525  1.00  0.00     0.036 A 
ATOM     15  C   UNL A   1      33.229  25.613  25.806  1.00  0.00     0.025 C 
ATOM     16  C   UNL A   1      31.318  25.407  24.282  1.00  0.00     0.314 C 
BRANCH   8  17
ATOM     17  C   UNL A   1      32.306  21.548  23.157  1.00  0.00     0.039 C 
BRANCH  17  18
ATOM     18  C   UNL A   1      32.310  20.108  23.644  1.00  0.00     0.005 C 
BRANCH  18  19
ATOM     19  C   UNL A   1      32.396  19.170  22.451  1.00  0.00    -0.003 C 
ATOM     20  C   UNL A   1      32.758  17.774  22.928  1.00  0.00     0.004 C 
ENDBRANCH  18  19
ENDBRANCH  17  18
ENDBRANCH   8  17
BRANCH  11  21
ATOM     21  S   UNL A   1      37.073  22.010  25.383  1.00  0.00     0.310 S 
ATOM     22  F   UNL A   1      37.349  21.694  23.853  1.00  0.00    -0.094 F 
ATOM     23  F   UNL A   1      36.473  20.558  25.503  1.00  0.00    -0.094 F 
ATOM     24  F   UNL A   1      38.500  21.475  25.687  1.00  0.00    -0.094 F 
ATOM     25  F   UNL A   1      37.675  23.446  25.120  1.00  0.00    -0.094 F 
ATOM     26  F   UNL A   1      35.647  22.547  24.961  1.00  0.00    -0.094 F 
ENDBRANCH  11  21
BRANCH  16  27
ATOM     27  C   UNL A   1      29.829  25.647  24.466  1.00  0.00     0.429 C 
ATOM     28  F   UNL A   1      29.471  25.294  25.698  1.00  0.00    -0.167 F 
ATOM     29  F   UNL A   1      29.561  26.935  24.279  1.00  0.00    -0.167 F 
ATOM     30  F   UNL A   1      29.150  24.919  23.583  1.00  0.00    -0.167 F 
ENDBRANCH  16  27
ENDBRANCH   4   7
ENDBRANCH   2   3
ENDBRANCH   1   2
BRANCH   1  31
ATOM     31  C   UNL A   1      33.891  29.466  25.267  1.00  0.00     0.118 C 
BRANCH  31  32
ATOM     32  N   UNL A   1      33.020  30.561  25.719  1.00  0.00    -0.352 N 
ATOM     33  C   UNL A   1      33.391  31.355  26.899  1.00  0.00     0.251 C 
ATOM     34  H   UNL A   1      32.189  30.761  25.231  1.00  0.00     0.163 HD
ATOM     35  O   UNL A   1      32.638  32.301  27.290  1.00  0.00    -0.269 OA
BRANCH  33  36
ATOM     36  C   UNL A   1      34.675  31.045  27.652  1.00  0.00     0.039 A 
ATOM     37  C   UNL A   1      34.849  29.788  28.210  1.00  0.00     0.014 A 
ATOM     38  C   UNL A   1      35.608  31.982  27.761  1.00  0.00     0.014 A 
ATOM     39  C   UNL A   1      35.929  29.710  29.118  1.00  0.00     0.010 A 
ATOM     40  C   UNL A   1      36.708  31.784  28.561  1.00  0.00     0.010 A 
ATOM     41  C   UNL A   1      36.914  30.588  29.190  1.00  0.00    -0.014 A 
BRANCH  41  42
ATOM     42  C   UNL A   1      38.205  30.285  29.931  1.00  0.00     0.031 A 
ATOM     43  C   UNL A   1      39.152  29.480  29.296  1.00  0.00     0.074 A 
ATOM     44  C   UNL A   1      38.370  30.823  31.196  1.00  0.00     0.049 A 
ATOM     45  N   UNL A   1      40.353  29.122  29.753  1.00  0.00    -0.248 NA
ATOM     46  C   UNL A   1      38.965  28.880  27.967  1.00  0.00     0.031 C 
ATOM     47  C   UNL A   1      37.423  31.642  31.841  1.00  0.00     0.029 A 
ATOM     48  N   UNL A   1      39.444  30.672  32.046  1.00  0.00    -0.354 N 
ATOM     49  C   UNL A   1      40.981  28.362  28.852  1.00  0.00     0.074 A 
ATOM     50  C   UNL A   1      40.094  28.190  27.693  1.00  0.00     0.031 C 
ATOM     51  C   UNL A   1      37.914  31.971  33.064  1.00  0.00     0.029 A 
ATOM     52  C   UNL A   1      39.176  31.364  33.206  1.00  0.00     0.049 A 
ATOM     53  H   UNL A   1      40.262  30.158  31.855  1.00  0.00     0.167 HD
ATOM     54  C   UNL A   1      42.257  27.807  28.952  1.00  0.00     0.034 A 
ATOM     55  C   UNL A   1      39.973  31.469  34.335  1.00  0.00     0.034 A 
ATOM     56  C   UNL A   1      43.072  27.948  30.064  1.00  0.00     0.049 A 
ATOM     57  C   UNL A   1      41.226  30.865  34.458  1.00  0.00     0.074 A 
ATOM     58  C   UNL A   1      44.366  27.401  30.178  1.00  0.00     0.029 A 
ATOM     59  N   UNL A   1      42.794  28.619  31.234  1.00  0.00    -0.354 N 
ATOM     60  N   UNL A   1      41.870  30.138  33.542  1.00  0.00    -0.248 NA
ATOM     61  C   UNL A   1      42.065  30.943  35.661  1.00  0.00     0.031 C 
ATOM     62  C   UNL A   1      44.856  27.730  31.403  1.00  0.00     0.029 A 
ATOM     63  C   UNL A   1      43.878  28.488  32.074  1.00  0.00     0.049 A 
ATOM     64  H   UNL A   1      41.964  29.109  31.436  1.00  0.00     0.167 HD
ATOM     65  C   UNL A   1      43.053  29.746  34.016  1.00  0.00     0.074 A 
ATOM     66  C   UNL A   1      43.193  30.251  35.389  1.00  0.00     0.031 C 
ATOM     67  C   UNL A   1      44.024  28.990  33.358  1.00  0.00     0.034 A 
BRANCH  54  68
ATOM     68  C   UNL A   1      42.784  27.002  27.775  1.00  0.00     0.023 A 
ATOM     69  C   UNL A   1      43.482  27.627  26.756  1.00  0.00     0.012 A 
ATOM     70  C   UNL A   1      42.516  25.702  27.730  1.00  0.00     0.148 A 
ATOM     71  C   UNL A   1      43.606  26.846  25.582  1.00  0.00     0.002 A 
ATOM     72  C   UNL A   1      42.789  24.971  26.599  1.00  0.00     0.091 A 
ATOM     73  F   UNL A   1      41.979  25.103  28.789  1.00  0.00    -0.205 F 
ATOM     74  C   UNL A   1      43.425  25.539  25.530  1.00  0.00     0.022 A 
BRANCH  72  75
ATOM     75  S   UNL A   1      42.301  23.229  26.523  1.00  0.00     0.127 S 
ATOM     76  O   UNL A   1      40.788  23.114  26.727  1.00  0.00    -0.237 OA
ATOM     77  O   UNL A   1      42.676  22.653  25.156  1.00  0.00    -0.237 OA
ATOM     78  O   UNL A   1      43.110  22.356  27.752  1.00  0.00    -0.744 OA
ENDBRANCH  72  75
ENDBRANCH  54  68
BRANCH  55  79
ATOM     79  C   UNL A   1      39.453  32.288  35.505  1.00  0.00     0.023 A 
ATOM     80  C   UNL A   1      39.806  33.617  35.670  1.00  0.00     0.012 A 
ATOM     81  C   UNL A   1      38.633  31.682  36.356  1.00  0.00     0.148 A 
ATOM     82  C   UNL A   1      39.466  34.148  36.937  1.00  0.00     0.002 A 
ATOM     83  C   UNL A   1      38.232  32.313  37.510  1.00  0.00     0.091 A 
ATOM     84  F   UNL A   1      38.196  30.455  36.090  1.00  0.00    -0.205 F 
ATOM     85  C   UNL A   1      38.592  33.606  37.765  1.00  0.00     0.022 A 
BRANCH  83  86
ATOM     86  S   UNL A   1      37.213  31.416  38.708  1.00  0.00     0.127 S 
ATOM     87  O   UNL A   1      35.872  32.136  38.875  1.00  0.00    -0.237 OA
ATOM     88  O   UNL A   1      36.969  29.992  38.204  1.00  0.00    -0.237 OA
ATOM     89  O   UNL A   1      38.021  31.359  40.213  1.00  0.00    -0.744 OA
ENDBRANCH  83  86
ENDBRANCH  55  79
BRANCH  67  90
ATOM     90  C   UNL A   1      45.322  28.698  34.094  1.00  0.00     0.023 A 
ATOM     91  C   UNL A   1      46.371  29.598  34.005  1.00  0.00     0.012 A 
ATOM     92  C   UNL A   1      45.428  27.586  34.811  1.00  0.00     0.148 A 
ATOM     93  C   UNL A   1      47.604  29.091  34.479  1.00  0.00     0.002 A 
ATOM     94  C   UNL A   1      46.633  27.220  35.361  1.00  0.00     0.091 A 
ATOM     95  F   UNL A   1      44.358  26.819  35.000  1.00  0.00    -0.205 F 
ATOM     96  C   UNL A   1      47.728  28.033  35.261  1.00  0.00     0.022 A 
BRANCH  94  97
ATOM     97  S   UNL A   1      46.774  25.638  36.230  1.00  0.00     0.127 S 
ATOM     98  O   UNL A   1      45.508  25.396  37.055  1.00  0.00    -0.237 OA
ATOM     99  O   UNL A   1      46.942  24.509  35.210  1.00  0.00    -0.237 OA
ATOM    100  O   UNL A   1      48.131  25.676  37.269  1.00  0.00    -0.744 OA
ENDBRANCH  94  97
ENDBRANCH  67  90
ENDBRANCH  41  42
ENDBRANCH  33  36
ENDBRANCH  31  32
ENDBRANCH   1  31
TORSDOF 18
ENDMDL
