MODEL 1
REMARK VINA RESULT:     -11.4      0.000      0.000
REMARK SMILES CCN(C=O)[C@](C)(C(=O)NCCCNC(=O)c1ccc(-c2c3nc(c(-c4cccc(S(=O)(=O)[O-])c4F)c4ccc([nH]4)c(-c4cccc(S(=O)(=O)[O-])c4F)c4nc(c(-c5cccc(S(=O)(=O)[O-])c5F)c5ccc2[nH]5)C=C4)C=C3)cc1)c1cc(F)c(C)cc1F
REMARK SMILES IDX 12 1 11 2 10 3 8 4 9 5 6 7 7 8 3 9 2 10 1 11 4 12 5 13 80 14
REMARK SMILES IDX 81 15 87 16 82 17 86 18 88 19 83 20 84 21 85 22 13 23 14 24
REMARK SMILES IDX 15 25 16 27 17 28 18 29 79 30 19 31 78 32 20 33 21 34 22 35
REMARK SMILES IDX 72 36 23 37 77 38 71 39 73 40 24 41 76 42 70 43 69 44 25 46
REMARK SMILES IDX 57 47 37 48 56 49 38 50 41 51 55 52 74 53 39 54 40 55 54 57
REMARK SMILES IDX 75 58 42 59 26 60 27 61 35 62 28 63 30 64 36 65 29 66 31 67
REMARK SMILES IDX 32 68 33 69 34 70 58 71 59 72 67 73 60 74 62 75 68 76 61 77
REMARK SMILES IDX 63 78 64 79 65 80 66 81 43 82 44 83 52 84 45 85 47 86 53 87
REMARK SMILES IDX 46 88 48 89 49 90 50 91 51 92
REMARK H PARENT 10 6 14 26 73 45 41 56
REMARK Flexibility Score: inf
ROOT
ATOM      1  C   UNL A   1      32.608  29.660  24.903  1.00  0.00     0.042 C 
ENDROOT
BRANCH   1   2
ATOM      2  C   UNL A   1      32.071  28.300  24.497  1.00  0.00     0.117 C 
BRANCH   2   3
ATOM      3  N   UNL A   1      32.911  27.646  23.506  1.00  0.00    -0.354 N 
ATOM      4  C   UNL A   1      33.414  26.374  23.464  1.00  0.00     0.250 C 
ATOM      5  O   UNL A   1      33.901  26.029  22.380  1.00  0.00    -0.272 OA
ATOM      6  H   UNL A   1      33.158  28.212  22.740  1.00  0.00     0.163 HD
BRANCH   4   7
ATOM      7  C   UNL A   1      33.331  25.406  24.708  1.00  0.00     0.147 C 
ATOM      8  C   UNL A   1      33.655  26.254  25.978  1.00  0.00     0.051 C 
BRANCH   7   9
ATOM      9  N   UNL A   1      31.955  24.804  24.714  1.00  0.00    -0.327 N 
BRANCH   9  10
ATOM     10  C   UNL A   1      31.282  24.522  25.994  1.00  0.00     0.117 C 
ATOM     11  C   UNL A   1      31.161  23.042  26.324  1.00  0.00     0.027 C 
ENDBRANCH   9  10
BRANCH   9  12
ATOM     12  C   UNL A   1      31.164  24.807  23.575  1.00  0.00     0.341 C 
ATOM     13  O   UNL A   1      30.521  23.873  23.117  1.00  0.00    -0.279 OA
ENDBRANCH   9  12
ENDBRANCH   7   9
BRANCH   7  14
ATOM     14  C   UNL A   1      34.463  24.339  24.629  1.00  0.00     0.026 A 
ATOM     15  C   UNL A   1      35.539  24.405  25.546  1.00  0.00     0.049 A 
ATOM     16  C   UNL A   1      34.463  23.249  23.746  1.00  0.00     0.129 A 
ATOM     17  C   UNL A   1      36.519  23.415  25.590  1.00  0.00     0.126 A 
ATOM     18  C   UNL A   1      35.449  22.258  23.791  1.00  0.00     0.046 A 
ATOM     19  F   UNL A   1      33.512  23.094  22.816  1.00  0.00    -0.207 F 
ATOM     20  F   UNL A   1      37.503  23.516  26.494  1.00  0.00    -0.207 F 
ATOM     21  C   UNL A   1      36.479  22.320  24.731  1.00  0.00    -0.012 A 
ATOM     22  C   UNL A   1      37.519  21.249  24.825  1.00  0.00     0.047 C 
ENDBRANCH   7  14
ENDBRANCH   4   7
ENDBRANCH   2   3
ENDBRANCH   1   2
BRANCH   1  23
ATOM     23  C   UNL A   1      32.298  30.022  26.351  1.00  0.00     0.118 C 
BRANCH  23  24
ATOM     24  N   UNL A   1      32.249  31.463  26.585  1.00  0.00    -0.352 N 
ATOM     25  C   UNL A   1      33.092  32.270  27.315  1.00  0.00     0.251 C 
ATOM     26  H   UNL A   1      31.497  31.930  26.155  1.00  0.00     0.163 HD
ATOM     27  O   UNL A   1      32.789  33.432  27.536  1.00  0.00    -0.269 OA
BRANCH  25  28
ATOM     28  C   UNL A   1      34.354  31.708  27.840  1.00  0.00     0.039 A 
ATOM     29  C   UNL A   1      35.459  32.545  28.008  1.00  0.00     0.014 A 
ATOM     30  C   UNL A   1      34.428  30.360  28.191  1.00  0.00     0.014 A 
ATOM     31  C   UNL A   1      36.614  32.042  28.612  1.00  0.00     0.010 A 
ATOM     32  C   UNL A   1      35.534  29.892  28.884  1.00  0.00     0.010 A 
ATOM     33  C   UNL A   1      36.643  30.724  29.095  1.00  0.00    -0.014 A 
BRANCH  33  34
ATOM     34  C   UNL A   1      37.818  30.179  29.820  1.00  0.00     0.031 A 
ATOM     35  C   UNL A   1      38.105  30.632  31.226  1.00  0.00     0.074 A 
ATOM     36  C   UNL A   1      38.683  29.371  29.176  1.00  0.00     0.049 A 
ATOM     37  N   UNL A   1      39.130  30.357  31.989  1.00  0.00    -0.248 NA
ATOM     38  C   UNL A   1      37.131  31.551  31.842  1.00  0.00     0.031 C 
ATOM     39  C   UNL A   1      38.561  28.933  27.784  1.00  0.00     0.029 A 
ATOM     40  N   UNL A   1      39.851  28.792  29.603  1.00  0.00    -0.354 N 
ATOM     41  C   UNL A   1      38.951  31.102  33.148  1.00  0.00     0.074 A 
ATOM     42  C   UNL A   1      37.745  31.879  32.968  1.00  0.00     0.031 C 
ATOM     43  C   UNL A   1      39.599  28.137  27.480  1.00  0.00     0.029 A 
ATOM     44  C   UNL A   1      40.474  28.032  28.641  1.00  0.00     0.049 A 
ATOM     45  H   UNL A   1      40.209  28.909  30.512  1.00  0.00     0.167 HD
ATOM     46  C   UNL A   1      39.695  31.109  34.278  1.00  0.00     0.034 A 
ATOM     47  C   UNL A   1      41.619  27.325  28.695  1.00  0.00     0.034 A 
ATOM     48  C   UNL A   1      40.853  30.283  34.476  1.00  0.00     0.049 A 
ATOM     49  C   UNL A   1      42.396  27.297  29.984  1.00  0.00     0.074 A 
ATOM     50  C   UNL A   1      41.630  30.144  35.613  1.00  0.00     0.029 A 
ATOM     51  N   UNL A   1      41.398  29.447  33.513  1.00  0.00    -0.354 N 
ATOM     52  N   UNL A   1      42.129  27.892  31.122  1.00  0.00    -0.248 NA
ATOM     53  C   UNL A   1      43.611  26.470  30.008  1.00  0.00     0.031 C 
ATOM     54  C   UNL A   1      42.648  29.224  35.334  1.00  0.00     0.029 A 
ATOM     55  C   UNL A   1      42.496  28.783  34.028  1.00  0.00     0.049 A 
ATOM     56  H   UNL A   1      41.052  29.341  32.598  1.00  0.00     0.167 HD
ATOM     57  C   UNL A   1      43.118  27.482  32.008  1.00  0.00     0.074 A 
ATOM     58  C   UNL A   1      43.980  26.574  31.278  1.00  0.00     0.031 C 
ATOM     59  C   UNL A   1      43.305  27.835  33.304  1.00  0.00     0.034 A 
BRANCH  46  60
ATOM     60  C   UNL A   1      39.225  31.989  35.409  1.00  0.00     0.023 A 
ATOM     61  C   UNL A   1      38.248  31.501  36.302  1.00  0.00     0.012 A 
ATOM     62  C   UNL A   1      39.752  33.280  35.602  1.00  0.00     0.148 A 
ATOM     63  C   UNL A   1      37.766  32.300  37.338  1.00  0.00     0.002 A 
ATOM     64  C   UNL A   1      39.300  34.054  36.666  1.00  0.00     0.091 A 
ATOM     65  F   UNL A   1      40.661  33.740  34.731  1.00  0.00    -0.205 F 
ATOM     66  C   UNL A   1      38.298  33.572  37.525  1.00  0.00     0.022 A 
BRANCH  64  67
ATOM     67  S   UNL A   1      39.982  35.675  37.034  1.00  0.00     0.127 S 
ATOM     68  O   UNL A   1      41.402  35.368  37.193  1.00  0.00    -0.237 OA
ATOM     69  O   UNL A   1      39.655  36.434  35.826  1.00  0.00    -0.237 OA
ATOM     70  O   UNL A   1      39.294  36.128  38.235  1.00  0.00    -0.744 OA
ENDBRANCH  64  67
ENDBRANCH  46  60
BRANCH  47  71
ATOM     71  C   UNL A   1      42.038  26.497  27.529  1.00  0.00     0.023 A 
ATOM     72  C   UNL A   1      42.798  27.101  26.506  1.00  0.00     0.012 A 
ATOM     73  C   UNL A   1      41.735  25.126  27.442  1.00  0.00     0.148 A 
ATOM     74  C   UNL A   1      43.226  26.360  25.405  1.00  0.00     0.002 A 
ATOM     75  C   UNL A   1      42.207  24.382  26.365  1.00  0.00     0.091 A 
ATOM     76  F   UNL A   1      41.006  24.573  28.420  1.00  0.00    -0.205 F 
ATOM     77  C   UNL A   1      42.939  25.000  25.338  1.00  0.00     0.022 A 
BRANCH  75  78
ATOM     78  S   UNL A   1      41.995  22.601  26.255  1.00  0.00     0.127 S 
ATOM     79  O   UNL A   1      42.637  22.146  27.486  1.00  0.00    -0.237 OA
ATOM     80  O   UNL A   1      40.537  22.472  26.236  1.00  0.00    -0.237 OA
ATOM     81  O   UNL A   1      42.648  22.204  25.015  1.00  0.00    -0.744 OA
ENDBRANCH  75  78
ENDBRANCH  47  71
BRANCH  59  82
ATOM     82  C   UNL A   1      44.463  27.211  34.035  1.00  0.00     0.023 A 
ATOM     83  C   UNL A   1      45.721  27.845  34.019  1.00  0.00     0.012 A 
ATOM     84  C   UNL A   1      44.284  26.043  34.800  1.00  0.00     0.148 A 
ATOM     85  C   UNL A   1      46.792  27.308  34.731  1.00  0.00     0.002 A 
ATOM     86  C   UNL A   1      45.344  25.538  35.544  1.00  0.00     0.091 A 
ATOM     87  F   UNL A   1      43.085  25.443  34.784  1.00  0.00    -0.205 F 
ATOM     88  C   UNL A   1      46.601  26.164  35.503  1.00  0.00     0.022 A 
BRANCH  86  89
ATOM     89  S   UNL A   1      45.159  24.127  36.639  1.00  0.00     0.127 S 
ATOM     90  O   UNL A   1      46.488  24.040  37.241  1.00  0.00    -0.237 OA
ATOM     91  O   UNL A   1      44.105  24.574  37.551  1.00  0.00    -0.237 OA
ATOM     92  O   UNL A   1      44.780  23.009  35.786  1.00  0.00    -0.744 OA
ENDBRANCH  86  89
ENDBRANCH  59  82
ENDBRANCH  33  34
ENDBRANCH  25  28
ENDBRANCH  23  24
ENDBRANCH   1  23
TORSDOF 17
ENDMDL
MODEL 2
REMARK VINA RESULT:     -11.2      1.432      2.859
REMARK SMILES CCN(C=O)[C@](C)(C(=O)NCCCNC(=O)c1ccc(-c2c3nc(c(-c4cccc(S(=O)(=O)[O-])c4F)c4ccc([nH]4)c(-c4cccc(S(=O)(=O)[O-])c4F)c4nc(c(-c5cccc(S(=O)(=O)[O-])c5F)c5ccc2[nH]5)C=C4)C=C3)cc1)c1cc(F)c(C)cc1F
REMARK SMILES IDX 12 1 11 2 10 3 8 4 9 5 6 7 7 8 3 9 2 10 1 11 4 12 5 13 80 14
REMARK SMILES IDX 81 15 87 16 82 17 86 18 88 19 83 20 84 21 85 22 13 23 14 24
REMARK SMILES IDX 15 25 16 27 17 28 18 29 79 30 19 31 78 32 20 33 21 34 22 35
REMARK SMILES IDX 72 36 23 37 77 38 71 39 73 40 24 41 76 42 70 43 69 44 25 46
REMARK SMILES IDX 57 47 37 48 56 49 38 50 41 51 55 52 74 53 39 54 40 55 54 57
REMARK SMILES IDX 75 58 42 59 26 60 27 61 35 62 28 63 30 64 36 65 29 66 31 67
REMARK SMILES IDX 32 68 33 69 34 70 58 71 59 72 67 73 60 74 62 75 68 76 61 77
REMARK SMILES IDX 63 78 64 79 65 80 66 81 43 82 44 83 52 84 45 85 47 86 53 87
REMARK SMILES IDX 46 88 48 89 49 90 50 91 51 92
REMARK H PARENT 10 6 14 26 73 45 41 56
REMARK Flexibility Score: inf
ROOT
ATOM      1  C   UNL A   1      31.770  28.912  26.947  1.00  0.00     0.042 C 
ENDROOT
BRANCH   1   2
ATOM      2  C   UNL A   1      31.613  27.525  26.353  1.00  0.00     0.117 C 
BRANCH   2   3
ATOM      3  N   UNL A   1      32.882  26.826  26.233  1.00  0.00    -0.354 N 
ATOM      4  C   UNL A   1      33.342  25.972  25.268  1.00  0.00     0.250 C 
ATOM      5  O   UNL A   1      34.551  25.717  25.314  1.00  0.00    -0.272 OA
ATOM      6  H   UNL A   1      33.514  26.994  26.968  1.00  0.00     0.163 HD
BRANCH   4   7
ATOM      7  C   UNL A   1      32.390  25.393  24.149  1.00  0.00     0.147 C 
ATOM      8  C   UNL A   1      33.279  25.057  22.912  1.00  0.00     0.051 C 
BRANCH   7   9
ATOM      9  N   UNL A   1      31.687  24.202  24.735  1.00  0.00    -0.327 N 
BRANCH   9  10
ATOM     10  C   UNL A   1      31.381  23.038  23.884  1.00  0.00     0.117 C 
ATOM     11  C   UNL A   1      32.182  21.790  24.221  1.00  0.00     0.027 C 
ENDBRANCH   9  10
BRANCH   9  12
ATOM     12  C   UNL A   1      31.608  24.015  26.107  1.00  0.00     0.341 C 
ATOM     13  O   UNL A   1      30.705  24.366  26.852  1.00  0.00    -0.279 OA
ENDBRANCH   9  12
ENDBRANCH   7   9
BRANCH   7  14
ATOM     14  C   UNL A   1      31.409  26.500  23.660  1.00  0.00     0.026 A 
ATOM     15  C   UNL A   1      30.017  26.314  23.832  1.00  0.00     0.049 A 
ATOM     16  C   UNL A   1      31.812  27.728  23.114  1.00  0.00     0.129 A 
ATOM     17  C   UNL A   1      29.104  27.318  23.513  1.00  0.00     0.126 A 
ATOM     18  C   UNL A   1      30.893  28.733  22.793  1.00  0.00     0.046 A 
ATOM     19  F   UNL A   1      33.100  28.009  22.879  1.00  0.00    -0.207 F 
ATOM     20  F   UNL A   1      27.798  27.097  23.718  1.00  0.00    -0.207 F 
ATOM     21  C   UNL A   1      29.527  28.545  23.010  1.00  0.00    -0.012 A 
ATOM     22  C   UNL A   1      28.532  29.622  22.713  1.00  0.00     0.047 C 
ENDBRANCH   7  14
ENDBRANCH   4   7
ENDBRANCH   2   3
ENDBRANCH   1   2
BRANCH   1  23
ATOM     23  C   UNL A   1      32.628  29.838  26.092  1.00  0.00     0.118 C 
BRANCH  23  24
ATOM     24  N   UNL A   1      32.486  31.248  26.450  1.00  0.00    -0.352 N 
ATOM     25  C   UNL A   1      33.246  32.028  27.292  1.00  0.00     0.251 C 
ATOM     26  H   UNL A   1      31.729  31.711  26.023  1.00  0.00     0.163 HD
ATOM     27  O   UNL A   1      32.866  33.147  27.598  1.00  0.00    -0.269 OA
BRANCH  25  28
ATOM     28  C   UNL A   1      34.511  31.488  27.830  1.00  0.00     0.039 A 
ATOM     29  C   UNL A   1      35.602  32.343  28.001  1.00  0.00     0.014 A 
ATOM     30  C   UNL A   1      34.601  30.144  28.193  1.00  0.00     0.014 A 
ATOM     31  C   UNL A   1      36.760  31.861  28.617  1.00  0.00     0.010 A 
ATOM     32  C   UNL A   1      35.708  29.697  28.898  1.00  0.00     0.010 A 
ATOM     33  C   UNL A   1      36.804  30.547  29.111  1.00  0.00    -0.014 A 
BRANCH  33  34
ATOM     34  C   UNL A   1      37.981  30.025  29.849  1.00  0.00     0.031 A 
ATOM     35  C   UNL A   1      38.252  30.494  31.253  1.00  0.00     0.074 A 
ATOM     36  C   UNL A   1      38.862  29.223  29.219  1.00  0.00     0.049 A 
ATOM     37  N   UNL A   1      39.275  30.240  32.025  1.00  0.00    -0.248 NA
ATOM     38  C   UNL A   1      37.261  31.405  31.853  1.00  0.00     0.031 C 
ATOM     39  C   UNL A   1      38.755  28.771  27.829  1.00  0.00     0.029 A 
ATOM     40  N   UNL A   1      40.035  28.664  29.659  1.00  0.00    -0.354 N 
ATOM     41  C   UNL A   1      39.077  30.993  33.176  1.00  0.00     0.074 A 
ATOM     42  C   UNL A   1      37.862  31.752  32.981  1.00  0.00     0.031 C 
ATOM     43  C   UNL A   1      39.807  27.986  27.540  1.00  0.00     0.029 A 
ATOM     44  C   UNL A   1      40.675  27.904  28.708  1.00  0.00     0.049 A 
ATOM     45  H   UNL A   1      40.384  28.794  30.569  1.00  0.00     0.167 HD
ATOM     46  C   UNL A   1      39.814  31.020  34.311  1.00  0.00     0.034 A 
ATOM     47  C   UNL A   1      41.829  27.213  28.777  1.00  0.00     0.034 A 
ATOM     48  C   UNL A   1      40.981  30.212  34.525  1.00  0.00     0.049 A 
ATOM     49  C   UNL A   1      42.597  27.207  30.071  1.00  0.00     0.074 A 
ATOM     50  C   UNL A   1      41.751  30.093  35.668  1.00  0.00     0.029 A 
ATOM     51  N   UNL A   1      41.545  29.375  33.574  1.00  0.00    -0.354 N 
ATOM     52  N   UNL A   1      42.314  27.809  31.201  1.00  0.00    -0.248 NA
ATOM     53  C   UNL A   1      43.823  26.398  30.112  1.00  0.00     0.031 C 
ATOM     54  C   UNL A   1      42.784  29.185  35.406  1.00  0.00     0.029 A 
ATOM     55  C   UNL A   1      42.648  28.731  34.103  1.00  0.00     0.049 A 
ATOM     56  H   UNL A   1      41.207  29.256  32.657  1.00  0.00     0.167 HD
ATOM     57  C   UNL A   1      43.301  27.421  32.099  1.00  0.00     0.074 A 
ATOM     58  C   UNL A   1      44.181  26.518  31.383  1.00  0.00     0.031 C 
ATOM     59  C   UNL A   1      43.474  27.787  33.393  1.00  0.00     0.034 A 
BRANCH  46  60
ATOM     60  C   UNL A   1      39.323  31.903  35.431  1.00  0.00     0.023 A 
ATOM     61  C   UNL A   1      38.357  31.405  36.330  1.00  0.00     0.012 A 
ATOM     62  C   UNL A   1      39.821  33.208  35.608  1.00  0.00     0.148 A 
ATOM     63  C   UNL A   1      37.856  32.206  37.356  1.00  0.00     0.002 A 
ATOM     64  C   UNL A   1      39.351  33.986  36.662  1.00  0.00     0.091 A 
ATOM     65  F   UNL A   1      40.720  33.678  34.731  1.00  0.00    -0.205 F 
ATOM     66  C   UNL A   1      38.360  33.492  37.527  1.00  0.00     0.022 A 
BRANCH  64  67
ATOM     67  S   UNL A   1      39.996  35.625  37.009  1.00  0.00     0.127 S 
ATOM     68  O   UNL A   1      39.304  35.958  38.252  1.00  0.00    -0.237 OA
ATOM     69  O   UNL A   1      41.430  35.372  37.159  1.00  0.00    -0.237 OA
ATOM     70  O   UNL A   1      39.646  36.440  35.854  1.00  0.00    -0.744 OA
ENDBRANCH  64  67
ENDBRANCH  46  60
BRANCH  47  71
ATOM     71  C   UNL A   1      42.268  26.381  27.621  1.00  0.00     0.023 A 
ATOM     72  C   UNL A   1      43.147  26.944  26.674  1.00  0.00     0.012 A 
ATOM     73  C   UNL A   1      41.865  25.041  27.473  1.00  0.00     0.148 A 
ATOM     74  C   UNL A   1      43.596  26.196  25.585  1.00  0.00     0.002 A 
ATOM     75  C   UNL A   1      42.356  24.286  26.412  1.00  0.00     0.091 A 
ATOM     76  F   UNL A   1      41.023  24.527  28.379  1.00  0.00    -0.205 F 
ATOM     77  C   UNL A   1      43.209  24.866  25.459  1.00  0.00     0.022 A 
BRANCH  75  78
ATOM     78  S   UNL A   1      42.013  22.531  26.236  1.00  0.00     0.127 S 
ATOM     79  O   UNL A   1      42.727  22.208  25.003  1.00  0.00    -0.237 OA
ATOM     80  O   UNL A   1      42.609  21.983  27.455  1.00  0.00    -0.237 OA
ATOM     81  O   UNL A   1      40.562  22.419  26.176  1.00  0.00    -0.744 OA
ENDBRANCH  75  78
ENDBRANCH  47  71
BRANCH  59  82
ATOM     82  C   UNL A   1      44.636  27.186  34.137  1.00  0.00     0.023 A 
ATOM     83  C   UNL A   1      45.874  27.857  34.159  1.00  0.00     0.012 A 
ATOM     84  C   UNL A   1      44.477  25.999  34.879  1.00  0.00     0.148 A 
ATOM     85  C   UNL A   1      46.946  27.340  34.884  1.00  0.00     0.002 A 
ATOM     86  C   UNL A   1      45.536  25.514  35.637  1.00  0.00     0.091 A 
ATOM     87  F   UNL A   1      43.297  25.365  34.827  1.00  0.00    -0.205 F 
ATOM     88  C   UNL A   1      46.774  26.178  35.632  1.00  0.00     0.022 A 
BRANCH  86  89
ATOM     89  S   UNL A   1      45.371  24.079  36.704  1.00  0.00     0.127 S 
ATOM     90  O   UNL A   1      46.752  23.868  37.134  1.00  0.00    -0.237 OA
ATOM     91  O   UNL A   1      44.473  24.569  37.751  1.00  0.00    -0.237 OA
ATOM     92  O   UNL A   1      44.804  23.027  35.870  1.00  0.00    -0.744 OA
ENDBRANCH  86  89
ENDBRANCH  59  82
ENDBRANCH  33  34
ENDBRANCH  25  28
ENDBRANCH  23  24
ENDBRANCH   1  23
TORSDOF 17
ENDMDL
MODEL 3
REMARK VINA RESULT:     -11.2      1.611      2.202
REMARK SMILES CCN(C=O)[C@](C)(C(=O)NCCCNC(=O)c1ccc(-c2c3nc(c(-c4cccc(S(=O)(=O)[O-])c4F)c4ccc([nH]4)c(-c4cccc(S(=O)(=O)[O-])c4F)c4nc(c(-c5cccc(S(=O)(=O)[O-])c5F)c5ccc2[nH]5)C=C4)C=C3)cc1)c1cc(F)c(C)cc1F
REMARK SMILES IDX 12 1 11 2 10 3 8 4 9 5 6 7 7 8 3 9 2 10 1 11 4 12 5 13 80 14
REMARK SMILES IDX 81 15 87 16 82 17 86 18 88 19 83 20 84 21 85 22 13 23 14 24
REMARK SMILES IDX 15 25 16 27 17 28 18 29 79 30 19 31 78 32 20 33 21 34 22 35
REMARK SMILES IDX 72 36 23 37 77 38 71 39 73 40 24 41 76 42 70 43 69 44 25 46
REMARK SMILES IDX 57 47 37 48 56 49 38 50 41 51 55 52 74 53 39 54 40 55 54 57
REMARK SMILES IDX 75 58 42 59 26 60 27 61 35 62 28 63 30 64 36 65 29 66 31 67
REMARK SMILES IDX 32 68 33 69 34 70 58 71 59 72 67 73 60 74 62 75 68 76 61 77
REMARK SMILES IDX 63 78 64 79 65 80 66 81 43 82 44 83 52 84 45 85 47 86 53 87
REMARK SMILES IDX 46 88 48 89 49 90 50 91 51 92
REMARK H PARENT 10 6 14 26 73 45 41 56
REMARK Flexibility Score: inf
ROOT
ATOM      1  C   UNL A   1      31.956  29.000  27.023  1.00  0.00     0.042 C 
ENDROOT
BRANCH   1   2
ATOM      2  C   UNL A   1      32.333  27.536  26.886  1.00  0.00     0.117 C 
BRANCH   2   3
ATOM      3  N   UNL A   1      31.171  26.663  26.870  1.00  0.00    -0.354 N 
ATOM      4  C   UNL A   1      30.815  25.668  26.002  1.00  0.00     0.250 C 
ATOM      5  O   UNL A   1      29.888  24.940  26.377  1.00  0.00    -0.272 OA
ATOM      6  H   UNL A   1      30.534  26.815  27.606  1.00  0.00     0.163 HD
BRANCH   4   7
ATOM      7  C   UNL A   1      31.576  25.445  24.637  1.00  0.00     0.147 C 
ATOM      8  C   UNL A   1      30.632  24.619  23.708  1.00  0.00     0.051 C 
BRANCH   7   9
ATOM      9  N   UNL A   1      31.926  26.802  24.095  1.00  0.00    -0.327 N 
BRANCH   9  10
ATOM     10  C   UNL A   1      33.334  27.146  23.832  1.00  0.00     0.117 C 
ATOM     11  C   UNL A   1      33.606  27.625  22.415  1.00  0.00     0.027 C 
ENDBRANCH   9  10
BRANCH   9  12
ATOM     12  C   UNL A   1      30.961  27.620  23.526  1.00  0.00     0.341 C 
ATOM     13  O   UNL A   1      29.919  28.003  24.036  1.00  0.00    -0.279 OA
ENDBRANCH   9  12
ENDBRANCH   7   9
BRANCH   7  14
ATOM     14  C   UNL A   1      32.822  24.539  24.863  1.00  0.00     0.026 A 
ATOM     15  C   UNL A   1      33.180  24.174  26.182  1.00  0.00     0.049 A 
ATOM     16  C   UNL A   1      33.594  23.984  23.831  1.00  0.00     0.129 A 
ATOM     17  C   UNL A   1      34.218  23.278  26.434  1.00  0.00     0.126 A 
ATOM     18  C   UNL A   1      34.637  23.087  24.087  1.00  0.00     0.046 A 
ATOM     19  F   UNL A   1      33.369  24.276  22.544  1.00  0.00    -0.207 F 
ATOM     20  F   UNL A   1      34.498  22.950  27.702  1.00  0.00    -0.207 F 
ATOM     21  C   UNL A   1      34.947  22.707  25.394  1.00  0.00    -0.012 A 
ATOM     22  C   UNL A   1      36.029  21.717  25.687  1.00  0.00     0.047 C 
ENDBRANCH   7  14
ENDBRANCH   4   7
ENDBRANCH   2   3
ENDBRANCH   1   2
BRANCH   1  23
ATOM     23  C   UNL A   1      32.831  29.927  26.188  1.00  0.00     0.118 C 
BRANCH  23  24
ATOM     24  N   UNL A   1      32.725  31.330  26.585  1.00  0.00    -0.352 N 
ATOM     25  C   UNL A   1      33.519  32.073  27.430  1.00  0.00     0.251 C 
ATOM     26  H   UNL A   1      31.970  31.819  26.186  1.00  0.00     0.163 HD
ATOM     27  O   UNL A   1      33.169  33.191  27.773  1.00  0.00    -0.269 OA
BRANCH  25  28
ATOM     28  C   UNL A   1      34.784  31.493  27.927  1.00  0.00     0.039 A 
ATOM     29  C   UNL A   1      35.921  32.298  28.006  1.00  0.00     0.014 A 
ATOM     30  C   UNL A   1      34.829  30.161  28.341  1.00  0.00     0.014 A 
ATOM     31  C   UNL A   1      37.085  31.786  28.584  1.00  0.00     0.010 A 
ATOM     32  C   UNL A   1      35.949  29.689  29.009  1.00  0.00     0.010 A 
ATOM     33  C   UNL A   1      37.093  30.492  29.130  1.00  0.00    -0.014 A 
BRANCH  33  34
ATOM     34  C   UNL A   1      38.280  29.942  29.830  1.00  0.00     0.031 A 
ATOM     35  C   UNL A   1      38.618  30.419  31.217  1.00  0.00     0.074 A 
ATOM     36  C   UNL A   1      39.112  29.106  29.178  1.00  0.00     0.049 A 
ATOM     37  N   UNL A   1      39.662  30.142  31.954  1.00  0.00    -0.248 NA
ATOM     38  C   UNL A   1      37.680  31.367  31.842  1.00  0.00     0.031 C 
ATOM     39  C   UNL A   1      38.940  28.642  27.799  1.00  0.00     0.029 A 
ATOM     40  N   UNL A   1      40.283  28.517  29.581  1.00  0.00    -0.354 N 
ATOM     41  C   UNL A   1      39.531  30.914  33.102  1.00  0.00     0.074 A 
ATOM     42  C   UNL A   1      38.332  31.708  32.942  1.00  0.00     0.031 C 
ATOM     43  C   UNL A   1      39.955  27.822  27.481  1.00  0.00     0.029 A 
ATOM     44  C   UNL A   1      40.864  27.726  28.617  1.00  0.00     0.049 A 
ATOM     45  H   UNL A   1      40.671  28.646  30.476  1.00  0.00     0.167 HD
ATOM     46  C   UNL A   1      40.310  30.932  34.208  1.00  0.00     0.034 A 
ATOM     47  C   UNL A   1      41.998  27.001  28.651  1.00  0.00     0.034 A 
ATOM     48  C   UNL A   1      41.460  30.091  34.388  1.00  0.00     0.049 A 
ATOM     49  C   UNL A   1      42.814  26.986  29.915  1.00  0.00     0.074 A 
ATOM     50  C   UNL A   1      42.269  29.962  35.503  1.00  0.00     0.029 A 
ATOM     51  N   UNL A   1      41.961  29.226  33.427  1.00  0.00    -0.354 N 
ATOM     52  N   UNL A   1      42.592  27.610  31.048  1.00  0.00    -0.248 NA
ATOM     53  C   UNL A   1      44.016  26.140  29.920  1.00  0.00     0.031 C 
ATOM     54  C   UNL A   1      43.262  29.019  35.213  1.00  0.00     0.029 A 
ATOM     55  C   UNL A   1      43.063  28.554  33.922  1.00  0.00     0.049 A 
ATOM     56  H   UNL A   1      41.585  29.106  32.525  1.00  0.00     0.167 HD
ATOM     57  C   UNL A   1      43.601  27.201  31.912  1.00  0.00     0.074 A 
ATOM     58  C   UNL A   1      44.425  26.263  31.176  1.00  0.00     0.031 C 
ATOM     59  C   UNL A   1      43.833  27.577  33.194  1.00  0.00     0.034 A 
BRANCH  46  60
ATOM     60  C   UNL A   1      39.889  31.842  35.334  1.00  0.00     0.023 A 
ATOM     61  C   UNL A   1      40.423  33.147  35.402  1.00  0.00     0.012 A 
ATOM     62  C   UNL A   1      38.965  31.424  36.309  1.00  0.00     0.148 A 
ATOM     63  C   UNL A   1      40.082  34.002  36.449  1.00  0.00     0.002 A 
ATOM     64  C   UNL A   1      38.594  32.299  37.325  1.00  0.00     0.091 A 
ATOM     65  F   UNL A   1      38.487  30.173  36.247  1.00  0.00    -0.205 F 
ATOM     66  C   UNL A   1      39.162  33.582  37.405  1.00  0.00     0.022 A 
BRANCH  64  67
ATOM     67  S   UNL A   1      37.357  31.875  38.556  1.00  0.00     0.127 S 
ATOM     68  O   UNL A   1      36.294  32.829  38.248  1.00  0.00    -0.237 OA
ATOM     69  O   UNL A   1      37.045  30.485  38.220  1.00  0.00    -0.237 OA
ATOM     70  O   UNL A   1      38.009  32.050  39.847  1.00  0.00    -0.744 OA
ENDBRANCH  64  67
ENDBRANCH  46  60
BRANCH  47  71
ATOM     71  C   UNL A   1      42.367  26.143  27.489  1.00  0.00     0.023 A 
ATOM     72  C   UNL A   1      43.175  26.688  26.471  1.00  0.00     0.012 A 
ATOM     73  C   UNL A   1      41.971  24.795  27.404  1.00  0.00     0.148 A 
ATOM     74  C   UNL A   1      43.558  25.916  25.375  1.00  0.00     0.002 A 
ATOM     75  C   UNL A   1      42.398  24.016  26.333  1.00  0.00     0.091 A 
ATOM     76  F   UNL A   1      41.198  24.297  28.379  1.00  0.00    -0.205 F 
ATOM     77  C   UNL A   1      43.178  24.579  25.310  1.00  0.00     0.022 A 
BRANCH  75  78
ATOM     78  S   UNL A   1      42.063  22.254  26.226  1.00  0.00     0.127 S 
ATOM     79  O   UNL A   1      42.623  21.767  27.485  1.00  0.00    -0.237 OA
ATOM     80  O   UNL A   1      40.602  22.229  26.150  1.00  0.00    -0.237 OA
ATOM     81  O   UNL A   1      42.735  21.800  25.016  1.00  0.00    -0.744 OA
ENDBRANCH  75  78
ENDBRANCH  47  71
BRANCH  59  82
ATOM     82  C   UNL A   1      45.003  26.949  33.902  1.00  0.00     0.023 A 
ATOM     83  C   UNL A   1      46.278  27.543  33.808  1.00  0.00     0.012 A 
ATOM     84  C   UNL A   1      44.824  25.819  34.723  1.00  0.00     0.148 A 
ATOM     85  C   UNL A   1      47.362  27.003  34.497  1.00  0.00     0.002 A 
ATOM     86  C   UNL A   1      45.899  25.314  35.444  1.00  0.00     0.091 A 
ATOM     87  F   UNL A   1      43.608  25.256  34.782  1.00  0.00    -0.205 F 
ATOM     88  C   UNL A   1      47.171  25.898  35.324  1.00  0.00     0.022 A 
BRANCH  86  89
ATOM     89  S   UNL A   1      45.720  23.955  36.604  1.00  0.00     0.127 S 
ATOM     90  O   UNL A   1      45.311  22.863  35.723  1.00  0.00    -0.237 OA
ATOM     91  O   UNL A   1      47.073  23.827  37.148  1.00  0.00    -0.237 OA
ATOM     92  O   UNL A   1      44.722  24.388  37.573  1.00  0.00    -0.744 OA
ENDBRANCH  86  89
ENDBRANCH  59  82
ENDBRANCH  33  34
ENDBRANCH  25  28
ENDBRANCH  23  24
ENDBRANCH   1  23
TORSDOF 17
ENDMDL
