MODEL 1
REMARK VINA RESULT:     -10.2      0.000      0.000
REMARK SMILES CCc1ccc(S(=O)(=O)c2nnn(-c3ccc(C(=O)NCCCNC(=O)c4ccc(-c5c6nc(c(-c7cccc(S(=O)(=O)[O-])c7F)c7ccc([nH]7)c(-c7cccc(S(=O)(=O)[O-])c7F)c7nc(c(-c8cccc(S(=O)(=O)[O-])c8F)c8ccc5[nH]8)C=C7)C=C6)cc4)cc3)c2C)cc1
REMARK SMILES IDX 21 1 20 2 18 3 19 4 17 6 14 7 15 8 91 9 16 10 90 11 13 12
REMARK SMILES IDX 10 13 11 14 92 15 12 16 93 17 7 18 8 19 9 20 6 21 3 22 4 23
REMARK SMILES IDX 95 24 5 25 94 26 2 27 1 28 22 29 23 30 24 31 25 32 26 34
REMARK SMILES IDX 27 35 28 36 89 37 29 38 88 39 30 40 31 41 32 42 82 43 33 44
REMARK SMILES IDX 87 45 81 46 83 47 34 48 86 49 80 50 79 51 35 53 67 54 47 55
REMARK SMILES IDX 66 56 48 57 51 58 65 59 84 60 49 61 50 62 64 64 85 65 52 66
REMARK SMILES IDX 36 67 37 68 45 69 38 70 40 71 46 72 39 73 41 74 42 75 43 76
REMARK SMILES IDX 44 77 68 78 69 79 77 80 70 81 72 82 78 83 71 84 73 85 74 86
REMARK SMILES IDX 75 87 76 88 53 89 54 90 62 91 55 92 57 93 63 94 56 95 58 96
REMARK SMILES IDX 59 97 60 98 61 99
REMARK H PARENT 20 5 24 33 83 52 51 63
REMARK Flexibility Score: inf
ROOT
ATOM      1  C   UNL A   1      35.270  34.122  33.763  1.00  0.00     0.118 C 
ENDROOT
BRANCH   1   2
ATOM      2  N   UNL A   1      35.890  33.075  34.559  1.00  0.00    -0.352 N 
ATOM      3  C   UNL A   1      37.203  32.717  34.762  1.00  0.00     0.251 C 
ATOM      4  O   UNL A   1      37.442  31.884  35.634  1.00  0.00    -0.269 OA
ATOM      5  H   UNL A   1      35.246  32.513  35.048  1.00  0.00     0.163 HD
BRANCH   3   6
ATOM      6  C   UNL A   1      38.345  33.336  34.033  1.00  0.00     0.039 A 
ATOM      7  C   UNL A   1      40.652  34.260  32.754  1.00  0.00     0.067 A 
ATOM      8  C   UNL A   1      40.039  33.098  32.286  1.00  0.00     0.029 A 
ATOM      9  C   UNL A   1      40.055  35.026  33.753  1.00  0.00     0.029 A 
ATOM     10  C   UNL A   1      38.902  32.626  32.952  1.00  0.00     0.016 A 
ATOM     11  C   UNL A   1      38.885  34.580  34.354  1.00  0.00     0.016 A 
BRANCH   7  12
ATOM     12  N   UNL A   1      41.916  34.645  32.280  1.00  0.00    -0.216 N 
ATOM     13  C   UNL A   1      43.645  35.083  31.043  1.00  0.00     0.205 A 
ATOM     14  N   UNL A   1      44.003  35.213  32.358  1.00  0.00    -0.117 NA
ATOM     15  C   UNL A   1      42.290  34.810  30.956  1.00  0.00     0.081 A 
ATOM     16  N   UNL A   1      42.915  35.033  33.098  1.00  0.00    -0.061 NA
ATOM     17  C   UNL A   1      41.335  34.861  29.819  1.00  0.00     0.070 C 
BRANCH  13  18
ATOM     18  S   UNL A   1      44.710  35.497  29.749  1.00  0.00     0.227 S 
ATOM     19  O   UNL A   1      44.753  34.323  28.917  1.00  0.00    -0.217 OA
ATOM     20  O   UNL A   1      45.904  36.056  30.374  1.00  0.00    -0.217 OA
BRANCH  18  21
ATOM     21  C   UNL A   1      43.923  36.794  28.832  1.00  0.00     0.073 A 
ATOM     22  C   UNL A   1      42.601  38.749  27.323  1.00  0.00    -0.048 A 
ATOM     23  C   UNL A   1      42.977  37.531  26.737  1.00  0.00     0.005 A 
ATOM     24  C   UNL A   1      42.882  38.966  28.679  1.00  0.00     0.005 A 
ATOM     25  C   UNL A   1      43.634  36.553  27.487  1.00  0.00     0.021 A 
ATOM     26  C   UNL A   1      43.551  38.000  29.430  1.00  0.00     0.021 A 
BRANCH  22  27
ATOM     27  C   UNL A   1      41.879  39.811  26.530  1.00  0.00     0.032 C 
ATOM     28  C   UNL A   1      42.807  40.883  25.977  1.00  0.00     0.009 C 
ENDBRANCH  22  27
ENDBRANCH  18  21
ENDBRANCH  13  18
ENDBRANCH   7  12
ENDBRANCH   3   6
ENDBRANCH   1   2
BRANCH   1  29
ATOM     29  C   UNL A   1      35.412  33.872  32.254  1.00  0.00     0.042 C 
BRANCH  29  30
ATOM     30  C   UNL A   1      35.013  32.462  31.856  1.00  0.00     0.118 C 
BRANCH  30  31
ATOM     31  N   UNL A   1      34.289  32.446  30.587  1.00  0.00    -0.352 N 
ATOM     32  C   UNL A   1      34.779  32.214  29.322  1.00  0.00     0.251 C 
ATOM     33  H   UNL A   1      33.323  32.624  30.644  1.00  0.00     0.163 HD
ATOM     34  O   UNL A   1      34.127  32.556  28.342  1.00  0.00    -0.269 OA
BRANCH  32  35
ATOM     35  C   UNL A   1      36.100  31.581  29.161  1.00  0.00     0.039 A 
ATOM     36  C   UNL A   1      37.259  32.347  29.307  1.00  0.00     0.014 A 
ATOM     37  C   UNL A   1      36.178  30.216  28.890  1.00  0.00     0.014 A 
ATOM     38  C   UNL A   1      38.498  31.713  29.271  1.00  0.00     0.010 A 
ATOM     39  C   UNL A   1      37.393  29.572  28.973  1.00  0.00     0.010 A 
ATOM     40  C   UNL A   1      38.558  30.318  29.134  1.00  0.00    -0.014 A 
BRANCH  40  41
ATOM     41  C   UNL A   1      39.836  29.627  29.296  1.00  0.00     0.031 A 
ATOM     42  C   UNL A   1      40.280  29.451  30.707  1.00  0.00     0.074 A 
ATOM     43  C   UNL A   1      40.477  28.996  28.290  1.00  0.00     0.049 A 
ATOM     44  N   UNL A   1      41.301  29.996  31.283  1.00  0.00    -0.248 NA
ATOM     45  C   UNL A   1      39.423  28.681  31.619  1.00  0.00     0.031 C 
ATOM     46  C   UNL A   1      40.006  28.791  26.916  1.00  0.00     0.029 A 
ATOM     47  N   UNL A   1      41.625  28.261  28.332  1.00  0.00    -0.354 N 
ATOM     48  C   UNL A   1      41.348  29.453  32.567  1.00  0.00     0.074 A 
ATOM     49  C   UNL A   1      40.074  28.819  32.777  1.00  0.00     0.031 C 
ATOM     50  C   UNL A   1      40.706  27.783  26.351  1.00  0.00     0.029 A 
ATOM     51  C   UNL A   1      41.775  27.397  27.253  1.00  0.00     0.049 A 
ATOM     52  H   UNL A   1      42.285  28.337  29.057  1.00  0.00     0.167 HD
ATOM     53  C   UNL A   1      42.521  29.364  33.256  1.00  0.00     0.034 A 
ATOM     54  C   UNL A   1      42.682  26.400  27.130  1.00  0.00     0.034 A 
ATOM     55  C   UNL A   1      43.558  30.142  32.623  1.00  0.00     0.049 A 
ATOM     56  C   UNL A   1      43.783  26.687  28.075  1.00  0.00     0.074 A 
ATOM     57  C   UNL A   1      43.731  31.469  32.285  1.00  0.00     0.029 A 
ATOM     58  N   UNL A   1      44.498  29.439  31.910  1.00  0.00    -0.354 N 
ATOM     59  N   UNL A   1      44.610  27.684  27.939  1.00  0.00    -0.248 NA
ATOM     60  C   UNL A   1      43.739  26.086  29.397  1.00  0.00     0.031 C 
ATOM     61  C   UNL A   1      44.447  31.442  31.053  1.00  0.00     0.029 A 
ATOM     62  C   UNL A   1      44.720  30.109  30.739  1.00  0.00     0.049 A 
ATOM     63  H   UNL A   1      44.933  28.603  32.192  1.00  0.00     0.167 HD
ATOM     64  C   UNL A   1      44.823  28.130  29.234  1.00  0.00     0.074 A 
ATOM     65  C   UNL A   1      44.387  27.028  30.088  1.00  0.00     0.031 C 
ATOM     66  C   UNL A   1      45.047  29.452  29.492  1.00  0.00     0.034 A 
BRANCH  53  67
ATOM     67  C   UNL A   1      42.883  28.299  34.273  1.00  0.00     0.023 A 
ATOM     68  C   UNL A   1      43.313  28.748  35.545  1.00  0.00     0.012 A 
ATOM     69  C   UNL A   1      43.105  26.936  33.975  1.00  0.00     0.148 A 
ATOM     70  C   UNL A   1      44.002  27.915  36.432  1.00  0.00     0.002 A 
ATOM     71  C   UNL A   1      43.718  26.089  34.893  1.00  0.00     0.091 A 
ATOM     72  F   UNL A   1      42.850  26.466  32.752  1.00  0.00    -0.205 F 
ATOM     73  C   UNL A   1      44.203  26.582  36.107  1.00  0.00     0.022 A 
BRANCH  71  74
ATOM     74  S   UNL A   1      43.951  24.339  34.554  1.00  0.00     0.127 S 
ATOM     75  O   UNL A   1      42.588  23.832  34.689  1.00  0.00    -0.237 OA
ATOM     76  O   UNL A   1      44.473  24.366  33.188  1.00  0.00    -0.237 OA
ATOM     77  O   UNL A   1      44.910  23.874  35.549  1.00  0.00    -0.744 OA
ENDBRANCH  71  74
ENDBRANCH  53  67
BRANCH  54  78
ATOM     78  C   UNL A   1      42.610  25.126  26.382  1.00  0.00     0.023 A 
ATOM     79  C   UNL A   1      43.647  24.784  25.493  1.00  0.00     0.012 A 
ATOM     80  C   UNL A   1      41.678  24.125  26.737  1.00  0.00     0.148 A 
ATOM     81  C   UNL A   1      43.781  23.478  25.007  1.00  0.00     0.002 A 
ATOM     82  C   UNL A   1      41.811  22.830  26.247  1.00  0.00     0.091 A 
ATOM     83  F   UNL A   1      40.723  24.420  27.629  1.00  0.00    -0.205 F 
ATOM     84  C   UNL A   1      42.870  22.499  25.391  1.00  0.00     0.022 A 
BRANCH  82  85
ATOM     85  S   UNL A   1      40.688  21.508  26.719  1.00  0.00     0.127 S 
ATOM     86  O   UNL A   1      39.418  21.972  26.160  1.00  0.00    -0.237 OA
ATOM     87  O   UNL A   1      41.274  20.357  26.037  1.00  0.00    -0.237 OA
ATOM     88  O   UNL A   1      40.721  21.466  28.175  1.00  0.00    -0.744 OA
ENDBRANCH  82  85
ENDBRANCH  54  78
BRANCH  66  89
ATOM     89  C   UNL A   1      45.389  30.358  28.336  1.00  0.00     0.023 A 
ATOM     90  C   UNL A   1      44.405  30.997  27.554  1.00  0.00     0.012 A 
ATOM     91  C   UNL A   1      46.738  30.705  28.144  1.00  0.00     0.148 A 
ATOM     92  C   UNL A   1      44.760  31.937  26.583  1.00  0.00     0.002 A 
ATOM     93  C   UNL A   1      47.083  31.680  27.216  1.00  0.00     0.091 A 
ATOM     94  F   UNL A   1      47.665  30.091  28.895  1.00  0.00    -0.205 F 
ATOM     95  C   UNL A   1      46.098  32.289  26.424  1.00  0.00     0.022 A 
BRANCH  93  96
ATOM     96  S   UNL A   1      48.772  32.267  27.073  1.00  0.00     0.127 S 
ATOM     97  O   UNL A   1      49.476  31.071  26.617  1.00  0.00    -0.237 OA
ATOM     98  O   UNL A   1      48.657  33.328  26.071  1.00  0.00    -0.237 OA
ATOM     99  O   UNL A   1      49.136  32.747  28.402  1.00  0.00    -0.744 OA
ENDBRANCH  93  96
ENDBRANCH  66  89
ENDBRANCH  40  41
ENDBRANCH  32  35
ENDBRANCH  30  31
ENDBRANCH  29  30
ENDBRANCH   1  29
TORSDOF 17
ENDMDL
MODEL 2
REMARK VINA RESULT:      -9.9      4.253      8.676
REMARK SMILES CCc1ccc(S(=O)(=O)c2nnn(-c3ccc(C(=O)NCCCNC(=O)c4ccc(-c5c6nc(c(-c7cccc(S(=O)(=O)[O-])c7F)c7ccc([nH]7)c(-c7cccc(S(=O)(=O)[O-])c7F)c7nc(c(-c8cccc(S(=O)(=O)[O-])c8F)c8ccc5[nH]8)C=C7)C=C6)cc4)cc3)c2C)cc1
REMARK SMILES IDX 21 1 20 2 18 3 19 4 17 6 14 7 15 8 91 9 16 10 90 11 13 12
REMARK SMILES IDX 10 13 11 14 92 15 12 16 93 17 7 18 8 19 9 20 6 21 3 22 4 23
REMARK SMILES IDX 95 24 5 25 94 26 2 27 1 28 22 29 23 30 24 31 25 32 26 34
REMARK SMILES IDX 27 35 28 36 89 37 29 38 88 39 30 40 31 41 32 42 82 43 33 44
REMARK SMILES IDX 87 45 81 46 83 47 34 48 86 49 80 50 79 51 35 53 67 54 47 55
REMARK SMILES IDX 66 56 48 57 51 58 65 59 84 60 49 61 50 62 64 64 85 65 52 66
REMARK SMILES IDX 36 67 37 68 45 69 38 70 40 71 46 72 39 73 41 74 42 75 43 76
REMARK SMILES IDX 44 77 68 78 69 79 77 80 70 81 72 82 78 83 71 84 73 85 74 86
REMARK SMILES IDX 75 87 76 88 53 89 54 90 62 91 55 92 57 93 63 94 56 95 58 96
REMARK SMILES IDX 59 97 60 98 61 99
REMARK H PARENT 20 5 24 33 83 52 51 63
REMARK Flexibility Score: inf
ROOT
ATOM      1  C   UNL A   1      33.351  23.636  26.339  1.00  0.00     0.118 C 
ENDROOT
BRANCH   1   2
ATOM      2  N   UNL A   1      32.098  24.028  25.715  1.00  0.00    -0.352 N 
ATOM      3  C   UNL A   1      31.519  25.255  25.486  1.00  0.00     0.251 C 
ATOM      4  O   UNL A   1      30.516  25.292  24.774  1.00  0.00    -0.269 OA
ATOM      5  H   UNL A   1      31.560  23.270  25.393  1.00  0.00     0.163 HD
BRANCH   3   6
ATOM      6  C   UNL A   1      32.082  26.537  25.994  1.00  0.00     0.039 A 
ATOM      7  C   UNL A   1      32.869  29.066  26.886  1.00  0.00     0.067 A 
ATOM      8  C   UNL A   1      31.897  28.369  27.602  1.00  0.00     0.029 A 
ATOM      9  C   UNL A   1      33.538  28.463  25.823  1.00  0.00     0.029 A 
ATOM     10  C   UNL A   1      31.486  27.116  27.130  1.00  0.00     0.016 A 
ATOM     11  C   UNL A   1      33.169  27.189  25.413  1.00  0.00     0.016 A 
BRANCH   7  12
ATOM     12  N   UNL A   1      33.146  30.412  27.175  1.00  0.00    -0.216 N 
ATOM     13  C   UNL A   1      34.054  32.267  27.840  1.00  0.00     0.205 A 
ATOM     14  N   UNL A   1      32.775  32.529  27.426  1.00  0.00    -0.117 NA
ATOM     15  C   UNL A   1      34.353  30.937  27.605  1.00  0.00     0.081 A 
ATOM     16  N   UNL A   1      32.265  31.405  26.937  1.00  0.00    -0.061 NA
ATOM     17  C   UNL A   1      35.641  30.194  27.583  1.00  0.00     0.070 C 
BRANCH  13  18
ATOM     18  S   UNL A   1      35.151  33.518  28.299  1.00  0.00     0.227 S 
ATOM     19  O   UNL A   1      34.566  34.729  27.784  1.00  0.00    -0.217 OA
ATOM     20  O   UNL A   1      36.477  33.060  27.896  1.00  0.00    -0.217 OA
BRANCH  18  21
ATOM     21  C   UNL A   1      35.123  33.602  30.069  1.00  0.00     0.073 A 
ATOM     22  C   UNL A   1      35.214  33.733  32.866  1.00  0.00    -0.048 A 
ATOM     23  C   UNL A   1      36.081  32.882  32.164  1.00  0.00     0.005 A 
ATOM     24  C   UNL A   1      34.313  34.529  32.145  1.00  0.00     0.005 A 
ATOM     25  C   UNL A   1      36.039  32.815  30.771  1.00  0.00     0.021 A 
ATOM     26  C   UNL A   1      34.257  34.457  30.754  1.00  0.00     0.021 A 
BRANCH  22  27
ATOM     27  C   UNL A   1      35.254  33.826  34.372  1.00  0.00     0.032 C 
ATOM     28  C   UNL A   1      36.632  33.549  34.955  1.00  0.00     0.009 C 
ENDBRANCH  22  27
ENDBRANCH  18  21
ENDBRANCH  13  18
ENDBRANCH   7  12
ENDBRANCH   3   6
ENDBRANCH   1   2
BRANCH   1  29
ATOM     29  C   UNL A   1      34.406  23.200  25.312  1.00  0.00     0.042 C 
BRANCH  29  30
ATOM     30  C   UNL A   1      35.796  23.088  25.915  1.00  0.00     0.118 C 
BRANCH  30  31
ATOM     31  N   UNL A   1      36.430  21.817  25.574  1.00  0.00    -0.352 N 
ATOM     32  C   UNL A   1      37.771  21.523  25.481  1.00  0.00     0.251 C 
ATOM     33  H   UNL A   1      35.816  21.071  25.385  1.00  0.00     0.163 HD
ATOM     34  O   UNL A   1      38.138  20.524  24.873  1.00  0.00    -0.269 OA
BRANCH  32  35
ATOM     35  C   UNL A   1      38.756  22.434  26.092  1.00  0.00     0.039 A 
ATOM     36  C   UNL A   1      38.572  23.816  26.002  1.00  0.00     0.014 A 
ATOM     37  C   UNL A   1      39.847  21.904  26.777  1.00  0.00     0.014 A 
ATOM     38  C   UNL A   1      39.444  24.659  26.685  1.00  0.00     0.010 A 
ATOM     39  C   UNL A   1      40.637  22.728  27.547  1.00  0.00     0.010 A 
ATOM     40  C   UNL A   1      40.458  24.108  27.483  1.00  0.00    -0.014 A 
BRANCH  40  41
ATOM     41  C   UNL A   1      41.247  24.975  28.357  1.00  0.00     0.031 A 
ATOM     42  C   UNL A   1      40.623  26.294  28.662  1.00  0.00     0.074 A 
ATOM     43  C   UNL A   1      42.345  24.564  29.024  1.00  0.00     0.049 A 
ATOM     44  N   UNL A   1      41.038  27.462  28.296  1.00  0.00    -0.248 NA
ATOM     45  C   UNL A   1      39.322  26.311  29.344  1.00  0.00     0.031 C 
ATOM     46  C   UNL A   1      42.896  23.206  29.094  1.00  0.00     0.029 A 
ATOM     47  N   UNL A   1      43.113  25.251  29.917  1.00  0.00    -0.354 N 
ATOM     48  C   UNL A   1      40.177  28.378  28.901  1.00  0.00     0.074 A 
ATOM     49  C   UNL A   1      39.044  27.616  29.356  1.00  0.00     0.031 C 
ATOM     50  C   UNL A   1      43.716  23.113  30.163  1.00  0.00     0.029 A 
ATOM     51  C   UNL A   1      43.879  24.433  30.741  1.00  0.00     0.049 A 
ATOM     52  H   UNL A   1      43.126  26.233  29.971  1.00  0.00     0.167 HD
ATOM     53  C   UNL A   1      40.581  29.646  29.190  1.00  0.00     0.034 A 
ATOM     54  C   UNL A   1      44.559  24.805  31.851  1.00  0.00     0.034 A 
ATOM     55  C   UNL A   1      41.830  29.957  28.539  1.00  0.00     0.049 A 
ATOM     56  C   UNL A   1      44.767  26.267  31.769  1.00  0.00     0.074 A 
ATOM     57  C   UNL A   1      42.284  29.992  27.236  1.00  0.00     0.029 A 
ATOM     58  N   UNL A   1      42.951  29.950  29.334  1.00  0.00    -0.354 N 
ATOM     59  N   UNL A   1      45.548  26.838  30.895  1.00  0.00    -0.248 NA
ATOM     60  C   UNL A   1      43.809  27.144  32.420  1.00  0.00     0.031 C 
ATOM     61  C   UNL A   1      43.634  29.540  27.306  1.00  0.00     0.029 A 
ATOM     62  C   UNL A   1      43.946  29.312  28.648  1.00  0.00     0.049 A 
ATOM     63  H   UNL A   1      43.023  30.335  30.237  1.00  0.00     0.167 HD
ATOM     64  C   UNL A   1      44.876  28.000  30.547  1.00  0.00     0.074 A 
ATOM     65  C   UNL A   1      43.900  28.205  31.615  1.00  0.00     0.031 C 
ATOM     66  C   UNL A   1      44.969  28.511  29.284  1.00  0.00     0.034 A 
BRANCH  53  67
ATOM     67  C   UNL A   1      40.093  30.501  30.344  1.00  0.00     0.023 A 
ATOM     68  C   UNL A   1      39.836  31.866  30.065  1.00  0.00     0.012 A 
ATOM     69  C   UNL A   1      40.150  30.134  31.707  1.00  0.00     0.148 A 
ATOM     70  C   UNL A   1      39.731  32.823  31.080  1.00  0.00     0.002 A 
ATOM     71  C   UNL A   1      39.964  31.075  32.714  1.00  0.00     0.091 A 
ATOM     72  F   UNL A   1      40.517  28.898  32.053  1.00  0.00    -0.205 F 
ATOM     73  C   UNL A   1      39.792  32.427  32.408  1.00  0.00     0.022 A 
BRANCH  71  74
ATOM     74  S   UNL A   1      39.972  30.612  34.451  1.00  0.00     0.127 S 
ATOM     75  O   UNL A   1      40.058  31.917  35.101  1.00  0.00    -0.237 OA
ATOM     76  O   UNL A   1      38.683  29.933  34.586  1.00  0.00    -0.237 OA
ATOM     77  O   UNL A   1      41.126  29.736  34.616  1.00  0.00    -0.744 OA
ENDBRANCH  71  74
ENDBRANCH  53  67
BRANCH  54  78
ATOM     78  C   UNL A   1      44.908  24.034  33.064  1.00  0.00     0.023 A 
ATOM     79  C   UNL A   1      44.027  23.040  33.531  1.00  0.00     0.012 A 
ATOM     80  C   UNL A   1      46.214  24.075  33.601  1.00  0.00     0.148 A 
ATOM     81  C   UNL A   1      44.444  22.089  34.469  1.00  0.00     0.002 A 
ATOM     82  C   UNL A   1      46.622  23.132  34.539  1.00  0.00     0.091 A 
ATOM     83  F   UNL A   1      47.081  24.977  33.122  1.00  0.00    -0.205 F 
ATOM     84  C   UNL A   1      45.743  22.128  34.966  1.00  0.00     0.022 A 
BRANCH  82  85
ATOM     85  S   UNL A   1      48.292  23.104  35.205  1.00  0.00     0.127 S 
ATOM     86  O   UNL A   1      48.217  22.010  36.173  1.00  0.00    -0.237 OA
ATOM     87  O   UNL A   1      49.086  22.815  34.013  1.00  0.00    -0.237 OA
ATOM     88  O   UNL A   1      48.498  24.418  35.801  1.00  0.00    -0.744 OA
ENDBRANCH  82  85
ENDBRANCH  54  78
BRANCH  66  89
ATOM     89  C   UNL A   1      46.062  27.993  28.382  1.00  0.00     0.023 A 
ATOM     90  C   UNL A   1      47.387  28.470  28.445  1.00  0.00     0.012 A 
ATOM     91  C   UNL A   1      45.779  26.881  27.572  1.00  0.00     0.148 A 
ATOM     92  C   UNL A   1      48.401  27.870  27.693  1.00  0.00     0.002 A 
ATOM     93  C   UNL A   1      46.799  26.252  26.867  1.00  0.00     0.091 A 
ATOM     94  F   UNL A   1      44.514  26.436  27.521  1.00  0.00    -0.205 F 
ATOM     95  C   UNL A   1      48.109  26.752  26.915  1.00  0.00     0.022 A 
BRANCH  93  96
ATOM     96  S   UNL A   1      46.502  24.730  25.966  1.00  0.00     0.127 S 
ATOM     97  O   UNL A   1      47.856  24.308  25.620  1.00  0.00    -0.237 OA
ATOM     98  O   UNL A   1      45.837  23.892  26.967  1.00  0.00    -0.237 OA
ATOM     99  O   UNL A   1      45.647  25.097  24.843  1.00  0.00    -0.744 OA
ENDBRANCH  93  96
ENDBRANCH  66  89
ENDBRANCH  40  41
ENDBRANCH  32  35
ENDBRANCH  30  31
ENDBRANCH  29  30
ENDBRANCH   1  29
TORSDOF 17
ENDMDL
MODEL 3
REMARK VINA RESULT:      -9.9      3.346     11.131
REMARK SMILES CCc1ccc(S(=O)(=O)c2nnn(-c3ccc(C(=O)NCCCNC(=O)c4ccc(-c5c6nc(c(-c7cccc(S(=O)(=O)[O-])c7F)c7ccc([nH]7)c(-c7cccc(S(=O)(=O)[O-])c7F)c7nc(c(-c8cccc(S(=O)(=O)[O-])c8F)c8ccc5[nH]8)C=C7)C=C6)cc4)cc3)c2C)cc1
REMARK SMILES IDX 21 1 20 2 18 3 19 4 17 6 14 7 15 8 91 9 16 10 90 11 13 12
REMARK SMILES IDX 10 13 11 14 92 15 12 16 93 17 7 18 8 19 9 20 6 21 3 22 4 23
REMARK SMILES IDX 95 24 5 25 94 26 2 27 1 28 22 29 23 30 24 31 25 32 26 34
REMARK SMILES IDX 27 35 28 36 89 37 29 38 88 39 30 40 31 41 32 42 82 43 33 44
REMARK SMILES IDX 87 45 81 46 83 47 34 48 86 49 80 50 79 51 35 53 67 54 47 55
REMARK SMILES IDX 66 56 48 57 51 58 65 59 84 60 49 61 50 62 64 64 85 65 52 66
REMARK SMILES IDX 36 67 37 68 45 69 38 70 40 71 46 72 39 73 41 74 42 75 43 76
REMARK SMILES IDX 44 77 68 78 69 79 77 80 70 81 72 82 78 83 71 84 73 85 74 86
REMARK SMILES IDX 75 87 76 88 53 89 54 90 62 91 55 92 57 93 63 94 56 95 58 96
REMARK SMILES IDX 59 97 60 98 61 99
REMARK H PARENT 20 5 24 33 83 52 51 63
REMARK Flexibility Score: inf
ROOT
ATOM      1  C   UNL A   1      45.291  22.804  25.470  1.00  0.00     0.118 C 
ENDROOT
BRANCH   1   2
ATOM      2  N   UNL A   1      45.560  24.035  24.743  1.00  0.00    -0.352 N 
ATOM      3  C   UNL A   1      45.903  25.301  25.157  1.00  0.00     0.251 C 
ATOM      4  O   UNL A   1      46.238  26.114  24.297  1.00  0.00    -0.269 OA
ATOM      5  H   UNL A   1      45.481  23.944  23.767  1.00  0.00     0.163 HD
BRANCH   3   6
ATOM      6  C   UNL A   1      45.956  25.711  26.588  1.00  0.00     0.039 A 
ATOM      7  C   UNL A   1      46.025  26.189  29.341  1.00  0.00     0.067 A 
ATOM      8  C   UNL A   1      47.072  25.482  28.751  1.00  0.00     0.029 A 
ATOM      9  C   UNL A   1      45.027  26.767  28.558  1.00  0.00     0.029 A 
ATOM     10  C   UNL A   1      47.014  25.221  27.377  1.00  0.00     0.016 A 
ATOM     11  C   UNL A   1      45.025  26.559  27.185  1.00  0.00     0.016 A 
BRANCH   7  12
ATOM     12  N   UNL A   1      45.913  26.274  30.738  1.00  0.00    -0.216 N 
ATOM     13  C   UNL A   1      45.305  26.043  32.808  1.00  0.00     0.205 A 
ATOM     14  N   UNL A   1      46.250  27.031  32.736  1.00  0.00    -0.117 NA
ATOM     15  C   UNL A   1      45.134  25.474  31.557  1.00  0.00     0.081 A 
ATOM     16  N   UNL A   1      46.679  27.097  31.482  1.00  0.00    -0.061 NA
ATOM     17  C   UNL A   1      44.481  24.214  31.117  1.00  0.00     0.070 C 
BRANCH  13  18
ATOM     18  S   UNL A   1      44.685  25.463  34.311  1.00  0.00     0.227 S 
ATOM     19  O   UNL A   1      43.265  25.342  34.101  1.00  0.00    -0.217 OA
ATOM     20  O   UNL A   1      45.250  26.328  35.341  1.00  0.00    -0.217 OA
BRANCH  18  21
ATOM     21  C   UNL A   1      45.348  23.836  34.546  1.00  0.00     0.073 A 
ATOM     22  C   UNL A   1      46.305  21.219  34.828  1.00  0.00    -0.048 A 
ATOM     23  C   UNL A   1      44.925  21.470  34.768  1.00  0.00     0.005 A 
ATOM     24  C   UNL A   1      47.196  22.295  34.728  1.00  0.00     0.005 A 
ATOM     25  C   UNL A   1      44.445  22.773  34.625  1.00  0.00     0.021 A 
ATOM     26  C   UNL A   1      46.723  23.601  34.600  1.00  0.00     0.021 A 
BRANCH  22  27
ATOM     27  C   UNL A   1      46.840  19.815  34.970  1.00  0.00     0.032 C 
ATOM     28  C   UNL A   1      47.816  19.429  33.867  1.00  0.00     0.009 C 
ENDBRANCH  22  27
ENDBRANCH  18  21
ENDBRANCH  13  18
ENDBRANCH   7  12
ENDBRANCH   3   6
ENDBRANCH   1   2
BRANCH   1  29
ATOM     29  C   UNL A   1      43.865  22.285  25.236  1.00  0.00     0.042 C 
BRANCH  29  30
ATOM     30  C   UNL A   1      43.116  22.033  26.533  1.00  0.00     0.118 C 
BRANCH  30  31
ATOM     31  N   UNL A   1      41.688  21.830  26.298  1.00  0.00    -0.352 N 
ATOM     32  C   UNL A   1      40.631  22.617  26.697  1.00  0.00     0.251 C 
ATOM     33  H   UNL A   1      41.449  21.023  25.787  1.00  0.00     0.163 HD
ATOM     34  O   UNL A   1      39.497  22.154  26.714  1.00  0.00    -0.269 OA
BRANCH  32  35
ATOM     35  C   UNL A   1      40.883  24.004  27.127  1.00  0.00     0.039 A 
ATOM     36  C   UNL A   1      40.311  25.065  26.420  1.00  0.00     0.014 A 
ATOM     37  C   UNL A   1      41.669  24.241  28.253  1.00  0.00     0.014 A 
ATOM     38  C   UNL A   1      40.459  26.360  26.907  1.00  0.00     0.010 A 
ATOM     39  C   UNL A   1      41.717  25.505  28.800  1.00  0.00     0.010 A 
ATOM     40  C   UNL A   1      41.138  26.572  28.117  1.00  0.00    -0.014 A 
BRANCH  40  41
ATOM     41  C   UNL A   1      41.124  27.896  28.735  1.00  0.00     0.031 A 
ATOM     42  C   UNL A   1      42.112  28.861  28.174  1.00  0.00     0.074 A 
ATOM     43  C   UNL A   1      40.167  28.312  29.591  1.00  0.00     0.049 A 
ATOM     44  N   UNL A   1      43.143  29.364  28.768  1.00  0.00    -0.248 NA
ATOM     45  C   UNL A   1      42.016  29.211  26.750  1.00  0.00     0.031 C 
ATOM     46  C   UNL A   1      38.946  27.601  29.985  1.00  0.00     0.029 A 
ATOM     47  N   UNL A   1      40.008  29.537  30.169  1.00  0.00    -0.354 N 
ATOM     48  C   UNL A   1      43.694  30.276  27.868  1.00  0.00     0.074 A 
ATOM     49  C   UNL A   1      43.087  29.991  26.595  1.00  0.00     0.031 C 
ATOM     50  C   UNL A   1      38.064  28.485  30.500  1.00  0.00     0.029 A 
ATOM     51  C   UNL A   1      38.717  29.773  30.629  1.00  0.00     0.049 A 
ATOM     52  H   UNL A   1      40.738  30.191  30.255  1.00  0.00     0.167 HD
ATOM     53  C   UNL A   1      44.422  31.344  28.297  1.00  0.00     0.034 A 
ATOM     54  C   UNL A   1      38.204  30.957  31.040  1.00  0.00     0.034 A 
ATOM     55  C   UNL A   1      44.767  31.214  29.692  1.00  0.00     0.049 A 
ATOM     56  C   UNL A   1      39.344  31.832  31.390  1.00  0.00     0.074 A 
ATOM     57  C   UNL A   1      45.456  30.297  30.458  1.00  0.00     0.029 A 
ATOM     58  N   UNL A   1      44.045  31.983  30.573  1.00  0.00    -0.354 N 
ATOM     59  N   UNL A   1      40.126  31.625  32.412  1.00  0.00    -0.248 NA
ATOM     60  C   UNL A   1      39.859  32.741  30.381  1.00  0.00     0.031 C 
ATOM     61  C   UNL A   1      44.762  30.263  31.703  1.00  0.00     0.029 A 
ATOM     62  C   UNL A   1      43.728  31.200  31.647  1.00  0.00     0.049 A 
ATOM     63  H   UNL A   1      43.800  32.928  30.451  1.00  0.00     0.167 HD
ATOM     64  C   UNL A   1      41.386  31.982  31.954  1.00  0.00     0.074 A 
ATOM     65  C   UNL A   1      41.138  32.793  30.764  1.00  0.00     0.031 C 
ATOM     66  C   UNL A   1      42.503  31.339  32.405  1.00  0.00     0.034 A 
BRANCH  53  67
ATOM     67  C   UNL A   1      44.521  32.694  27.613  1.00  0.00     0.023 A 
ATOM     68  C   UNL A   1      45.657  32.917  26.797  1.00  0.00     0.012 A 
ATOM     69  C   UNL A   1      43.748  33.829  27.944  1.00  0.00     0.148 A 
ATOM     70  C   UNL A   1      46.049  34.201  26.406  1.00  0.00     0.002 A 
ATOM     71  C   UNL A   1      44.096  35.096  27.485  1.00  0.00     0.091 A 
ATOM     72  F   UNL A   1      42.741  33.725  28.814  1.00  0.00    -0.205 F 
ATOM     73  C   UNL A   1      45.266  35.293  26.749  1.00  0.00     0.022 A 
BRANCH  71  74
ATOM     74  S   UNL A   1      43.088  36.540  27.846  1.00  0.00     0.127 S 
ATOM     75  O   UNL A   1      43.753  37.566  27.047  1.00  0.00    -0.237 OA
ATOM     76  O   UNL A   1      41.777  36.120  27.351  1.00  0.00    -0.237 OA
ATOM     77  O   UNL A   1      43.153  36.710  29.292  1.00  0.00    -0.744 OA
ENDBRANCH  71  74
ENDBRANCH  53  67
BRANCH  54  78
ATOM     78  C   UNL A   1      36.815  31.463  31.005  1.00  0.00     0.023 A 
ATOM     79  C   UNL A   1      36.193  31.865  32.203  1.00  0.00     0.012 A 
ATOM     80  C   UNL A   1      36.198  31.812  29.783  1.00  0.00     0.148 A 
ATOM     81  C   UNL A   1      35.019  32.627  32.187  1.00  0.00     0.002 A 
ATOM     82  C   UNL A   1      35.027  32.564  29.772  1.00  0.00     0.091 A 
ATOM     83  F   UNL A   1      36.810  31.490  28.636  1.00  0.00    -0.205 F 
ATOM     84  C   UNL A   1      34.441  32.985  30.973  1.00  0.00     0.022 A 
BRANCH  82  85
ATOM     85  S   UNL A   1      34.240  33.086  28.242  1.00  0.00     0.127 S 
ATOM     86  O   UNL A   1      35.353  33.704  27.521  1.00  0.00    -0.237 OA
ATOM     87  O   UNL A   1      33.783  31.813  27.690  1.00  0.00    -0.237 OA
ATOM     88  O   UNL A   1      33.192  34.018  28.638  1.00  0.00    -0.744 OA
ENDBRANCH  82  85
ENDBRANCH  54  78
BRANCH  66  89
ATOM     89  C   UNL A   1      42.385  30.479  33.638  1.00  0.00     0.023 A 
ATOM     90  C   UNL A   1      42.021  29.118  33.583  1.00  0.00     0.012 A 
ATOM     91  C   UNL A   1      42.817  31.016  34.863  1.00  0.00     0.148 A 
ATOM     92  C   UNL A   1      42.058  28.320  34.728  1.00  0.00     0.002 A 
ATOM     93  C   UNL A   1      42.905  30.206  35.988  1.00  0.00     0.091 A 
ATOM     94  F   UNL A   1      43.162  32.312  34.903  1.00  0.00    -0.205 F 
ATOM     95  C   UNL A   1      42.514  28.860  35.929  1.00  0.00     0.022 A 
BRANCH  93  96
ATOM     96  S   UNL A   1      43.617  30.817  37.517  1.00  0.00     0.127 S 
ATOM     97  O   UNL A   1      42.455  31.392  38.189  1.00  0.00    -0.237 OA
ATOM     98  O   UNL A   1      44.139  29.597  38.136  1.00  0.00    -0.237 OA
ATOM     99  O   UNL A   1      44.652  31.765  37.119  1.00  0.00    -0.744 OA
ENDBRANCH  93  96
ENDBRANCH  66  89
ENDBRANCH  40  41
ENDBRANCH  32  35
ENDBRANCH  30  31
ENDBRANCH  29  30
ENDBRANCH   1  29
TORSDOF 17
ENDMDL
