MODEL 1
REMARK VINA RESULT:     -12.2      0.000      0.000
REMARK SMILES C[C@H]1SC[C@H](C(=O)NCCCNC(=O)c2ccc(-c3c4nc(c(-c5cccc(S(=O)(=O)[O-])c5F)c5ccc([nH]5)c(-c5cccc(S(=O)(=O)[O-])c5F)c5nc(c(-c6cccc(S(=O)(=O)[O-])c6F)c6ccc3[nH]6)C=C5)C=C4)cc2)N1C(=O)[C@@H]1CSc2ccccc21
REMARK SMILES IDX 10 1 9 2 8 3 6 4 7 5 5 7 1 8 2 9 3 10 78 11 4 12 79 13 80 14
REMARK SMILES IDX 81 15 82 16 89 17 83 18 84 19 88 20 85 21 87 22 86 23 11 24
REMARK SMILES IDX 12 25 13 26 14 28 15 29 16 30 77 31 17 32 76 33 18 34 19 35
REMARK SMILES IDX 20 36 70 37 21 38 75 39 69 40 71 41 22 42 74 43 68 44 67 45
REMARK SMILES IDX 23 47 55 48 35 49 54 50 36 51 39 52 53 53 72 54 37 55 38 56
REMARK SMILES IDX 52 58 73 59 40 60 24 61 25 62 33 63 26 64 28 65 34 66 27 67
REMARK SMILES IDX 29 68 30 69 31 70 32 71 56 72 57 73 65 74 58 75 60 76 66 77
REMARK SMILES IDX 59 78 61 79 62 80 63 81 64 82 41 83 42 84 50 85 43 86 45 87
REMARK SMILES IDX 51 88 44 89 46 90 47 91 48 92 49 93
REMARK H PARENT 8 6 12 27 71 46 39 57
REMARK Flexibility Score: inf
ROOT
ATOM      1  C   UNL A   1      32.810  28.391  27.140  1.00  0.00     0.042 C 
ENDROOT
BRANCH   1   2
ATOM      2  C   UNL A   1      31.466  28.192  26.462  1.00  0.00     0.117 C 
BRANCH   2   3
ATOM      3  N   UNL A   1      30.826  26.944  26.815  1.00  0.00    -0.354 N 
ATOM      4  C   UNL A   1      30.632  25.820  26.070  1.00  0.00     0.243 C 
ATOM      5  O   UNL A   1      29.920  24.936  26.562  1.00  0.00    -0.273 OA
ATOM      6  H   UNL A   1      30.478  26.900  27.735  1.00  0.00     0.163 HD
BRANCH   4   7
ATOM      7  C   UNL A   1      31.075  25.726  24.597  1.00  0.00     0.185 C 
ATOM      8  C   UNL A   1      32.626  25.150  21.894  1.00  0.00     0.043 C 
ATOM      9  C   UNL A   1      32.720  26.299  22.900  1.00  0.00     0.141 C 
ATOM     10  S   UNL A   1      31.361  27.433  22.525  1.00  0.00    -0.135 SA
ATOM     11  N   UNL A   1      32.513  25.853  24.271  1.00  0.00    -0.318 N 
ATOM     12  C   UNL A   1      30.301  26.829  23.856  1.00  0.00     0.107 C 
BRANCH  11  13
ATOM     13  C   UNL A   1      33.437  25.140  25.017  1.00  0.00     0.232 C 
ATOM     14  O   UNL A   1      34.336  25.740  25.620  1.00  0.00    -0.274 OA
BRANCH  13  15
ATOM     15  C   UNL A   1      33.462  23.600  25.047  1.00  0.00     0.120 C 
ATOM     16  C   UNL A   1      32.930  22.966  26.341  1.00  0.00     0.093 C 
ATOM     17  C   UNL A   1      34.782  22.967  24.710  1.00  0.00    -0.021 A 
ATOM     18  S   UNL A   1      34.247  21.966  27.101  1.00  0.00    -0.125 SA
ATOM     19  C   UNL A   1      35.317  22.156  25.712  1.00  0.00     0.011 A 
ATOM     20  C   UNL A   1      35.467  23.146  23.510  1.00  0.00     0.006 A 
ATOM     21  C   UNL A   1      36.578  21.597  25.581  1.00  0.00     0.015 A 
ATOM     22  C   UNL A   1      36.729  22.570  23.363  1.00  0.00     0.000 A 
ATOM     23  C   UNL A   1      37.291  21.817  24.402  1.00  0.00     0.001 A 
ENDBRANCH  13  15
ENDBRANCH  11  13
ENDBRANCH   4   7
ENDBRANCH   2   3
ENDBRANCH   1   2
BRANCH   1  24
ATOM     24  C   UNL A   1      33.759  29.306  26.385  1.00  0.00     0.118 C 
BRANCH  24  25
ATOM     25  N   UNL A   1      33.832  30.648  26.947  1.00  0.00    -0.352 N 
ATOM     26  C   UNL A   1      34.753  31.180  27.826  1.00  0.00     0.251 C 
ATOM     27  H   UNL A   1      33.122  31.266  26.658  1.00  0.00     0.163 HD
ATOM     28  O   UNL A   1      34.577  32.287  28.306  1.00  0.00    -0.269 OA
BRANCH  26  29
ATOM     29  C   UNL A   1      35.938  30.376  28.203  1.00  0.00     0.039 A 
ATOM     30  C   UNL A   1      37.056  30.374  27.364  1.00  0.00     0.014 A 
ATOM     31  C   UNL A   1      35.961  29.672  29.408  1.00  0.00     0.014 A 
ATOM     32  C   UNL A   1      38.230  29.740  27.782  1.00  0.00     0.010 A 
ATOM     33  C   UNL A   1      37.155  29.131  29.864  1.00  0.00     0.010 A 
ATOM     34  C   UNL A   1      38.304  29.158  29.058  1.00  0.00    -0.014 A 
BRANCH  34  35
ATOM     35  C   UNL A   1      39.568  28.589  29.594  1.00  0.00     0.031 A 
ATOM     36  C   UNL A   1      40.291  29.289  30.713  1.00  0.00     0.074 A 
ATOM     37  C   UNL A   1      40.139  27.534  28.979  1.00  0.00     0.049 A 
ATOM     38  N   UNL A   1      41.471  29.037  31.217  1.00  0.00    -0.248 NA
ATOM     39  C   UNL A   1      39.617  30.451  31.315  1.00  0.00     0.031 C 
ATOM     40  C   UNL A   1      39.590  26.829  27.819  1.00  0.00     0.029 A 
ATOM     41  N   UNL A   1      41.335  26.900  29.216  1.00  0.00    -0.354 N 
ATOM     42  C   UNL A   1      41.705  30.043  32.148  1.00  0.00     0.074 A 
ATOM     43  C   UNL A   1      40.558  30.922  32.120  1.00  0.00     0.031 C 
ATOM     44  C   UNL A   1      40.448  25.869  27.439  1.00  0.00     0.029 A 
ATOM     45  C   UNL A   1      41.622  25.909  28.305  1.00  0.00     0.049 A 
ATOM     46  H   UNL A   1      41.928  27.131  29.966  1.00  0.00     0.167 HD
ATOM     47  C   UNL A   1      42.769  30.206  32.971  1.00  0.00     0.034 A 
ATOM     48  C   UNL A   1      42.714  25.132  28.169  1.00  0.00     0.034 A 
ATOM     49  C   UNL A   1      43.873  29.290  33.045  1.00  0.00     0.049 A 
ATOM     50  C   UNL A   1      43.843  25.273  29.153  1.00  0.00     0.074 A 
ATOM     51  C   UNL A   1      44.933  29.292  33.935  1.00  0.00     0.029 A 
ATOM     52  N   UNL A   1      44.067  28.213  32.195  1.00  0.00    -0.354 N 
ATOM     53  N   UNL A   1      43.965  26.119  30.148  1.00  0.00    -0.248 NA
ATOM     54  C   UNL A   1      44.965  24.333  29.023  1.00  0.00     0.031 C 
ATOM     55  C   UNL A   1      45.778  28.225  33.610  1.00  0.00     0.029 A 
ATOM     56  C   UNL A   1      45.232  27.547  32.531  1.00  0.00     0.049 A 
ATOM     57  H   UNL A   1      43.464  27.960  31.459  1.00  0.00     0.167 HD
ATOM     58  C   UNL A   1      45.158  25.793  30.781  1.00  0.00     0.074 A 
ATOM     59  C   UNL A   1      45.714  24.660  30.069  1.00  0.00     0.031 C 
ATOM     60  C   UNL A   1      45.746  26.387  31.849  1.00  0.00     0.034 A 
BRANCH  47  61
ATOM     61  C   UNL A   1      42.756  31.392  33.898  1.00  0.00     0.023 A 
ATOM     62  C   UNL A   1      43.319  32.615  33.476  1.00  0.00     0.012 A 
ATOM     63  C   UNL A   1      42.154  31.313  35.169  1.00  0.00     0.148 A 
ATOM     64  C   UNL A   1      43.323  33.725  34.319  1.00  0.00     0.002 A 
ATOM     65  C   UNL A   1      42.120  32.438  35.986  1.00  0.00     0.091 A 
ATOM     66  F   UNL A   1      41.646  30.137  35.566  1.00  0.00    -0.205 F 
ATOM     67  C   UNL A   1      42.715  33.639  35.568  1.00  0.00     0.022 A 
BRANCH  65  68
ATOM     68  S   UNL A   1      41.285  32.445  37.577  1.00  0.00     0.127 S 
ATOM     69  O   UNL A   1      39.979  31.891  37.228  1.00  0.00    -0.237 OA
ATOM     70  O   UNL A   1      42.130  31.557  38.376  1.00  0.00    -0.237 OA
ATOM     71  O   UNL A   1      41.285  33.833  38.016  1.00  0.00    -0.744 OA
ENDBRANCH  65  68
ENDBRANCH  47  61
BRANCH  48  72
ATOM     72  C   UNL A   1      42.752  24.102  27.092  1.00  0.00     0.023 A 
ATOM     73  C   UNL A   1      43.478  24.363  25.914  1.00  0.00     0.012 A 
ATOM     74  C   UNL A   1      42.130  22.849  27.255  1.00  0.00     0.148 A 
ATOM     75  C   UNL A   1      43.567  23.402  24.907  1.00  0.00     0.002 A 
ATOM     76  C   UNL A   1      42.267  21.876  26.271  1.00  0.00     0.091 A 
ATOM     77  F   UNL A   1      41.438  22.626  28.381  1.00  0.00    -0.205 F 
ATOM     78  C   UNL A   1      42.972  22.156  25.090  1.00  0.00     0.022 A 
BRANCH  76  79
ATOM     79  S   UNL A   1      41.655  20.201  26.477  1.00  0.00     0.127 S 
ATOM     80  O   UNL A   1      40.213  20.392  26.356  1.00  0.00    -0.237 OA
ATOM     81  O   UNL A   1      42.282  19.510  25.349  1.00  0.00    -0.237 OA
ATOM     82  O   UNL A   1      42.128  19.766  27.785  1.00  0.00    -0.744 OA
ENDBRANCH  76  79
ENDBRANCH  48  72
BRANCH  60  83
ATOM     83  C   UNL A   1      47.046  25.811  32.346  1.00  0.00     0.023 A 
ATOM     84  C   UNL A   1      48.265  26.266  31.807  1.00  0.00     0.012 A 
ATOM     85  C   UNL A   1      47.062  24.889  33.411  1.00  0.00     0.148 A 
ATOM     86  C   UNL A   1      49.480  25.793  32.302  1.00  0.00     0.002 A 
ATOM     87  C   UNL A   1      48.276  24.458  33.932  1.00  0.00     0.091 A 
ATOM     88  F   UNL A   1      45.890  24.453  33.897  1.00  0.00    -0.205 F 
ATOM     89  C   UNL A   1      49.485  24.901  33.373  1.00  0.00     0.022 A 
BRANCH  87  90
ATOM     90  S   UNL A   1      48.377  23.387  35.372  1.00  0.00     0.127 S 
ATOM     91  O   UNL A   1      47.755  22.160  34.874  1.00  0.00    -0.237 OA
ATOM     92  O   UNL A   1      49.821  23.293  35.590  1.00  0.00    -0.237 OA
ATOM     93  O   UNL A   1      47.650  24.072  36.432  1.00  0.00    -0.744 OA
ENDBRANCH  87  90
ENDBRANCH  60  83
ENDBRANCH  34  35
ENDBRANCH  26  29
ENDBRANCH  24  25
ENDBRANCH   1  24
TORSDOF 15
ENDMDL
MODEL 2
REMARK VINA RESULT:     -12.0      2.311      7.857
REMARK SMILES C[C@H]1SC[C@H](C(=O)NCCCNC(=O)c2ccc(-c3c4nc(c(-c5cccc(S(=O)(=O)[O-])c5F)c5ccc([nH]5)c(-c5cccc(S(=O)(=O)[O-])c5F)c5nc(c(-c6cccc(S(=O)(=O)[O-])c6F)c6ccc3[nH]6)C=C5)C=C4)cc2)N1C(=O)[C@@H]1CSc2ccccc21
REMARK SMILES IDX 10 1 9 2 8 3 6 4 7 5 5 7 1 8 2 9 3 10 78 11 4 12 79 13 80 14
REMARK SMILES IDX 81 15 82 16 89 17 83 18 84 19 88 20 85 21 87 22 86 23 11 24
REMARK SMILES IDX 12 25 13 26 14 28 15 29 16 30 77 31 17 32 76 33 18 34 19 35
REMARK SMILES IDX 20 36 70 37 21 38 75 39 69 40 71 41 22 42 74 43 68 44 67 45
REMARK SMILES IDX 23 47 55 48 35 49 54 50 36 51 39 52 53 53 72 54 37 55 38 56
REMARK SMILES IDX 52 58 73 59 40 60 24 61 25 62 33 63 26 64 28 65 34 66 27 67
REMARK SMILES IDX 29 68 30 69 31 70 32 71 56 72 57 73 65 74 58 75 60 76 66 77
REMARK SMILES IDX 59 78 61 79 62 80 63 81 64 82 41 83 42 84 50 85 43 86 45 87
REMARK SMILES IDX 51 88 44 89 46 90 47 91 48 92 49 93
REMARK H PARENT 8 6 12 27 71 46 39 57
REMARK Flexibility Score: inf
ROOT
ATOM      1  C   UNL A   1      31.670  29.160  26.975  1.00  0.00     0.042 C 
ENDROOT
BRANCH   1   2
ATOM      2  C   UNL A   1      32.161  27.727  26.876  1.00  0.00     0.117 C 
BRANCH   2   3
ATOM      3  N   UNL A   1      31.104  26.749  27.015  1.00  0.00    -0.354 N 
ATOM      4  C   UNL A   1      30.584  25.888  26.096  1.00  0.00     0.243 C 
ATOM      5  O   UNL A   1      29.576  25.253  26.427  1.00  0.00    -0.273 OA
ATOM      6  H   UNL A   1      30.698  26.697  27.910  1.00  0.00     0.163 HD
BRANCH   4   7
ATOM      7  C   UNL A   1      31.069  25.860  24.632  1.00  0.00     0.185 C 
ATOM      8  C   UNL A   1      32.543  25.204  21.905  1.00  0.00     0.043 C 
ATOM      9  C   UNL A   1      32.910  26.130  23.067  1.00  0.00     0.141 C 
ATOM     10  S   UNL A   1      31.972  27.659  22.834  1.00  0.00    -0.135 SA
ATOM     11  N   UNL A   1      32.497  25.590  24.356  1.00  0.00    -0.318 N 
ATOM     12  C   UNL A   1      30.702  27.231  24.043  1.00  0.00     0.107 C 
BRANCH  11  13
ATOM     13  C   UNL A   1      33.123  24.541  25.009  1.00  0.00     0.232 C 
ATOM     14  O   UNL A   1      33.711  24.745  26.078  1.00  0.00    -0.274 OA
BRANCH  13  15
ATOM     15  C   UNL A   1      33.210  23.127  24.404  1.00  0.00     0.120 C 
ATOM     16  C   UNL A   1      32.288  22.084  25.053  1.00  0.00     0.093 C 
ATOM     17  C   UNL A   1      34.593  22.550  24.306  1.00  0.00    -0.021 A 
ATOM     18  S   UNL A   1      33.300  20.729  25.727  1.00  0.00    -0.125 SA
ATOM     19  C   UNL A   1      34.780  21.352  24.997  1.00  0.00     0.011 A 
ATOM     20  C   UNL A   1      35.648  23.126  23.600  1.00  0.00     0.006 A 
ATOM     21  C   UNL A   1      36.032  20.765  25.083  1.00  0.00     0.015 A 
ATOM     22  C   UNL A   1      36.907  22.529  23.666  1.00  0.00     0.000 A 
ATOM     23  C   UNL A   1      37.104  21.367  24.421  1.00  0.00     0.001 A 
ENDBRANCH  13  15
ENDBRANCH  11  13
ENDBRANCH   4   7
ENDBRANCH   2   3
ENDBRANCH   1   2
BRANCH   1  24
ATOM     24  C   UNL A   1      32.505  30.160  26.195  1.00  0.00     0.118 C 
BRANCH  24  25
ATOM     25  N   UNL A   1      32.227  31.545  26.555  1.00  0.00    -0.352 N 
ATOM     26  C   UNL A   1      32.964  32.410  27.337  1.00  0.00     0.251 C 
ATOM     27  H   UNL A   1      31.393  31.917  26.187  1.00  0.00     0.163 HD
ATOM     28  O   UNL A   1      32.506  33.496  27.652  1.00  0.00    -0.269 OA
BRANCH  26  29
ATOM     29  C   UNL A   1      34.301  31.991  27.814  1.00  0.00     0.039 A 
ATOM     30  C   UNL A   1      35.308  32.951  27.951  1.00  0.00     0.014 A 
ATOM     31  C   UNL A   1      34.540  30.664  28.174  1.00  0.00     0.014 A 
ATOM     32  C   UNL A   1      36.525  32.593  28.539  1.00  0.00     0.010 A 
ATOM     33  C   UNL A   1      35.709  30.335  28.847  1.00  0.00     0.010 A 
ATOM     34  C   UNL A   1      36.715  31.295  29.039  1.00  0.00    -0.014 A 
BRANCH  34  35
ATOM     35  C   UNL A   1      37.940  30.907  29.786  1.00  0.00     0.031 A 
ATOM     36  C   UNL A   1      38.911  29.929  29.180  1.00  0.00     0.074 A 
ATOM     37  C   UNL A   1      38.103  31.314  31.060  1.00  0.00     0.049 A 
ATOM     38  N   UNL A   1      39.952  29.356  29.724  1.00  0.00    -0.248 NA
ATOM     39  C   UNL A   1      38.651  29.508  27.793  1.00  0.00     0.031 C 
ATOM     40  C   UNL A   1      37.180  32.181  31.798  1.00  0.00     0.029 A 
ATOM     41  N   UNL A   1      39.079  31.014  31.979  1.00  0.00    -0.354 N 
ATOM     42  C   UNL A   1      40.432  28.465  28.772  1.00  0.00     0.074 A 
ATOM     43  C   UNL A   1      39.554  28.553  27.627  1.00  0.00     0.031 C 
ATOM     44  C   UNL A   1      37.628  32.334  33.054  1.00  0.00     0.029 A 
ATOM     45  C   UNL A   1      38.849  31.552  33.223  1.00  0.00     0.049 A 
ATOM     46  H   UNL A   1      39.869  30.467  31.766  1.00  0.00     0.167 HD
ATOM     47  C   UNL A   1      41.522  27.663  28.834  1.00  0.00     0.034 A 
ATOM     48  C   UNL A   1      39.532  31.419  34.377  1.00  0.00     0.034 A 
ATOM     49  C   UNL A   1      42.432  27.630  29.945  1.00  0.00     0.049 A 
ATOM     50  C   UNL A   1      40.789  30.594  34.395  1.00  0.00     0.074 A 
ATOM     51  C   UNL A   1      43.634  26.953  30.052  1.00  0.00     0.029 A 
ATOM     52  N   UNL A   1      42.239  28.296  31.146  1.00  0.00    -0.354 N 
ATOM     53  N   UNL A   1      41.329  29.898  33.424  1.00  0.00    -0.248 NA
ATOM     54  C   UNL A   1      41.551  30.564  35.652  1.00  0.00     0.031 C 
ATOM     55  C   UNL A   1      44.160  27.197  31.327  1.00  0.00     0.029 A 
ATOM     56  C   UNL A   1      43.294  28.042  32.004  1.00  0.00     0.049 A 
ATOM     57  H   UNL A   1      41.465  28.867  31.356  1.00  0.00     0.167 HD
ATOM     58  C   UNL A   1      42.509  29.375  33.940  1.00  0.00     0.074 A 
ATOM     59  C   UNL A   1      42.614  29.850  35.305  1.00  0.00     0.031 C 
ATOM     60  C   UNL A   1      43.416  28.565  33.340  1.00  0.00     0.034 A 
BRANCH  47  61
ATOM     61  C   UNL A   1      41.818  26.796  27.638  1.00  0.00     0.023 A 
ATOM     62  C   UNL A   1      42.457  27.356  26.512  1.00  0.00     0.012 A 
ATOM     63  C   UNL A   1      41.504  25.424  27.641  1.00  0.00     0.148 A 
ATOM     64  C   UNL A   1      42.737  26.574  25.391  1.00  0.00     0.002 A 
ATOM     65  C   UNL A   1      41.829  24.641  26.540  1.00  0.00     0.091 A 
ATOM     66  F   UNL A   1      40.874  24.913  28.709  1.00  0.00    -0.205 F 
ATOM     67  C   UNL A   1      42.432  25.217  25.410  1.00  0.00     0.022 A 
BRANCH  65  68
ATOM     68  S   UNL A   1      41.550  22.866  26.506  1.00  0.00     0.127 S 
ATOM     69  O   UNL A   1      42.161  22.447  27.766  1.00  0.00    -0.237 OA
ATOM     70  O   UNL A   1      40.089  22.780  26.479  1.00  0.00    -0.237 OA
ATOM     71  O   UNL A   1      42.205  22.386  25.297  1.00  0.00    -0.744 OA
ENDBRANCH  65  68
ENDBRANCH  47  61
BRANCH  48  72
ATOM     72  C   UNL A   1      39.068  32.147  35.593  1.00  0.00     0.023 A 
ATOM     73  C   UNL A   1      39.257  33.540  35.677  1.00  0.00     0.012 A 
ATOM     74  C   UNL A   1      38.387  31.481  36.630  1.00  0.00     0.148 A 
ATOM     75  C   UNL A   1      38.796  34.254  36.782  1.00  0.00     0.002 A 
ATOM     76  C   UNL A   1      37.883  32.206  37.704  1.00  0.00     0.091 A 
ATOM     77  F   UNL A   1      38.225  30.154  36.533  1.00  0.00    -0.205 F 
ATOM     78  C   UNL A   1      38.099  33.591  37.789  1.00  0.00     0.022 A 
BRANCH  76  79
ATOM     79  S   UNL A   1      36.857  31.462  38.976  1.00  0.00     0.127 S 
ATOM     80  O   UNL A   1      37.741  31.504  40.136  1.00  0.00    -0.237 OA
ATOM     81  O   UNL A   1      35.724  32.387  39.028  1.00  0.00    -0.237 OA
ATOM     82  O   UNL A   1      36.522  30.131  38.484  1.00  0.00    -0.744 OA
ENDBRANCH  76  79
ENDBRANCH  48  72
BRANCH  60  83
ATOM     83  C   UNL A   1      44.628  28.157  34.136  1.00  0.00     0.023 A 
ATOM     84  C   UNL A   1      45.775  28.974  34.134  1.00  0.00     0.012 A 
ATOM     85  C   UNL A   1      44.595  27.013  34.957  1.00  0.00     0.148 A 
ATOM     86  C   UNL A   1      46.880  28.647  34.918  1.00  0.00     0.002 A 
ATOM     87  C   UNL A   1      45.681  26.718  35.772  1.00  0.00     0.091 A 
ATOM     88  F   UNL A   1      43.501  26.237  34.929  1.00  0.00    -0.205 F 
ATOM     89  C   UNL A   1      46.828  27.527  35.746  1.00  0.00     0.022 A 
BRANCH  87  90
ATOM     90  S   UNL A   1      45.661  25.352  36.941  1.00  0.00     0.127 S 
ATOM     91  O   UNL A   1      45.465  24.205  36.055  1.00  0.00    -0.237 OA
ATOM     92  O   UNL A   1      46.993  25.438  37.542  1.00  0.00    -0.237 OA
ATOM     93  O   UNL A   1      44.567  25.629  37.860  1.00  0.00    -0.744 OA
ENDBRANCH  87  90
ENDBRANCH  60  83
ENDBRANCH  34  35
ENDBRANCH  26  29
ENDBRANCH  24  25
ENDBRANCH   1  24
TORSDOF 15
ENDMDL
MODEL 3
REMARK VINA RESULT:     -12.0      2.119      2.882
REMARK SMILES C[C@H]1SC[C@H](C(=O)NCCCNC(=O)c2ccc(-c3c4nc(c(-c5cccc(S(=O)(=O)[O-])c5F)c5ccc([nH]5)c(-c5cccc(S(=O)(=O)[O-])c5F)c5nc(c(-c6cccc(S(=O)(=O)[O-])c6F)c6ccc3[nH]6)C=C5)C=C4)cc2)N1C(=O)[C@@H]1CSc2ccccc21
REMARK SMILES IDX 10 1 9 2 8 3 6 4 7 5 5 7 1 8 2 9 3 10 78 11 4 12 79 13 80 14
REMARK SMILES IDX 81 15 82 16 89 17 83 18 84 19 88 20 85 21 87 22 86 23 11 24
REMARK SMILES IDX 12 25 13 26 14 28 15 29 16 30 77 31 17 32 76 33 18 34 19 35
REMARK SMILES IDX 20 36 70 37 21 38 75 39 69 40 71 41 22 42 74 43 68 44 67 45
REMARK SMILES IDX 23 47 55 48 35 49 54 50 36 51 39 52 53 53 72 54 37 55 38 56
REMARK SMILES IDX 52 58 73 59 40 60 24 61 25 62 33 63 26 64 28 65 34 66 27 67
REMARK SMILES IDX 29 68 30 69 31 70 32 71 56 72 57 73 65 74 58 75 60 76 66 77
REMARK SMILES IDX 59 78 61 79 62 80 63 81 64 82 41 83 42 84 50 85 43 86 45 87
REMARK SMILES IDX 51 88 44 89 46 90 47 91 48 92 49 93
REMARK H PARENT 8 6 12 27 71 46 39 57
REMARK Flexibility Score: inf
ROOT
ATOM      1  C   UNL A   1      31.647  29.387  26.893  1.00  0.00     0.042 C 
ENDROOT
BRANCH   1   2
ATOM      2  C   UNL A   1      32.176  27.970  27.018  1.00  0.00     0.117 C 
BRANCH   2   3
ATOM      3  N   UNL A   1      31.130  26.973  27.083  1.00  0.00    -0.354 N 
ATOM      4  C   UNL A   1      30.670  26.125  26.120  1.00  0.00     0.243 C 
ATOM      5  O   UNL A   1      29.658  25.466  26.389  1.00  0.00    -0.273 OA
ATOM      6  H   UNL A   1      30.682  26.894  27.956  1.00  0.00     0.163 HD
BRANCH   4   7
ATOM      7  C   UNL A   1      31.225  26.137  24.682  1.00  0.00     0.185 C 
ATOM      8  C   UNL A   1      32.905  25.639  22.041  1.00  0.00     0.043 C 
ATOM      9  C   UNL A   1      33.090  26.624  23.199  1.00  0.00     0.141 C 
ATOM     10  S   UNL A   1      31.972  28.011  22.888  1.00  0.00    -0.135 SA
ATOM     11  N   UNL A   1      32.689  26.055  24.479  1.00  0.00    -0.318 N 
ATOM     12  C   UNL A   1      30.711  27.439  24.047  1.00  0.00     0.107 C 
BRANCH  11  13
ATOM     13  C   UNL A   1      33.413  25.108  25.183  1.00  0.00     0.232 C 
ATOM     14  O   UNL A   1      34.247  25.470  26.024  1.00  0.00    -0.274 OA
BRANCH  13  15
ATOM     15  C   UNL A   1      33.304  23.599  24.891  1.00  0.00     0.120 C 
ATOM     16  C   UNL A   1      32.567  22.781  25.963  1.00  0.00     0.093 C 
ATOM     17  C   UNL A   1      34.597  22.908  24.565  1.00  0.00    -0.021 A 
ATOM     18  S   UNL A   1      33.692  21.513  26.625  1.00  0.00    -0.125 SA
ATOM     19  C   UNL A   1      34.935  21.860  25.423  1.00  0.00     0.011 A 
ATOM     20  C   UNL A   1      35.436  23.247  23.505  1.00  0.00     0.006 A 
ATOM     21  C   UNL A   1      36.151  21.206  25.306  1.00  0.00     0.015 A 
ATOM     22  C   UNL A   1      36.653  22.579  23.369  1.00  0.00     0.000 A 
ATOM     23  C   UNL A   1      37.019  21.579  24.278  1.00  0.00     0.001 A 
ENDBRANCH  13  15
ENDBRANCH  11  13
ENDBRANCH   4   7
ENDBRANCH   2   3
ENDBRANCH   1   2
BRANCH   1  24
ATOM     24  C   UNL A   1      32.552  30.324  26.112  1.00  0.00     0.118 C 
BRANCH  24  25
ATOM     25  N   UNL A   1      32.458  31.711  26.551  1.00  0.00    -0.352 N 
ATOM     26  C   UNL A   1      33.271  32.411  27.418  1.00  0.00     0.251 C 
ATOM     27  H   UNL A   1      31.706  32.223  26.174  1.00  0.00     0.163 HD
ATOM     28  O   UNL A   1      32.958  33.532  27.785  1.00  0.00    -0.269 OA
BRANCH  26  29
ATOM     29  C   UNL A   1      34.508  31.773  27.922  1.00  0.00     0.039 A 
ATOM     30  C   UNL A   1      35.663  32.547  28.072  1.00  0.00     0.014 A 
ATOM     31  C   UNL A   1      34.509  30.428  28.294  1.00  0.00     0.014 A 
ATOM     32  C   UNL A   1      36.790  31.991  28.684  1.00  0.00     0.010 A 
ATOM     33  C   UNL A   1      35.592  29.909  28.991  1.00  0.00     0.010 A 
ATOM     34  C   UNL A   1      36.745  30.684  29.194  1.00  0.00    -0.014 A 
BRANCH  34  35
ATOM     35  C   UNL A   1      37.873  30.098  29.966  1.00  0.00     0.031 A 
ATOM     36  C   UNL A   1      38.139  30.560  31.374  1.00  0.00     0.074 A 
ATOM     37  C   UNL A   1      38.742  29.268  29.354  1.00  0.00     0.049 A 
ATOM     38  N   UNL A   1      39.149  30.283  32.155  1.00  0.00    -0.248 NA
ATOM     39  C   UNL A   1      37.161  31.487  31.964  1.00  0.00     0.031 C 
ATOM     40  C   UNL A   1      38.653  28.826  27.961  1.00  0.00     0.029 A 
ATOM     41  N   UNL A   1      39.899  28.688  29.812  1.00  0.00    -0.354 N 
ATOM     42  C   UNL A   1      38.962  31.048  33.300  1.00  0.00     0.074 A 
ATOM     43  C   UNL A   1      37.756  31.820  33.100  1.00  0.00     0.031 C 
ATOM     44  C   UNL A   1      39.713  28.053  27.676  1.00  0.00     0.029 A 
ATOM     45  C   UNL A   1      40.573  27.971  28.851  1.00  0.00     0.049 A 
ATOM     46  H   UNL A   1      40.215  28.775  30.741  1.00  0.00     0.167 HD
ATOM     47  C   UNL A   1      39.711  31.087  34.427  1.00  0.00     0.034 A 
ATOM     48  C   UNL A   1      41.759  27.334  28.903  1.00  0.00     0.034 A 
ATOM     49  C   UNL A   1      40.870  30.267  34.649  1.00  0.00     0.049 A 
ATOM     50  C   UNL A   1      42.529  27.318  30.195  1.00  0.00     0.074 A 
ATOM     51  C   UNL A   1      41.620  30.133  35.804  1.00  0.00     0.029 A 
ATOM     52  N   UNL A   1      41.451  29.444  33.696  1.00  0.00    -0.354 N 
ATOM     53  N   UNL A   1      42.239  27.905  31.332  1.00  0.00    -0.248 NA
ATOM     54  C   UNL A   1      43.765  26.523  30.227  1.00  0.00     0.031 C 
ATOM     55  C   UNL A   1      42.668  29.243  35.542  1.00  0.00     0.029 A 
ATOM     56  C   UNL A   1      42.556  28.806  34.231  1.00  0.00     0.049 A 
ATOM     57  H   UNL A   1      41.125  29.331  32.774  1.00  0.00     0.167 HD
ATOM     58  C   UNL A   1      43.237  27.526  32.221  1.00  0.00     0.074 A 
ATOM     59  C   UNL A   1      44.130  26.644  31.498  1.00  0.00     0.031 C 
ATOM     60  C   UNL A   1      43.405  27.887  33.518  1.00  0.00     0.034 A 
BRANCH  47  61
ATOM     61  C   UNL A   1      39.264  32.010  35.530  1.00  0.00     0.023 A 
ATOM     62  C   UNL A   1      38.355  31.546  36.504  1.00  0.00     0.012 A 
ATOM     63  C   UNL A   1      39.770  33.320  35.629  1.00  0.00     0.148 A 
ATOM     64  C   UNL A   1      37.923  32.384  37.530  1.00  0.00     0.002 A 
ATOM     65  C   UNL A   1      39.371  34.135  36.682  1.00  0.00     0.091 A 
ATOM     66  F   UNL A   1      40.614  33.755  34.681  1.00  0.00    -0.205 F 
ATOM     67  C   UNL A   1      38.439  33.673  37.625  1.00  0.00     0.022 A 
BRANCH  65  68
ATOM     68  S   UNL A   1      40.045  35.782  36.933  1.00  0.00     0.127 S 
ATOM     69  O   UNL A   1      39.653  36.453  35.695  1.00  0.00    -0.237 OA
ATOM     70  O   UNL A   1      39.326  36.234  38.125  1.00  0.00    -0.237 OA
ATOM     71  O   UNL A   1      41.477  35.598  37.125  1.00  0.00    -0.744 OA
ENDBRANCH  65  68
ENDBRANCH  47  61
BRANCH  48  72
ATOM     72  C   UNL A   1      42.251  26.600  27.702  1.00  0.00     0.023 A 
ATOM     73  C   UNL A   1      43.092  27.261  26.786  1.00  0.00     0.012 A 
ATOM     74  C   UNL A   1      41.943  25.241  27.496  1.00  0.00     0.148 A 
ATOM     75  C   UNL A   1      43.602  26.589  25.676  1.00  0.00     0.002 A 
ATOM     76  C   UNL A   1      42.497  24.562  26.417  1.00  0.00     0.091 A 
ATOM     77  F   UNL A   1      41.133  24.634  28.376  1.00  0.00    -0.205 F 
ATOM     78  C   UNL A   1      43.314  25.238  25.497  1.00  0.00     0.022 A 
BRANCH  76  79
ATOM     79  S   UNL A   1      42.295  22.793  26.183  1.00  0.00     0.127 S 
ATOM     80  O   UNL A   1      42.940  22.587  24.890  1.00  0.00    -0.237 OA
ATOM     81  O   UNL A   1      43.026  22.253  27.330  1.00  0.00    -0.237 OA
ATOM     82  O   UNL A   1      40.858  22.552  26.218  1.00  0.00    -0.744 OA
ENDBRANCH  76  79
ENDBRANCH  48  72
BRANCH  60  83
ATOM     83  C   UNL A   1      44.579  27.308  34.262  1.00  0.00     0.023 A 
ATOM     84  C   UNL A   1      45.811  27.988  34.265  1.00  0.00     0.012 A 
ATOM     85  C   UNL A   1      44.432  26.138  35.034  1.00  0.00     0.148 A 
ATOM     86  C   UNL A   1      46.888  27.501  35.005  1.00  0.00     0.002 A 
ATOM     87  C   UNL A   1      45.494  25.684  35.807  1.00  0.00     0.091 A 
ATOM     88  F   UNL A   1      43.255  25.494  35.002  1.00  0.00    -0.205 F 
ATOM     89  C   UNL A   1      46.725  26.358  35.785  1.00  0.00     0.022 A 
BRANCH  87  90
ATOM     90  S   UNL A   1      45.343  24.278  36.916  1.00  0.00     0.127 S 
ATOM     91  O   UNL A   1      44.344  24.758  37.870  1.00  0.00    -0.237 OA
ATOM     92  O   UNL A   1      44.872  23.222  36.019  1.00  0.00    -0.237 OA
ATOM     93  O   UNL A   1      46.674  24.055  37.462  1.00  0.00    -0.744 OA
ENDBRANCH  87  90
ENDBRANCH  60  83
ENDBRANCH  34  35
ENDBRANCH  26  29
ENDBRANCH  24  25
ENDBRANCH   1  24
TORSDOF 15
ENDMDL
