MODEL 1
REMARK VINA RESULT:     -11.6      0.000      0.000
REMARK SMILES CCC[C@H](CNC(=O)N1CCN2C(=O)NC[C@H]2C1)C(=O)NCCCNC(=O)c1ccc(-c2c3nc(c(-c4cccc(S(=O)(=O)[O-])c4F)c4ccc([nH]4)c(-c4cccc(S(=O)(=O)[O-])c4F)c4nc(c(-c5cccc(S(=O)(=O)[O-])c5F)c5ccc2[nH]5)C=C4)C=C3)cc1
REMARK SMILES IDX 23 1 22 2 21 3 19 4 20 5 4 7 3 8 2 9 1 10 5 11 6 12 7 13
REMARK SMILES IDX 8 15 9 16 10 17 18 18 11 19 17 20 12 21 16 22 13 23 15 24
REMARK SMILES IDX 14 25 24 27 25 28 26 29 27 31 28 32 29 33 90 34 30 35 89 36
REMARK SMILES IDX 31 37 32 38 33 39 83 40 34 41 88 42 82 43 84 44 35 45 87 46
REMARK SMILES IDX 81 47 80 48 36 50 68 51 48 52 67 53 49 54 52 55 66 56 85 57
REMARK SMILES IDX 50 58 51 59 65 61 86 62 53 63 37 64 38 65 46 66 39 67 41 68
REMARK SMILES IDX 47 69 40 70 42 71 43 72 44 73 45 74 69 75 70 76 78 77 71 78
REMARK SMILES IDX 73 79 79 80 72 81 74 82 75 83 76 84 77 85 54 86 55 87 63 88
REMARK SMILES IDX 56 89 58 90 64 91 57 92 59 93 60 94 61 95 62 96
REMARK H PARENT 21 6 6 14 15 26 25 30 84 49 52 60
REMARK Flexibility Score: inf
ROOT
ATOM      1  C   UNL A   1      31.811  28.055  26.229  1.00  0.00     0.042 C 
ENDROOT
BRANCH   1   2
ATOM      2  C   UNL A   1      32.641  26.799  26.418  1.00  0.00     0.117 C 
BRANCH   2   3
ATOM      3  N   UNL A   1      31.759  25.688  26.698  1.00  0.00    -0.356 N 
ATOM      4  C   UNL A   1      31.047  24.925  25.827  1.00  0.00     0.224 C 
ATOM      5  O   UNL A   1      30.119  24.256  26.294  1.00  0.00    -0.275 OA
ATOM      6  H   UNL A   1      31.662  25.451  27.649  1.00  0.00     0.163 HD
BRANCH   4   7
ATOM      7  C   UNL A   1      31.425  24.780  24.352  1.00  0.00     0.097 C 
BRANCH   7   8
ATOM      8  C   UNL A   1      30.206  25.136  23.457  1.00  0.00     0.015 C 
BRANCH   8   9
ATOM      9  C   UNL A   1      29.766  26.600  23.526  1.00  0.00    -0.003 C 
ATOM     10  C   UNL A   1      28.300  26.790  23.876  1.00  0.00     0.004 C 
ENDBRANCH   8   9
ENDBRANCH   7   8
BRANCH   7  11
ATOM     11  C   UNL A   1      32.097  23.481  23.853  1.00  0.00     0.131 C 
BRANCH  11  12
ATOM     12  N   UNL A   1      31.673  22.218  24.413  1.00  0.00    -0.337 N 
ATOM     13  C   UNL A   1      32.374  21.325  25.169  1.00  0.00     0.317 C 
ATOM     14  H   UNL A   1      30.742  21.965  24.220  1.00  0.00     0.165 HD
ATOM     15  O   UNL A   1      31.934  20.177  25.232  1.00  0.00    -0.249 OA
BRANCH  13  16
ATOM     16  N   UNL A   1      33.596  21.673  25.680  1.00  0.00    -0.321 N 
ATOM     17  C   UNL A   1      33.842  22.647  26.760  1.00  0.00     0.143 C 
ATOM     18  C   UNL A   1      34.777  20.837  25.374  1.00  0.00     0.148 C 
ATOM     19  C   UNL A   1      35.062  23.552  26.468  1.00  0.00     0.143 C 
ATOM     20  C   UNL A   1      35.890  21.773  24.896  1.00  0.00     0.125 C 
ATOM     21  N   UNL A   1      36.162  22.811  25.872  1.00  0.00    -0.317 N 
ATOM     22  C   UNL A   1      37.258  21.172  24.625  1.00  0.00     0.144 C 
ATOM     23  C   UNL A   1      37.502  23.151  25.863  1.00  0.00     0.317 C 
ATOM     24  N   UNL A   1      38.157  22.204  25.084  1.00  0.00    -0.336 N 
ATOM     25  O   UNL A   1      38.028  24.105  26.401  1.00  0.00    -0.249 OA
ATOM     26  H   UNL A   1      39.118  22.233  24.871  1.00  0.00     0.165 HD
ENDBRANCH  13  16
ENDBRANCH  11  12
ENDBRANCH   7  11
ENDBRANCH   4   7
ENDBRANCH   2   3
ENDBRANCH   1   2
BRANCH   1  27
ATOM     27  C   UNL A   1      32.418  29.163  25.394  1.00  0.00     0.118 C 
BRANCH  27  28
ATOM     28  N   UNL A   1      32.076  30.496  25.870  1.00  0.00    -0.352 N 
ATOM     29  C   UNL A   1      32.652  31.349  26.782  1.00  0.00     0.251 C 
ATOM     30  H   UNL A   1      31.264  30.863  25.452  1.00  0.00     0.163 HD
ATOM     31  O   UNL A   1      32.051  32.394  27.034  1.00  0.00    -0.269 OA
BRANCH  29  32
ATOM     32  C   UNL A   1      33.914  31.049  27.513  1.00  0.00     0.039 A 
ATOM     33  C   UNL A   1      34.765  32.121  27.826  1.00  0.00     0.014 A 
ATOM     34  C   UNL A   1      34.315  29.761  27.864  1.00  0.00     0.014 A 
ATOM     35  C   UNL A   1      35.954  31.910  28.536  1.00  0.00     0.010 A 
ATOM     36  C   UNL A   1      35.439  29.562  28.665  1.00  0.00     0.010 A 
ATOM     37  C   UNL A   1      36.286  30.629  28.993  1.00  0.00    -0.014 A 
BRANCH  37  38
ATOM     38  C   UNL A   1      37.540  30.360  29.747  1.00  0.00     0.031 A 
ATOM     39  C   UNL A   1      38.590  29.451  29.152  1.00  0.00     0.074 A 
ATOM     40  C   UNL A   1      37.713  30.866  30.986  1.00  0.00     0.049 A 
ATOM     41  N   UNL A   1      39.693  28.998  29.690  1.00  0.00    -0.248 NA
ATOM     42  C   UNL A   1      38.355  28.969  27.779  1.00  0.00     0.031 C 
ATOM     43  C   UNL A   1      36.758  31.720  31.696  1.00  0.00     0.029 A 
ATOM     44  N   UNL A   1      38.743  30.708  31.882  1.00  0.00    -0.354 N 
ATOM     45  C   UNL A   1      40.262  28.158  28.739  1.00  0.00     0.074 A 
ATOM     46  C   UNL A   1      39.364  28.130  27.606  1.00  0.00     0.031 C 
ATOM     47  C   UNL A   1      37.243  32.006  32.916  1.00  0.00     0.029 A 
ATOM     48  C   UNL A   1      38.521  31.325  33.093  1.00  0.00     0.049 A 
ATOM     49  H   UNL A   1      39.562  30.203  31.677  1.00  0.00     0.167 HD
ATOM     50  C   UNL A   1      41.444  27.499  28.783  1.00  0.00     0.034 A 
ATOM     51  C   UNL A   1      39.256  31.321  34.225  1.00  0.00     0.034 A 
ATOM     52  C   UNL A   1      42.356  27.558  29.892  1.00  0.00     0.049 A 
ATOM     53  C   UNL A   1      40.562  30.570  34.247  1.00  0.00     0.074 A 
ATOM     54  C   UNL A   1      43.599  26.960  30.013  1.00  0.00     0.029 A 
ATOM     55  N   UNL A   1      42.129  28.254  31.066  1.00  0.00    -0.354 N 
ATOM     56  N   UNL A   1      41.137  29.880  33.291  1.00  0.00    -0.248 NA
ATOM     57  C   UNL A   1      41.342  30.626  35.493  1.00  0.00     0.031 C 
ATOM     58  C   UNL A   1      44.115  27.280  31.272  1.00  0.00     0.029 A 
ATOM     59  C   UNL A   1      43.210  28.108  31.917  1.00  0.00     0.049 A 
ATOM     60  H   UNL A   1      41.319  28.777  31.266  1.00  0.00     0.167 HD
ATOM     61  C   UNL A   1      42.364  29.469  33.802  1.00  0.00     0.074 A 
ATOM     62  C   UNL A   1      42.458  30.001  35.145  1.00  0.00     0.031 C 
ATOM     63  C   UNL A   1      43.322  28.710  33.218  1.00  0.00     0.034 A 
BRANCH  50  64
ATOM     64  C   UNL A   1      41.855  26.703  27.571  1.00  0.00     0.023 A 
ATOM     65  C   UNL A   1      42.467  27.364  26.486  1.00  0.00     0.012 A 
ATOM     66  C   UNL A   1      41.719  25.302  27.538  1.00  0.00     0.148 A 
ATOM     67  C   UNL A   1      42.911  26.649  25.376  1.00  0.00     0.002 A 
ATOM     68  C   UNL A   1      42.207  24.590  26.449  1.00  0.00     0.091 A 
ATOM     69  F   UNL A   1      41.122  24.693  28.573  1.00  0.00    -0.205 F 
ATOM     70  C   UNL A   1      42.793  25.262  25.364  1.00  0.00     0.022 A 
BRANCH  68  71
ATOM     71  S   UNL A   1      42.179  22.795  26.366  1.00  0.00     0.127 S 
ATOM     72  O   UNL A   1      42.653  22.557  25.003  1.00  0.00    -0.237 OA
ATOM     73  O   UNL A   1      43.130  22.427  27.416  1.00  0.00    -0.237 OA
ATOM     74  O   UNL A   1      40.802  22.399  26.620  1.00  0.00    -0.744 OA
ENDBRANCH  68  71
ENDBRANCH  50  64
BRANCH  51  75
ATOM     75  C   UNL A   1      38.804  32.076  35.431  1.00  0.00     0.023 A 
ATOM     76  C   UNL A   1      39.029  33.465  35.505  1.00  0.00     0.012 A 
ATOM     77  C   UNL A   1      38.191  31.424  36.518  1.00  0.00     0.148 A 
ATOM     78  C   UNL A   1      38.710  34.179  36.661  1.00  0.00     0.002 A 
ATOM     79  C   UNL A   1      37.819  32.153  37.643  1.00  0.00     0.091 A 
ATOM     80  F   UNL A   1      37.992  30.101  36.438  1.00  0.00    -0.205 F 
ATOM     81  C   UNL A   1      38.100  33.525  37.727  1.00  0.00     0.022 A 
BRANCH  79  82
ATOM     82  S   UNL A   1      36.914  31.414  39.007  1.00  0.00     0.127 S 
ATOM     83  O   UNL A   1      37.856  31.570  40.111  1.00  0.00    -0.237 OA
ATOM     84  O   UNL A   1      35.728  32.268  39.082  1.00  0.00    -0.237 OA
ATOM     85  O   UNL A   1      36.636  30.045  38.593  1.00  0.00    -0.744 OA
ENDBRANCH  79  82
ENDBRANCH  51  75
BRANCH  63  86
ATOM     86  C   UNL A   1      44.597  28.471  33.985  1.00  0.00     0.023 A 
ATOM     87  C   UNL A   1      45.666  29.384  33.888  1.00  0.00     0.012 A 
ATOM     88  C   UNL A   1      44.696  27.378  34.870  1.00  0.00     0.148 A 
ATOM     89  C   UNL A   1      46.828  29.192  34.636  1.00  0.00     0.002 A 
ATOM     90  C   UNL A   1      45.834  27.225  35.651  1.00  0.00     0.091 A 
ATOM     91  F   UNL A   1      43.673  26.514  34.935  1.00  0.00    -0.205 F 
ATOM     92  C   UNL A   1      46.906  28.123  35.525  1.00  0.00     0.022 A 
BRANCH  90  93
ATOM     93  S   UNL A   1      45.983  25.939  36.896  1.00  0.00     0.127 S 
ATOM     94  O   UNL A   1      44.835  26.223  37.756  1.00  0.00    -0.237 OA
ATOM     95  O   UNL A   1      45.858  24.720  36.096  1.00  0.00    -0.237 OA
ATOM     96  O   UNL A   1      47.287  26.126  37.517  1.00  0.00    -0.744 OA
ENDBRANCH  90  93
ENDBRANCH  63  86
ENDBRANCH  37  38
ENDBRANCH  29  32
ENDBRANCH  27  28
ENDBRANCH   1  27
TORSDOF 18
ENDMDL
MODEL 2
REMARK VINA RESULT:     -11.5      1.775      2.520
REMARK SMILES CCC[C@H](CNC(=O)N1CCN2C(=O)NC[C@H]2C1)C(=O)NCCCNC(=O)c1ccc(-c2c3nc(c(-c4cccc(S(=O)(=O)[O-])c4F)c4ccc([nH]4)c(-c4cccc(S(=O)(=O)[O-])c4F)c4nc(c(-c5cccc(S(=O)(=O)[O-])c5F)c5ccc2[nH]5)C=C4)C=C3)cc1
REMARK SMILES IDX 23 1 22 2 21 3 19 4 20 5 4 7 3 8 2 9 1 10 5 11 6 12 7 13
REMARK SMILES IDX 8 15 9 16 10 17 18 18 11 19 17 20 12 21 16 22 13 23 15 24
REMARK SMILES IDX 14 25 24 27 25 28 26 29 27 31 28 32 29 33 90 34 30 35 89 36
REMARK SMILES IDX 31 37 32 38 33 39 83 40 34 41 88 42 82 43 84 44 35 45 87 46
REMARK SMILES IDX 81 47 80 48 36 50 68 51 48 52 67 53 49 54 52 55 66 56 85 57
REMARK SMILES IDX 50 58 51 59 65 61 86 62 53 63 37 64 38 65 46 66 39 67 41 68
REMARK SMILES IDX 47 69 40 70 42 71 43 72 44 73 45 74 69 75 70 76 78 77 71 78
REMARK SMILES IDX 73 79 79 80 72 81 74 82 75 83 76 84 77 85 54 86 55 87 63 88
REMARK SMILES IDX 56 89 58 90 64 91 57 92 59 93 60 94 61 95 62 96
REMARK H PARENT 21 6 6 14 15 26 25 30 84 49 52 60
REMARK Flexibility Score: inf
ROOT
ATOM      1  C   UNL A   1      32.690  27.928  25.578  1.00  0.00     0.042 C 
ENDROOT
BRANCH   1   2
ATOM      2  C   UNL A   1      31.495  27.983  26.512  1.00  0.00     0.117 C 
BRANCH   2   3
ATOM      3  N   UNL A   1      31.031  26.636  26.763  1.00  0.00    -0.356 N 
ATOM      4  C   UNL A   1      30.257  25.841  25.978  1.00  0.00     0.224 C 
ATOM      5  O   UNL A   1      29.716  24.872  26.520  1.00  0.00    -0.275 OA
ATOM      6  H   UNL A   1      31.316  26.241  27.619  1.00  0.00     0.163 HD
BRANCH   4   7
ATOM      7  C   UNL A   1      30.137  26.035  24.466  1.00  0.00     0.097 C 
BRANCH   7   8
ATOM      8  C   UNL A   1      28.659  26.328  24.087  1.00  0.00     0.015 C 
BRANCH   8   9
ATOM      9  C   UNL A   1      28.411  27.719  23.501  1.00  0.00    -0.003 C 
ATOM     10  C   UNL A   1      29.679  28.490  23.178  1.00  0.00     0.004 C 
ENDBRANCH   8   9
ENDBRANCH   7   8
BRANCH   7  11
ATOM     11  C   UNL A   1      30.741  24.988  23.505  1.00  0.00     0.131 C 
BRANCH  11  12
ATOM     12  N   UNL A   1      31.895  25.350  22.713  1.00  0.00    -0.337 N 
ATOM     13  C   UNL A   1      33.072  24.683  22.539  1.00  0.00     0.317 C 
ATOM     14  H   UNL A   1      31.820  26.204  22.229  1.00  0.00     0.165 HD
ATOM     15  O   UNL A   1      34.027  25.335  22.117  1.00  0.00    -0.249 OA
BRANCH  13  16
ATOM     16  N   UNL A   1      33.198  23.394  22.981  1.00  0.00    -0.321 N 
ATOM     17  C   UNL A   1      32.813  22.178  22.241  1.00  0.00     0.143 C 
ATOM     18  C   UNL A   1      34.045  23.110  24.160  1.00  0.00     0.148 C 
ATOM     19  C   UNL A   1      32.116  21.135  23.146  1.00  0.00     0.143 C 
ATOM     20  C   UNL A   1      33.224  22.238  25.114  1.00  0.00     0.125 C 
ATOM     21  N   UNL A   1      32.744  21.039  24.454  1.00  0.00    -0.317 N 
ATOM     22  C   UNL A   1      33.910  21.707  26.361  1.00  0.00     0.144 C 
ATOM     23  C   UNL A   1      32.690  19.981  25.342  1.00  0.00     0.317 C 
ATOM     24  N   UNL A   1      33.343  20.387  26.499  1.00  0.00    -0.336 N 
ATOM     25  O   UNL A   1      32.154  18.903  25.176  1.00  0.00    -0.249 OA
ATOM     26  H   UNL A   1      33.412  19.839  27.315  1.00  0.00     0.165 HD
ENDBRANCH  13  16
ENDBRANCH  11  12
ENDBRANCH   7  11
ENDBRANCH   4   7
ENDBRANCH   2   3
ENDBRANCH   1   2
BRANCH   1  27
ATOM     27  C   UNL A   1      33.156  29.239  24.978  1.00  0.00     0.118 C 
BRANCH  27  28
ATOM     28  N   UNL A   1      32.651  30.407  25.685  1.00  0.00    -0.352 N 
ATOM     29  C   UNL A   1      33.097  31.116  26.776  1.00  0.00     0.251 C 
ATOM     30  H   UNL A   1      31.817  30.764  25.303  1.00  0.00     0.163 HD
ATOM     31  O   UNL A   1      32.375  32.022  27.193  1.00  0.00    -0.269 OA
BRANCH  29  32
ATOM     32  C   UNL A   1      34.360  30.807  27.503  1.00  0.00     0.039 A 
ATOM     33  C   UNL A   1      35.300  31.839  27.657  1.00  0.00     0.014 A 
ATOM     34  C   UNL A   1      34.676  29.544  27.998  1.00  0.00     0.014 A 
ATOM     35  C   UNL A   1      36.495  31.622  28.355  1.00  0.00     0.010 A 
ATOM     36  C   UNL A   1      35.811  29.356  28.787  1.00  0.00     0.010 A 
ATOM     37  C   UNL A   1      36.748  30.383  28.956  1.00  0.00    -0.014 A 
BRANCH  37  38
ATOM     38  C   UNL A   1      38.006  30.110  29.703  1.00  0.00     0.031 A 
ATOM     39  C   UNL A   1      39.031  29.167  29.118  1.00  0.00     0.074 A 
ATOM     40  C   UNL A   1      38.202  30.643  30.926  1.00  0.00     0.049 A 
ATOM     41  N   UNL A   1      40.132  28.706  29.654  1.00  0.00    -0.248 NA
ATOM     42  C   UNL A   1      38.771  28.657  27.760  1.00  0.00     0.031 C 
ATOM     43  C   UNL A   1      37.272  31.531  31.626  1.00  0.00     0.029 A 
ATOM     44  N   UNL A   1      39.239  30.487  31.814  1.00  0.00    -0.354 N 
ATOM     45  C   UNL A   1      40.674  27.834  28.717  1.00  0.00     0.074 A 
ATOM     46  C   UNL A   1      39.762  27.794  27.596  1.00  0.00     0.031 C 
ATOM     47  C   UNL A   1      37.777  31.837  32.833  1.00  0.00     0.029 A 
ATOM     48  C   UNL A   1      39.044  31.136  33.013  1.00  0.00     0.049 A 
ATOM     49  H   UNL A   1      40.047  29.961  31.612  1.00  0.00     0.167 HD
ATOM     50  C   UNL A   1      41.844  27.154  28.764  1.00  0.00     0.034 A 
ATOM     51  C   UNL A   1      39.791  31.146  34.135  1.00  0.00     0.034 A 
ATOM     52  C   UNL A   1      42.770  27.222  29.860  1.00  0.00     0.049 A 
ATOM     53  C   UNL A   1      41.084  30.372  34.160  1.00  0.00     0.074 A 
ATOM     54  C   UNL A   1      44.003  26.605  29.982  1.00  0.00     0.029 A 
ATOM     55  N   UNL A   1      42.571  27.951  31.019  1.00  0.00    -0.354 N 
ATOM     56  N   UNL A   1      41.635  29.648  33.215  1.00  0.00    -0.248 NA
ATOM     57  C   UNL A   1      41.880  30.444  35.396  1.00  0.00     0.031 C 
ATOM     58  C   UNL A   1      44.540  26.945  31.226  1.00  0.00     0.029 A 
ATOM     59  C   UNL A   1      43.658  27.806  31.861  1.00  0.00     0.049 A 
ATOM     60  H   UNL A   1      41.773  28.493  31.216  1.00  0.00     0.167 HD
ATOM     61  C   UNL A   1      42.860  29.227  33.722  1.00  0.00     0.074 A 
ATOM     62  C   UNL A   1      42.980  29.790  35.051  1.00  0.00     0.031 C 
ATOM     63  C   UNL A   1      43.797  28.436  33.146  1.00  0.00     0.034 A 
BRANCH  50  64
ATOM     64  C   UNL A   1      42.226  26.321  27.567  1.00  0.00     0.023 A 
ATOM     65  C   UNL A   1      43.044  26.885  26.566  1.00  0.00     0.012 A 
ATOM     66  C   UNL A   1      41.854  24.966  27.473  1.00  0.00     0.148 A 
ATOM     67  C   UNL A   1      43.462  26.124  25.477  1.00  0.00     0.002 A 
ATOM     68  C   UNL A   1      42.314  24.201  26.408  1.00  0.00     0.091 A 
ATOM     69  F   UNL A   1      41.065  24.452  28.427  1.00  0.00    -0.205 F 
ATOM     70  C   UNL A   1      43.109  24.780  25.405  1.00  0.00     0.022 A 
BRANCH  68  71
ATOM     71  S   UNL A   1      41.986  22.440  26.260  1.00  0.00     0.127 S 
ATOM     72  O   UNL A   1      42.661  22.120  25.002  1.00  0.00    -0.237 OA
ATOM     73  O   UNL A   1      42.639  21.906  27.456  1.00  0.00    -0.237 OA
ATOM     74  O   UNL A   1      40.537  22.299  26.238  1.00  0.00    -0.744 OA
ENDBRANCH  68  71
ENDBRANCH  50  64
BRANCH  51  75
ATOM     75  C   UNL A   1      39.368  31.939  35.327  1.00  0.00     0.023 A 
ATOM     76  C   UNL A   1      38.471  31.372  36.255  1.00  0.00     0.012 A 
ATOM     77  C   UNL A   1      39.813  33.259  35.527  1.00  0.00     0.148 A 
ATOM     78  C   UNL A   1      37.979  32.124  37.323  1.00  0.00     0.002 A 
ATOM     79  C   UNL A   1      39.366  33.983  36.628  1.00  0.00     0.091 A 
ATOM     80  F   UNL A   1      40.658  33.789  34.632  1.00  0.00    -0.205 F 
ATOM     81  C   UNL A   1      38.431  33.426  37.513  1.00  0.00     0.022 A 
BRANCH  79  82
ATOM     82  S   UNL A   1      39.996  35.619  37.019  1.00  0.00     0.127 S 
ATOM     83  O   UNL A   1      39.292  35.921  38.262  1.00  0.00    -0.237 OA
ATOM     84  O   UNL A   1      41.429  35.365  37.168  1.00  0.00    -0.237 OA
ATOM     85  O   UNL A   1      39.654  36.451  35.874  1.00  0.00    -0.744 OA
ENDBRANCH  79  82
ENDBRANCH  51  75
BRANCH  63  86
ATOM     86  C   UNL A   1      45.077  28.193  33.903  1.00  0.00     0.023 A 
ATOM     87  C   UNL A   1      46.156  29.088  33.781  1.00  0.00     0.012 A 
ATOM     88  C   UNL A   1      45.170  27.113  34.805  1.00  0.00     0.148 A 
ATOM     89  C   UNL A   1      47.324  28.893  34.520  1.00  0.00     0.002 A 
ATOM     90  C   UNL A   1      46.313  26.957  35.578  1.00  0.00     0.091 A 
ATOM     91  F   UNL A   1      44.135  26.265  34.896  1.00  0.00    -0.205 F 
ATOM     92  C   UNL A   1      47.397  27.837  35.425  1.00  0.00     0.022 A 
BRANCH  90  93
ATOM     93  S   UNL A   1      46.457  25.690  36.843  1.00  0.00     0.127 S 
ATOM     94  O   UNL A   1      47.801  25.940  37.362  1.00  0.00    -0.237 OA
ATOM     95  O   UNL A   1      45.373  26.046  37.760  1.00  0.00    -0.237 OA
ATOM     96  O   UNL A   1      46.281  24.416  36.161  1.00  0.00    -0.744 OA
ENDBRANCH  90  93
ENDBRANCH  63  86
ENDBRANCH  37  38
ENDBRANCH  29  32
ENDBRANCH  27  28
ENDBRANCH   1  27
TORSDOF 18
ENDMDL
MODEL 3
REMARK VINA RESULT:     -11.2      3.024      8.123
REMARK SMILES CCC[C@H](CNC(=O)N1CCN2C(=O)NC[C@H]2C1)C(=O)NCCCNC(=O)c1ccc(-c2c3nc(c(-c4cccc(S(=O)(=O)[O-])c4F)c4ccc([nH]4)c(-c4cccc(S(=O)(=O)[O-])c4F)c4nc(c(-c5cccc(S(=O)(=O)[O-])c5F)c5ccc2[nH]5)C=C4)C=C3)cc1
REMARK SMILES IDX 23 1 22 2 21 3 19 4 20 5 4 7 3 8 2 9 1 10 5 11 6 12 7 13
REMARK SMILES IDX 8 15 9 16 10 17 18 18 11 19 17 20 12 21 16 22 13 23 15 24
REMARK SMILES IDX 14 25 24 27 25 28 26 29 27 31 28 32 29 33 90 34 30 35 89 36
REMARK SMILES IDX 31 37 32 38 33 39 83 40 34 41 88 42 82 43 84 44 35 45 87 46
REMARK SMILES IDX 81 47 80 48 36 50 68 51 48 52 67 53 49 54 52 55 66 56 85 57
REMARK SMILES IDX 50 58 51 59 65 61 86 62 53 63 37 64 38 65 46 66 39 67 41 68
REMARK SMILES IDX 47 69 40 70 42 71 43 72 44 73 45 74 69 75 70 76 78 77 71 78
REMARK SMILES IDX 73 79 79 80 72 81 74 82 75 83 76 84 77 85 54 86 55 87 63 88
REMARK SMILES IDX 56 89 58 90 64 91 57 92 59 93 60 94 61 95 62 96
REMARK H PARENT 21 6 6 14 15 26 25 30 84 49 52 60
REMARK Flexibility Score: inf
ROOT
ATOM      1  C   UNL A   1      33.916  27.884  26.185  1.00  0.00     0.042 C 
ENDROOT
BRANCH   1   2
ATOM      2  C   UNL A   1      33.047  27.125  25.200  1.00  0.00     0.117 C 
BRANCH   2   3
ATOM      3  N   UNL A   1      32.015  26.419  25.927  1.00  0.00    -0.356 N 
ATOM      4  C   UNL A   1      30.730  26.176  25.560  1.00  0.00     0.224 C 
ATOM      5  O   UNL A   1      29.942  25.851  26.455  1.00  0.00    -0.275 OA
ATOM      6  H   UNL A   1      32.281  26.066  26.807  1.00  0.00     0.163 HD
BRANCH   4   7
ATOM      7  C   UNL A   1      30.271  26.173  24.101  1.00  0.00     0.097 C 
BRANCH   7   8
ATOM      8  C   UNL A   1      28.758  26.521  24.023  1.00  0.00     0.015 C 
BRANCH   8   9
ATOM      9  C   UNL A   1      28.438  27.824  23.289  1.00  0.00    -0.003 C 
ATOM     10  C   UNL A   1      29.664  28.597  22.835  1.00  0.00     0.004 C 
ENDBRANCH   8   9
ENDBRANCH   7   8
BRANCH   7  11
ATOM     11  C   UNL A   1      30.591  24.964  23.195  1.00  0.00     0.131 C 
BRANCH  11  12
ATOM     12  N   UNL A   1      31.516  25.139  22.099  1.00  0.00    -0.337 N 
ATOM     13  C   UNL A   1      32.801  24.700  21.969  1.00  0.00     0.317 C 
ATOM     14  H   UNL A   1      31.168  25.650  21.334  1.00  0.00     0.165 HD
ATOM     15  O   UNL A   1      33.500  25.258  21.123  1.00  0.00    -0.249 OA
BRANCH  13  16
ATOM     16  N   UNL A   1      33.310  23.800  22.867  1.00  0.00    -0.321 N 
ATOM     17  C   UNL A   1      32.747  22.473  23.182  1.00  0.00     0.143 C 
ATOM     18  C   UNL A   1      34.684  23.983  23.381  1.00  0.00     0.148 C 
ATOM     19  C   UNL A   1      32.785  22.165  24.697  1.00  0.00     0.143 C 
ATOM     20  C   UNL A   1      34.622  23.868  24.906  1.00  0.00     0.125 C 
ATOM     21  N   UNL A   1      34.022  22.613  25.316  1.00  0.00    -0.317 N 
ATOM     22  C   UNL A   1      35.931  23.904  25.676  1.00  0.00     0.144 C 
ATOM     23  C   UNL A   1      34.589  22.162  26.494  1.00  0.00     0.317 C 
ATOM     24  N   UNL A   1      35.702  22.957  26.740  1.00  0.00    -0.336 N 
ATOM     25  O   UNL A   1      34.192  21.265  27.211  1.00  0.00    -0.249 OA
ATOM     26  H   UNL A   1      36.267  22.881  27.544  1.00  0.00     0.165 HD
ENDBRANCH  13  16
ENDBRANCH  11  12
ENDBRANCH   7  11
ENDBRANCH   4   7
ENDBRANCH   2   3
ENDBRANCH   1   2
BRANCH   1  27
ATOM     27  C   UNL A   1      33.218  28.532  27.363  1.00  0.00     0.118 C 
BRANCH  27  28
ATOM     28  N   UNL A   1      33.430  29.971  27.438  1.00  0.00    -0.352 N 
ATOM     29  C   UNL A   1      34.484  30.749  27.856  1.00  0.00     0.251 C 
ATOM     30  H   UNL A   1      32.659  30.495  27.123  1.00  0.00     0.163 HD
ATOM     31  O   UNL A   1      34.309  31.968  27.881  1.00  0.00    -0.269 OA
BRANCH  29  32
ATOM     32  C   UNL A   1      35.783  30.197  28.331  1.00  0.00     0.039 A 
ATOM     33  C   UNL A   1      36.885  30.268  27.464  1.00  0.00     0.014 A 
ATOM     34  C   UNL A   1      35.952  29.576  29.566  1.00  0.00     0.014 A 
ATOM     35  C   UNL A   1      38.142  29.792  27.860  1.00  0.00     0.010 A 
ATOM     36  C   UNL A   1      37.222  29.203  30.004  1.00  0.00     0.010 A 
ATOM     37  C   UNL A   1      38.330  29.283  29.150  1.00  0.00    -0.014 A 
BRANCH  37  38
ATOM     38  C   UNL A   1      39.646  28.764  29.610  1.00  0.00     0.031 A 
ATOM     39  C   UNL A   1      40.404  29.502  30.688  1.00  0.00     0.074 A 
ATOM     40  C   UNL A   1      40.197  27.682  29.021  1.00  0.00     0.049 A 
ATOM     41  N   UNL A   1      41.610  29.286  31.148  1.00  0.00    -0.248 NA
ATOM     42  C   UNL A   1      39.725  30.649  31.317  1.00  0.00     0.031 C 
ATOM     43  C   UNL A   1      39.592  26.906  27.937  1.00  0.00     0.029 A 
ATOM     44  N   UNL A   1      41.407  27.067  29.232  1.00  0.00    -0.354 N 
ATOM     45  C   UNL A   1      41.843  30.282  32.089  1.00  0.00     0.074 A 
ATOM     46  C   UNL A   1      40.672  31.131  32.107  1.00  0.00     0.031 C 
ATOM     47  C   UNL A   1      40.434  25.923  27.575  1.00  0.00     0.029 A 
ATOM     48  C   UNL A   1      41.654  26.023  28.369  1.00  0.00     0.049 A 
ATOM     49  H   UNL A   1      42.038  27.347  29.934  1.00  0.00     0.167 HD
ATOM     50  C   UNL A   1      42.916  30.458  32.896  1.00  0.00     0.034 A 
ATOM     51  C   UNL A   1      42.749  25.249  28.222  1.00  0.00     0.034 A 
ATOM     52  C   UNL A   1      44.064  29.594  32.907  1.00  0.00     0.049 A 
ATOM     53  C   UNL A   1      43.932  25.475  29.128  1.00  0.00     0.074 A 
ATOM     54  C   UNL A   1      45.182  29.663  33.718  1.00  0.00     0.029 A 
ATOM     55  N   UNL A   1      44.240  28.504  32.073  1.00  0.00    -0.354 N 
ATOM     56  N   UNL A   1      44.081  26.350  30.093  1.00  0.00    -0.248 NA
ATOM     57  C   UNL A   1      45.088  24.582  28.951  1.00  0.00     0.031 C 
ATOM     58  C   UNL A   1      46.045  28.625  33.360  1.00  0.00     0.029 A 
ATOM     59  C   UNL A   1      45.446  27.887  32.352  1.00  0.00     0.049 A 
ATOM     60  H   UNL A   1      43.602  28.210  31.383  1.00  0.00     0.167 HD
ATOM     61  C   UNL A   1      45.317  26.077  30.670  1.00  0.00     0.074 A 
ATOM     62  C   UNL A   1      45.871  24.945  29.958  1.00  0.00     0.031 C 
ATOM     63  C   UNL A   1      45.945  26.713  31.688  1.00  0.00     0.034 A 
BRANCH  50  64
ATOM     64  C   UNL A   1      42.878  31.596  33.884  1.00  0.00     0.023 A 
ATOM     65  C   UNL A   1      43.342  32.868  33.490  1.00  0.00     0.012 A 
ATOM     66  C   UNL A   1      42.308  31.434  35.161  1.00  0.00     0.148 A 
ATOM     67  C   UNL A   1      43.266  33.953  34.359  1.00  0.00     0.002 A 
ATOM     68  C   UNL A   1      42.193  32.531  36.006  1.00  0.00     0.091 A 
ATOM     69  F   UNL A   1      41.885  30.214  35.522  1.00  0.00    -0.205 F 
ATOM     70  C   UNL A   1      42.680  33.788  35.611  1.00  0.00     0.022 A 
BRANCH  68  71
ATOM     71  S   UNL A   1      41.382  32.447  37.607  1.00  0.00     0.127 S 
ATOM     72  O   UNL A   1      40.063  31.930  37.242  1.00  0.00    -0.237 OA
ATOM     73  O   UNL A   1      42.231  31.499  38.329  1.00  0.00    -0.237 OA
ATOM     74  O   UNL A   1      41.390  33.803  38.136  1.00  0.00    -0.744 OA
ENDBRANCH  68  71
ENDBRANCH  50  64
BRANCH  51  75
ATOM     75  C   UNL A   1      42.783  24.160  27.201  1.00  0.00     0.023 A 
ATOM     76  C   UNL A   1      43.390  24.399  25.951  1.00  0.00     0.012 A 
ATOM     77  C   UNL A   1      42.186  22.909  27.443  1.00  0.00     0.148 A 
ATOM     78  C   UNL A   1      43.347  23.435  24.942  1.00  0.00     0.002 A 
ATOM     79  C   UNL A   1      42.200  21.930  26.454  1.00  0.00     0.091 A 
ATOM     80  F   UNL A   1      41.604  22.699  28.632  1.00  0.00    -0.205 F 
ATOM     81  C   UNL A   1      42.759  22.200  25.195  1.00  0.00     0.022 A 
BRANCH  79  82
ATOM     82  S   UNL A   1      41.580  20.269  26.740  1.00  0.00     0.127 S 
ATOM     83  O   UNL A   1      42.433  19.815  27.834  1.00  0.00    -0.237 OA
ATOM     84  O   UNL A   1      40.187  20.524  27.107  1.00  0.00    -0.237 OA
ATOM     85  O   UNL A   1      41.743  19.570  25.472  1.00  0.00    -0.744 OA
ENDBRANCH  79  82
ENDBRANCH  51  75
BRANCH  63  86
ATOM     86  C   UNL A   1      47.264  26.157  32.160  1.00  0.00     0.023 A 
ATOM     87  C   UNL A   1      47.307  25.233  33.222  1.00  0.00     0.012 A 
ATOM     88  C   UNL A   1      48.455  26.494  31.485  1.00  0.00     0.148 A 
ATOM     89  C   UNL A   1      48.521  24.679  33.627  1.00  0.00     0.002 A 
ATOM     90  C   UNL A   1      49.651  25.896  31.858  1.00  0.00     0.091 A 
ATOM     91  F   UNL A   1      48.393  27.386  30.486  1.00  0.00    -0.205 F 
ATOM     92  C   UNL A   1      49.688  25.000  32.939  1.00  0.00     0.022 A 
BRANCH  90  93
ATOM     93  S   UNL A   1      51.186  26.168  30.965  1.00  0.00     0.127 S 
ATOM     94  O   UNL A   1      52.132  25.382  31.754  1.00  0.00    -0.237 OA
ATOM     95  O   UNL A   1      50.879  25.610  29.647  1.00  0.00    -0.237 OA
ATOM     96  O   UNL A   1      51.411  27.607  30.976  1.00  0.00    -0.744 OA
ENDBRANCH  90  93
ENDBRANCH  63  86
ENDBRANCH  37  38
ENDBRANCH  29  32
ENDBRANCH  27  28
ENDBRANCH   1  27
TORSDOF 18
ENDMDL
