MODEL 1
REMARK VINA RESULT:     -13.3      0.000      0.000
REMARK SMILES O=C(NCCCNC(=O)[C@H]1CC=CC[C@H]1C(=O)Nc1ccc(S(=O)(=O)N2CCc3ccccc32)cc1)c1ccc(-c2c3nc(c(-c4cccc(S(=O)(=O)[O-])c4F)c4ccc([nH]4)c(-c4cccc(S(=O)(=O)[O-])c4F)c4nc(c(-c5cccc(S(=O)(=O)[O-])c5F)c5ccc2[nH]5)C=C4)C=C3)cc1
REMARK SMILES IDX 5 1 4 2 3 3 1 4 2 5 37 7 38 8 99 9 39 10 98 11 40 12 41 13
REMARK SMILES IDX 42 14 92 15 43 16 97 17 91 18 93 19 44 20 96 21 90 22 89 23
REMARK SMILES IDX 45 25 77 26 57 27 76 28 58 29 61 30 75 31 94 32 59 33 60 34
REMARK SMILES IDX 74 36 95 37 62 38 46 39 47 40 55 41 48 42 50 43 56 44 49 45
REMARK SMILES IDX 51 46 52 47 53 48 54 49 78 50 79 51 87 52 80 53 82 54 88 55
REMARK SMILES IDX 81 56 83 57 84 58 85 59 86 60 63 61 64 62 72 63 65 64 67 65
REMARK SMILES IDX 73 66 66 67 68 68 69 69 70 70 71 71 6 72 7 73 8 74 9 76
REMARK SMILES IDX 10 77 11 78 15 79 12 80 14 81 13 82 16 83 17 84 18 85 19 87
REMARK SMILES IDX 20 88 36 89 21 90 35 91 22 92 23 93 24 94 25 95 26 96 27 97
REMARK SMILES IDX 34 98 28 99 29 100 33 101 30 102 32 103 31 104
REMARK H PARENT 3 6 93 24 61 35 7 75 18 86
REMARK Flexibility Score: inf
ROOT
ATOM      1  C   UNL A   1      37.950  20.635  25.106  1.00  0.00     0.042 C 
ENDROOT
BRANCH   1   2
ATOM      2  C   UNL A   1      39.166  20.771  25.998  1.00  0.00     0.118 C 
BRANCH   2   3
ATOM      3  N   UNL A   1      40.058  19.608  25.959  1.00  0.00    -0.352 N 
ATOM      4  O   UNL A   1      42.090  18.591  26.058  1.00  0.00    -0.269 OA
ATOM      5  C   UNL A   1      41.424  19.615  26.151  1.00  0.00     0.251 C 
ATOM      6  H   UNL A   1      39.641  18.735  25.776  1.00  0.00     0.163 HD
BRANCH   5   7
ATOM      7  C   UNL A   1      42.036  20.927  26.417  1.00  0.00     0.039 A 
ATOM      8  C   UNL A   1      42.281  21.274  27.747  1.00  0.00     0.014 A 
ATOM      9  C   UNL A   1      42.103  21.873  25.393  1.00  0.00     0.014 A 
ATOM     10  C   UNL A   1      42.393  22.613  28.076  1.00  0.00     0.010 A 
ATOM     11  C   UNL A   1      42.361  23.204  25.719  1.00  0.00     0.010 A 
ATOM     12  C   UNL A   1      42.475  23.588  27.064  1.00  0.00    -0.014 A 
BRANCH  12  13
ATOM     13  C   UNL A   1      42.835  24.973  27.447  1.00  0.00     0.031 A 
ATOM     14  C   UNL A   1      41.861  25.903  28.110  1.00  0.00     0.074 A 
ATOM     15  C   UNL A   1      44.088  25.373  27.150  1.00  0.00     0.049 A 
ATOM     16  N   UNL A   1      42.033  27.155  28.446  1.00  0.00    -0.248 NA
ATOM     17  C   UNL A   1      40.521  25.380  28.426  1.00  0.00     0.031 C 
ATOM     18  C   UNL A   1      45.085  24.549  26.455  1.00  0.00     0.029 A 
ATOM     19  N   UNL A   1      44.741  26.552  27.379  1.00  0.00    -0.354 N 
ATOM     20  C   UNL A   1      40.813  27.591  28.951  1.00  0.00     0.074 A 
ATOM     21  C   UNL A   1      39.910  26.461  28.901  1.00  0.00     0.031 C 
ATOM     22  C   UNL A   1      46.231  25.228  26.353  1.00  0.00     0.029 A 
ATOM     23  C   UNL A   1      46.023  26.567  26.880  1.00  0.00     0.049 A 
ATOM     24  H   UNL A   1      44.336  27.314  27.855  1.00  0.00     0.167 HD
ATOM     25  C   UNL A   1      40.491  28.824  29.411  1.00  0.00     0.034 A 
ATOM     26  C   UNL A   1      46.923  27.563  26.805  1.00  0.00     0.034 A 
ATOM     27  C   UNL A   1      41.431  29.913  29.503  1.00  0.00     0.049 A 
ATOM     28  C   UNL A   1      46.543  28.896  27.364  1.00  0.00     0.074 A 
ATOM     29  C   UNL A   1      41.238  31.171  30.047  1.00  0.00     0.029 A 
ATOM     30  N   UNL A   1      42.736  29.878  29.033  1.00  0.00    -0.354 N 
ATOM     31  N   UNL A   1      45.427  29.249  27.954  1.00  0.00    -0.248 NA
ATOM     32  C   UNL A   1      47.541  29.965  27.258  1.00  0.00     0.031 C 
ATOM     33  C   UNL A   1      42.418  31.904  29.883  1.00  0.00     0.029 A 
ATOM     34  C   UNL A   1      43.352  31.098  29.252  1.00  0.00     0.049 A 
ATOM     35  H   UNL A   1      43.161  29.099  28.607  1.00  0.00     0.167 HD
ATOM     36  C   UNL A   1      45.586  30.585  28.290  1.00  0.00     0.074 A 
ATOM     37  C   UNL A   1      46.925  30.961  27.879  1.00  0.00     0.031 C 
ATOM     38  C   UNL A   1      44.696  31.434  28.858  1.00  0.00     0.034 A 
BRANCH  25  39
ATOM     39  C   UNL A   1      39.082  29.080  29.881  1.00  0.00     0.023 A 
ATOM     40  C   UNL A   1      38.715  28.754  31.202  1.00  0.00     0.012 A 
ATOM     41  C   UNL A   1      38.162  29.761  29.057  1.00  0.00     0.148 A 
ATOM     42  C   UNL A   1      37.454  29.094  31.693  1.00  0.00     0.002 A 
ATOM     43  C   UNL A   1      36.918  30.125  29.563  1.00  0.00     0.091 A 
ATOM     44  F   UNL A   1      38.525  30.049  27.799  1.00  0.00    -0.205 F 
ATOM     45  C   UNL A   1      36.562  29.788  30.879  1.00  0.00     0.022 A 
BRANCH  43  46
ATOM     46  S   UNL A   1      35.724  31.083  28.622  1.00  0.00     0.127 S 
ATOM     47  O   UNL A   1      35.109  30.050  27.788  1.00  0.00    -0.237 OA
ATOM     48  O   UNL A   1      34.856  31.611  29.674  1.00  0.00    -0.237 OA
ATOM     49  O   UNL A   1      36.490  32.089  27.900  1.00  0.00    -0.744 OA
ENDBRANCH  43  46
ENDBRANCH  25  39
BRANCH  26  50
ATOM     50  C   UNL A   1      48.247  27.307  26.175  1.00  0.00     0.023 A 
ATOM     51  C   UNL A   1      49.276  26.722  26.934  1.00  0.00     0.012 A 
ATOM     52  C   UNL A   1      48.460  27.558  24.804  1.00  0.00     0.148 A 
ATOM     53  C   UNL A   1      50.499  26.406  26.342  1.00  0.00     0.002 A 
ATOM     54  C   UNL A   1      49.655  27.176  24.207  1.00  0.00     0.091 A 
ATOM     55  F   UNL A   1      47.477  28.133  24.097  1.00  0.00    -0.205 F 
ATOM     56  C   UNL A   1      50.683  26.617  24.977  1.00  0.00     0.022 A 
BRANCH  54  57
ATOM     57  S   UNL A   1      49.873  27.256  22.425  1.00  0.00     0.127 S 
ATOM     58  O   UNL A   1      51.242  26.779  22.266  1.00  0.00    -0.237 OA
ATOM     59  O   UNL A   1      48.840  26.339  21.939  1.00  0.00    -0.237 OA
ATOM     60  O   UNL A   1      49.630  28.652  22.081  1.00  0.00    -0.744 OA
ENDBRANCH  54  57
ENDBRANCH  26  50
BRANCH  38  61
ATOM     61  C   UNL A   1      45.148  32.853  29.049  1.00  0.00     0.023 A 
ATOM     62  C   UNL A   1      45.831  33.203  30.230  1.00  0.00     0.012 A 
ATOM     63  C   UNL A   1      44.935  33.822  28.053  1.00  0.00     0.148 A 
ATOM     64  C   UNL A   1      46.269  34.510  30.432  1.00  0.00     0.002 A 
ATOM     65  C   UNL A   1      45.415  35.112  28.241  1.00  0.00     0.091 A 
ATOM     66  F   UNL A   1      44.262  33.469  26.949  1.00  0.00    -0.205 F 
ATOM     67  C   UNL A   1      46.070  35.461  29.433  1.00  0.00     0.022 A 
BRANCH  65  68
ATOM     68  S   UNL A   1      45.277  36.379  26.976  1.00  0.00     0.127 S 
ATOM     69  O   UNL A   1      46.070  35.805  25.891  1.00  0.00    -0.237 OA
ATOM     70  O   UNL A   1      43.836  36.415  26.727  1.00  0.00    -0.237 OA
ATOM     71  O   UNL A   1      45.815  37.597  27.569  1.00  0.00    -0.744 OA
ENDBRANCH  65  68
ENDBRANCH  38  61
ENDBRANCH  12  13
ENDBRANCH   5   7
ENDBRANCH   2   3
ENDBRANCH   1   2
BRANCH   1  72
ATOM     72  C   UNL A   1      37.004  21.790  25.319  1.00  0.00     0.117 C 
BRANCH  72  73
ATOM     73  N   UNL A   1      36.040  21.597  26.377  1.00  0.00    -0.356 N 
ATOM     74  C   UNL A   1      34.717  21.860  26.475  1.00  0.00     0.224 C 
ATOM     75  H   UNL A   1      36.422  21.192  27.189  1.00  0.00     0.163 HD
ATOM     76  O   UNL A   1      34.128  21.340  27.437  1.00  0.00    -0.275 OA
BRANCH  74  77
ATOM     77  C   UNL A   1      33.872  22.705  25.519  1.00  0.00     0.095 C 
ATOM     78  C   UNL A   1      34.097  22.083  24.117  1.00  0.00     0.041 C 
ATOM     79  C   UNL A   1      32.387  22.966  25.714  1.00  0.00     0.095 C 
ATOM     80  C   UNL A   1      33.385  20.774  24.018  1.00  0.00    -0.030 C 
ATOM     81  C   UNL A   1      31.521  21.683  25.422  1.00  0.00     0.041 C 
ATOM     82  C   UNL A   1      32.218  20.587  24.648  1.00  0.00    -0.030 C 
BRANCH  79  83
ATOM     83  C   UNL A   1      31.807  23.868  26.840  1.00  0.00     0.228 C 
ATOM     84  O   UNL A   1      31.258  23.265  27.785  1.00  0.00    -0.274 OA
ATOM     85  N   UNL A   1      31.801  25.226  27.013  1.00  0.00    -0.326 N 
ATOM     86  H   UNL A   1      31.203  25.499  27.746  1.00  0.00     0.169 HD
BRANCH  85  87
ATOM     87  C   UNL A   1      32.431  26.334  26.410  1.00  0.00     0.041 A 
ATOM     88  C   UNL A   1      33.672  26.097  25.793  1.00  0.00     0.027 A 
ATOM     89  C   UNL A   1      31.859  27.581  26.247  1.00  0.00     0.027 A 
ATOM     90  C   UNL A   1      34.085  26.902  24.719  1.00  0.00     0.024 A 
ATOM     91  C   UNL A   1      32.245  28.385  25.164  1.00  0.00     0.024 A 
ATOM     92  C   UNL A   1      33.278  27.970  24.319  1.00  0.00     0.088 A 
BRANCH  92  93
ATOM     93  S   UNL A   1      33.208  28.377  22.554  1.00  0.00     0.264 S 
ATOM     94  O   UNL A   1      32.508  29.642  22.454  1.00  0.00    -0.201 OA
ATOM     95  O   UNL A   1      34.570  28.302  22.065  1.00  0.00    -0.201 OA
BRANCH  93  96
ATOM     96  N   UNL A   1      32.301  27.174  21.787  1.00  0.00    -0.266 N 
ATOM     97  C   UNL A   1      33.009  25.972  21.264  1.00  0.00     0.140 C 
ATOM     98  C   UNL A   1      31.153  26.716  22.482  1.00  0.00     0.055 A 
ATOM     99  C   UNL A   1      32.446  24.770  22.051  1.00  0.00     0.060 C 
ATOM    100  C   UNL A   1      31.225  25.346  22.694  1.00  0.00    -0.022 A 
ATOM    101  C   UNL A   1      30.079  27.478  22.899  1.00  0.00     0.027 A 
ATOM    102  C   UNL A   1      30.259  24.714  23.457  1.00  0.00     0.006 A 
ATOM    103  C   UNL A   1      29.087  26.847  23.644  1.00  0.00     0.002 A 
ATOM    104  C   UNL A   1      29.192  25.480  23.944  1.00  0.00     0.000 A 
ENDBRANCH  93  96
ENDBRANCH  92  93
ENDBRANCH  85  87
ENDBRANCH  79  83
ENDBRANCH  74  77
ENDBRANCH  72  73
ENDBRANCH   1  72
TORSDOF 17
ENDMDL
MODEL 2
REMARK VINA RESULT:     -12.1      1.797      2.804
REMARK SMILES O=C(NCCCNC(=O)[C@H]1CC=CC[C@H]1C(=O)Nc1ccc(S(=O)(=O)N2CCc3ccccc32)cc1)c1ccc(-c2c3nc(c(-c4cccc(S(=O)(=O)[O-])c4F)c4ccc([nH]4)c(-c4cccc(S(=O)(=O)[O-])c4F)c4nc(c(-c5cccc(S(=O)(=O)[O-])c5F)c5ccc2[nH]5)C=C4)C=C3)cc1
REMARK SMILES IDX 5 1 4 2 3 3 1 4 2 5 37 7 38 8 99 9 39 10 98 11 40 12 41 13
REMARK SMILES IDX 42 14 92 15 43 16 97 17 91 18 93 19 44 20 96 21 90 22 89 23
REMARK SMILES IDX 45 25 77 26 57 27 76 28 58 29 61 30 75 31 94 32 59 33 60 34
REMARK SMILES IDX 74 36 95 37 62 38 46 39 47 40 55 41 48 42 50 43 56 44 49 45
REMARK SMILES IDX 51 46 52 47 53 48 54 49 78 50 79 51 87 52 80 53 82 54 88 55
REMARK SMILES IDX 81 56 83 57 84 58 85 59 86 60 63 61 64 62 72 63 65 64 67 65
REMARK SMILES IDX 73 66 66 67 68 68 69 69 70 70 71 71 6 72 7 73 8 74 9 76
REMARK SMILES IDX 10 77 11 78 15 79 12 80 14 81 13 82 16 83 17 84 18 85 19 87
REMARK SMILES IDX 20 88 36 89 21 90 35 91 22 92 23 93 24 94 25 95 26 96 27 97
REMARK SMILES IDX 34 98 28 99 29 100 33 101 30 102 32 103 31 104
REMARK H PARENT 3 6 93 24 61 35 7 75 18 86
REMARK Flexibility Score: inf
ROOT
ATOM      1  C   UNL A   1      38.284  21.102  25.035  1.00  0.00     0.042 C 
ENDROOT
BRANCH   1   2
ATOM      2  C   UNL A   1      39.362  21.005  26.094  1.00  0.00     0.118 C 
BRANCH   2   3
ATOM      3  N   UNL A   1      40.177  19.790  25.994  1.00  0.00    -0.352 N 
ATOM      4  O   UNL A   1      42.142  18.646  25.997  1.00  0.00    -0.269 OA
ATOM      5  C   UNL A   1      41.546  19.707  26.139  1.00  0.00     0.251 C 
ATOM      6  H   UNL A   1      39.700  18.950  25.805  1.00  0.00     0.163 HD
BRANCH   5   7
ATOM      7  C   UNL A   1      42.249  20.970  26.415  1.00  0.00     0.039 A 
ATOM      8  C   UNL A   1      42.408  21.349  27.749  1.00  0.00     0.014 A 
ATOM      9  C   UNL A   1      42.488  21.864  25.370  1.00  0.00     0.014 A 
ATOM     10  C   UNL A   1      42.612  22.685  28.042  1.00  0.00     0.010 A 
ATOM     11  C   UNL A   1      42.836  23.181  25.674  1.00  0.00     0.010 A 
ATOM     12  C   UNL A   1      42.869  23.607  27.010  1.00  0.00    -0.014 A 
BRANCH  12  13
ATOM     13  C   UNL A   1      43.317  24.970  27.378  1.00  0.00     0.031 A 
ATOM     14  C   UNL A   1      42.379  26.005  27.927  1.00  0.00     0.074 A 
ATOM     15  C   UNL A   1      44.620  25.250  27.175  1.00  0.00     0.049 A 
ATOM     16  N   UNL A   1      42.633  27.250  28.237  1.00  0.00    -0.248 NA
ATOM     17  C   UNL A   1      40.976  25.611  28.146  1.00  0.00     0.031 C 
ATOM     18  C   UNL A   1      45.594  24.318  26.593  1.00  0.00     0.029 A 
ATOM     19  N   UNL A   1      45.355  26.377  27.421  1.00  0.00    -0.354 N 
ATOM     20  C   UNL A   1      41.419  27.808  28.623  1.00  0.00     0.074 A 
ATOM     21  C   UNL A   1      40.427  26.759  28.534  1.00  0.00     0.031 C 
ATOM     22  C   UNL A   1      46.800  24.892  26.566  1.00  0.00     0.029 A 
ATOM     23  C   UNL A   1      46.668  26.262  27.031  1.00  0.00     0.049 A 
ATOM     24  H   UNL A   1      44.981  27.188  27.837  1.00  0.00     0.167 HD
ATOM     25  C   UNL A   1      41.171  29.081  29.015  1.00  0.00     0.034 A 
ATOM     26  C   UNL A   1      47.656  27.174  27.000  1.00  0.00     0.034 A 
ATOM     27  C   UNL A   1      42.193  30.088  29.152  1.00  0.00     0.049 A 
ATOM     28  C   UNL A   1      47.351  28.555  27.483  1.00  0.00     0.074 A 
ATOM     29  C   UNL A   1      42.069  31.379  29.637  1.00  0.00     0.029 A 
ATOM     30  N   UNL A   1      43.523  29.924  28.794  1.00  0.00    -0.354 N 
ATOM     31  N   UNL A   1      46.227  29.026  27.966  1.00  0.00    -0.248 NA
ATOM     32  C   UNL A   1      48.446  29.531  27.427  1.00  0.00     0.031 C 
ATOM     33  C   UNL A   1      43.318  32.001  29.550  1.00  0.00     0.029 A 
ATOM     34  C   UNL A   1      44.226  31.094  29.025  1.00  0.00     0.049 A 
ATOM     35  H   UNL A   1      43.912  29.096  28.430  1.00  0.00     0.167 HD
ATOM     36  C   UNL A   1      46.476  30.355  28.271  1.00  0.00     0.074 A 
ATOM     37  C   UNL A   1      47.872  30.598  27.963  1.00  0.00     0.031 C 
ATOM     38  C   UNL A   1      45.621  31.298  28.735  1.00  0.00     0.034 A 
BRANCH  25  39
ATOM     39  C   UNL A   1      39.757  29.475  29.357  1.00  0.00     0.023 A 
ATOM     40  C   UNL A   1      38.810  29.644  28.328  1.00  0.00     0.012 A 
ATOM     41  C   UNL A   1      39.337  29.548  30.701  1.00  0.00     0.148 A 
ATOM     42  C   UNL A   1      37.469  29.889  28.630  1.00  0.00     0.002 A 
ATOM     43  C   UNL A   1      37.993  29.760  30.995  1.00  0.00     0.091 A 
ATOM     44  F   UNL A   1      40.255  29.399  31.666  1.00  0.00    -0.205 F 
ATOM     45  C   UNL A   1      37.061  29.935  29.961  1.00  0.00     0.022 A 
BRANCH  43  46
ATOM     46  S   UNL A   1      37.350  29.766  32.674  1.00  0.00     0.127 S 
ATOM     47  O   UNL A   1      36.014  30.327  32.475  1.00  0.00    -0.237 OA
ATOM     48  O   UNL A   1      37.368  28.344  33.014  1.00  0.00    -0.237 OA
ATOM     49  O   UNL A   1      38.261  30.592  33.454  1.00  0.00    -0.744 OA
ENDBRANCH  43  46
ENDBRANCH  25  39
BRANCH  26  50
ATOM     50  C   UNL A   1      48.999  26.782  26.493  1.00  0.00     0.023 A 
ATOM     51  C   UNL A   1      49.763  25.841  27.205  1.00  0.00     0.012 A 
ATOM     52  C   UNL A   1      49.481  27.269  25.260  1.00  0.00     0.148 A 
ATOM     53  C   UNL A   1      50.992  25.405  26.707  1.00  0.00     0.002 A 
ATOM     54  C   UNL A   1      50.670  26.777  24.737  1.00  0.00     0.091 A 
ATOM     55  F   UNL A   1      48.750  28.179  24.601  1.00  0.00    -0.205 F 
ATOM     56  C   UNL A   1      51.437  25.859  25.466  1.00  0.00     0.022 A 
BRANCH  54  57
ATOM     57  S   UNL A   1      51.195  27.189  23.069  1.00  0.00     0.127 S 
ATOM     58  O   UNL A   1      50.090  26.673  22.268  1.00  0.00    -0.237 OA
ATOM     59  O   UNL A   1      51.289  28.649  23.119  1.00  0.00    -0.237 OA
ATOM     60  O   UNL A   1      52.481  26.521  22.905  1.00  0.00    -0.744 OA
ENDBRANCH  54  57
ENDBRANCH  26  50
BRANCH  38  61
ATOM     61  C   UNL A   1      46.180  32.680  28.919  1.00  0.00     0.023 A 
ATOM     62  C   UNL A   1      46.632  33.075  30.193  1.00  0.00     0.012 A 
ATOM     63  C   UNL A   1      46.295  33.566  27.833  1.00  0.00     0.148 A 
ATOM     64  C   UNL A   1      47.162  34.347  30.392  1.00  0.00     0.002 A 
ATOM     65  C   UNL A   1      46.867  34.817  28.029  1.00  0.00     0.091 A 
ATOM     66  F   UNL A   1      45.837  33.174  26.635  1.00  0.00    -0.205 F 
ATOM     67  C   UNL A   1      47.289  35.213  29.308  1.00  0.00     0.022 A 
BRANCH  65  68
ATOM     68  S   UNL A   1      47.146  35.965  26.676  1.00  0.00     0.127 S 
ATOM     69  O   UNL A   1      47.686  37.127  27.379  1.00  0.00    -0.237 OA
ATOM     70  O   UNL A   1      48.116  35.244  25.851  1.00  0.00    -0.237 OA
ATOM     71  O   UNL A   1      45.847  36.161  26.045  1.00  0.00    -0.744 OA
ENDBRANCH  65  68
ENDBRANCH  38  61
ENDBRANCH  12  13
ENDBRANCH   5   7
ENDBRANCH   2   3
ENDBRANCH   1   2
BRANCH   1  72
ATOM     72  C   UNL A   1      36.940  21.366  25.668  1.00  0.00     0.117 C 
BRANCH  72  73
ATOM     73  N   UNL A   1      35.930  20.375  25.382  1.00  0.00    -0.356 N 
ATOM     74  C   UNL A   1      34.637  20.464  24.998  1.00  0.00     0.224 C 
ATOM     75  H   UNL A   1      36.247  19.448  25.487  1.00  0.00     0.163 HD
ATOM     76  O   UNL A   1      34.115  19.413  24.592  1.00  0.00    -0.275 OA
BRANCH  74  77
ATOM     77  C   UNL A   1      33.763  21.720  24.989  1.00  0.00     0.095 C 
ATOM     78  C   UNL A   1      32.779  21.542  26.174  1.00  0.00     0.041 C 
ATOM     79  C   UNL A   1      34.321  23.135  25.017  1.00  0.00     0.095 C 
ATOM     80  C   UNL A   1      33.498  21.725  27.469  1.00  0.00    -0.030 C 
ATOM     81  C   UNL A   1      34.921  23.503  26.427  1.00  0.00     0.041 C 
ATOM     82  C   UNL A   1      34.504  22.604  27.569  1.00  0.00    -0.030 C 
BRANCH  79  83
ATOM     83  C   UNL A   1      35.076  23.791  23.827  1.00  0.00     0.228 C 
ATOM     84  O   UNL A   1      36.259  23.427  23.671  1.00  0.00    -0.274 OA
ATOM     85  N   UNL A   1      34.679  24.695  22.879  1.00  0.00    -0.326 N 
ATOM     86  H   UNL A   1      35.443  25.043  22.363  1.00  0.00     0.169 HD
BRANCH  85  87
ATOM     87  C   UNL A   1      33.458  25.256  22.452  1.00  0.00     0.041 A 
ATOM     88  C   UNL A   1      32.319  24.439  22.549  1.00  0.00     0.027 A 
ATOM     89  C   UNL A   1      33.273  26.579  22.097  1.00  0.00     0.027 A 
ATOM     90  C   UNL A   1      31.052  25.021  22.720  1.00  0.00     0.024 A 
ATOM     91  C   UNL A   1      32.020  27.179  22.286  1.00  0.00     0.024 A 
ATOM     92  C   UNL A   1      30.938  26.413  22.731  1.00  0.00     0.088 A 
BRANCH  92  93
ATOM     93  S   UNL A   1      29.698  27.163  23.820  1.00  0.00     0.264 S 
ATOM     94  O   UNL A   1      29.582  28.550  23.411  1.00  0.00    -0.201 OA
ATOM     95  O   UNL A   1      28.523  26.320  23.739  1.00  0.00    -0.201 OA
BRANCH  93  96
ATOM     96  N   UNL A   1      30.295  27.094  25.400  1.00  0.00    -0.266 N 
ATOM     97  C   UNL A   1      30.352  25.772  26.084  1.00  0.00     0.140 C 
ATOM     98  C   UNL A   1      31.537  27.739  25.628  1.00  0.00     0.055 A 
ATOM     99  C   UNL A   1      31.845  25.501  26.364  1.00  0.00     0.060 C 
ATOM    100  C   UNL A   1      32.467  26.842  26.138  1.00  0.00    -0.022 A 
ATOM    101  C   UNL A   1      31.832  29.071  25.410  1.00  0.00     0.027 A 
ATOM    102  C   UNL A   1      33.778  27.239  26.324  1.00  0.00     0.006 A 
ATOM    103  C   UNL A   1      33.142  29.489  25.621  1.00  0.00     0.002 A 
ATOM    104  C   UNL A   1      34.115  28.571  26.048  1.00  0.00     0.000 A 
ENDBRANCH  93  96
ENDBRANCH  92  93
ENDBRANCH  85  87
ENDBRANCH  79  83
ENDBRANCH  74  77
ENDBRANCH  72  73
ENDBRANCH   1  72
TORSDOF 17
ENDMDL
MODEL 3
REMARK VINA RESULT:     -11.9      1.961      7.568
REMARK SMILES O=C(NCCCNC(=O)[C@H]1CC=CC[C@H]1C(=O)Nc1ccc(S(=O)(=O)N2CCc3ccccc32)cc1)c1ccc(-c2c3nc(c(-c4cccc(S(=O)(=O)[O-])c4F)c4ccc([nH]4)c(-c4cccc(S(=O)(=O)[O-])c4F)c4nc(c(-c5cccc(S(=O)(=O)[O-])c5F)c5ccc2[nH]5)C=C4)C=C3)cc1
REMARK SMILES IDX 5 1 4 2 3 3 1 4 2 5 37 7 38 8 99 9 39 10 98 11 40 12 41 13
REMARK SMILES IDX 42 14 92 15 43 16 97 17 91 18 93 19 44 20 96 21 90 22 89 23
REMARK SMILES IDX 45 25 77 26 57 27 76 28 58 29 61 30 75 31 94 32 59 33 60 34
REMARK SMILES IDX 74 36 95 37 62 38 46 39 47 40 55 41 48 42 50 43 56 44 49 45
REMARK SMILES IDX 51 46 52 47 53 48 54 49 78 50 79 51 87 52 80 53 82 54 88 55
REMARK SMILES IDX 81 56 83 57 84 58 85 59 86 60 63 61 64 62 72 63 65 64 67 65
REMARK SMILES IDX 73 66 66 67 68 68 69 69 70 70 71 71 6 72 7 73 8 74 9 76
REMARK SMILES IDX 10 77 11 78 15 79 12 80 14 81 13 82 16 83 17 84 18 85 19 87
REMARK SMILES IDX 20 88 36 89 21 90 35 91 22 92 23 93 24 94 25 95 26 96 27 97
REMARK SMILES IDX 34 98 28 99 29 100 33 101 30 102 32 103 31 104
REMARK H PARENT 3 6 93 24 61 35 7 75 18 86
REMARK Flexibility Score: inf
ROOT
ATOM      1  C   UNL A   1      38.177  20.803  25.623  1.00  0.00     0.042 C 
ENDROOT
BRANCH   1   2
ATOM      2  C   UNL A   1      39.615  20.959  26.070  1.00  0.00     0.118 C 
BRANCH   2   3
ATOM      3  N   UNL A   1      40.382  19.710  26.035  1.00  0.00    -0.352 N 
ATOM      4  O   UNL A   1      42.304  18.495  26.055  1.00  0.00    -0.269 OA
ATOM      5  C   UNL A   1      41.752  19.585  26.137  1.00  0.00     0.251 C 
ATOM      6  H   UNL A   1      39.868  18.877  25.926  1.00  0.00     0.163 HD
BRANCH   5   7
ATOM      7  C   UNL A   1      42.509  20.838  26.292  1.00  0.00     0.039 A 
ATOM      8  C   UNL A   1      42.763  21.290  27.589  1.00  0.00     0.014 A 
ATOM      9  C   UNL A   1      42.710  21.659  25.182  1.00  0.00     0.014 A 
ATOM     10  C   UNL A   1      43.025  22.633  27.786  1.00  0.00     0.010 A 
ATOM     11  C   UNL A   1      43.117  22.978  25.383  1.00  0.00     0.010 A 
ATOM     12  C   UNL A   1      43.245  23.483  26.686  1.00  0.00    -0.014 A 
BRANCH  12  13
ATOM     13  C   UNL A   1      43.758  24.848  26.942  1.00  0.00     0.031 A 
ATOM     14  C   UNL A   1      45.192  25.226  26.710  1.00  0.00     0.074 A 
ATOM     15  C   UNL A   1      42.871  25.744  27.420  1.00  0.00     0.049 A 
ATOM     16  N   UNL A   1      45.780  26.371  26.946  1.00  0.00    -0.248 NA
ATOM     17  C   UNL A   1      46.091  24.197  26.160  1.00  0.00     0.031 C 
ATOM     18  C   UNL A   1      41.466  25.446  27.726  1.00  0.00     0.029 A 
ATOM     19  N   UNL A   1      43.000  27.068  27.736  1.00  0.00    -0.354 N 
ATOM     20  C   UNL A   1      47.123  26.186  26.639  1.00  0.00     0.074 A 
ATOM     21  C   UNL A   1      47.264  24.823  26.174  1.00  0.00     0.031 C 
ATOM     22  C   UNL A   1      40.855  26.559  28.144  1.00  0.00     0.029 A 
ATOM     23  C   UNL A   1      41.843  27.622  28.232  1.00  0.00     0.049 A 
ATOM     24  H   UNL A   1      43.837  27.575  27.619  1.00  0.00     0.167 HD
ATOM     25  C   UNL A   1      48.135  27.082  26.740  1.00  0.00     0.034 A 
ATOM     26  C   UNL A   1      41.607  28.838  28.753  1.00  0.00     0.034 A 
ATOM     27  C   UNL A   1      47.951  28.451  27.151  1.00  0.00     0.049 A 
ATOM     28  C   UNL A   1      42.740  29.811  28.806  1.00  0.00     0.074 A 
ATOM     29  C   UNL A   1      48.888  29.470  27.192  1.00  0.00     0.029 A 
ATOM     30  N   UNL A   1      46.755  28.992  27.601  1.00  0.00    -0.354 N 
ATOM     31  N   UNL A   1      43.973  29.657  28.390  1.00  0.00    -0.248 NA
ATOM     32  C   UNL A   1      42.454  31.126  29.389  1.00  0.00     0.031 C 
ATOM     33  C   UNL A   1      48.264  30.619  27.689  1.00  0.00     0.029 A 
ATOM     34  C   UNL A   1      46.934  30.321  27.943  1.00  0.00     0.049 A 
ATOM     35  H   UNL A   1      45.904  28.503  27.666  1.00  0.00     0.167 HD
ATOM     36  C   UNL A   1      44.615  30.855  28.661  1.00  0.00     0.074 A 
ATOM     37  C   UNL A   1      43.618  31.740  29.234  1.00  0.00     0.031 C 
ATOM     38  C   UNL A   1      45.917  31.186  28.484  1.00  0.00     0.034 A 
BRANCH  25  39
ATOM     39  C   UNL A   1      49.532  26.645  26.382  1.00  0.00     0.023 A 
ATOM     40  C   UNL A   1      50.203  25.711  27.194  1.00  0.00     0.012 A 
ATOM     41  C   UNL A   1      50.126  27.061  25.172  1.00  0.00     0.148 A 
ATOM     42  C   UNL A   1      51.446  25.203  26.814  1.00  0.00     0.002 A 
ATOM     43  C   UNL A   1      51.351  26.527  24.784  1.00  0.00     0.091 A 
ATOM     44  F   UNL A   1      49.478  27.962  24.420  1.00  0.00    -0.205 F 
ATOM     45  C   UNL A   1      52.013  25.601  25.606  1.00  0.00     0.022 A 
BRANCH  43  46
ATOM     46  S   UNL A   1      52.133  26.918  23.214  1.00  0.00     0.127 S 
ATOM     47  O   UNL A   1      51.028  26.715  22.276  1.00  0.00    -0.237 OA
ATOM     48  O   UNL A   1      52.520  28.316  23.403  1.00  0.00    -0.237 OA
ATOM     49  O   UNL A   1      53.246  25.990  23.073  1.00  0.00    -0.744 OA
ENDBRANCH  43  46
ENDBRANCH  25  39
BRANCH  26  50
ATOM     50  C   UNL A   1      40.245  29.169  29.254  1.00  0.00     0.023 A 
ATOM     51  C   UNL A   1      39.247  29.560  28.344  1.00  0.00     0.012 A 
ATOM     52  C   UNL A   1      39.911  29.007  30.614  1.00  0.00     0.148 A 
ATOM     53  C   UNL A   1      37.944  29.802  28.784  1.00  0.00     0.002 A 
ATOM     54  C   UNL A   1      38.597  29.181  31.032  1.00  0.00     0.091 A 
ATOM     55  F   UNL A   1      40.877  28.651  31.474  1.00  0.00    -0.205 F 
ATOM     56  C   UNL A   1      37.616  29.596  30.123  1.00  0.00     0.022 A 
BRANCH  54  57
ATOM     57  S   UNL A   1      38.086  28.754  32.700  1.00  0.00     0.127 S 
ATOM     58  O   UNL A   1      39.040  29.502  33.511  1.00  0.00    -0.237 OA
ATOM     59  O   UNL A   1      36.711  29.254  32.747  1.00  0.00    -0.237 OA
ATOM     60  O   UNL A   1      38.186  27.300  32.761  1.00  0.00    -0.744 OA
ENDBRANCH  54  57
ENDBRANCH  26  50
BRANCH  38  61
ATOM     61  C   UNL A   1      46.329  32.558  28.931  1.00  0.00     0.023 A 
ATOM     62  C   UNL A   1      46.831  32.735  30.235  1.00  0.00     0.012 A 
ATOM     63  C   UNL A   1      46.258  33.658  28.057  1.00  0.00     0.148 A 
ATOM     64  C   UNL A   1      47.228  33.995  30.675  1.00  0.00     0.002 A 
ATOM     65  C   UNL A   1      46.698  34.903  28.487  1.00  0.00     0.091 A 
ATOM     66  F   UNL A   1      45.754  33.468  26.828  1.00  0.00    -0.205 F 
ATOM     67  C   UNL A   1      47.171  35.076  29.797  1.00  0.00     0.022 A 
BRANCH  65  68
ATOM     68  S   UNL A   1      46.739  36.332  27.400  1.00  0.00     0.127 S 
ATOM     69  O   UNL A   1      45.316  36.613  27.223  1.00  0.00    -0.237 OA
ATOM     70  O   UNL A   1      47.460  37.316  28.208  1.00  0.00    -0.237 OA
ATOM     71  O   UNL A   1      47.447  35.902  26.201  1.00  0.00    -0.744 OA
ENDBRANCH  65  68
ENDBRANCH  38  61
ENDBRANCH  12  13
ENDBRANCH   5   7
ENDBRANCH   2   3
ENDBRANCH   1   2
BRANCH   1  72
ATOM     72  C   UNL A   1      37.453  22.124  25.691  1.00  0.00     0.117 C 
BRANCH  72  73
ATOM     73  N   UNL A   1      36.122  22.058  26.247  1.00  0.00    -0.356 N 
ATOM     74  C   UNL A   1      34.985  21.449  25.843  1.00  0.00     0.224 C 
ATOM     75  H   UNL A   1      36.023  22.556  27.091  1.00  0.00     0.163 HD
ATOM     76  O   UNL A   1      34.073  21.381  26.684  1.00  0.00    -0.275 OA
BRANCH  74  77
ATOM     77  C   UNL A   1      34.715  20.818  24.475  1.00  0.00     0.095 C 
ATOM     78  C   UNL A   1      34.955  19.299  24.672  1.00  0.00     0.041 C 
ATOM     79  C   UNL A   1      33.426  21.019  23.693  1.00  0.00     0.095 C 
ATOM     80  C   UNL A   1      33.839  18.703  25.466  1.00  0.00    -0.030 C 
ATOM     81  C   UNL A   1      32.217  20.246  24.343  1.00  0.00     0.041 C 
ATOM     82  C   UNL A   1      32.589  19.167  25.335  1.00  0.00    -0.030 C 
BRANCH  79  83
ATOM     83  C   UNL A   1      33.020  22.363  23.025  1.00  0.00     0.228 C 
ATOM     84  O   UNL A   1      32.657  22.286  21.834  1.00  0.00    -0.274 OA
ATOM     85  N   UNL A   1      32.960  23.643  23.508  1.00  0.00    -0.326 N 
ATOM     86  H   UNL A   1      32.829  24.300  22.786  1.00  0.00     0.169 HD
BRANCH  85  87
ATOM     87  C   UNL A   1      33.040  24.261  24.773  1.00  0.00     0.041 A 
ATOM     88  C   UNL A   1      34.110  25.149  24.977  1.00  0.00     0.027 A 
ATOM     89  C   UNL A   1      32.074  24.179  25.758  1.00  0.00     0.027 A 
ATOM     90  C   UNL A   1      33.978  26.206  25.893  1.00  0.00     0.024 A 
ATOM     91  C   UNL A   1      31.916  25.239  26.663  1.00  0.00     0.024 A 
ATOM     92  C   UNL A   1      32.799  26.321  26.634  1.00  0.00     0.088 A 
BRANCH  92  93
ATOM     93  S   UNL A   1      32.191  27.984  27.023  1.00  0.00     0.264 S 
ATOM     94  O   UNL A   1      30.949  27.805  27.750  1.00  0.00    -0.201 OA
ATOM     95  O   UNL A   1      33.282  28.672  27.682  1.00  0.00    -0.201 OA
BRANCH  93  96
ATOM     96  N   UNL A   1      31.874  28.769  25.560  1.00  0.00    -0.266 N 
ATOM     97  C   UNL A   1      32.914  29.677  24.998  1.00  0.00     0.140 C 
ATOM     98  C   UNL A   1      31.412  27.951  24.498  1.00  0.00     0.055 A 
ATOM     99  C   UNL A   1      33.336  29.057  23.650  1.00  0.00     0.060 C 
ATOM    100  C   UNL A   1      32.256  28.054  23.399  1.00  0.00    -0.022 A 
ATOM    101  C   UNL A   1      30.282  27.157  24.495  1.00  0.00     0.027 A 
ATOM    102  C   UNL A   1      32.050  27.249  22.294  1.00  0.00     0.006 A 
ATOM    103  C   UNL A   1      30.050  26.363  23.376  1.00  0.00     0.002 A 
ATOM    104  C   UNL A   1      30.945  26.389  22.295  1.00  0.00     0.000 A 
ENDBRANCH  93  96
ENDBRANCH  92  93
ENDBRANCH  85  87
ENDBRANCH  79  83
ENDBRANCH  74  77
ENDBRANCH  72  73
ENDBRANCH   1  72
TORSDOF 17
ENDMDL
