MODEL 1
REMARK VINA RESULT:     -10.9      0.000      0.000
REMARK SMILES CCOc1ncnc(N[C@@H]2C=C[C@H](C(=O)NCCCNC(=O)c3ccc(-c4c5nc(c(-c6cccc(S(=O)(=O)[O-])c6F)c6ccc([nH]6)c(-c6cccc(S(=O)(=O)[O-])c6F)c6nc(c(-c7cccc(S(=O)(=O)[O-])c7F)c7ccc4[nH]7)C=C6)C=C5)cc3)C2)c1C
REMARK SMILES IDX 17 1 16 2 14 3 15 4 13 6 10 7 11 8 86 9 12 10 9 11 8 13 4 14
REMARK SMILES IDX 5 15 87 16 6 17 88 18 7 19 3 20 2 21 1 22 18 23 19 24 20 25
REMARK SMILES IDX 21 26 22 28 23 29 24 30 85 31 25 32 84 33 26 34 27 35 28 36
REMARK SMILES IDX 78 37 29 38 83 39 77 40 79 41 30 42 82 43 76 44 75 45 31 47
REMARK SMILES IDX 63 48 43 49 62 50 44 51 47 52 61 53 80 54 45 55 46 56 60 58
REMARK SMILES IDX 81 59 48 60 32 61 33 62 41 63 34 64 36 65 42 66 35 67 37 68
REMARK SMILES IDX 38 69 39 70 40 71 64 72 65 73 73 74 66 75 68 76 74 77 67 78
REMARK SMILES IDX 69 79 70 80 71 81 72 82 49 83 50 84 58 85 51 86 53 87 59 88
REMARK SMILES IDX 52 89 54 90 55 91 56 92 57 93
REMARK H PARENT 16 5 9 12 20 27 79 46 47 57
REMARK Flexibility Score: inf
ROOT
ATOM      1  C   UNL A   1      36.952  21.079  24.731  1.00  0.00     0.117 C 
ENDROOT
BRANCH   1   2
ATOM      2  N   UNL A   1      35.877  21.059  25.704  1.00  0.00    -0.356 N 
ATOM      3  C   UNL A   1      34.597  21.511  25.550  1.00  0.00     0.227 C 
ATOM      4  O   UNL A   1      33.998  21.851  26.570  1.00  0.00    -0.274 OA
ATOM      5  H   UNL A   1      36.097  20.672  26.582  1.00  0.00     0.163 HD
BRANCH   3   6
ATOM      6  C   UNL A   1      34.019  21.625  24.135  1.00  0.00     0.103 C 
ATOM      7  C   UNL A   1      32.643  23.565  23.491  1.00  0.00     0.104 C 
ATOM      8  C   UNL A   1      31.802  22.374  23.768  1.00  0.00    -0.006 C 
ATOM      9  C   UNL A   1      34.087  23.057  23.574  1.00  0.00     0.046 C 
ATOM     10  C   UNL A   1      32.545  21.313  24.102  1.00  0.00    -0.016 C 
BRANCH   7  11
ATOM     11  N   UNL A   1      32.346  24.681  24.360  1.00  0.00    -0.363 N 
ATOM     12  H   UNL A   1      32.317  24.492  25.326  1.00  0.00     0.162 HD
BRANCH  11  13
ATOM     13  C   UNL A   1      32.098  25.987  23.978  1.00  0.00     0.136 A 
ATOM     14  C   UNL A   1      32.395  28.301  24.237  1.00  0.00     0.221 A 
ATOM     15  N   UNL A   1      31.600  28.586  23.197  1.00  0.00    -0.201 NA
ATOM     16  C   UNL A   1      32.657  27.027  24.710  1.00  0.00     0.054 A 
ATOM     17  C   UNL A   1      31.059  27.515  22.616  1.00  0.00     0.228 A 
ATOM     18  C   UNL A   1      33.525  26.788  25.905  1.00  0.00     0.054 C 
ATOM     19  N   UNL A   1      31.306  26.233  22.927  1.00  0.00    -0.219 NA
BRANCH  14  20
ATOM     20  O   UNL A   1      32.906  29.383  24.912  1.00  0.00    -0.478 OA
BRANCH  20  21
ATOM     21  C   UNL A   1      31.868  30.099  25.584  1.00  0.00     0.228 C 
ATOM     22  C   UNL A   1      32.327  30.394  27.004  1.00  0.00     0.049 C 
ENDBRANCH  20  21
ENDBRANCH  14  20
ENDBRANCH  11  13
ENDBRANCH   7  11
ENDBRANCH   3   6
ENDBRANCH   1   2
BRANCH   1  23
ATOM     23  C   UNL A   1      37.918  19.925  24.976  1.00  0.00     0.042 C 
BRANCH  23  24
ATOM     24  C   UNL A   1      39.007  20.245  25.996  1.00  0.00     0.118 C 
BRANCH  24  25
ATOM     25  N   UNL A   1      40.067  19.244  26.012  1.00  0.00    -0.352 N 
ATOM     26  C   UNL A   1      41.425  19.412  26.095  1.00  0.00     0.251 C 
ATOM     27  H   UNL A   1      39.763  18.310  25.954  1.00  0.00     0.163 HD
ATOM     28  O   UNL A   1      42.170  18.453  25.893  1.00  0.00    -0.269 OA
BRANCH  26  29
ATOM     29  C   UNL A   1      41.994  20.740  26.406  1.00  0.00     0.039 A 
ATOM     30  C   UNL A   1      42.267  21.621  25.357  1.00  0.00     0.014 A 
ATOM     31  C   UNL A   1      42.263  21.115  27.725  1.00  0.00     0.014 A 
ATOM     32  C   UNL A   1      42.751  22.901  25.636  1.00  0.00     0.010 A 
ATOM     33  C   UNL A   1      42.667  22.417  28.007  1.00  0.00     0.010 A 
ATOM     34  C   UNL A   1      42.921  23.323  26.966  1.00  0.00    -0.014 A 
BRANCH  34  35
ATOM     35  C   UNL A   1      43.345  24.711  27.285  1.00  0.00     0.031 A 
ATOM     36  C   UNL A   1      42.361  25.696  27.857  1.00  0.00     0.074 A 
ATOM     37  C   UNL A   1      44.598  25.108  26.984  1.00  0.00     0.049 A 
ATOM     38  N   UNL A   1      42.531  26.962  28.138  1.00  0.00    -0.248 NA
ATOM     39  C   UNL A   1      41.000  25.200  28.126  1.00  0.00     0.031 C 
ATOM     40  C   UNL A   1      45.624  24.270  26.358  1.00  0.00     0.029 A 
ATOM     41  N   UNL A   1      45.214  26.325  27.137  1.00  0.00    -0.354 N 
ATOM     42  C   UNL A   1      41.299  27.420  28.590  1.00  0.00     0.074 A 
ATOM     43  C   UNL A   1      40.379  26.307  28.508  1.00  0.00     0.031 C 
ATOM     44  C   UNL A   1      46.738  24.997  26.181  1.00  0.00     0.029 A 
ATOM     45  C   UNL A   1      46.498  26.360  26.643  1.00  0.00     0.049 A 
ATOM     46  H   UNL A   1      44.778  27.101  27.558  1.00  0.00     0.167 HD
ATOM     47  C   UNL A   1      40.969  28.647  29.061  1.00  0.00     0.034 A 
ATOM     48  C   UNL A   1      47.378  27.377  26.556  1.00  0.00     0.034 A 
ATOM     49  C   UNL A   1      41.893  29.745  29.166  1.00  0.00     0.049 A 
ATOM     50  C   UNL A   1      46.988  28.727  27.097  1.00  0.00     0.074 A 
ATOM     51  C   UNL A   1      41.672  31.006  29.691  1.00  0.00     0.029 A 
ATOM     52  N   UNL A   1      43.208  29.718  28.728  1.00  0.00    -0.354 N 
ATOM     53  N   UNL A   1      45.864  29.099  27.658  1.00  0.00    -0.248 NA
ATOM     54  C   UNL A   1      48.003  29.788  27.027  1.00  0.00     0.031 C 
ATOM     55  C   UNL A   1      42.846  31.752  29.545  1.00  0.00     0.029 A 
ATOM     56  C   UNL A   1      43.809  30.943  28.963  1.00  0.00     0.049 A 
ATOM     57  H   UNL A   1      43.649  28.943  28.312  1.00  0.00     0.167 HD
ATOM     58  C   UNL A   1      46.050  30.422  28.042  1.00  0.00     0.074 A 
ATOM     59  C   UNL A   1      47.402  30.779  27.669  1.00  0.00     0.031 C 
ATOM     60  C   UNL A   1      45.173  31.270  28.637  1.00  0.00     0.034 A 
BRANCH  47  61
ATOM     61  C   UNL A   1      39.557  28.853  29.549  1.00  0.00     0.023 A 
ATOM     62  C   UNL A   1      39.211  28.459  30.858  1.00  0.00     0.012 A 
ATOM     63  C   UNL A   1      38.593  29.489  28.743  1.00  0.00     0.148 A 
ATOM     64  C   UNL A   1      37.920  28.659  31.344  1.00  0.00     0.002 A 
ATOM     65  C   UNL A   1      37.322  29.729  29.252  1.00  0.00     0.091 A 
ATOM     66  F   UNL A   1      38.934  29.843  27.496  1.00  0.00    -0.205 F 
ATOM     67  C   UNL A   1      36.979  29.303  30.546  1.00  0.00     0.022 A 
BRANCH  65  68
ATOM     68  S   UNL A   1      36.062  30.625  28.336  1.00  0.00     0.127 S 
ATOM     69  O   UNL A   1      35.748  29.681  27.264  1.00  0.00    -0.237 OA
ATOM     70  O   UNL A   1      35.007  30.779  29.339  1.00  0.00    -0.237 OA
ATOM     71  O   UNL A   1      36.682  31.871  27.908  1.00  0.00    -0.744 OA
ENDBRANCH  65  68
ENDBRANCH  47  61
BRANCH  48  72
ATOM     72  C   UNL A   1      48.730  27.151  25.970  1.00  0.00     0.023 A 
ATOM     73  C   UNL A   1      49.762  26.639  26.780  1.00  0.00     0.012 A 
ATOM     74  C   UNL A   1      48.996  27.434  24.617  1.00  0.00     0.148 A 
ATOM     75  C   UNL A   1      51.046  26.454  26.264  1.00  0.00     0.002 A 
ATOM     76  C   UNL A   1      50.261  27.192  24.095  1.00  0.00     0.091 A 
ATOM     77  F   UNL A   1      48.004  27.931  23.864  1.00  0.00    -0.205 F 
ATOM     78  C   UNL A   1      51.293  26.722  24.922  1.00  0.00     0.022 A 
BRANCH  76  79
ATOM     79  S   UNL A   1      50.633  27.381  22.348  1.00  0.00     0.127 S 
ATOM     80  O   UNL A   1      49.620  26.527  21.732  1.00  0.00    -0.237 OA
ATOM     81  O   UNL A   1      50.433  28.817  22.149  1.00  0.00    -0.237 OA
ATOM     82  O   UNL A   1      52.013  26.942  22.190  1.00  0.00    -0.744 OA
ENDBRANCH  76  79
ENDBRANCH  48  72
BRANCH  60  83
ATOM     83  C   UNL A   1      45.660  32.656  28.972  1.00  0.00     0.023 A 
ATOM     84  C   UNL A   1      46.379  32.884  30.162  1.00  0.00     0.012 A 
ATOM     85  C   UNL A   1      45.466  33.719  28.067  1.00  0.00     0.148 A 
ATOM     86  C   UNL A   1      46.863  34.156  30.464  1.00  0.00     0.002 A 
ATOM     87  C   UNL A   1      45.999  34.970  28.349  1.00  0.00     0.091 A 
ATOM     88  F   UNL A   1      44.766  33.485  26.948  1.00  0.00    -0.205 F 
ATOM     89  C   UNL A   1      46.685  35.195  29.554  1.00  0.00     0.022 A 
BRANCH  87  90
ATOM     90  S   UNL A   1      45.904  36.343  27.194  1.00  0.00     0.127 S 
ATOM     91  O   UNL A   1      46.644  37.383  27.906  1.00  0.00    -0.237 OA
ATOM     92  O   UNL A   1      46.587  35.804  26.018  1.00  0.00    -0.237 OA
ATOM     93  O   UNL A   1      44.484  36.610  27.001  1.00  0.00    -0.744 OA
ENDBRANCH  87  90
ENDBRANCH  60  83
ENDBRANCH  34  35
ENDBRANCH  26  29
ENDBRANCH  24  25
ENDBRANCH  23  24
ENDBRANCH   1  23
TORSDOF 17
ENDMDL
MODEL 2
REMARK VINA RESULT:     -10.7      5.632      8.479
REMARK SMILES CCOc1ncnc(N[C@@H]2C=C[C@H](C(=O)NCCCNC(=O)c3ccc(-c4c5nc(c(-c6cccc(S(=O)(=O)[O-])c6F)c6ccc([nH]6)c(-c6cccc(S(=O)(=O)[O-])c6F)c6nc(c(-c7cccc(S(=O)(=O)[O-])c7F)c7ccc4[nH]7)C=C6)C=C5)cc3)C2)c1C
REMARK SMILES IDX 17 1 16 2 14 3 15 4 13 6 10 7 11 8 86 9 12 10 9 11 8 13 4 14
REMARK SMILES IDX 5 15 87 16 6 17 88 18 7 19 3 20 2 21 1 22 18 23 19 24 20 25
REMARK SMILES IDX 21 26 22 28 23 29 24 30 85 31 25 32 84 33 26 34 27 35 28 36
REMARK SMILES IDX 78 37 29 38 83 39 77 40 79 41 30 42 82 43 76 44 75 45 31 47
REMARK SMILES IDX 63 48 43 49 62 50 44 51 47 52 61 53 80 54 45 55 46 56 60 58
REMARK SMILES IDX 81 59 48 60 32 61 33 62 41 63 34 64 36 65 42 66 35 67 37 68
REMARK SMILES IDX 38 69 39 70 40 71 64 72 65 73 73 74 66 75 68 76 74 77 67 78
REMARK SMILES IDX 69 79 70 80 71 81 72 82 49 83 50 84 58 85 51 86 53 87 59 88
REMARK SMILES IDX 52 89 54 90 55 91 56 92 57 93
REMARK H PARENT 16 5 9 12 20 27 79 46 47 57
REMARK Flexibility Score: inf
ROOT
ATOM      1  C   UNL A   1      32.843  27.313  26.469  1.00  0.00     0.117 C 
ENDROOT
BRANCH   1   2
ATOM      2  N   UNL A   1      31.812  26.373  26.861  1.00  0.00    -0.356 N 
ATOM      3  C   UNL A   1      31.729  25.043  26.559  1.00  0.00     0.227 C 
ATOM      4  O   UNL A   1      30.605  24.540  26.554  1.00  0.00    -0.274 OA
ATOM      5  H   UNL A   1      31.082  26.738  27.413  1.00  0.00     0.163 HD
BRANCH   3   6
ATOM      6  C   UNL A   1      33.011  24.289  26.190  1.00  0.00     0.103 C 
ATOM      7  C   UNL A   1      33.842  24.282  23.870  1.00  0.00     0.104 C 
ATOM      8  C   UNL A   1      33.155  23.008  24.202  1.00  0.00    -0.006 C 
ATOM      9  C   UNL A   1      33.892  25.060  25.190  1.00  0.00     0.046 C 
ATOM     10  C   UNL A   1      32.717  23.000  25.466  1.00  0.00    -0.016 C 
BRANCH   7  11
ATOM     11  N   UNL A   1      33.217  24.991  22.776  1.00  0.00    -0.363 N 
ATOM     12  H   UNL A   1      33.102  24.492  21.935  1.00  0.00     0.162 HD
BRANCH  11  13
ATOM     13  C   UNL A   1      32.763  26.298  22.786  1.00  0.00     0.136 A 
ATOM     14  C   UNL A   1      31.051  27.883  23.046  1.00  0.00     0.221 A 
ATOM     15  N   UNL A   1      31.877  28.911  22.812  1.00  0.00    -0.201 NA
ATOM     16  C   UNL A   1      31.415  26.548  23.009  1.00  0.00     0.054 A 
ATOM     17  C   UNL A   1      33.131  28.550  22.536  1.00  0.00     0.228 A 
ATOM     18  C   UNL A   1      30.426  25.450  23.241  1.00  0.00     0.054 C 
ATOM     19  N   UNL A   1      33.621  27.301  22.558  1.00  0.00    -0.219 NA
BRANCH  14  20
ATOM     20  O   UNL A   1      29.733  28.211  23.253  1.00  0.00    -0.478 OA
BRANCH  20  21
ATOM     21  C   UNL A   1      29.511  29.601  23.008  1.00  0.00     0.228 C 
ATOM     22  C   UNL A   1      28.396  29.737  21.981  1.00  0.00     0.049 C 
ENDBRANCH  20  21
ENDBRANCH  14  20
ENDBRANCH  11  13
ENDBRANCH   7  11
ENDBRANCH   3   6
ENDBRANCH   1   2
BRANCH   1  23
ATOM     23  C   UNL A   1      32.318  28.743  26.533  1.00  0.00     0.042 C 
BRANCH  23  24
ATOM     24  C   UNL A   1      33.273  29.774  25.939  1.00  0.00     0.118 C 
BRANCH  24  25
ATOM     25  N   UNL A   1      33.059  31.110  26.481  1.00  0.00    -0.352 N 
ATOM     26  C   UNL A   1      33.730  31.764  27.482  1.00  0.00     0.251 C 
ATOM     27  H   UNL A   1      32.324  31.617  26.067  1.00  0.00     0.163 HD
ATOM     28  O   UNL A   1      33.274  32.814  27.934  1.00  0.00    -0.269 OA
BRANCH  26  29
ATOM     29  C   UNL A   1      34.983  31.203  28.028  1.00  0.00     0.039 A 
ATOM     30  C   UNL A   1      36.145  31.977  27.986  1.00  0.00     0.014 A 
ATOM     31  C   UNL A   1      35.017  29.917  28.574  1.00  0.00     0.014 A 
ATOM     32  C   UNL A   1      37.325  31.486  28.549  1.00  0.00     0.010 A 
ATOM     33  C   UNL A   1      36.171  29.462  29.206  1.00  0.00     0.010 A 
ATOM     34  C   UNL A   1      37.339  30.239  29.196  1.00  0.00    -0.014 A 
BRANCH  34  35
ATOM     35  C   UNL A   1      38.560  29.741  29.882  1.00  0.00     0.031 A 
ATOM     36  C   UNL A   1      38.982  30.323  31.204  1.00  0.00     0.074 A 
ATOM     37  C   UNL A   1      39.333  28.819  29.274  1.00  0.00     0.049 A 
ATOM     38  N   UNL A   1      40.047  30.062  31.917  1.00  0.00    -0.248 NA
ATOM     39  C   UNL A   1      38.106  31.352  31.791  1.00  0.00     0.031 C 
ATOM     40  C   UNL A   1      39.073  28.231  27.957  1.00  0.00     0.029 A 
ATOM     41  N   UNL A   1      40.512  28.236  29.669  1.00  0.00    -0.354 N 
ATOM     42  C   UNL A   1      39.984  30.908  33.019  1.00  0.00     0.074 A 
ATOM     43  C   UNL A   1      38.798  31.720  32.860  1.00  0.00     0.031 C 
ATOM     44  C   UNL A   1      40.060  27.374  27.655  1.00  0.00     0.029 A 
ATOM     45  C   UNL A   1      41.043  27.377  28.734  1.00  0.00     0.049 A 
ATOM     46  H   UNL A   1      40.938  28.417  30.537  1.00  0.00     0.167 HD
ATOM     47  C   UNL A   1      40.820  30.981  34.083  1.00  0.00     0.034 A 
ATOM     48  C   UNL A   1      42.198  26.682  28.736  1.00  0.00     0.034 A 
ATOM     49  C   UNL A   1      41.985  30.153  34.251  1.00  0.00     0.049 A 
ATOM     50  C   UNL A   1      43.102  26.774  29.936  1.00  0.00     0.074 A 
ATOM     51  C   UNL A   1      42.857  30.105  35.324  1.00  0.00     0.029 A 
ATOM     52  N   UNL A   1      42.447  29.238  33.318  1.00  0.00    -0.354 N 
ATOM     53  N   UNL A   1      42.947  27.470  31.036  1.00  0.00    -0.248 NA
ATOM     54  C   UNL A   1      44.323  25.956  29.911  1.00  0.00     0.031 C 
ATOM     55  C   UNL A   1      43.864  29.181  35.028  1.00  0.00     0.029 A 
ATOM     56  C   UNL A   1      43.597  28.626  33.787  1.00  0.00     0.049 A 
ATOM     57  H   UNL A   1      42.021  29.050  32.451  1.00  0.00     0.167 HD
ATOM     58  C   UNL A   1      44.028  27.144  31.848  1.00  0.00     0.074 A 
ATOM     59  C   UNL A   1      44.817  26.172  31.122  1.00  0.00     0.031 C 
ATOM     60  C   UNL A   1      44.345  27.619  33.078  1.00  0.00     0.034 A 
BRANCH  47  61
ATOM     61  C   UNL A   1      40.475  31.958  35.178  1.00  0.00     0.023 A 
ATOM     62  C   UNL A   1      41.183  33.174  35.272  1.00  0.00     0.012 A 
ATOM     63  C   UNL A   1      39.416  31.707  36.073  1.00  0.00     0.148 A 
ATOM     64  C   UNL A   1      40.871  34.106  36.259  1.00  0.00     0.002 A 
ATOM     65  C   UNL A   1      39.078  32.662  37.024  1.00  0.00     0.091 A 
ATOM     66  F   UNL A   1      38.764  30.539  35.979  1.00  0.00    -0.205 F 
ATOM     67  C   UNL A   1      39.813  33.856  37.128  1.00  0.00     0.022 A 
BRANCH  65  68
ATOM     68  S   UNL A   1      37.680  32.474  38.136  1.00  0.00     0.127 S 
ATOM     69  O   UNL A   1      36.574  32.944  37.302  1.00  0.00    -0.237 OA
ATOM     70  O   UNL A   1      37.681  31.033  38.388  1.00  0.00    -0.237 OA
ATOM     71  O   UNL A   1      37.977  33.297  39.300  1.00  0.00    -0.744 OA
ENDBRANCH  65  68
ENDBRANCH  47  61
BRANCH  48  72
ATOM     72  C   UNL A   1      42.548  25.806  27.582  1.00  0.00     0.023 A 
ATOM     73  C   UNL A   1      43.366  26.307  26.551  1.00  0.00     0.012 A 
ATOM     74  C   UNL A   1      42.080  24.479  27.504  1.00  0.00     0.148 A 
ATOM     75  C   UNL A   1      43.677  25.518  25.442  1.00  0.00     0.002 A 
ATOM     76  C   UNL A   1      42.442  23.680  26.427  1.00  0.00     0.091 A 
ATOM     77  F   UNL A   1      41.295  24.023  28.490  1.00  0.00    -0.205 F 
ATOM     78  C   UNL A   1      43.223  24.204  25.384  1.00  0.00     0.022 A 
BRANCH  76  79
ATOM     79  S   UNL A   1      42.015  21.938  26.335  1.00  0.00     0.127 S 
ATOM     80  O   UNL A   1      42.897  21.469  25.269  1.00  0.00    -0.237 OA
ATOM     81  O   UNL A   1      42.366  21.469  27.676  1.00  0.00    -0.237 OA
ATOM     82  O   UNL A   1      40.589  21.898  26.040  1.00  0.00    -0.744 OA
ENDBRANCH  76  79
ENDBRANCH  48  72
BRANCH  60  83
ATOM     83  C   UNL A   1      45.573  27.059  33.747  1.00  0.00     0.023 A 
ATOM     84  C   UNL A   1      46.812  27.715  33.612  1.00  0.00     0.012 A 
ATOM     85  C   UNL A   1      45.482  25.919  34.572  1.00  0.00     0.148 A 
ATOM     86  C   UNL A   1      47.948  27.224  34.255  1.00  0.00     0.002 A 
ATOM     87  C   UNL A   1      46.605  25.468  35.252  1.00  0.00     0.091 A 
ATOM     88  F   UNL A   1      44.296  25.300  34.674  1.00  0.00    -0.205 F 
ATOM     89  C   UNL A   1      47.842  26.111  35.084  1.00  0.00     0.022 A 
BRANCH  87  90
ATOM     90  S   UNL A   1      46.544  24.101  36.416  1.00  0.00     0.127 S 
ATOM     91  O   UNL A   1      45.889  23.063  35.623  1.00  0.00    -0.237 OA
ATOM     92  O   UNL A   1      47.963  23.861  36.683  1.00  0.00    -0.237 OA
ATOM     93  O   UNL A   1      45.785  24.581  37.563  1.00  0.00    -0.744 OA
ENDBRANCH  87  90
ENDBRANCH  60  83
ENDBRANCH  34  35
ENDBRANCH  26  29
ENDBRANCH  24  25
ENDBRANCH  23  24
ENDBRANCH   1  23
TORSDOF 17
ENDMDL
MODEL 3
REMARK VINA RESULT:     -10.7      5.827     11.495
REMARK SMILES CCOc1ncnc(N[C@@H]2C=C[C@H](C(=O)NCCCNC(=O)c3ccc(-c4c5nc(c(-c6cccc(S(=O)(=O)[O-])c6F)c6ccc([nH]6)c(-c6cccc(S(=O)(=O)[O-])c6F)c6nc(c(-c7cccc(S(=O)(=O)[O-])c7F)c7ccc4[nH]7)C=C6)C=C5)cc3)C2)c1C
REMARK SMILES IDX 17 1 16 2 14 3 15 4 13 6 10 7 11 8 86 9 12 10 9 11 8 13 4 14
REMARK SMILES IDX 5 15 87 16 6 17 88 18 7 19 3 20 2 21 1 22 18 23 19 24 20 25
REMARK SMILES IDX 21 26 22 28 23 29 24 30 85 31 25 32 84 33 26 34 27 35 28 36
REMARK SMILES IDX 78 37 29 38 83 39 77 40 79 41 30 42 82 43 76 44 75 45 31 47
REMARK SMILES IDX 63 48 43 49 62 50 44 51 47 52 61 53 80 54 45 55 46 56 60 58
REMARK SMILES IDX 81 59 48 60 32 61 33 62 41 63 34 64 36 65 42 66 35 67 37 68
REMARK SMILES IDX 38 69 39 70 40 71 64 72 65 73 73 74 66 75 68 76 74 77 67 78
REMARK SMILES IDX 69 79 70 80 71 81 72 82 49 83 50 84 58 85 51 86 53 87 59 88
REMARK SMILES IDX 52 89 54 90 55 91 56 92 57 93
REMARK H PARENT 16 5 9 12 20 27 79 46 47 57
REMARK Flexibility Score: inf
ROOT
ATOM      1  C   UNL A   1      31.032  30.574  25.943  1.00  0.00     0.117 C 
ENDROOT
BRANCH   1   2
ATOM      2  N   UNL A   1      32.015  30.113  24.982  1.00  0.00    -0.356 N 
ATOM      3  C   UNL A   1      32.177  28.850  24.487  1.00  0.00     0.227 C 
ATOM      4  O   UNL A   1      33.301  28.547  24.086  1.00  0.00    -0.274 OA
ATOM      5  H   UNL A   1      32.642  30.794  24.644  1.00  0.00     0.163 HD
BRANCH   3   6
ATOM      6  C   UNL A   1      30.987  27.886  24.521  1.00  0.00     0.103 C 
ATOM      7  C   UNL A   1      31.343  25.447  24.528  1.00  0.00     0.104 C 
ATOM      8  C   UNL A   1      30.948  25.932  23.182  1.00  0.00    -0.006 C 
ATOM      9  C   UNL A   1      31.224  26.673  25.440  1.00  0.00     0.046 C 
ATOM     10  C   UNL A   1      30.736  27.252  23.176  1.00  0.00    -0.016 C 
BRANCH   7  11
ATOM     11  N   UNL A   1      32.642  24.811  24.540  1.00  0.00    -0.363 N 
ATOM     12  H   UNL A   1      33.358  25.260  24.035  1.00  0.00     0.162 HD
BRANCH  11  13
ATOM     13  C   UNL A   1      32.985  23.637  25.187  1.00  0.00     0.136 A 
ATOM     14  C   UNL A   1      33.594  21.371  25.158  1.00  0.00     0.221 A 
ATOM     15  N   UNL A   1      33.676  21.307  26.493  1.00  0.00    -0.201 NA
ATOM     16  C   UNL A   1      33.215  22.491  24.438  1.00  0.00     0.054 A 
ATOM     17  C   UNL A   1      33.362  22.446  27.112  1.00  0.00     0.228 A 
ATOM     18  C   UNL A   1      33.106  22.475  22.946  1.00  0.00     0.054 C 
ATOM     19  N   UNL A   1      33.067  23.615  26.524  1.00  0.00    -0.219 NA
BRANCH  14  20
ATOM     20  O   UNL A   1      33.831  20.195  24.488  1.00  0.00    -0.478 OA
BRANCH  20  21
ATOM     21  C   UNL A   1      32.909  19.183  24.897  1.00  0.00     0.228 C 
ATOM     22  C   UNL A   1      32.530  18.354  23.679  1.00  0.00     0.049 C 
ENDBRANCH  20  21
ENDBRANCH  14  20
ENDBRANCH  11  13
ENDBRANCH   7  11
ENDBRANCH   3   6
ENDBRANCH   1   2
BRANCH   1  23
ATOM     23  C   UNL A   1      31.211  32.063  26.220  1.00  0.00     0.042 C 
BRANCH  23  24
ATOM     24  C   UNL A   1      32.489  32.394  26.986  1.00  0.00     0.118 C 
BRANCH  24  25
ATOM     25  N   UNL A   1      32.526  33.780  27.435  1.00  0.00    -0.352 N 
ATOM     26  C   UNL A   1      33.339  34.376  28.364  1.00  0.00     0.251 C 
ATOM     27  H   UNL A   1      31.870  34.377  27.007  1.00  0.00     0.163 HD
ATOM     28  O   UNL A   1      33.086  35.516  28.751  1.00  0.00    -0.269 OA
BRANCH  26  29
ATOM     29  C   UNL A   1      34.502  33.647  28.912  1.00  0.00     0.039 A 
ATOM     30  C   UNL A   1      35.785  34.143  28.672  1.00  0.00     0.014 A 
ATOM     31  C   UNL A   1      34.331  32.475  29.654  1.00  0.00     0.014 A 
ATOM     32  C   UNL A   1      36.892  33.500  29.230  1.00  0.00     0.010 A 
ATOM     33  C   UNL A   1      35.426  31.882  30.275  1.00  0.00     0.010 A 
ATOM     34  C   UNL A   1      36.719  32.384  30.067  1.00  0.00    -0.014 A 
BRANCH  34  35
ATOM     35  C   UNL A   1      37.876  31.743  30.744  1.00  0.00     0.031 A 
ATOM     36  C   UNL A   1      38.666  30.668  30.047  1.00  0.00     0.074 A 
ATOM     37  C   UNL A   1      38.165  32.073  32.019  1.00  0.00     0.049 A 
ATOM     38  N   UNL A   1      39.663  29.953  30.501  1.00  0.00    -0.248 NA
ATOM     39  C   UNL A   1      38.270  30.335  28.668  1.00  0.00     0.031 C 
ATOM     40  C   UNL A   1      37.429  33.046  32.829  1.00  0.00     0.029 A 
ATOM     41  N   UNL A   1      39.138  31.605  32.867  1.00  0.00    -0.354 N 
ATOM     42  C   UNL A   1      39.995  29.070  29.479  1.00  0.00     0.074 A 
ATOM     43  C   UNL A   1      39.067  29.312  28.396  1.00  0.00     0.031 C 
ATOM     44  C   UNL A   1      37.974  33.102  34.054  1.00  0.00     0.029 A 
ATOM     45  C   UNL A   1      39.073  32.145  34.132  1.00  0.00     0.049 A 
ATOM     46  H   UNL A   1      39.816  30.944  32.598  1.00  0.00     0.167 HD
ATOM     47  C   UNL A   1      41.000  28.163  29.432  1.00  0.00     0.034 A 
ATOM     48  C   UNL A   1      39.804  31.887  35.234  1.00  0.00     0.034 A 
ATOM     49  C   UNL A   1      41.937  27.943  30.502  1.00  0.00     0.049 A 
ATOM     50  C   UNL A   1      40.921  30.882  35.151  1.00  0.00     0.074 A 
ATOM     51  C   UNL A   1      43.030  27.095  30.525  1.00  0.00     0.029 A 
ATOM     52  N   UNL A   1      41.888  28.566  31.739  1.00  0.00    -0.354 N 
ATOM     53  N   UNL A   1      41.313  30.165  34.126  1.00  0.00    -0.248 NA
ATOM     54  C   UNL A   1      41.722  30.677  36.366  1.00  0.00     0.031 C 
ATOM     55  C   UNL A   1      43.625  27.183  31.788  1.00  0.00     0.029 A 
ATOM     56  C   UNL A   1      42.925  28.115  32.537  1.00  0.00     0.049 A 
ATOM     57  H   UNL A   1      41.214  29.231  32.010  1.00  0.00     0.167 HD
ATOM     58  C   UNL A   1      42.427  29.456  34.560  1.00  0.00     0.074 A 
ATOM     59  C   UNL A   1      42.660  29.846  35.935  1.00  0.00     0.031 C 
ATOM     60  C   UNL A   1      43.180  28.552  33.886  1.00  0.00     0.034 A 
BRANCH  47  61
ATOM     61  C   UNL A   1      41.171  27.373  28.160  1.00  0.00     0.023 A 
ATOM     62  C   UNL A   1      41.770  27.983  27.039  1.00  0.00     0.012 A 
ATOM     63  C   UNL A   1      40.800  26.016  28.089  1.00  0.00     0.148 A 
ATOM     64  C   UNL A   1      41.962  27.270  25.857  1.00  0.00     0.002 A 
ATOM     65  C   UNL A   1      41.039  25.297  26.924  1.00  0.00     0.091 A 
ATOM     66  F   UNL A   1      40.217  25.455  29.159  1.00  0.00    -0.205 F 
ATOM     67  C   UNL A   1      41.607  25.926  25.803  1.00  0.00     0.022 A 
BRANCH  65  68
ATOM     68  S   UNL A   1      40.695  23.540  26.777  1.00  0.00     0.127 S 
ATOM     69  O   UNL A   1      41.587  23.155  25.683  1.00  0.00    -0.237 OA
ATOM     70  O   UNL A   1      41.095  23.039  28.093  1.00  0.00    -0.237 OA
ATOM     71  O   UNL A   1      39.272  23.430  26.490  1.00  0.00    -0.744 OA
ENDBRANCH  65  68
ENDBRANCH  47  61
BRANCH  48  72
ATOM     72  C   UNL A   1      39.531  32.621  36.503  1.00  0.00     0.023 A 
ATOM     73  C   UNL A   1      40.242  33.803  36.789  1.00  0.00     0.012 A 
ATOM     74  C   UNL A   1      38.570  32.159  37.422  1.00  0.00     0.148 A 
ATOM     75  C   UNL A   1      40.031  34.488  37.988  1.00  0.00     0.002 A 
ATOM     76  C   UNL A   1      38.323  32.877  38.586  1.00  0.00     0.091 A 
ATOM     77  F   UNL A   1      37.911  31.027  37.138  1.00  0.00    -0.205 F 
ATOM     78  C   UNL A   1      39.067  34.030  38.880  1.00  0.00     0.022 A 
BRANCH  76  79
ATOM     79  S   UNL A   1      37.008  32.437  39.727  1.00  0.00     0.127 S 
ATOM     80  O   UNL A   1      35.836  32.458  38.856  1.00  0.00    -0.237 OA
ATOM     81  O   UNL A   1      37.424  31.106  40.170  1.00  0.00    -0.237 OA
ATOM     82  O   UNL A   1      37.039  33.453  40.772  1.00  0.00    -0.744 OA
ENDBRANCH  76  79
ENDBRANCH  48  72
BRANCH  60  83
ATOM     83  C   UNL A   1      44.362  27.954  34.603  1.00  0.00     0.023 A 
ATOM     84  C   UNL A   1      45.561  28.684  34.720  1.00  0.00     0.012 A 
ATOM     85  C   UNL A   1      44.258  26.693  35.226  1.00  0.00     0.148 A 
ATOM     86  C   UNL A   1      46.650  28.154  35.412  1.00  0.00     0.002 A 
ATOM     87  C   UNL A   1      45.327  26.195  35.958  1.00  0.00     0.091 A 
ATOM     88  F   UNL A   1      43.114  26.006  35.089  1.00  0.00    -0.205 F 
ATOM     89  C   UNL A   1      46.529  26.917  36.041  1.00  0.00     0.022 A 
BRANCH  87  90
ATOM     90  S   UNL A   1      45.232  24.658  36.882  1.00  0.00     0.127 S 
ATOM     91  O   UNL A   1      46.549  24.607  37.514  1.00  0.00    -0.237 OA
ATOM     92  O   UNL A   1      44.124  24.918  37.802  1.00  0.00    -0.237 OA
ATOM     93  O   UNL A   1      44.972  23.612  35.901  1.00  0.00    -0.744 OA
ENDBRANCH  87  90
ENDBRANCH  60  83
ENDBRANCH  34  35
ENDBRANCH  26  29
ENDBRANCH  24  25
ENDBRANCH  23  24
ENDBRANCH   1  23
TORSDOF 17
ENDMDL
