MODEL 1
REMARK VINA RESULT:     -13.9      0.000      0.000
REMARK SMILES Cc1nc(-c2ccccc2)sc1C(=O)N[C@@H](CC1=c2ccccc2=NC1)C(=O)NCCCNC(=O)c1ccc(-c2c3nc(c(-c4cccc(S(=O)(=O)[O-])c4F)c4ccc([nH]4)c(-c4cccc(S(=O)(=O)[O-])c4F)c4nc(c(-c5cccc(S(=O)(=O)[O-])c5F)c5ccc2[nH]5)C=C4)C=C3)cc1
REMARK SMILES IDX 31 1 30 2 29 3 27 4 28 5 16 7 15 8 13 9 14 10 12 12 1 13
REMARK SMILES IDX 2 14 3 15 4 16 11 17 5 18 6 19 10 20 7 21 9 22 8 23 17 24
REMARK SMILES IDX 18 25 19 26 26 27 20 28 24 29 25 30 21 31 23 32 22 33 32 34
REMARK SMILES IDX 33 35 34 36 35 38 36 39 37 40 98 41 38 42 97 43 39 44 40 45
REMARK SMILES IDX 41 46 91 47 42 48 96 49 90 50 92 51 43 52 95 53 89 54 88 55
REMARK SMILES IDX 44 57 76 58 56 59 75 60 57 61 60 62 74 63 93 64 58 65 59 66
REMARK SMILES IDX 73 68 94 69 61 70 45 71 46 72 54 73 47 74 49 75 55 76 48 77
REMARK SMILES IDX 50 78 51 79 52 80 53 81 77 82 78 83 86 84 79 85 81 86 87 87
REMARK SMILES IDX 80 88 82 89 83 90 84 91 85 92 62 93 63 94 71 95 64 96 66 97
REMARK SMILES IDX 72 98 65 99 67 100 68 101 69 102 70 103
REMARK H PARENT 29 6 15 11 33 37 92 56 60 67
REMARK Flexibility Score: inf
ROOT
ATOM      1  C   UNL A   1      31.616  29.725  26.851  1.00  0.00     0.042 C 
ENDROOT
BRANCH   1   2
ATOM      2  C   UNL A   1      31.765  28.345  26.272  1.00  0.00     0.117 C 
BRANCH   2   3
ATOM      3  N   UNL A   1      32.922  28.152  25.438  1.00  0.00    -0.354 N 
ATOM      4  C   UNL A   1      33.113  27.209  24.481  1.00  0.00     0.242 C 
ATOM      5  O   UNL A   1      34.006  27.419  23.652  1.00  0.00    -0.273 OA
ATOM      6  H   UNL A   1      33.666  28.782  25.578  1.00  0.00     0.163 HD
BRANCH   4   7
ATOM      7  C   UNL A   1      32.243  25.939  24.370  1.00  0.00     0.175 C 
BRANCH   7   8
ATOM      8  N   UNL A   1      31.824  25.360  25.631  1.00  0.00    -0.339 N 
ATOM      9  C   UNL A   1      32.004  24.129  26.204  1.00  0.00     0.263 C 
ATOM     10  O   UNL A   1      31.365  24.013  27.258  1.00  0.00    -0.268 OA
ATOM     11  H   UNL A   1      31.302  25.980  26.191  1.00  0.00     0.164 HD
BRANCH   9  12
ATOM     12  C   UNL A   1      32.849  23.052  25.684  1.00  0.00     0.115 A 
ATOM     13  C   UNL A   1      35.443  23.603  25.474  1.00  0.00     0.068 C 
ATOM     14  C   UNL A   1      34.197  22.796  25.408  1.00  0.00     0.062 A 
ATOM     15  N   UNL A   1      34.471  21.513  24.972  1.00  0.00    -0.241 NA
ATOM     16  C   UNL A   1      33.384  20.807  24.826  1.00  0.00     0.124 A 
ATOM     17  S   UNL A   1      31.947  21.604  25.228  1.00  0.00    -0.108 S 
BRANCH  16  18
ATOM     18  C   UNL A   1      33.433  19.429  24.362  1.00  0.00     0.010 A 
ATOM     19  C   UNL A   1      34.540  18.646  24.719  1.00  0.00     0.011 A 
ATOM     20  C   UNL A   1      32.517  18.944  23.423  1.00  0.00     0.011 A 
ATOM     21  C   UNL A   1      34.746  17.403  24.127  1.00  0.00     0.001 A 
ATOM     22  C   UNL A   1      32.730  17.700  22.824  1.00  0.00     0.001 A 
ATOM     23  C   UNL A   1      33.847  16.937  23.169  1.00  0.00     0.000 A 
ENDBRANCH  16  18
ENDBRANCH   9  12
ENDBRANCH   7   8
BRANCH   7  24
ATOM     24  C   UNL A   1      31.129  25.930  23.287  1.00  0.00     0.068 C 
BRANCH  24  25
ATOM     25  C   UNL A   1      29.926  26.805  23.471  1.00  0.00    -0.037 C 
ATOM     26  C   UNL A   1      29.721  28.062  23.075  1.00  0.00     0.001 A 
ATOM     27  C   UNL A   1      28.678  26.248  24.094  1.00  0.00     0.174 C 
ATOM     28  C   UNL A   1      30.504  29.066  22.426  1.00  0.00     0.010 A 
ATOM     29  C   UNL A   1      28.256  28.197  23.208  1.00  0.00     0.065 A 
ATOM     30  N   UNL A   1      27.617  27.235  23.799  1.00  0.00    -0.280 NA
ATOM     31  C   UNL A   1      29.876  30.096  21.838  1.00  0.00     0.001 A 
ATOM     32  C   UNL A   1      27.638  29.362  22.536  1.00  0.00     0.028 A 
ATOM     33  C   UNL A   1      28.428  30.217  21.864  1.00  0.00     0.002 A 
ENDBRANCH  24  25
ENDBRANCH   7  24
ENDBRANCH   4   7
ENDBRANCH   2   3
ENDBRANCH   1   2
BRANCH   1  34
ATOM     34  C   UNL A   1      32.446  30.768  26.135  1.00  0.00     0.118 C 
BRANCH  34  35
ATOM     35  N   UNL A   1      32.301  32.114  26.684  1.00  0.00    -0.352 N 
ATOM     36  C   UNL A   1      33.093  32.817  27.565  1.00  0.00     0.251 C 
ATOM     37  H   UNL A   1      31.503  32.599  26.373  1.00  0.00     0.163 HD
ATOM     38  O   UNL A   1      32.723  33.894  27.995  1.00  0.00    -0.269 OA
BRANCH  36  39
ATOM     39  C   UNL A   1      34.380  32.235  28.007  1.00  0.00     0.039 A 
ATOM     40  C   UNL A   1      35.511  33.050  28.074  1.00  0.00     0.014 A 
ATOM     41  C   UNL A   1      34.453  30.902  28.403  1.00  0.00     0.014 A 
ATOM     42  C   UNL A   1      36.685  32.543  28.631  1.00  0.00     0.010 A 
ATOM     43  C   UNL A   1      35.561  30.455  29.103  1.00  0.00     0.010 A 
ATOM     44  C   UNL A   1      36.702  31.258  29.201  1.00  0.00    -0.014 A 
BRANCH  44  45
ATOM     45  C   UNL A   1      37.904  30.731  29.894  1.00  0.00     0.031 A 
ATOM     46  C   UNL A   1      38.220  31.169  31.301  1.00  0.00     0.074 A 
ATOM     47  C   UNL A   1      38.753  29.925  29.226  1.00  0.00     0.049 A 
ATOM     48  N   UNL A   1      39.227  30.827  32.061  1.00  0.00    -0.248 NA
ATOM     49  C   UNL A   1      37.316  32.153  31.923  1.00  0.00     0.031 C 
ATOM     50  C   UNL A   1      38.621  29.531  27.819  1.00  0.00     0.029 A 
ATOM     51  N   UNL A   1      39.903  29.301  29.635  1.00  0.00    -0.354 N 
ATOM     52  C   UNL A   1      39.099  31.581  33.221  1.00  0.00     0.074 A 
ATOM     53  C   UNL A   1      37.956  32.446  33.044  1.00  0.00     0.031 C 
ATOM     54  C   UNL A   1      39.626  28.704  27.496  1.00  0.00     0.029 A 
ATOM     55  C   UNL A   1      40.491  28.530  28.658  1.00  0.00     0.049 A 
ATOM     56  H   UNL A   1      40.274  29.394  30.542  1.00  0.00     0.167 HD
ATOM     57  C   UNL A   1      39.836  31.528  34.356  1.00  0.00     0.034 A 
ATOM     58  C   UNL A   1      41.595  27.760  28.701  1.00  0.00     0.034 A 
ATOM     59  C   UNL A   1      40.930  30.618  34.550  1.00  0.00     0.049 A 
ATOM     60  C   UNL A   1      42.344  27.649  30.000  1.00  0.00     0.074 A 
ATOM     61  C   UNL A   1      41.676  30.398  35.693  1.00  0.00     0.029 A 
ATOM     62  N   UNL A   1      41.437  29.777  33.571  1.00  0.00    -0.354 N 
ATOM     63  N   UNL A   1      42.097  28.233  31.148  1.00  0.00    -0.248 NA
ATOM     64  C   UNL A   1      43.499  26.741  30.023  1.00  0.00     0.031 C 
ATOM     65  C   UNL A   1      42.649  29.438  35.398  1.00  0.00     0.029 A 
ATOM     66  C   UNL A   1      42.492  29.041  34.079  1.00  0.00     0.049 A 
ATOM     67  H   UNL A   1      41.095  29.713  32.650  1.00  0.00     0.167 HD
ATOM     68  C   UNL A   1      43.048  27.745  32.036  1.00  0.00     0.074 A 
ATOM     69  C   UNL A   1      43.852  26.791  31.299  1.00  0.00     0.031 C 
ATOM     70  C   UNL A   1      43.254  28.070  33.337  1.00  0.00     0.034 A 
BRANCH  57  71
ATOM     71  C   UNL A   1      39.433  32.431  35.494  1.00  0.00     0.023 A 
ATOM     72  C   UNL A   1      38.565  31.946  36.495  1.00  0.00     0.012 A 
ATOM     73  C   UNL A   1      39.936  33.742  35.595  1.00  0.00     0.148 A 
ATOM     74  C   UNL A   1      38.171  32.762  37.555  1.00  0.00     0.002 A 
ATOM     75  C   UNL A   1      39.579  34.534  36.680  1.00  0.00     0.091 A 
ATOM     76  F   UNL A   1      40.739  34.196  34.622  1.00  0.00    -0.205 F 
ATOM     77  C   UNL A   1      38.686  34.051  37.653  1.00  0.00     0.022 A 
BRANCH  75  78
ATOM     78  S   UNL A   1      40.250  36.179  36.943  1.00  0.00     0.127 S 
ATOM     79  O   UNL A   1      39.920  36.838  35.680  1.00  0.00    -0.237 OA
ATOM     80  O   UNL A   1      39.475  36.645  38.093  1.00  0.00    -0.237 OA
ATOM     81  O   UNL A   1      41.671  35.997  37.201  1.00  0.00    -0.744 OA
ENDBRANCH  75  78
ENDBRANCH  57  71
BRANCH  58  82
ATOM     82  C   UNL A   1      41.998  26.967  27.504  1.00  0.00     0.023 A 
ATOM     83  C   UNL A   1      42.661  27.611  26.440  1.00  0.00     0.012 A 
ATOM     84  C   UNL A   1      41.767  25.580  27.429  1.00  0.00     0.148 A 
ATOM     85  C   UNL A   1      43.056  26.894  25.311  1.00  0.00     0.002 A 
ATOM     86  C   UNL A   1      42.215  24.863  26.327  1.00  0.00     0.091 A 
ATOM     87  F   UNL A   1      41.128  24.988  28.448  1.00  0.00    -0.205 F 
ATOM     88  C   UNL A   1      42.843  25.520  25.258  1.00  0.00     0.022 A 
BRANCH  86  89
ATOM     89  S   UNL A   1      42.113  23.071  26.240  1.00  0.00     0.127 S 
ATOM     90  O   UNL A   1      40.674  22.849  26.345  1.00  0.00    -0.237 OA
ATOM     91  O   UNL A   1      42.686  22.799  24.921  1.00  0.00    -0.237 OA
ATOM     92  O   UNL A   1      42.914  22.579  27.352  1.00  0.00    -0.744 OA
ENDBRANCH  86  89
ENDBRANCH  58  82
BRANCH  70  93
ATOM     93  C   UNL A   1      44.384  27.376  34.049  1.00  0.00     0.023 A 
ATOM     94  C   UNL A   1      45.684  27.916  33.985  1.00  0.00     0.012 A 
ATOM     95  C   UNL A   1      44.149  26.223  34.822  1.00  0.00     0.148 A 
ATOM     96  C   UNL A   1      46.743  27.291  34.643  1.00  0.00     0.002 A 
ATOM     97  C   UNL A   1      45.199  25.637  35.518  1.00  0.00     0.091 A 
ATOM     98  F   UNL A   1      42.909  25.716  34.857  1.00  0.00    -0.205 F 
ATOM     99  C   UNL A   1      46.499  26.160  35.417  1.00  0.00     0.022 A 
BRANCH  97 100
ATOM    100  S   UNL A   1      44.956  24.238  36.617  1.00  0.00     0.127 S 
ATOM    101  O   UNL A   1      44.061  24.803  37.625  1.00  0.00    -0.237 OA
ATOM    102  O   UNL A   1      44.333  23.251  35.733  1.00  0.00    -0.237 OA
ATOM    103  O   UNL A   1      46.281  23.867  37.091  1.00  0.00    -0.744 OA
ENDBRANCH  97 100
ENDBRANCH  70  93
ENDBRANCH  44  45
ENDBRANCH  36  39
ENDBRANCH  34  35
ENDBRANCH   1  34
TORSDOF 18
ENDMDL
MODEL 2
REMARK VINA RESULT:     -13.7      2.588      3.556
REMARK SMILES Cc1nc(-c2ccccc2)sc1C(=O)N[C@@H](CC1=c2ccccc2=NC1)C(=O)NCCCNC(=O)c1ccc(-c2c3nc(c(-c4cccc(S(=O)(=O)[O-])c4F)c4ccc([nH]4)c(-c4cccc(S(=O)(=O)[O-])c4F)c4nc(c(-c5cccc(S(=O)(=O)[O-])c5F)c5ccc2[nH]5)C=C4)C=C3)cc1
REMARK SMILES IDX 31 1 30 2 29 3 27 4 28 5 16 7 15 8 13 9 14 10 12 12 1 13
REMARK SMILES IDX 2 14 3 15 4 16 11 17 5 18 6 19 10 20 7 21 9 22 8 23 17 24
REMARK SMILES IDX 18 25 19 26 26 27 20 28 24 29 25 30 21 31 23 32 22 33 32 34
REMARK SMILES IDX 33 35 34 36 35 38 36 39 37 40 98 41 38 42 97 43 39 44 40 45
REMARK SMILES IDX 41 46 91 47 42 48 96 49 90 50 92 51 43 52 95 53 89 54 88 55
REMARK SMILES IDX 44 57 76 58 56 59 75 60 57 61 60 62 74 63 93 64 58 65 59 66
REMARK SMILES IDX 73 68 94 69 61 70 45 71 46 72 54 73 47 74 49 75 55 76 48 77
REMARK SMILES IDX 50 78 51 79 52 80 53 81 77 82 78 83 86 84 79 85 81 86 87 87
REMARK SMILES IDX 80 88 82 89 83 90 84 91 85 92 62 93 63 94 71 95 64 96 66 97
REMARK SMILES IDX 72 98 65 99 67 100 68 101 69 102 70 103
REMARK H PARENT 29 6 15 11 33 37 92 56 60 67
REMARK Flexibility Score: inf
ROOT
ATOM      1  C   UNL A   1      32.460  28.569  25.848  1.00  0.00     0.042 C 
ENDROOT
BRANCH   1   2
ATOM      2  C   UNL A   1      32.442  27.067  25.921  1.00  0.00     0.117 C 
BRANCH   2   3
ATOM      3  N   UNL A   1      31.288  26.500  26.568  1.00  0.00    -0.354 N 
ATOM      4  C   UNL A   1      30.286  25.779  26.004  1.00  0.00     0.242 C 
ATOM      5  O   UNL A   1      29.586  25.097  26.762  1.00  0.00    -0.273 OA
ATOM      6  H   UNL A   1      31.218  26.652  27.538  1.00  0.00     0.163 HD
BRANCH   4   7
ATOM      7  C   UNL A   1      30.029  25.747  24.482  1.00  0.00     0.175 C 
BRANCH   7   8
ATOM      8  N   UNL A   1      30.073  24.433  23.872  1.00  0.00    -0.339 N 
ATOM      9  C   UNL A   1      31.098  23.639  23.430  1.00  0.00     0.263 C 
ATOM     10  O   UNL A   1      30.680  22.625  22.854  1.00  0.00    -0.268 OA
ATOM     11  H   UNL A   1      29.183  24.029  23.749  1.00  0.00     0.164 HD
BRANCH   9  12
ATOM     12  C   UNL A   1      32.528  23.900  23.606  1.00  0.00     0.115 A 
ATOM     13  C   UNL A   1      33.464  26.103  22.445  1.00  0.00     0.068 C 
ATOM     14  C   UNL A   1      33.485  24.861  23.261  1.00  0.00     0.062 A 
ATOM     15  N   UNL A   1      34.748  24.640  23.777  1.00  0.00    -0.241 NA
ATOM     16  C   UNL A   1      34.816  23.513  24.429  1.00  0.00     0.124 A 
ATOM     17  S   UNL A   1      33.369  22.638  24.512  1.00  0.00    -0.108 S 
BRANCH  16  18
ATOM     18  C   UNL A   1      36.056  23.069  25.048  1.00  0.00     0.010 A 
ATOM     19  C   UNL A   1      36.782  23.988  25.818  1.00  0.00     0.011 A 
ATOM     20  C   UNL A   1      36.626  21.831  24.730  1.00  0.00     0.011 A 
ATOM     21  C   UNL A   1      38.072  23.688  26.246  1.00  0.00     0.001 A 
ATOM     22  C   UNL A   1      37.923  21.535  25.153  1.00  0.00     0.001 A 
ATOM     23  C   UNL A   1      38.647  22.466  25.901  1.00  0.00     0.000 A 
ENDBRANCH  16  18
ENDBRANCH   9  12
ENDBRANCH   7   8
BRANCH   7  24
ATOM     24  C   UNL A   1      28.886  26.644  23.933  1.00  0.00     0.068 C 
BRANCH  24  25
ATOM     25  C   UNL A   1      29.235  27.851  23.115  1.00  0.00    -0.037 C 
ATOM     26  C   UNL A   1      28.601  29.019  23.011  1.00  0.00     0.001 A 
ATOM     27  C   UNL A   1      30.521  27.888  22.339  1.00  0.00     0.174 C 
ATOM     28  C   UNL A   1      27.385  29.567  23.523  1.00  0.00     0.010 A 
ATOM     29  C   UNL A   1      29.628  29.878  22.388  1.00  0.00     0.065 A 
ATOM     30  N   UNL A   1      30.711  29.305  21.959  1.00  0.00    -0.280 NA
ATOM     31  C   UNL A   1      27.228  30.900  23.528  1.00  0.00     0.001 A 
ATOM     32  C   UNL A   1      29.381  31.337  22.430  1.00  0.00     0.028 A 
ATOM     33  C   UNL A   1      28.256  31.788  23.012  1.00  0.00     0.002 A 
ENDBRANCH  24  25
ENDBRANCH   7  24
ENDBRANCH   4   7
ENDBRANCH   2   3
ENDBRANCH   1   2
BRANCH   1  34
ATOM     34  C   UNL A   1      33.829  29.164  26.091  1.00  0.00     0.118 C 
BRANCH  34  35
ATOM     35  N   UNL A   1      33.797  30.450  26.783  1.00  0.00    -0.352 N 
ATOM     36  C   UNL A   1      34.648  30.987  27.725  1.00  0.00     0.251 C 
ATOM     37  H   UNL A   1      33.041  31.030  26.536  1.00  0.00     0.163 HD
ATOM     38  O   UNL A   1      34.370  32.038  28.274  1.00  0.00    -0.269 OA
BRANCH  36  39
ATOM     39  C   UNL A   1      35.883  30.257  28.087  1.00  0.00     0.039 A 
ATOM     40  C   UNL A   1      36.999  30.349  27.254  1.00  0.00     0.014 A 
ATOM     41  C   UNL A   1      35.951  29.528  29.272  1.00  0.00     0.014 A 
ATOM     42  C   UNL A   1      38.207  29.785  27.667  1.00  0.00     0.010 A 
ATOM     43  C   UNL A   1      37.184  29.118  29.753  1.00  0.00     0.010 A 
ATOM     44  C   UNL A   1      38.322  29.214  28.946  1.00  0.00    -0.014 A 
BRANCH  44  45
ATOM     45  C   UNL A   1      39.619  28.702  29.455  1.00  0.00     0.031 A 
ATOM     46  C   UNL A   1      40.316  29.404  30.592  1.00  0.00     0.074 A 
ATOM     47  C   UNL A   1      40.206  27.657  28.838  1.00  0.00     0.049 A 
ATOM     48  N   UNL A   1      41.456  29.113  31.162  1.00  0.00    -0.248 NA
ATOM     49  C   UNL A   1      39.678  30.618  31.133  1.00  0.00     0.031 C 
ATOM     50  C   UNL A   1      39.690  26.974  27.648  1.00  0.00     0.029 A 
ATOM     51  N   UNL A   1      41.373  26.994  29.118  1.00  0.00    -0.354 N 
ATOM     52  C   UNL A   1      41.686  30.123  32.088  1.00  0.00     0.074 A 
ATOM     53  C   UNL A   1      40.603  31.070  31.963  1.00  0.00     0.031 C 
ATOM     54  C   UNL A   1      40.514  25.966  27.325  1.00  0.00     0.029 A 
ATOM     55  C   UNL A   1      41.632  25.948  28.262  1.00  0.00     0.049 A 
ATOM     56  H   UNL A   1      41.969  27.242  29.860  1.00  0.00     0.167 HD
ATOM     57  C   UNL A   1      42.683  30.232  32.998  1.00  0.00     0.034 A 
ATOM     58  C   UNL A   1      42.650  25.066  28.245  1.00  0.00     0.034 A 
ATOM     59  C   UNL A   1      43.720  29.251  33.161  1.00  0.00     0.049 A 
ATOM     60  C   UNL A   1      43.697  25.156  29.321  1.00  0.00     0.074 A 
ATOM     61  C   UNL A   1      44.715  29.200  34.118  1.00  0.00     0.029 A 
ATOM     62  N   UNL A   1      43.895  28.148  32.339  1.00  0.00    -0.354 N 
ATOM     63  N   UNL A   1      43.796  26.015  30.306  1.00  0.00    -0.248 NA
ATOM     64  C   UNL A   1      44.748  24.130  29.308  1.00  0.00     0.031 C 
ATOM     65  C   UNL A   1      45.506  28.075  33.863  1.00  0.00     0.029 A 
ATOM     66  C   UNL A   1      44.987  27.413  32.762  1.00  0.00     0.049 A 
ATOM     67  H   UNL A   1      43.325  27.922  31.569  1.00  0.00     0.167 HD
ATOM     68  C   UNL A   1      44.904  25.620  31.046  1.00  0.00     0.074 A 
ATOM     69  C   UNL A   1      45.419  24.422  30.414  1.00  0.00     0.031 C 
ATOM     70  C   UNL A   1      45.459  26.203  32.138  1.00  0.00     0.034 A 
BRANCH  57  71
ATOM     71  C   UNL A   1      42.653  31.418  33.928  1.00  0.00     0.023 A 
ATOM     72  C   UNL A   1      43.216  32.643  33.513  1.00  0.00     0.012 A 
ATOM     73  C   UNL A   1      42.040  31.335  35.193  1.00  0.00     0.148 A 
ATOM     74  C   UNL A   1      43.209  33.754  34.356  1.00  0.00     0.002 A 
ATOM     75  C   UNL A   1      41.991  32.460  36.008  1.00  0.00     0.091 A 
ATOM     76  F   UNL A   1      41.532  30.157  35.581  1.00  0.00    -0.205 F 
ATOM     77  C   UNL A   1      42.587  33.665  35.598  1.00  0.00     0.022 A 
BRANCH  75  78
ATOM     78  S   UNL A   1      41.144  32.474  37.591  1.00  0.00     0.127 S 
ATOM     79  O   UNL A   1      41.988  31.583  38.386  1.00  0.00    -0.237 OA
ATOM     80  O   UNL A   1      41.224  33.885  37.968  1.00  0.00    -0.237 OA
ATOM     81  O   UNL A   1      39.796  31.990  37.330  1.00  0.00    -0.744 OA
ENDBRANCH  75  78
ENDBRANCH  57  71
BRANCH  58  82
ATOM     82  C   UNL A   1      42.673  23.973  27.231  1.00  0.00     0.023 A 
ATOM     83  C   UNL A   1      43.287  24.201  25.983  1.00  0.00     0.012 A 
ATOM     84  C   UNL A   1      42.131  22.704  27.506  1.00  0.00     0.148 A 
ATOM     85  C   UNL A   1      43.329  23.196  25.017  1.00  0.00     0.002 A 
ATOM     86  C   UNL A   1      42.229  21.690  26.561  1.00  0.00     0.091 A 
ATOM     87  F   UNL A   1      41.544  22.509  28.696  1.00  0.00    -0.205 F 
ATOM     88  C   UNL A   1      42.811  21.939  25.309  1.00  0.00     0.022 A 
BRANCH  86  89
ATOM     89  S   UNL A   1      41.718  20.002  26.905  1.00  0.00     0.127 S 
ATOM     90  O   UNL A   1      40.358  20.197  27.401  1.00  0.00    -0.237 OA
ATOM     91  O   UNL A   1      41.811  19.382  25.583  1.00  0.00    -0.237 OA
ATOM     92  O   UNL A   1      42.679  19.492  27.873  1.00  0.00    -0.744 OA
ENDBRANCH  86  89
ENDBRANCH  58  82
BRANCH  70  93
ATOM     93  C   UNL A   1      46.680  25.545  32.724  1.00  0.00     0.023 A 
ATOM     94  C   UNL A   1      47.962  25.970  32.323  1.00  0.00     0.012 A 
ATOM     95  C   UNL A   1      46.557  24.544  33.707  1.00  0.00     0.148 A 
ATOM     96  C   UNL A   1      49.104  25.377  32.859  1.00  0.00     0.002 A 
ATOM     97  C   UNL A   1      47.700  23.996  34.275  1.00  0.00     0.091 A 
ATOM     98  F   UNL A   1      45.329  24.141  34.062  1.00  0.00    -0.205 F 
ATOM     99  C   UNL A   1      48.973  24.399  33.842  1.00  0.00     0.022 A 
BRANCH  97 100
ATOM    100  S   UNL A   1      47.624  22.803  35.616  1.00  0.00     0.127 S 
ATOM    101  O   UNL A   1      48.993  22.840  36.125  1.00  0.00    -0.237 OA
ATOM    102  O   UNL A   1      46.626  23.398  36.506  1.00  0.00    -0.237 OA
ATOM    103  O   UNL A   1      47.213  21.546  35.008  1.00  0.00    -0.744 OA
ENDBRANCH  97 100
ENDBRANCH  70  93
ENDBRANCH  44  45
ENDBRANCH  36  39
ENDBRANCH  34  35
ENDBRANCH   1  34
TORSDOF 18
ENDMDL
MODEL 3
REMARK VINA RESULT:     -13.7      1.902      3.261
REMARK SMILES Cc1nc(-c2ccccc2)sc1C(=O)N[C@@H](CC1=c2ccccc2=NC1)C(=O)NCCCNC(=O)c1ccc(-c2c3nc(c(-c4cccc(S(=O)(=O)[O-])c4F)c4ccc([nH]4)c(-c4cccc(S(=O)(=O)[O-])c4F)c4nc(c(-c5cccc(S(=O)(=O)[O-])c5F)c5ccc2[nH]5)C=C4)C=C3)cc1
REMARK SMILES IDX 31 1 30 2 29 3 27 4 28 5 16 7 15 8 13 9 14 10 12 12 1 13
REMARK SMILES IDX 2 14 3 15 4 16 11 17 5 18 6 19 10 20 7 21 9 22 8 23 17 24
REMARK SMILES IDX 18 25 19 26 26 27 20 28 24 29 25 30 21 31 23 32 22 33 32 34
REMARK SMILES IDX 33 35 34 36 35 38 36 39 37 40 98 41 38 42 97 43 39 44 40 45
REMARK SMILES IDX 41 46 91 47 42 48 96 49 90 50 92 51 43 52 95 53 89 54 88 55
REMARK SMILES IDX 44 57 76 58 56 59 75 60 57 61 60 62 74 63 93 64 58 65 59 66
REMARK SMILES IDX 73 68 94 69 61 70 45 71 46 72 54 73 47 74 49 75 55 76 48 77
REMARK SMILES IDX 50 78 51 79 52 80 53 81 77 82 78 83 86 84 79 85 81 86 87 87
REMARK SMILES IDX 80 88 82 89 83 90 84 91 85 92 62 93 63 94 71 95 64 96 66 97
REMARK SMILES IDX 72 98 65 99 67 100 68 101 69 102 70 103
REMARK H PARENT 29 6 15 11 33 37 92 56 60 67
REMARK Flexibility Score: inf
ROOT
ATOM      1  C   UNL A   1      32.786  29.765  25.079  1.00  0.00     0.042 C 
ENDROOT
BRANCH   1   2
ATOM      2  C   UNL A   1      31.543  28.952  24.839  1.00  0.00     0.117 C 
BRANCH   2   3
ATOM      3  N   UNL A   1      31.062  28.219  25.980  1.00  0.00    -0.354 N 
ATOM      4  C   UNL A   1      31.360  26.944  26.338  1.00  0.00     0.242 C 
ATOM      5  O   UNL A   1      31.132  26.618  27.509  1.00  0.00    -0.273 OA
ATOM      6  H   UNL A   1      30.443  28.701  26.575  1.00  0.00     0.163 HD
BRANCH   4   7
ATOM      7  C   UNL A   1      32.001  25.928  25.368  1.00  0.00     0.175 C 
BRANCH   7   8
ATOM      8  N   UNL A   1      31.093  25.321  24.415  1.00  0.00    -0.339 N 
ATOM      9  C   UNL A   1      30.925  24.037  23.967  1.00  0.00     0.263 C 
ATOM     10  O   UNL A   1      30.100  23.976  23.045  1.00  0.00    -0.268 OA
ATOM     11  H   UNL A   1      30.469  25.964  24.005  1.00  0.00     0.164 HD
BRANCH   9  12
ATOM     12  C   UNL A   1      31.598  22.847  24.490  1.00  0.00     0.115 A 
ATOM     13  C   UNL A   1      32.273  22.922  27.062  1.00  0.00     0.068 C 
ATOM     14  C   UNL A   1      32.117  22.360  25.694  1.00  0.00     0.062 A 
ATOM     15  N   UNL A   1      32.605  21.068  25.642  1.00  0.00    -0.241 NA
ATOM     16  C   UNL A   1      32.556  20.580  24.434  1.00  0.00     0.124 A 
ATOM     17  S   UNL A   1      31.892  21.608  23.265  1.00  0.00    -0.108 S 
BRANCH  16  18
ATOM     18  C   UNL A   1      33.031  19.236  24.140  1.00  0.00     0.010 A 
ATOM     19  C   UNL A   1      34.239  18.817  24.715  1.00  0.00     0.011 A 
ATOM     20  C   UNL A   1      32.424  18.447  23.157  1.00  0.00     0.011 A 
ATOM     21  C   UNL A   1      34.848  17.636  24.299  1.00  0.00     0.001 A 
ATOM     22  C   UNL A   1      33.040  17.267  22.735  1.00  0.00     0.001 A 
ATOM     23  C   UNL A   1      34.254  16.869  23.298  1.00  0.00     0.000 A 
ENDBRANCH  16  18
ENDBRANCH   9  12
ENDBRANCH   7   8
BRANCH   7  24
ATOM     24  C   UNL A   1      33.380  26.298  24.757  1.00  0.00     0.068 C 
BRANCH  24  25
ATOM     25  C   UNL A   1      34.214  25.219  24.134  1.00  0.00    -0.037 C 
ATOM     26  C   UNL A   1      35.088  24.386  24.701  1.00  0.00     0.001 A 
ATOM     27  C   UNL A   1      34.043  24.879  22.680  1.00  0.00     0.174 C 
ATOM     28  C   UNL A   1      35.624  24.212  26.013  1.00  0.00     0.010 A 
ATOM     29  C   UNL A   1      35.258  23.353  23.658  1.00  0.00     0.065 A 
ATOM     30  N   UNL A   1      34.728  23.582  22.496  1.00  0.00    -0.280 NA
ATOM     31  C   UNL A   1      36.202  23.042  26.327  1.00  0.00     0.001 A 
ATOM     32  C   UNL A   1      35.907  22.092  24.080  1.00  0.00     0.028 A 
ATOM     33  C   UNL A   1      36.304  21.963  25.357  1.00  0.00     0.002 A 
ENDBRANCH  24  25
ENDBRANCH   7  24
ENDBRANCH   4   7
ENDBRANCH   2   3
ENDBRANCH   1   2
BRANCH   1  34
ATOM     34  C   UNL A   1      33.077  29.997  26.545  1.00  0.00     0.118 C 
BRANCH  34  35
ATOM     35  N   UNL A   1      33.016  31.402  26.941  1.00  0.00    -0.352 N 
ATOM     36  C   UNL A   1      33.896  32.170  27.673  1.00  0.00     0.251 C 
ATOM     37  H   UNL A   1      32.212  31.880  26.634  1.00  0.00     0.163 HD
ATOM     38  O   UNL A   1      33.593  33.303  28.000  1.00  0.00    -0.269 OA
BRANCH  36  39
ATOM     39  C   UNL A   1      35.194  31.592  28.086  1.00  0.00     0.039 A 
ATOM     40  C   UNL A   1      36.296  32.433  28.245  1.00  0.00     0.014 A 
ATOM     41  C   UNL A   1      35.305  30.231  28.363  1.00  0.00     0.014 A 
ATOM     42  C   UNL A   1      37.478  31.916  28.776  1.00  0.00     0.010 A 
ATOM     43  C   UNL A   1      36.416  29.760  29.041  1.00  0.00     0.010 A 
ATOM     44  C   UNL A   1      37.529  30.587  29.230  1.00  0.00    -0.014 A 
BRANCH  44  45
ATOM     45  C   UNL A   1      38.736  30.038  29.896  1.00  0.00     0.031 A 
ATOM     46  C   UNL A   1      39.124  30.512  31.273  1.00  0.00     0.074 A 
ATOM     47  C   UNL A   1      39.528  29.176  29.225  1.00  0.00     0.049 A 
ATOM     48  N   UNL A   1      40.147  30.159  32.006  1.00  0.00    -0.248 NA
ATOM     49  C   UNL A   1      38.283  31.553  31.892  1.00  0.00     0.031 C 
ATOM     50  C   UNL A   1      39.326  28.739  27.841  1.00  0.00     0.029 A 
ATOM     51  N   UNL A   1      40.669  28.523  29.613  1.00  0.00    -0.354 N 
ATOM     52  C   UNL A   1      40.094  30.958  33.141  1.00  0.00     0.074 A 
ATOM     53  C   UNL A   1      38.977  31.859  32.976  1.00  0.00     0.031 C 
ATOM     54  C   UNL A   1      40.286  27.863  27.510  1.00  0.00     0.029 A 
ATOM     55  C   UNL A   1      41.188  27.697  28.644  1.00  0.00     0.049 A 
ATOM     56  H   UNL A   1      41.078  28.634  30.501  1.00  0.00     0.167 HD
ATOM     57  C   UNL A   1      40.872  30.916  34.248  1.00  0.00     0.034 A 
ATOM     58  C   UNL A   1      42.264  26.886  28.673  1.00  0.00     0.034 A 
ATOM     59  C   UNL A   1      41.939  29.972  34.433  1.00  0.00     0.049 A 
ATOM     60  C   UNL A   1      43.059  26.792  29.944  1.00  0.00     0.074 A 
ATOM     61  C   UNL A   1      42.720  29.764  35.554  1.00  0.00     0.029 A 
ATOM     62  N   UNL A   1      42.374  29.078  33.467  1.00  0.00    -0.354 N 
ATOM     63  N   UNL A   1      42.880  27.425  31.079  1.00  0.00    -0.248 NA
ATOM     64  C   UNL A   1      44.180  25.842  29.956  1.00  0.00     0.031 C 
ATOM     65  C   UNL A   1      43.645  28.757  35.257  1.00  0.00     0.029 A 
ATOM     66  C   UNL A   1      43.420  28.321  33.961  1.00  0.00     0.049 A 
ATOM     67  H   UNL A   1      41.994  28.995  32.563  1.00  0.00     0.167 HD
ATOM     68  C   UNL A   1      43.847  26.933  31.947  1.00  0.00     0.074 A 
ATOM     69  C   UNL A   1      44.585  25.922  31.216  1.00  0.00     0.031 C 
ATOM     70  C   UNL A   1      44.116  27.295  33.227  1.00  0.00     0.034 A 
BRANCH  57  71
ATOM     71  C   UNL A   1      40.549  31.874  35.366  1.00  0.00     0.023 A 
ATOM     72  C   UNL A   1      41.362  33.010  35.568  1.00  0.00     0.012 A 
ATOM     73  C   UNL A   1      39.427  31.675  36.193  1.00  0.00     0.148 A 
ATOM     74  C   UNL A   1      41.090  33.908  36.600  1.00  0.00     0.002 A 
ATOM     75  C   UNL A   1      39.132  32.602  37.187  1.00  0.00     0.091 A 
ATOM     76  F   UNL A   1      38.679  30.579  36.004  1.00  0.00    -0.205 F 
ATOM     77  C   UNL A   1      39.969  33.710  37.401  1.00  0.00     0.022 A 
BRANCH  75  78
ATOM     78  S   UNL A   1      37.668  32.482  38.220  1.00  0.00     0.127 S 
ATOM     79  O   UNL A   1      37.634  31.052  38.520  1.00  0.00    -0.237 OA
ATOM     80  O   UNL A   1      38.025  33.334  39.355  1.00  0.00    -0.237 OA
ATOM     81  O   UNL A   1      36.564  32.978  37.411  1.00  0.00    -0.744 OA
ENDBRANCH  75  78
ENDBRANCH  57  71
BRANCH  58  82
ATOM     82  C   UNL A   1      42.589  26.037  27.491  1.00  0.00     0.023 A 
ATOM     83  C   UNL A   1      43.362  26.577  26.443  1.00  0.00     0.012 A 
ATOM     84  C   UNL A   1      42.176  24.693  27.415  1.00  0.00     0.148 A 
ATOM     85  C   UNL A   1      43.687  25.804  25.328  1.00  0.00     0.002 A 
ATOM     86  C   UNL A   1      42.554  23.913  26.329  1.00  0.00     0.091 A 
ATOM     87  F   UNL A   1      41.435  24.200  28.418  1.00  0.00    -0.205 F 
ATOM     88  C   UNL A   1      43.294  24.471  25.276  1.00  0.00     0.022 A 
BRANCH  86  89
ATOM     89  S   UNL A   1      42.214  22.150  26.247  1.00  0.00     0.127 S 
ATOM     90  O   UNL A   1      40.781  22.135  25.963  1.00  0.00    -0.237 OA
ATOM     91  O   UNL A   1      43.069  21.729  25.137  1.00  0.00    -0.237 OA
ATOM     92  O   UNL A   1      42.609  21.614  27.542  1.00  0.00    -0.744 OA
ENDBRANCH  86  89
ENDBRANCH  58  82
BRANCH  70  93
ATOM     93  C   UNL A   1      45.247  26.583  33.920  1.00  0.00     0.023 A 
ATOM     94  C   UNL A   1      46.562  27.072  33.790  1.00  0.00     0.012 A 
ATOM     95  C   UNL A   1      45.000  25.466  34.740  1.00  0.00     0.148 A 
ATOM     96  C   UNL A   1      47.622  26.430  34.429  1.00  0.00     0.002 A 
ATOM     97  C   UNL A   1      46.055  24.865  35.417  1.00  0.00     0.091 A 
ATOM     98  F   UNL A   1      43.745  25.006  34.838  1.00  0.00    -0.205 F 
ATOM     99  C   UNL A   1      47.367  25.335  35.250  1.00  0.00     0.022 A 
BRANCH  97 100
ATOM    100  S   UNL A   1      45.803  23.512  36.571  1.00  0.00     0.127 S 
ATOM    101  O   UNL A   1      47.171  23.225  36.996  1.00  0.00    -0.237 OA
ATOM    102  O   UNL A   1      44.962  24.131  37.598  1.00  0.00    -0.237 OA
ATOM    103  O   UNL A   1      45.145  22.458  35.813  1.00  0.00    -0.744 OA
ENDBRANCH  97 100
ENDBRANCH  70  93
ENDBRANCH  44  45
ENDBRANCH  36  39
ENDBRANCH  34  35
ENDBRANCH   1  34
TORSDOF 18
ENDMDL
