MODEL 1
REMARK VINA RESULT:     -13.2      0.000      0.000
REMARK SMILES Cc1ccc(NC(=O)C[N@H+]2CCC[C@@H](C(=O)NCCCNC(=O)c3ccc(-c4c5nc(c(-c6cccc(S(=O)(=O)[O-])c6F)c6ccc([nH]6)c(-c6cccc(S(=O)(=O)[O-])c6F)c6nc(c(-c7cccc(S(=O)(=O)[O-])c7F)c7ccc4[nH]7)C=C6)C=C5)cc3)C2)cc1F
REMARK SMILES IDX 19 1 18 2 17 3 15 4 16 5 14 7 10 8 11 9 87 10 12 12 13 13
REMARK SMILES IDX 9 14 7 15 6 16 8 18 5 19 1 20 2 21 3 22 89 23 4 24 88 25
REMARK SMILES IDX 90 26 20 27 21 28 22 29 23 31 24 32 25 33 86 34 26 35 85 36
REMARK SMILES IDX 27 37 28 38 29 39 79 40 30 41 84 42 78 43 80 44 31 45 83 46
REMARK SMILES IDX 77 47 76 48 32 50 64 51 44 52 63 53 45 54 48 55 62 56 81 57
REMARK SMILES IDX 46 58 47 59 61 61 82 62 49 63 33 64 34 65 42 66 35 67 37 68
REMARK SMILES IDX 43 69 36 70 38 71 39 72 40 73 41 74 65 75 66 76 74 77 67 78
REMARK SMILES IDX 69 79 75 80 68 81 70 82 71 83 72 84 73 85 50 86 51 87 59 88
REMARK SMILES IDX 52 89 54 90 60 91 53 92 55 93 56 94 57 95 58 96
REMARK H PARENT 17 6 10 11 6 17 21 30 80 49 48 60
REMARK Flexibility Score: inf
ROOT
ATOM      1  C   UNL A   1      33.706  28.407  27.354  1.00  0.00     0.042 C 
ENDROOT
BRANCH   1   2
ATOM      2  C   UNL A   1      32.224  28.628  27.168  1.00  0.00     0.117 C 
BRANCH   2   3
ATOM      3  N   UNL A   1      31.441  27.411  27.302  1.00  0.00    -0.356 N 
ATOM      4  C   UNL A   1      30.871  26.682  26.292  1.00  0.00     0.228 C 
ATOM      5  O   UNL A   1      30.277  25.636  26.540  1.00  0.00    -0.275 OA
ATOM      6  H   UNL A   1      31.304  27.074  28.218  1.00  0.00     0.163 HD
BRANCH   4   7
ATOM      7  C   UNL A   1      31.031  27.224  24.884  1.00  0.00     0.133 C 
ATOM      8  N   UNL A   1      32.389  26.987  22.831  1.00  0.00    -0.326 N 
ATOM      9  C   UNL A   1      31.167  27.087  22.009  1.00  0.00     0.262 C 
ATOM     10  C   UNL A   1      32.057  26.368  24.125  1.00  0.00     0.276 C 
ATOM     11  H   UNL A   1      32.760  27.911  23.051  1.00  0.00     0.348 HD
ATOM     12  C   UNL A   1      30.030  27.840  22.713  1.00  0.00     0.062 C 
ATOM     13  C   UNL A   1      29.731  27.263  24.094  1.00  0.00     0.025 C 
BRANCH   8  14
ATOM     14  C   UNL A   1      33.476  26.314  22.066  1.00  0.00     0.363 C 
BRANCH  14  15
ATOM     15  C   UNL A   1      33.052  25.236  21.068  1.00  0.00     0.279 C 
ATOM     16  N   UNL A   1      32.925  23.912  21.371  1.00  0.00    -0.321 N 
ATOM     17  H   UNL A   1      32.608  23.375  20.609  1.00  0.00     0.170 HD
ATOM     18  O   UNL A   1      32.785  25.570  19.904  1.00  0.00    -0.268 OA
BRANCH  16  19
ATOM     19  C   UNL A   1      33.144  23.138  22.525  1.00  0.00     0.044 A 
ATOM     20  C   UNL A   1      34.168  20.668  25.928  1.00  0.00     0.047 C 
ATOM     21  C   UNL A   1      33.821  21.589  24.800  1.00  0.00    -0.015 A 
ATOM     22  C   UNL A   1      34.751  22.467  24.233  1.00  0.00     0.008 A 
ATOM     23  C   UNL A   1      32.561  21.514  24.221  1.00  0.00     0.128 A 
ATOM     24  C   UNL A   1      34.420  23.223  23.101  1.00  0.00     0.026 A 
ATOM     25  C   UNL A   1      32.215  22.285  23.112  1.00  0.00     0.065 A 
ATOM     26  F   UNL A   1      31.651  20.662  24.715  1.00  0.00    -0.207 F 
ENDBRANCH  16  19
ENDBRANCH  14  15
ENDBRANCH   8  14
ENDBRANCH   4   7
ENDBRANCH   2   3
ENDBRANCH   1   2
BRANCH   1  27
ATOM     27  C   UNL A   1      34.487  29.466  26.625  1.00  0.00     0.118 C 
BRANCH  27  28
ATOM     28  N   UNL A   1      34.502  30.777  27.301  1.00  0.00    -0.352 N 
ATOM     29  C   UNL A   1      35.250  31.182  28.402  1.00  0.00     0.251 C 
ATOM     30  H   UNL A   1      33.901  31.458  26.920  1.00  0.00     0.163 HD
ATOM     31  O   UNL A   1      35.029  32.179  29.054  1.00  0.00    -0.269 OA
BRANCH  29  32
ATOM     32  C   UNL A   1      36.399  30.347  28.722  1.00  0.00     0.039 A 
ATOM     33  C   UNL A   1      36.539  29.597  29.890  1.00  0.00     0.014 A 
ATOM     34  C   UNL A   1      37.391  30.394  27.761  1.00  0.00     0.014 A 
ATOM     35  C   UNL A   1      37.732  28.908  30.053  1.00  0.00     0.010 A 
ATOM     36  C   UNL A   1      38.281  29.396  27.716  1.00  0.00     0.010 A 
ATOM     37  C   UNL A   1      38.591  28.859  28.952  1.00  0.00    -0.014 A 
BRANCH  37  38
ATOM     38  C   UNL A   1      39.963  28.419  28.943  1.00  0.00     0.031 A 
ATOM     39  C   UNL A   1      40.174  27.013  28.661  1.00  0.00     0.074 A 
ATOM     40  C   UNL A   1      40.859  29.437  28.947  1.00  0.00     0.049 A 
ATOM     41  N   UNL A   1      40.990  26.242  29.284  1.00  0.00    -0.248 NA
ATOM     42  C   UNL A   1      39.334  26.304  27.689  1.00  0.00     0.031 C 
ATOM     43  C   UNL A   1      42.255  29.510  28.577  1.00  0.00     0.029 A 
ATOM     44  N   UNL A   1      40.583  30.738  29.382  1.00  0.00    -0.354 N 
ATOM     45  C   UNL A   1      41.149  25.175  28.432  1.00  0.00     0.074 A 
ATOM     46  C   UNL A   1      39.921  25.104  27.673  1.00  0.00     0.031 C 
ATOM     47  C   UNL A   1      42.780  30.644  29.091  1.00  0.00     0.029 A 
ATOM     48  C   UNL A   1      41.748  31.317  29.872  1.00  0.00     0.049 A 
ATOM     49  H   UNL A   1      39.701  31.174  29.346  1.00  0.00     0.167 HD
ATOM     50  C   UNL A   1      42.412  24.742  28.144  1.00  0.00     0.034 A 
ATOM     51  C   UNL A   1      41.762  31.591  31.211  1.00  0.00     0.034 A 
ATOM     52  C   UNL A   1      43.398  25.646  28.752  1.00  0.00     0.049 A 
ATOM     53  C   UNL A   1      42.576  30.526  31.906  1.00  0.00     0.074 A 
ATOM     54  C   UNL A   1      44.225  26.620  28.214  1.00  0.00     0.029 A 
ATOM     55  N   UNL A   1      43.360  25.894  30.121  1.00  0.00    -0.354 N 
ATOM     56  N   UNL A   1      42.756  29.321  31.433  1.00  0.00    -0.248 NA
ATOM     57  C   UNL A   1      43.332  30.772  33.125  1.00  0.00     0.031 C 
ATOM     58  C   UNL A   1      44.648  27.477  29.268  1.00  0.00     0.029 A 
ATOM     59  C   UNL A   1      44.060  27.040  30.443  1.00  0.00     0.049 A 
ATOM     60  H   UNL A   1      42.894  25.326  30.775  1.00  0.00     0.167 HD
ATOM     61  C   UNL A   1      43.706  28.678  32.176  1.00  0.00     0.074 A 
ATOM     62  C   UNL A   1      44.015  29.620  33.239  1.00  0.00     0.031 C 
ATOM     63  C   UNL A   1      44.195  27.446  31.840  1.00  0.00     0.034 A 
BRANCH  50  64
ATOM     64  C   UNL A   1      42.730  23.751  27.043  1.00  0.00     0.023 A 
ATOM     65  C   UNL A   1      43.423  24.121  25.866  1.00  0.00     0.012 A 
ATOM     66  C   UNL A   1      42.304  22.407  27.105  1.00  0.00     0.148 A 
ATOM     67  C   UNL A   1      43.775  23.201  24.870  1.00  0.00     0.002 A 
ATOM     68  C   UNL A   1      42.616  21.499  26.090  1.00  0.00     0.091 A 
ATOM     69  F   UNL A   1      41.566  21.980  28.137  1.00  0.00    -0.205 F 
ATOM     70  C   UNL A   1      43.369  21.882  24.982  1.00  0.00     0.022 A 
BRANCH  68  71
ATOM     71  S   UNL A   1      41.990  19.821  26.207  1.00  0.00     0.127 S 
ATOM     72  O   UNL A   1      42.498  19.378  27.502  1.00  0.00    -0.237 OA
ATOM     73  O   UNL A   1      40.547  19.998  26.089  1.00  0.00    -0.237 OA
ATOM     74  O   UNL A   1      42.607  19.155  25.059  1.00  0.00    -0.744 OA
ENDBRANCH  68  71
ENDBRANCH  50  64
BRANCH  51  75
ATOM     75  C   UNL A   1      40.430  32.158  31.657  1.00  0.00     0.023 A 
ATOM     76  C   UNL A   1      40.201  33.546  31.700  1.00  0.00     0.012 A 
ATOM     77  C   UNL A   1      39.663  31.329  32.517  1.00  0.00     0.148 A 
ATOM     78  C   UNL A   1      39.329  34.088  32.661  1.00  0.00     0.002 A 
ATOM     79  C   UNL A   1      38.895  31.883  33.541  1.00  0.00     0.091 A 
ATOM     80  F   UNL A   1      39.813  29.998  32.420  1.00  0.00    -0.205 F 
ATOM     81  C   UNL A   1      38.718  33.265  33.613  1.00  0.00     0.022 A 
BRANCH  79  82
ATOM     82  S   UNL A   1      38.451  30.859  34.964  1.00  0.00     0.127 S 
ATOM     83  O   UNL A   1      37.781  29.721  34.345  1.00  0.00    -0.237 OA
ATOM     84  O   UNL A   1      39.731  30.591  35.612  1.00  0.00    -0.237 OA
ATOM     85  O   UNL A   1      37.581  31.726  35.765  1.00  0.00    -0.744 OA
ENDBRANCH  79  82
ENDBRANCH  51  75
BRANCH  63  86
ATOM     86  C   UNL A   1      44.961  26.513  32.749  1.00  0.00     0.023 A 
ATOM     87  C   UNL A   1      46.365  26.393  32.561  1.00  0.00     0.012 A 
ATOM     88  C   UNL A   1      44.388  25.655  33.692  1.00  0.00     0.148 A 
ATOM     89  C   UNL A   1      47.143  25.458  33.240  1.00  0.00     0.002 A 
ATOM     90  C   UNL A   1      45.189  24.825  34.473  1.00  0.00     0.091 A 
ATOM     91  F   UNL A   1      43.059  25.564  33.816  1.00  0.00    -0.205 F 
ATOM     92  C   UNL A   1      46.556  24.687  34.227  1.00  0.00     0.022 A 
BRANCH  90  93
ATOM     93  S   UNL A   1      44.445  24.049  35.904  1.00  0.00     0.127 S 
ATOM     94  O   UNL A   1      43.529  23.087  35.295  1.00  0.00    -0.237 OA
ATOM     95  O   UNL A   1      45.585  23.491  36.624  1.00  0.00    -0.237 OA
ATOM     96  O   UNL A   1      43.785  25.162  36.587  1.00  0.00    -0.744 OA
ENDBRANCH  90  93
ENDBRANCH  63  86
ENDBRANCH  37  38
ENDBRANCH  29  32
ENDBRANCH  27  28
ENDBRANCH   1  27
TORSDOF 16
ENDMDL
MODEL 2
REMARK VINA RESULT:     -13.2      4.112      9.296
REMARK SMILES Cc1ccc(NC(=O)C[N@H+]2CCC[C@@H](C(=O)NCCCNC(=O)c3ccc(-c4c5nc(c(-c6cccc(S(=O)(=O)[O-])c6F)c6ccc([nH]6)c(-c6cccc(S(=O)(=O)[O-])c6F)c6nc(c(-c7cccc(S(=O)(=O)[O-])c7F)c7ccc4[nH]7)C=C6)C=C5)cc3)C2)cc1F
REMARK SMILES IDX 19 1 18 2 17 3 15 4 16 5 14 7 10 8 11 9 87 10 12 12 13 13
REMARK SMILES IDX 9 14 7 15 6 16 8 18 5 19 1 20 2 21 3 22 89 23 4 24 88 25
REMARK SMILES IDX 90 26 20 27 21 28 22 29 23 31 24 32 25 33 86 34 26 35 85 36
REMARK SMILES IDX 27 37 28 38 29 39 79 40 30 41 84 42 78 43 80 44 31 45 83 46
REMARK SMILES IDX 77 47 76 48 32 50 64 51 44 52 63 53 45 54 48 55 62 56 81 57
REMARK SMILES IDX 46 58 47 59 61 61 82 62 49 63 33 64 34 65 42 66 35 67 37 68
REMARK SMILES IDX 43 69 36 70 38 71 39 72 40 73 41 74 65 75 66 76 74 77 67 78
REMARK SMILES IDX 69 79 75 80 68 81 70 82 71 83 72 84 73 85 50 86 51 87 59 88
REMARK SMILES IDX 52 89 54 90 60 91 53 92 55 93 56 94 57 95 58 96
REMARK H PARENT 17 6 10 11 6 17 21 30 80 49 48 60
REMARK Flexibility Score: inf
ROOT
ATOM      1  C   UNL A   1      36.842  22.505  25.558  1.00  0.00     0.042 C 
ENDROOT
BRANCH   1   2
ATOM      2  C   UNL A   1      36.866  22.080  24.108  1.00  0.00     0.117 C 
BRANCH   2   3
ATOM      3  N   UNL A   1      36.182  23.011  23.226  1.00  0.00    -0.356 N 
ATOM      4  C   UNL A   1      34.833  23.237  23.153  1.00  0.00     0.228 C 
ATOM      5  O   UNL A   1      34.388  24.096  22.396  1.00  0.00    -0.275 OA
ATOM      6  H   UNL A   1      36.750  23.534  22.614  1.00  0.00     0.163 HD
BRANCH   4   7
ATOM      7  C   UNL A   1      33.950  22.396  24.054  1.00  0.00     0.133 C 
ATOM      8  N   UNL A   1      32.512  22.515  26.062  1.00  0.00    -0.326 N 
ATOM      9  C   UNL A   1      31.515  21.648  25.403  1.00  0.00     0.262 C 
ATOM     10  C   UNL A   1      33.214  23.313  25.044  1.00  0.00     0.276 C 
ATOM     11  H   UNL A   1      33.230  21.960  26.527  1.00  0.00     0.348 HD
ATOM     12  C   UNL A   1      32.125  20.753  24.315  1.00  0.00     0.062 C 
ATOM     13  C   UNL A   1      32.929  21.557  23.298  1.00  0.00     0.025 C 
BRANCH   8  14
ATOM     14  C   UNL A   1      31.874  23.302  27.155  1.00  0.00     0.363 C 
BRANCH  14  15
ATOM     15  C   UNL A   1      30.378  23.590  27.015  1.00  0.00     0.279 C 
ATOM     16  N   UNL A   1      29.853  24.574  26.230  1.00  0.00    -0.321 N 
ATOM     17  H   UNL A   1      28.869  24.585  26.240  1.00  0.00     0.170 HD
ATOM     18  O   UNL A   1      29.572  22.881  27.637  1.00  0.00    -0.268 OA
BRANCH  16  19
ATOM     19  C   UNL A   1      30.398  25.577  25.408  1.00  0.00     0.044 A 
ATOM     20  C   UNL A   1      31.890  28.926  23.107  1.00  0.00     0.047 C 
ATOM     21  C   UNL A   1      31.451  27.755  23.932  1.00  0.00    -0.015 A 
ATOM     22  C   UNL A   1      31.419  27.791  25.330  1.00  0.00     0.008 A 
ATOM     23  C   UNL A   1      30.964  26.619  23.300  1.00  0.00     0.128 A 
ATOM     24  C   UNL A   1      30.887  26.720  26.059  1.00  0.00     0.026 A 
ATOM     25  C   UNL A   1      30.459  25.537  24.019  1.00  0.00     0.065 A 
ATOM     26  F   UNL A   1      30.948  26.558  21.960  1.00  0.00    -0.207 F 
ENDBRANCH  16  19
ENDBRANCH  14  15
ENDBRANCH   8  14
ENDBRANCH   4   7
ENDBRANCH   2   3
ENDBRANCH   1   2
BRANCH   1  27
ATOM     27  C   UNL A   1      37.996  23.424  25.851  1.00  0.00     0.118 C 
BRANCH  27  28
ATOM     28  N   UNL A   1      39.259  22.726  26.159  1.00  0.00    -0.352 N 
ATOM     29  C   UNL A   1      40.496  23.270  26.495  1.00  0.00     0.251 C 
ATOM     30  H   UNL A   1      39.222  21.743  26.123  1.00  0.00     0.163 HD
ATOM     31  O   UNL A   1      41.541  22.657  26.486  1.00  0.00    -0.269 OA
BRANCH  29  32
ATOM     32  C   UNL A   1      40.474  24.659  26.931  1.00  0.00     0.039 A 
ATOM     33  C   UNL A   1      40.799  25.752  26.128  1.00  0.00     0.014 A 
ATOM     34  C   UNL A   1      40.134  24.806  28.263  1.00  0.00     0.014 A 
ATOM     35  C   UNL A   1      40.782  27.000  26.731  1.00  0.00     0.010 A 
ATOM     36  C   UNL A   1      39.682  25.995  28.676  1.00  0.00     0.010 A 
ATOM     37  C   UNL A   1      40.245  27.074  28.019  1.00  0.00    -0.014 A 
BRANCH  37  38
ATOM     38  C   UNL A   1      40.330  28.187  28.931  1.00  0.00     0.031 A 
ATOM     39  C   UNL A   1      39.330  29.222  28.760  1.00  0.00     0.074 A 
ATOM     40  C   UNL A   1      41.174  27.972  29.971  1.00  0.00     0.049 A 
ATOM     41  N   UNL A   1      39.553  30.486  28.791  1.00  0.00    -0.248 NA
ATOM     42  C   UNL A   1      37.951  28.886  28.388  1.00  0.00     0.031 C 
ATOM     43  C   UNL A   1      41.299  28.594  31.271  1.00  0.00     0.029 A 
ATOM     44  N   UNL A   1      42.210  27.032  29.973  1.00  0.00    -0.354 N 
ATOM     45  C   UNL A   1      38.310  31.034  29.001  1.00  0.00     0.074 A 
ATOM     46  C   UNL A   1      37.374  30.089  28.437  1.00  0.00     0.031 C 
ATOM     47  C   UNL A   1      42.503  28.269  31.792  1.00  0.00     0.029 A 
ATOM     48  C   UNL A   1      43.230  27.472  30.809  1.00  0.00     0.049 A 
ATOM     49  H   UNL A   1      42.215  26.191  29.463  1.00  0.00     0.167 HD
ATOM     50  C   UNL A   1      38.160  31.974  29.981  1.00  0.00     0.034 A 
ATOM     51  C   UNL A   1      44.413  27.780  30.198  1.00  0.00     0.034 A 
ATOM     52  C   UNL A   1      39.417  32.119  30.727  1.00  0.00     0.049 A 
ATOM     53  C   UNL A   1      44.514  29.283  30.088  1.00  0.00     0.074 A 
ATOM     54  C   UNL A   1      39.805  31.695  31.989  1.00  0.00     0.029 A 
ATOM     55  N   UNL A   1      40.594  32.427  30.051  1.00  0.00    -0.354 N 
ATOM     56  N   UNL A   1      43.481  30.084  30.064  1.00  0.00    -0.248 NA
ATOM     57  C   UNL A   1      45.782  29.998  30.103  1.00  0.00     0.031 C 
ATOM     58  C   UNL A   1      41.227  31.712  32.046  1.00  0.00     0.029 A 
ATOM     59  C   UNL A   1      41.705  32.124  30.814  1.00  0.00     0.049 A 
ATOM     60  H   UNL A   1      40.630  32.810  29.146  1.00  0.00     0.167 HD
ATOM     61  C   UNL A   1      43.907  31.378  30.178  1.00  0.00     0.074 A 
ATOM     62  C   UNL A   1      45.356  31.271  30.172  1.00  0.00     0.031 C 
ATOM     63  C   UNL A   1      43.042  32.429  30.311  1.00  0.00     0.034 A 
BRANCH  50  64
ATOM     64  C   UNL A   1      36.814  32.466  30.474  1.00  0.00     0.023 A 
ATOM     65  C   UNL A   1      36.327  32.172  31.769  1.00  0.00     0.012 A 
ATOM     66  C   UNL A   1      35.943  33.207  29.646  1.00  0.00     0.148 A 
ATOM     67  C   UNL A   1      35.112  32.672  32.256  1.00  0.00     0.002 A 
ATOM     68  C   UNL A   1      34.712  33.668  30.117  1.00  0.00     0.091 A 
ATOM     69  F   UNL A   1      36.276  33.463  28.375  1.00  0.00    -0.205 F 
ATOM     70  C   UNL A   1      34.299  33.424  31.426  1.00  0.00     0.022 A 
BRANCH  68  71
ATOM     71  S   UNL A   1      33.630  34.551  28.990  1.00  0.00     0.127 S 
ATOM     72  O   UNL A   1      33.294  33.532  28.001  1.00  0.00    -0.237 OA
ATOM     73  O   UNL A   1      32.551  35.010  29.858  1.00  0.00    -0.237 OA
ATOM     74  O   UNL A   1      34.485  35.625  28.480  1.00  0.00    -0.744 OA
ENDBRANCH  68  71
ENDBRANCH  50  64
BRANCH  51  75
ATOM     75  C   UNL A   1      44.746  26.762  29.128  1.00  0.00     0.023 A 
ATOM     76  C   UNL A   1      45.690  25.743  29.353  1.00  0.00     0.012 A 
ATOM     77  C   UNL A   1      44.519  27.177  27.789  1.00  0.00     0.148 A 
ATOM     78  C   UNL A   1      46.467  25.253  28.287  1.00  0.00     0.002 A 
ATOM     79  C   UNL A   1      45.373  26.772  26.764  1.00  0.00     0.091 A 
ATOM     80  F   UNL A   1      43.557  28.086  27.558  1.00  0.00    -0.205 F 
ATOM     81  C   UNL A   1      46.346  25.802  27.007  1.00  0.00     0.022 A 
BRANCH  79  82
ATOM     82  S   UNL A   1      45.466  27.758  25.252  1.00  0.00     0.127 S 
ATOM     83  O   UNL A   1      44.082  27.773  24.791  1.00  0.00    -0.237 OA
ATOM     84  O   UNL A   1      46.019  29.032  25.701  1.00  0.00    -0.237 OA
ATOM     85  O   UNL A   1      46.392  27.009  24.397  1.00  0.00    -0.744 OA
ENDBRANCH  79  82
ENDBRANCH  51  75
BRANCH  63  86
ATOM     86  C   UNL A   1      43.373  33.887  30.094  1.00  0.00     0.023 A 
ATOM     87  C   UNL A   1      43.491  34.727  31.234  1.00  0.00     0.012 A 
ATOM     88  C   UNL A   1      43.454  34.519  28.849  1.00  0.00     0.148 A 
ATOM     89  C   UNL A   1      43.645  36.108  31.145  1.00  0.00     0.002 A 
ATOM     90  C   UNL A   1      43.754  35.877  28.763  1.00  0.00     0.091 A 
ATOM     91  F   UNL A   1      43.179  33.852  27.723  1.00  0.00    -0.205 F 
ATOM     92  C   UNL A   1      43.809  36.686  29.899  1.00  0.00     0.022 A 
BRANCH  90  93
ATOM     93  S   UNL A   1      44.220  36.531  27.164  1.00  0.00     0.127 S 
ATOM     94  O   UNL A   1      42.950  36.518  26.441  1.00  0.00    -0.237 OA
ATOM     95  O   UNL A   1      44.772  37.844  27.477  1.00  0.00    -0.237 OA
ATOM     96  O   UNL A   1      45.202  35.563  26.675  1.00  0.00    -0.744 OA
ENDBRANCH  90  93
ENDBRANCH  63  86
ENDBRANCH  37  38
ENDBRANCH  29  32
ENDBRANCH  27  28
ENDBRANCH   1  27
TORSDOF 16
ENDMDL
MODEL 3
REMARK VINA RESULT:     -13.1      1.297      2.028
REMARK SMILES Cc1ccc(NC(=O)C[N@H+]2CCC[C@@H](C(=O)NCCCNC(=O)c3ccc(-c4c5nc(c(-c6cccc(S(=O)(=O)[O-])c6F)c6ccc([nH]6)c(-c6cccc(S(=O)(=O)[O-])c6F)c6nc(c(-c7cccc(S(=O)(=O)[O-])c7F)c7ccc4[nH]7)C=C6)C=C5)cc3)C2)cc1F
REMARK SMILES IDX 19 1 18 2 17 3 15 4 16 5 14 7 10 8 11 9 87 10 12 12 13 13
REMARK SMILES IDX 9 14 7 15 6 16 8 18 5 19 1 20 2 21 3 22 89 23 4 24 88 25
REMARK SMILES IDX 90 26 20 27 21 28 22 29 23 31 24 32 25 33 86 34 26 35 85 36
REMARK SMILES IDX 27 37 28 38 29 39 79 40 30 41 84 42 78 43 80 44 31 45 83 46
REMARK SMILES IDX 77 47 76 48 32 50 64 51 44 52 63 53 45 54 48 55 62 56 81 57
REMARK SMILES IDX 46 58 47 59 61 61 82 62 49 63 33 64 34 65 42 66 35 67 37 68
REMARK SMILES IDX 43 69 36 70 38 71 39 72 40 73 41 74 65 75 66 76 74 77 67 78
REMARK SMILES IDX 69 79 75 80 68 81 70 82 71 83 72 84 73 85 50 86 51 87 59 88
REMARK SMILES IDX 52 89 54 90 60 91 53 92 55 93 56 94 57 95 58 96
REMARK H PARENT 17 6 10 11 6 17 21 30 80 49 48 60
REMARK Flexibility Score: inf
ROOT
ATOM      1  C   UNL A   1      32.927  30.022  27.003  1.00  0.00     0.042 C 
ENDROOT
BRANCH   1   2
ATOM      2  C   UNL A   1      33.007  29.437  25.613  1.00  0.00     0.117 C 
BRANCH   2   3
ATOM      3  N   UNL A   1      31.794  29.634  24.837  1.00  0.00    -0.356 N 
ATOM      4  C   UNL A   1      31.195  28.729  24.002  1.00  0.00     0.228 C 
ATOM      5  O   UNL A   1      30.135  29.006  23.444  1.00  0.00    -0.275 OA
ATOM      6  H   UNL A   1      31.357  30.513  24.919  1.00  0.00     0.163 HD
BRANCH   4   7
ATOM      7  C   UNL A   1      31.891  27.393  23.828  1.00  0.00     0.133 C 
ATOM      8  N   UNL A   1      31.676  24.984  24.342  1.00  0.00    -0.326 N 
ATOM      9  C   UNL A   1      32.155  24.649  22.987  1.00  0.00     0.262 C 
ATOM     10  C   UNL A   1      30.958  26.268  24.303  1.00  0.00     0.276 C 
ATOM     11  H   UNL A   1      32.457  25.120  24.984  1.00  0.00     0.348 HD
ATOM     12  C   UNL A   1      33.021  25.755  22.367  1.00  0.00     0.062 C 
ATOM     13  C   UNL A   1      32.324  27.112  22.396  1.00  0.00     0.025 C 
BRANCH   8  14
ATOM     14  C   UNL A   1      30.907  23.845  24.917  1.00  0.00     0.363 C 
BRANCH  14  15
ATOM     15  C   UNL A   1      31.133  23.537  26.398  1.00  0.00     0.279 C 
ATOM     16  N   UNL A   1      32.288  23.023  26.910  1.00  0.00    -0.321 N 
ATOM     17  H   UNL A   1      32.261  22.925  27.889  1.00  0.00     0.170 HD
ATOM     18  O   UNL A   1      30.224  23.780  27.206  1.00  0.00    -0.268 OA
BRANCH  16  19
ATOM     19  C   UNL A   1      33.511  22.599  26.358  1.00  0.00     0.044 A 
ATOM     20  C   UNL A   1      37.280  21.634  24.462  1.00  0.00     0.047 C 
ATOM     21  C   UNL A   1      36.017  21.977  25.190  1.00  0.00    -0.015 A 
ATOM     22  C   UNL A   1      35.763  23.258  25.692  1.00  0.00     0.008 A 
ATOM     23  C   UNL A   1      35.010  21.026  25.295  1.00  0.00     0.128 A 
ATOM     24  C   UNL A   1      34.520  23.568  26.257  1.00  0.00     0.026 A 
ATOM     25  C   UNL A   1      33.780  21.320  25.883  1.00  0.00     0.065 A 
ATOM     26  F   UNL A   1      35.202  19.796  24.798  1.00  0.00    -0.207 F 
ENDBRANCH  16  19
ENDBRANCH  14  15
ENDBRANCH   8  14
ENDBRANCH   4   7
ENDBRANCH   2   3
ENDBRANCH   1   2
BRANCH   1  27
ATOM     27  C   UNL A   1      34.305  30.167  27.588  1.00  0.00     0.118 C 
BRANCH  27  28
ATOM     28  N   UNL A   1      34.510  31.416  28.346  1.00  0.00    -0.352 N 
ATOM     29  C   UNL A   1      35.416  31.675  29.371  1.00  0.00     0.251 C 
ATOM     30  H   UNL A   1      33.928  32.168  28.092  1.00  0.00     0.163 HD
ATOM     31  O   UNL A   1      35.359  32.631  30.113  1.00  0.00    -0.269 OA
BRANCH  29  32
ATOM     32  C   UNL A   1      36.520  30.733  29.486  1.00  0.00     0.039 A 
ATOM     33  C   UNL A   1      36.575  29.676  30.394  1.00  0.00     0.014 A 
ATOM     34  C   UNL A   1      37.563  31.008  28.622  1.00  0.00     0.014 A 
ATOM     35  C   UNL A   1      37.735  28.917  30.404  1.00  0.00     0.010 A 
ATOM     36  C   UNL A   1      38.424  30.027  28.331  1.00  0.00     0.010 A 
ATOM     37  C   UNL A   1      38.650  29.146  29.372  1.00  0.00    -0.014 A 
BRANCH  37  38
ATOM     38  C   UNL A   1      40.007  28.666  29.296  1.00  0.00     0.031 A 
ATOM     39  C   UNL A   1      40.164  27.265  28.960  1.00  0.00     0.074 A 
ATOM     40  C   UNL A   1      40.933  29.657  29.298  1.00  0.00     0.049 A 
ATOM     41  N   UNL A   1      40.979  26.451  29.525  1.00  0.00    -0.248 NA
ATOM     42  C   UNL A   1      39.267  26.614  27.999  1.00  0.00     0.031 C 
ATOM     43  C   UNL A   1      42.316  29.702  28.877  1.00  0.00     0.029 A 
ATOM     44  N   UNL A   1      40.713  30.950  29.785  1.00  0.00    -0.354 N 
ATOM     45  C   UNL A   1      41.073  25.409  28.633  1.00  0.00     0.074 A 
ATOM     46  C   UNL A   1      39.816  25.399  27.920  1.00  0.00     0.031 C 
ATOM     47  C   UNL A   1      42.894  30.802  29.407  1.00  0.00     0.029 A 
ATOM     48  C   UNL A   1      41.913  31.478  30.249  1.00  0.00     0.049 A 
ATOM     49  H   UNL A   1      39.845  31.413  29.798  1.00  0.00     0.167 HD
ATOM     50  C   UNL A   1      42.310  24.949  28.282  1.00  0.00     0.034 A 
ATOM     51  C   UNL A   1      41.986  31.706  31.595  1.00  0.00     0.034 A 
ATOM     52  C   UNL A   1      43.345  25.803  28.881  1.00  0.00     0.049 A 
ATOM     53  C   UNL A   1      42.793  30.595  32.222  1.00  0.00     0.074 A 
ATOM     54  C   UNL A   1      44.182  26.769  28.343  1.00  0.00     0.029 A 
ATOM     55  N   UNL A   1      43.367  26.005  30.258  1.00  0.00    -0.354 N 
ATOM     56  N   UNL A   1      42.918  29.401  31.703  1.00  0.00    -0.248 NA
ATOM     57  C   UNL A   1      43.602  30.777  33.418  1.00  0.00     0.031 C 
ATOM     58  C   UNL A   1      44.670  27.578  29.408  1.00  0.00     0.029 A 
ATOM     59  C   UNL A   1      44.114  27.118  30.590  1.00  0.00     0.049 A 
ATOM     60  H   UNL A   1      42.909  25.429  30.911  1.00  0.00     0.167 HD
ATOM     61  C   UNL A   1      43.875  28.706  32.388  1.00  0.00     0.074 A 
ATOM     62  C   UNL A   1      44.253  29.602  33.468  1.00  0.00     0.031 C 
ATOM     63  C   UNL A   1      44.314  27.472  31.993  1.00  0.00     0.034 A 
BRANCH  50  64
ATOM     64  C   UNL A   1      42.556  23.987  27.138  1.00  0.00     0.023 A 
ATOM     65  C   UNL A   1      43.153  24.392  25.921  1.00  0.00     0.012 A 
ATOM     66  C   UNL A   1      42.153  22.635  27.202  1.00  0.00     0.148 A 
ATOM     67  C   UNL A   1      43.440  23.498  24.880  1.00  0.00     0.002 A 
ATOM     68  C   UNL A   1      42.399  21.754  26.146  1.00  0.00     0.091 A 
ATOM     69  F   UNL A   1      41.502  22.176  28.277  1.00  0.00    -0.205 F 
ATOM     70  C   UNL A   1      43.060  22.172  24.992  1.00  0.00     0.022 A 
BRANCH  68  71
ATOM     71  S   UNL A   1      41.805  20.066  26.272  1.00  0.00     0.127 S 
ATOM     72  O   UNL A   1      40.356  20.228  26.197  1.00  0.00    -0.237 OA
ATOM     73  O   UNL A   1      42.454  19.402  25.147  1.00  0.00    -0.237 OA
ATOM     74  O   UNL A   1      42.295  19.637  27.583  1.00  0.00    -0.744 OA
ENDBRANCH  68  71
ENDBRANCH  50  64
BRANCH  51  75
ATOM     75  C   UNL A   1      40.691  32.297  32.110  1.00  0.00     0.023 A 
ATOM     76  C   UNL A   1      40.562  33.675  32.362  1.00  0.00     0.012 A 
ATOM     77  C   UNL A   1      39.848  31.406  32.827  1.00  0.00     0.148 A 
ATOM     78  C   UNL A   1      39.712  34.128  33.387  1.00  0.00     0.002 A 
ATOM     79  C   UNL A   1      39.102  31.854  33.916  1.00  0.00     0.091 A 
ATOM     80  F   UNL A   1      39.904  30.097  32.528  1.00  0.00    -0.205 F 
ATOM     81  C   UNL A   1      39.024  33.219  34.196  1.00  0.00     0.022 A 
BRANCH  79  82
ATOM     82  S   UNL A   1      38.557  30.663  35.162  1.00  0.00     0.127 S 
ATOM     83  O   UNL A   1      37.866  29.656  34.364  1.00  0.00    -0.237 OA
ATOM     84  O   UNL A   1      39.796  30.246  35.810  1.00  0.00    -0.237 OA
ATOM     85  O   UNL A   1      37.691  31.448  36.048  1.00  0.00    -0.744 OA
ENDBRANCH  79  82
ENDBRANCH  51  75
BRANCH  63  86
ATOM     86  C   UNL A   1      45.085  26.488  32.841  1.00  0.00     0.023 A 
ATOM     87  C   UNL A   1      46.487  26.378  32.637  1.00  0.00     0.012 A 
ATOM     88  C   UNL A   1      44.516  25.575  33.735  1.00  0.00     0.148 A 
ATOM     89  C   UNL A   1      47.268  25.404  33.255  1.00  0.00     0.002 A 
ATOM     90  C   UNL A   1      45.322  24.700  34.461  1.00  0.00     0.091 A 
ATOM     91  F   UNL A   1      43.189  25.477  33.862  1.00  0.00    -0.205 F 
ATOM     92  C   UNL A   1      46.687  24.576  34.199  1.00  0.00     0.022 A 
BRANCH  90  93
ATOM     93  S   UNL A   1      44.586  23.842  35.848  1.00  0.00     0.127 S 
ATOM     94  O   UNL A   1      45.715  23.077  36.374  1.00  0.00    -0.237 OA
ATOM     95  O   UNL A   1      44.086  24.920  36.694  1.00  0.00    -0.237 OA
ATOM     96  O   UNL A   1      43.542  23.027  35.226  1.00  0.00    -0.744 OA
ENDBRANCH  90  93
ENDBRANCH  63  86
ENDBRANCH  37  38
ENDBRANCH  29  32
ENDBRANCH  27  28
ENDBRANCH   1  27
TORSDOF 16
ENDMDL
