MODEL 1
REMARK VINA RESULT:     -13.1      0.000      0.000
REMARK SMILES Cc1nn(C)c(=O)c(C(=O)N2CC[C@@H](C(=O)NCCCNC(=O)c3ccc(-c4c5nc(c(-c6cccc(S(=O)(=O)[O-])c6F)c6ccc([nH]6)c(-c6cccc(S(=O)(=O)[O-])c6F)c6nc(c(-c7cccc(S(=O)(=O)[O-])c7F)c7ccc4[nH]7)C=C6)C=C5)cc3)[C@@H]2C)c1C
REMARK SMILES IDX 19 1 18 2 17 3 15 4 16 5 14 7 11 8 12 9 87 10 13 11 88 12
REMARK SMILES IDX 9 13 10 14 8 15 1 16 2 17 3 18 89 19 4 20 90 21 5 22 6 23
REMARK SMILES IDX 7 24 20 25 21 26 22 27 23 29 24 30 25 31 86 32 26 33 85 34
REMARK SMILES IDX 27 35 28 36 29 37 79 38 30 39 84 40 78 41 80 42 31 43 83 44
REMARK SMILES IDX 77 45 76 46 32 48 64 49 44 50 63 51 45 52 48 53 62 54 81 55
REMARK SMILES IDX 46 56 47 57 61 59 82 60 49 61 33 62 34 63 42 64 35 65 37 66
REMARK SMILES IDX 43 67 36 68 38 69 39 70 40 71 41 72 65 73 66 74 74 75 67 76
REMARK SMILES IDX 69 77 75 78 68 79 70 80 71 81 72 82 73 83 50 84 51 85 59 86
REMARK SMILES IDX 52 87 54 88 60 89 53 90 55 91 56 92 57 93 58 94
REMARK H PARENT 17 6 21 28 80 47 48 58
REMARK Flexibility Score: inf
ROOT
ATOM      1  C   UNL A   1      31.163  31.369  25.717  1.00  0.00     0.042 C 
ENDROOT
BRANCH   1   2
ATOM      2  C   UNL A   1      31.198  29.969  25.102  1.00  0.00     0.117 C 
BRANCH   2   3
ATOM      3  N   UNL A   1      32.414  29.682  24.355  1.00  0.00    -0.356 N 
ATOM      4  C   UNL A   1      33.082  28.536  24.059  1.00  0.00     0.225 C 
ATOM      5  O   UNL A   1      34.044  28.666  23.289  1.00  0.00    -0.275 OA
ATOM      6  H   UNL A   1      32.843  30.487  23.986  1.00  0.00     0.163 HD
BRANCH   4   7
ATOM      7  C   UNL A   1      32.806  27.151  24.648  1.00  0.00     0.102 C 
ATOM      8  N   UNL A   1      33.796  25.256  23.615  1.00  0.00    -0.335 N 
ATOM      9  C   UNL A   1      34.181  25.190  25.018  1.00  0.00     0.121 C 
ATOM     10  C   UNL A   1      32.595  26.099  23.549  1.00  0.00     0.094 C 
ATOM     11  C   UNL A   1      33.829  26.554  25.611  1.00  0.00     0.037 C 
ATOM     12  C   UNL A   1      31.288  25.319  23.741  1.00  0.00     0.032 C 
BRANCH   8  13
ATOM     13  C   UNL A   1      33.894  24.070  22.870  1.00  0.00     0.260 C 
ATOM     14  O   UNL A   1      33.545  24.056  21.693  1.00  0.00    -0.269 OA
BRANCH  13  15
ATOM     15  C   UNL A   1      34.258  22.806  23.623  1.00  0.00     0.111 A 
ATOM     16  C   UNL A   1      37.030  21.099  25.488  1.00  0.00     0.069 C 
ATOM     17  C   UNL A   1      35.724  21.245  24.740  1.00  0.00     0.062 A 
ATOM     18  N   UNL A   1      34.806  20.394  25.037  1.00  0.00    -0.175 NA
ATOM     19  C   UNL A   1      35.529  22.390  23.809  1.00  0.00    -0.010 A 
ATOM     20  N   UNL A   1      33.570  20.605  24.507  1.00  0.00    -0.232 N 
ATOM     21  C   UNL A   1      36.728  22.885  23.083  1.00  0.00     0.047 C 
ATOM     22  C   UNL A   1      32.668  19.465  24.614  1.00  0.00     0.178 C 
ATOM     23  C   UNL A   1      33.157  21.837  24.000  1.00  0.00     0.279 A 
ATOM     24  O   UNL A   1      31.973  22.118  23.823  1.00  0.00    -0.267 OA
ENDBRANCH  13  15
ENDBRANCH   8  13
ENDBRANCH   4   7
ENDBRANCH   2   3
ENDBRANCH   1   2
BRANCH   1  25
ATOM     25  C   UNL A   1      31.952  31.577  27.005  1.00  0.00     0.118 C 
BRANCH  25  26
ATOM     26  N   UNL A   1      32.308  32.972  27.195  1.00  0.00    -0.352 N 
ATOM     27  C   UNL A   1      33.358  33.585  27.839  1.00  0.00     0.251 C 
ATOM     28  H   UNL A   1      31.675  33.602  26.782  1.00  0.00     0.163 HD
ATOM     29  O   UNL A   1      33.237  34.788  28.077  1.00  0.00    -0.269 OA
BRANCH  27  30
ATOM     30  C   UNL A   1      34.609  32.892  28.262  1.00  0.00     0.039 A 
ATOM     31  C   UNL A   1      34.490  31.587  28.766  1.00  0.00     0.014 A 
ATOM     32  C   UNL A   1      35.860  33.512  28.322  1.00  0.00     0.014 A 
ATOM     33  C   UNL A   1      35.592  30.923  29.329  1.00  0.00     0.010 A 
ATOM     34  C   UNL A   1      36.977  32.820  28.817  1.00  0.00     0.010 A 
ATOM     35  C   UNL A   1      36.853  31.532  29.364  1.00  0.00    -0.014 A 
BRANCH  35  36
ATOM     36  C   UNL A   1      38.019  30.870  30.027  1.00  0.00     0.031 A 
ATOM     37  C   UNL A   1      38.384  31.216  31.453  1.00  0.00     0.074 A 
ATOM     38  C   UNL A   1      38.774  29.972  29.363  1.00  0.00     0.049 A 
ATOM     39  N   UNL A   1      39.384  30.787  32.181  1.00  0.00    -0.248 NA
ATOM     40  C   UNL A   1      37.513  32.179  32.147  1.00  0.00     0.031 C 
ATOM     41  C   UNL A   1      38.553  29.538  27.985  1.00  0.00     0.029 A 
ATOM     42  N   UNL A   1      39.891  29.269  29.754  1.00  0.00    -0.354 N 
ATOM     43  C   UNL A   1      39.280  31.443  33.404  1.00  0.00     0.074 A 
ATOM     44  C   UNL A   1      38.143  32.332  33.304  1.00  0.00     0.031 C 
ATOM     45  C   UNL A   1      39.498  28.650  27.642  1.00  0.00     0.029 A 
ATOM     46  C   UNL A   1      40.411  28.462  28.767  1.00  0.00     0.049 A 
ATOM     47  H   UNL A   1      40.282  29.337  30.654  1.00  0.00     0.167 HD
ATOM     48  C   UNL A   1      40.030  31.296  34.524  1.00  0.00     0.034 A 
ATOM     49  C   UNL A   1      41.497  27.661  28.759  1.00  0.00     0.034 A 
ATOM     50  C   UNL A   1      41.139  30.386  34.646  1.00  0.00     0.049 A 
ATOM     51  C   UNL A   1      42.332  27.530  30.005  1.00  0.00     0.074 A 
ATOM     52  C   UNL A   1      41.931  30.142  35.755  1.00  0.00     0.029 A 
ATOM     53  N   UNL A   1      41.613  29.569  33.632  1.00  0.00    -0.354 N 
ATOM     54  N   UNL A   1      42.156  28.087  31.179  1.00  0.00    -0.248 NA
ATOM     55  C   UNL A   1      43.495  26.633  29.937  1.00  0.00     0.031 C 
ATOM     56  C   UNL A   1      42.901  29.196  35.403  1.00  0.00     0.029 A 
ATOM     57  C   UNL A   1      42.691  28.826  34.084  1.00  0.00     0.049 A 
ATOM     58  H   UNL A   1      41.238  29.522  32.723  1.00  0.00     0.167 HD
ATOM     59  C   UNL A   1      43.163  27.583  31.997  1.00  0.00     0.074 A 
ATOM     60  C   UNL A   1      43.934  26.660  31.189  1.00  0.00     0.031 C 
ATOM     61  C   UNL A   1      43.431  27.873  33.294  1.00  0.00     0.034 A 
BRANCH  48  62
ATOM     62  C   UNL A   1      39.642  32.103  35.741  1.00  0.00     0.023 A 
ATOM     63  C   UNL A   1      40.194  33.388  35.925  1.00  0.00     0.012 A 
ATOM     64  C   UNL A   1      38.685  31.628  36.660  1.00  0.00     0.148 A 
ATOM     65  C   UNL A   1      39.833  34.169  37.022  1.00  0.00     0.002 A 
ATOM     66  C   UNL A   1      38.291  32.434  37.723  1.00  0.00     0.091 A 
ATOM     67  F   UNL A   1      38.180  30.398  36.482  1.00  0.00    -0.205 F 
ATOM     68  C   UNL A   1      38.874  33.698  37.913  1.00  0.00     0.022 A 
BRANCH  66  69
ATOM     69  S   UNL A   1      37.002  31.959  38.882  1.00  0.00     0.127 S 
ATOM     70  O   UNL A   1      36.897  30.523  38.635  1.00  0.00    -0.237 OA
ATOM     71  O   UNL A   1      37.597  32.316  40.168  1.00  0.00    -0.237 OA
ATOM     72  O   UNL A   1      35.826  32.743  38.516  1.00  0.00    -0.744 OA
ENDBRANCH  66  69
ENDBRANCH  48  62
BRANCH  49  73
ATOM     73  C   UNL A   1      41.803  26.853  27.542  1.00  0.00     0.023 A 
ATOM     74  C   UNL A   1      42.408  27.479  26.435  1.00  0.00     0.012 A 
ATOM     75  C   UNL A   1      41.563  25.465  27.499  1.00  0.00     0.148 A 
ATOM     76  C   UNL A   1      42.755  26.741  25.301  1.00  0.00     0.002 A 
ATOM     77  C   UNL A   1      41.966  24.726  26.394  1.00  0.00     0.091 A 
ATOM     78  F   UNL A   1      40.975  24.890  28.560  1.00  0.00    -0.205 F 
ATOM     79  C   UNL A   1      42.547  25.365  25.286  1.00  0.00     0.022 A 
BRANCH  77  80
ATOM     80  S   UNL A   1      41.874  22.933  26.335  1.00  0.00     0.127 S 
ATOM     81  O   UNL A   1      42.618  22.555  27.532  1.00  0.00    -0.237 OA
ATOM     82  O   UNL A   1      40.431  22.708  26.403  1.00  0.00    -0.237 OA
ATOM     83  O   UNL A   1      42.490  22.545  25.070  1.00  0.00    -0.744 OA
ENDBRANCH  77  80
ENDBRANCH  49  73
BRANCH  61  84
ATOM     84  C   UNL A   1      44.599  27.178  33.952  1.00  0.00     0.023 A 
ATOM     85  C   UNL A   1      45.884  27.750  33.880  1.00  0.00     0.012 A 
ATOM     86  C   UNL A   1      44.405  26.014  34.725  1.00  0.00     0.148 A 
ATOM     87  C   UNL A   1      46.963  27.161  34.538  1.00  0.00     0.002 A 
ATOM     88  C   UNL A   1      45.474  25.463  35.423  1.00  0.00     0.091 A 
ATOM     89  F   UNL A   1      43.180  25.473  34.771  1.00  0.00    -0.205 F 
ATOM     90  C   UNL A   1      46.755  26.027  35.321  1.00  0.00     0.022 A 
BRANCH  88  91
ATOM     91  S   UNL A   1      45.285  24.068  36.541  1.00  0.00     0.127 S 
ATOM     92  O   UNL A   1      46.666  23.829  36.956  1.00  0.00    -0.237 OA
ATOM     93  O   UNL A   1      44.421  24.621  37.584  1.00  0.00    -0.237 OA
ATOM     94  O   UNL A   1      44.677  23.002  35.754  1.00  0.00    -0.744 OA
ENDBRANCH  88  91
ENDBRANCH  61  84
ENDBRANCH  35  36
ENDBRANCH  27  30
ENDBRANCH  25  26
ENDBRANCH   1  25
TORSDOF 15
ENDMDL
MODEL 2
REMARK VINA RESULT:     -13.1      5.138     10.759
REMARK SMILES Cc1nn(C)c(=O)c(C(=O)N2CC[C@@H](C(=O)NCCCNC(=O)c3ccc(-c4c5nc(c(-c6cccc(S(=O)(=O)[O-])c6F)c6ccc([nH]6)c(-c6cccc(S(=O)(=O)[O-])c6F)c6nc(c(-c7cccc(S(=O)(=O)[O-])c7F)c7ccc4[nH]7)C=C6)C=C5)cc3)[C@@H]2C)c1C
REMARK SMILES IDX 19 1 18 2 17 3 15 4 16 5 14 7 11 8 12 9 87 10 13 11 88 12
REMARK SMILES IDX 9 13 10 14 8 15 1 16 2 17 3 18 89 19 4 20 90 21 5 22 6 23
REMARK SMILES IDX 7 24 20 25 21 26 22 27 23 29 24 30 25 31 86 32 26 33 85 34
REMARK SMILES IDX 27 35 28 36 29 37 79 38 30 39 84 40 78 41 80 42 31 43 83 44
REMARK SMILES IDX 77 45 76 46 32 48 64 49 44 50 63 51 45 52 48 53 62 54 81 55
REMARK SMILES IDX 46 56 47 57 61 59 82 60 49 61 33 62 34 63 42 64 35 65 37 66
REMARK SMILES IDX 43 67 36 68 38 69 39 70 40 71 41 72 65 73 66 74 74 75 67 76
REMARK SMILES IDX 69 77 75 78 68 79 70 80 71 81 72 82 73 83 50 84 51 85 59 86
REMARK SMILES IDX 52 87 54 88 60 89 53 90 55 91 56 92 57 93 58 94
REMARK H PARENT 17 6 21 28 80 47 48 58
REMARK Flexibility Score: inf
ROOT
ATOM      1  C   UNL A   1      36.978  19.708  24.948  1.00  0.00     0.042 C 
ENDROOT
BRANCH   1   2
ATOM      2  C   UNL A   1      35.599  20.371  24.934  1.00  0.00     0.117 C 
BRANCH   2   3
ATOM      3  N   UNL A   1      35.271  21.077  26.166  1.00  0.00    -0.356 N 
ATOM      4  C   UNL A   1      34.588  22.220  26.435  1.00  0.00     0.225 C 
ATOM      5  O   UNL A   1      34.408  22.460  27.638  1.00  0.00    -0.275 OA
ATOM      6  H   UNL A   1      35.617  20.631  26.973  1.00  0.00     0.163 HD
BRANCH   4   7
ATOM      7  C   UNL A   1      34.109  23.249  25.410  1.00  0.00     0.102 C 
ATOM      8  N   UNL A   1      32.499  24.862  26.081  1.00  0.00    -0.335 N 
ATOM      9  C   UNL A   1      33.615  25.619  25.530  1.00  0.00     0.121 C 
ATOM     10  C   UNL A   1      32.599  23.505  25.525  1.00  0.00     0.094 C 
ATOM     11  C   UNL A   1      34.769  24.626  25.400  1.00  0.00     0.037 C 
ATOM     12  C   UNL A   1      31.883  23.341  24.178  1.00  0.00     0.032 C 
BRANCH   8  13
ATOM     13  C   UNL A   1      31.263  25.521  26.172  1.00  0.00     0.260 C 
ATOM     14  O   UNL A   1      30.277  24.917  26.584  1.00  0.00    -0.269 OA
BRANCH  13  15
ATOM     15  C   UNL A   1      31.173  26.911  25.574  1.00  0.00     0.111 A 
ATOM     16  C   UNL A   1      32.382  30.442  25.955  1.00  0.00     0.069 C 
ATOM     17  C   UNL A   1      31.514  29.300  25.477  1.00  0.00     0.062 A 
ATOM     18  N   UNL A   1      30.937  29.467  24.338  1.00  0.00    -0.175 NA
ATOM     19  C   UNL A   1      31.454  28.038  26.263  1.00  0.00    -0.010 A 
ATOM     20  N   UNL A   1      30.291  28.393  23.807  1.00  0.00    -0.232 N 
ATOM     21  C   UNL A   1      31.587  28.152  27.740  1.00  0.00     0.047 C 
ATOM     22  C   UNL A   1      29.407  28.715  22.695  1.00  0.00     0.178 C 
ATOM     23  C   UNL A   1      30.529  27.081  24.214  1.00  0.00     0.279 A 
ATOM     24  O   UNL A   1      30.200  26.107  23.539  1.00  0.00    -0.267 OA
ENDBRANCH  13  15
ENDBRANCH   8  13
ENDBRANCH   4   7
ENDBRANCH   2   3
ENDBRANCH   1   2
BRANCH   1  25
ATOM     25  C   UNL A   1      38.175  20.610  25.231  1.00  0.00     0.118 C 
BRANCH  25  26
ATOM     26  N   UNL A   1      39.281  19.866  25.805  1.00  0.00    -0.352 N 
ATOM     27  C   UNL A   1      40.454  20.258  26.406  1.00  0.00     0.251 C 
ATOM     28  H   UNL A   1      39.170  18.889  25.754  1.00  0.00     0.163 HD
ATOM     29  O   UNL A   1      41.328  19.399  26.534  1.00  0.00    -0.269 OA
BRANCH  27  30
ATOM     30  C   UNL A   1      40.729  21.639  26.900  1.00  0.00     0.039 A 
ATOM     31  C   UNL A   1      40.276  22.711  26.114  1.00  0.00     0.014 A 
ATOM     32  C   UNL A   1      41.528  21.924  28.009  1.00  0.00     0.014 A 
ATOM     33  C   UNL A   1      40.625  24.036  26.423  1.00  0.00     0.010 A 
ATOM     34  C   UNL A   1      41.815  23.254  28.361  1.00  0.00     0.010 A 
ATOM     35  C   UNL A   1      41.402  24.326  27.552  1.00  0.00    -0.014 A 
BRANCH  35  36
ATOM     36  C   UNL A   1      41.846  25.722  27.853  1.00  0.00     0.031 A 
ATOM     37  C   UNL A   1      43.244  26.173  27.495  1.00  0.00     0.074 A 
ATOM     38  C   UNL A   1      41.019  26.594  28.464  1.00  0.00     0.049 A 
ATOM     39  N   UNL A   1      43.829  27.324  27.718  1.00  0.00    -0.248 NA
ATOM     40  C   UNL A   1      44.101  25.196  26.802  1.00  0.00     0.031 C 
ATOM     41  C   UNL A   1      39.646  26.308  28.876  1.00  0.00     0.029 A 
ATOM     42  N   UNL A   1      41.216  27.898  28.859  1.00  0.00    -0.354 N 
ATOM     43  C   UNL A   1      45.122  27.203  27.220  1.00  0.00     0.074 A 
ATOM     44  C   UNL A   1      45.252  25.850  26.722  1.00  0.00     0.031 C 
ATOM     45  C   UNL A   1      39.125  27.395  29.464  1.00  0.00     0.029 A 
ATOM     46  C   UNL A   1      40.130  28.454  29.496  1.00  0.00     0.049 A 
ATOM     47  H   UNL A   1      42.056  28.387  28.702  1.00  0.00     0.167 HD
ATOM     48  C   UNL A   1      46.104  28.135  27.144  1.00  0.00     0.034 A 
ATOM     49  C   UNL A   1      39.954  29.674  30.043  1.00  0.00     0.034 A 
ATOM     50  C   UNL A   1      45.972  29.493  27.602  1.00  0.00     0.049 A 
ATOM     51  C   UNL A   1      41.064  30.689  29.971  1.00  0.00     0.074 A 
ATOM     52  C   UNL A   1      46.900  30.518  27.528  1.00  0.00     0.029 A 
ATOM     53  N   UNL A   1      44.845  30.021  28.213  1.00  0.00    -0.354 N 
ATOM     54  N   UNL A   1      42.244  30.581  29.408  1.00  0.00    -0.248 NA
ATOM     55  C   UNL A   1      40.808  32.004  30.576  1.00  0.00     0.031 C 
ATOM     56  C   UNL A   1      46.344  31.658  28.120  1.00  0.00     0.029 A 
ATOM     57  C   UNL A   1      45.057  31.353  28.531  1.00  0.00     0.049 A 
ATOM     58  H   UNL A   1      44.016  29.523  28.395  1.00  0.00     0.167 HD
ATOM     59  C   UNL A   1      42.856  31.822  29.562  1.00  0.00     0.074 A 
ATOM     60  C   UNL A   1      41.908  32.672  30.252  1.00  0.00     0.031 C 
ATOM     61  C   UNL A   1      44.097  32.213  29.177  1.00  0.00     0.034 A 
BRANCH  48  62
ATOM     62  C   UNL A   1      47.404  27.735  26.485  1.00  0.00     0.023 A 
ATOM     63  C   UNL A   1      48.457  27.236  27.280  1.00  0.00     0.012 A 
ATOM     64  C   UNL A   1      47.561  27.782  25.085  1.00  0.00     0.148 A 
ATOM     65  C   UNL A   1      49.658  26.831  26.699  1.00  0.00     0.002 A 
ATOM     66  C   UNL A   1      48.743  27.328  24.510  1.00  0.00     0.091 A 
ATOM     67  F   UNL A   1      46.557  28.273  24.344  1.00  0.00    -0.205 F 
ATOM     68  C   UNL A   1      49.796  26.865  25.315  1.00  0.00     0.022 A 
BRANCH  66  69
ATOM     69  S   UNL A   1      48.993  27.248  22.732  1.00  0.00     0.127 S 
ATOM     70  O   UNL A   1      50.451  27.263  22.638  1.00  0.00    -0.237 OA
ATOM     71  O   UNL A   1      48.372  25.971  22.389  1.00  0.00    -0.237 OA
ATOM     72  O   UNL A   1      48.321  28.420  22.180  1.00  0.00    -0.744 OA
ENDBRANCH  66  69
ENDBRANCH  48  62
BRANCH  49  73
ATOM     73  C   UNL A   1      38.631  30.028  30.638  1.00  0.00     0.023 A 
ATOM     74  C   UNL A   1      38.363  29.675  31.975  1.00  0.00     0.012 A 
ATOM     75  C   UNL A   1      37.671  30.764  29.916  1.00  0.00     0.148 A 
ATOM     76  C   UNL A   1      37.156  30.036  32.578  1.00  0.00     0.002 A 
ATOM     77  C   UNL A   1      36.499  31.173  30.540  1.00  0.00     0.091 A 
ATOM     78  F   UNL A   1      37.942  31.080  28.641  1.00  0.00    -0.205 F 
ATOM     79  C   UNL A   1      36.232  30.796  31.866  1.00  0.00     0.022 A 
BRANCH  77  80
ATOM     80  S   UNL A   1      35.313  32.272  29.759  1.00  0.00     0.127 S 
ATOM     81  O   UNL A   1      34.358  32.501  30.838  1.00  0.00    -0.237 OA
ATOM     82  O   UNL A   1      36.152  33.420  29.418  1.00  0.00    -0.237 OA
ATOM     83  O   UNL A   1      34.791  31.540  28.609  1.00  0.00    -0.744 OA
ENDBRANCH  77  80
ENDBRANCH  49  73
BRANCH  61  84
ATOM     84  C   UNL A   1      44.518  33.632  29.472  1.00  0.00     0.023 A 
ATOM     85  C   UNL A   1      45.078  33.951  30.724  1.00  0.00     0.012 A 
ATOM     86  C   UNL A   1      44.452  34.628  28.473  1.00  0.00     0.148 A 
ATOM     87  C   UNL A   1      45.537  35.240  30.991  1.00  0.00     0.002 A 
ATOM     88  C   UNL A   1      44.961  35.896  28.728  1.00  0.00     0.091 A 
ATOM     89  F   UNL A   1      43.901  34.313  27.293  1.00  0.00    -0.205 F 
ATOM     90  C   UNL A   1      45.493  36.208  29.990  1.00  0.00     0.022 A 
BRANCH  88  91
ATOM     91  S   UNL A   1      45.045  37.176  27.470  1.00  0.00     0.127 S 
ATOM     92  O   UNL A   1      43.632  37.380  27.156  1.00  0.00    -0.237 OA
ATOM     93  O   UNL A   1      45.675  38.281  28.193  1.00  0.00    -0.237 OA
ATOM     94  O   UNL A   1      45.852  36.624  26.388  1.00  0.00    -0.744 OA
ENDBRANCH  88  91
ENDBRANCH  61  84
ENDBRANCH  35  36
ENDBRANCH  27  30
ENDBRANCH  25  26
ENDBRANCH   1  25
TORSDOF 15
ENDMDL
MODEL 3
REMARK VINA RESULT:     -12.8      1.598      1.983
REMARK SMILES Cc1nn(C)c(=O)c(C(=O)N2CC[C@@H](C(=O)NCCCNC(=O)c3ccc(-c4c5nc(c(-c6cccc(S(=O)(=O)[O-])c6F)c6ccc([nH]6)c(-c6cccc(S(=O)(=O)[O-])c6F)c6nc(c(-c7cccc(S(=O)(=O)[O-])c7F)c7ccc4[nH]7)C=C6)C=C5)cc3)[C@@H]2C)c1C
REMARK SMILES IDX 19 1 18 2 17 3 15 4 16 5 14 7 11 8 12 9 87 10 13 11 88 12
REMARK SMILES IDX 9 13 10 14 8 15 1 16 2 17 3 18 89 19 4 20 90 21 5 22 6 23
REMARK SMILES IDX 7 24 20 25 21 26 22 27 23 29 24 30 25 31 86 32 26 33 85 34
REMARK SMILES IDX 27 35 28 36 29 37 79 38 30 39 84 40 78 41 80 42 31 43 83 44
REMARK SMILES IDX 77 45 76 46 32 48 64 49 44 50 63 51 45 52 48 53 62 54 81 55
REMARK SMILES IDX 46 56 47 57 61 59 82 60 49 61 33 62 34 63 42 64 35 65 37 66
REMARK SMILES IDX 43 67 36 68 38 69 39 70 40 71 41 72 65 73 66 74 74 75 67 76
REMARK SMILES IDX 69 77 75 78 68 79 70 80 71 81 72 82 73 83 50 84 51 85 59 86
REMARK SMILES IDX 52 87 54 88 60 89 53 90 55 91 56 92 57 93 58 94
REMARK H PARENT 17 6 21 28 80 47 48 58
REMARK Flexibility Score: inf
ROOT
ATOM      1  C   UNL A   1      31.445  29.445  27.120  1.00  0.00     0.042 C 
ENDROOT
BRANCH   1   2
ATOM      2  C   UNL A   1      32.047  28.075  27.439  1.00  0.00     0.117 C 
BRANCH   2   3
ATOM      3  N   UNL A   1      31.149  26.959  27.173  1.00  0.00    -0.356 N 
ATOM      4  C   UNL A   1      30.926  26.176  26.085  1.00  0.00     0.225 C 
ATOM      5  O   UNL A   1      30.147  25.228  26.263  1.00  0.00    -0.275 OA
ATOM      6  H   UNL A   1      30.585  26.722  27.944  1.00  0.00     0.163 HD
BRANCH   4   7
ATOM      7  C   UNL A   1      31.475  26.409  24.676  1.00  0.00     0.102 C 
ATOM      8  N   UNL A   1      32.271  24.543  23.440  1.00  0.00    -0.335 N 
ATOM      9  C   UNL A   1      31.284  25.194  22.589  1.00  0.00     0.121 C 
ATOM     10  C   UNL A   1      32.723  25.555  24.405  1.00  0.00     0.094 C 
ATOM     11  C   UNL A   1      30.545  26.183  23.487  1.00  0.00     0.037 C 
ATOM     12  C   UNL A   1      33.900  26.400  23.899  1.00  0.00     0.032 C 
BRANCH   8  13
ATOM     13  C   UNL A   1      33.181  23.676  22.816  1.00  0.00     0.260 C 
ATOM     14  O   UNL A   1      33.312  23.703  21.595  1.00  0.00    -0.269 OA
BRANCH  13  15
ATOM     15  C   UNL A   1      33.826  22.610  23.679  1.00  0.00     0.111 A 
ATOM     16  C   UNL A   1      36.864  21.826  25.735  1.00  0.00     0.069 C 
ATOM     17  C   UNL A   1      35.597  21.572  24.952  1.00  0.00     0.062 A 
ATOM     18  N   UNL A   1      34.916  20.536  25.299  1.00  0.00    -0.175 NA
ATOM     19  C   UNL A   1      35.152  22.553  23.925  1.00  0.00    -0.010 A 
ATOM     20  N   UNL A   1      33.690  20.379  24.729  1.00  0.00    -0.232 N 
ATOM     21  C   UNL A   1      36.213  23.287  23.185  1.00  0.00     0.047 C 
ATOM     22  C   UNL A   1      33.109  19.055  24.911  1.00  0.00     0.178 C 
ATOM     23  C   UNL A   1      32.996  21.419  24.112  1.00  0.00     0.279 A 
ATOM     24  O   UNL A   1      31.788  21.369  23.888  1.00  0.00    -0.267 OA
ENDBRANCH  13  15
ENDBRANCH   8  13
ENDBRANCH   4   7
ENDBRANCH   2   3
ENDBRANCH   1   2
BRANCH   1  25
ATOM     25  C   UNL A   1      32.164  30.287  26.071  1.00  0.00     0.118 C 
BRANCH  25  26
ATOM     26  N   UNL A   1      32.219  31.686  26.454  1.00  0.00    -0.352 N 
ATOM     27  C   UNL A   1      33.060  32.391  27.283  1.00  0.00     0.251 C 
ATOM     28  H   UNL A   1      31.517  32.238  26.040  1.00  0.00     0.163 HD
ATOM     29  O   UNL A   1      32.683  33.510  27.636  1.00  0.00    -0.269 OA
BRANCH  27  30
ATOM     30  C   UNL A   1      34.376  31.890  27.776  1.00  0.00     0.039 A 
ATOM     31  C   UNL A   1      34.454  30.541  28.161  1.00  0.00     0.014 A 
ATOM     32  C   UNL A   1      35.482  32.709  28.012  1.00  0.00     0.014 A 
ATOM     33  C   UNL A   1      35.606  30.028  28.778  1.00  0.00     0.010 A 
ATOM     34  C   UNL A   1      36.661  32.178  28.562  1.00  0.00     0.010 A 
ATOM     35  C   UNL A   1      36.727  30.842  28.990  1.00  0.00    -0.014 A 
BRANCH  35  36
ATOM     36  C   UNL A   1      37.932  30.332  29.714  1.00  0.00     0.031 A 
ATOM     37  C   UNL A   1      38.227  30.792  31.123  1.00  0.00     0.074 A 
ATOM     38  C   UNL A   1      38.785  29.473  29.119  1.00  0.00     0.049 A 
ATOM     39  N   UNL A   1      39.245  30.502  31.895  1.00  0.00    -0.248 NA
ATOM     40  C   UNL A   1      37.254  31.706  31.742  1.00  0.00     0.031 C 
ATOM     41  C   UNL A   1      38.640  28.943  27.764  1.00  0.00     0.029 A 
ATOM     42  N   UNL A   1      39.953  28.903  29.572  1.00  0.00    -0.354 N 
ATOM     43  C   UNL A   1      39.049  31.214  33.075  1.00  0.00     0.074 A 
ATOM     44  C   UNL A   1      37.837  31.985  32.900  1.00  0.00     0.031 C 
ATOM     45  C   UNL A   1      39.673  28.131  27.494  1.00  0.00     0.029 A 
ATOM     46  C   UNL A   1      40.571  28.095  28.645  1.00  0.00     0.049 A 
ATOM     47  H   UNL A   1      40.313  29.060  30.475  1.00  0.00     0.167 HD
ATOM     48  C   UNL A   1      39.782  31.204  34.216  1.00  0.00     0.034 A 
ATOM     49  C   UNL A   1      41.726  27.401  28.706  1.00  0.00     0.034 A 
ATOM     50  C   UNL A   1      40.967  30.411  34.413  1.00  0.00     0.049 A 
ATOM     51  C   UNL A   1      42.539  27.421  29.974  1.00  0.00     0.074 A 
ATOM     52  C   UNL A   1      41.751  30.307  35.550  1.00  0.00     0.029 A 
ATOM     53  N   UNL A   1      41.541  29.586  33.459  1.00  0.00    -0.354 N 
ATOM     54  N   UNL A   1      42.282  28.025  31.109  1.00  0.00    -0.248 NA
ATOM     55  C   UNL A   1      43.782  26.636  29.982  1.00  0.00     0.031 C 
ATOM     56  C   UNL A   1      42.813  29.440  35.274  1.00  0.00     0.029 A 
ATOM     57  C   UNL A   1      42.673  28.976  33.976  1.00  0.00     0.049 A 
ATOM     58  H   UNL A   1      41.195  29.452  32.547  1.00  0.00     0.167 HD
ATOM     59  C   UNL A   1      43.311  27.667  31.975  1.00  0.00     0.074 A 
ATOM     60  C   UNL A   1      44.185  26.776  31.239  1.00  0.00     0.031 C 
ATOM     61  C   UNL A   1      43.517  28.054  33.258  1.00  0.00     0.034 A 
BRANCH  48  62
ATOM     62  C   UNL A   1      39.289  32.038  35.375  1.00  0.00     0.023 A 
ATOM     63  C   UNL A   1      38.363  31.482  36.283  1.00  0.00     0.012 A 
ATOM     64  C   UNL A   1      39.787  33.335  35.610  1.00  0.00     0.148 A 
ATOM     65  C   UNL A   1      37.911  32.215  37.380  1.00  0.00     0.002 A 
ATOM     66  C   UNL A   1      39.371  34.040  36.734  1.00  0.00     0.091 A 
ATOM     67  F   UNL A   1      40.655  33.857  34.730  1.00  0.00    -0.205 F 
ATOM     68  C   UNL A   1      38.424  33.488  37.612  1.00  0.00     0.022 A 
BRANCH  66  69
ATOM     69  S   UNL A   1      40.032  35.653  37.174  1.00  0.00     0.127 S 
ATOM     70  O   UNL A   1      39.649  36.455  36.014  1.00  0.00    -0.237 OA
ATOM     71  O   UNL A   1      39.299  35.962  38.400  1.00  0.00    -0.237 OA
ATOM     72  O   UNL A   1      41.467  35.462  37.354  1.00  0.00    -0.744 OA
ENDBRANCH  66  69
ENDBRANCH  48  62
BRANCH  49  73
ATOM     73  C   UNL A   1      42.138  26.557  27.546  1.00  0.00     0.023 A 
ATOM     74  C   UNL A   1      42.980  27.108  26.560  1.00  0.00     0.012 A 
ATOM     75  C   UNL A   1      41.758  25.203  27.447  1.00  0.00     0.148 A 
ATOM     76  C   UNL A   1      43.425  26.330  25.489  1.00  0.00     0.002 A 
ATOM     77  C   UNL A   1      42.254  24.419  26.413  1.00  0.00     0.091 A 
ATOM     78  F   UNL A   1      40.947  24.703  28.390  1.00  0.00    -0.205 F 
ATOM     79  C   UNL A   1      43.074  24.985  25.423  1.00  0.00     0.022 A 
BRANCH  77  80
ATOM     80  S   UNL A   1      41.979  22.647  26.318  1.00  0.00     0.127 S 
ATOM     81  O   UNL A   1      42.591  22.181  27.557  1.00  0.00    -0.237 OA
ATOM     82  O   UNL A   1      40.518  22.575  26.280  1.00  0.00    -0.237 OA
ATOM     83  O   UNL A   1      42.639  22.207  25.093  1.00  0.00    -0.744 OA
ENDBRANCH  77  80
ENDBRANCH  49  73
BRANCH  61  84
ATOM     84  C   UNL A   1      44.728  27.512  33.979  1.00  0.00     0.023 A 
ATOM     85  C   UNL A   1      45.949  28.213  33.921  1.00  0.00     0.012 A 
ATOM     86  C   UNL A   1      44.631  26.364  34.794  1.00  0.00     0.148 A 
ATOM     87  C   UNL A   1      47.060  27.767  34.635  1.00  0.00     0.002 A 
ATOM     88  C   UNL A   1      45.727  25.956  35.546  1.00  0.00     0.091 A 
ATOM     89  F   UNL A   1      43.468  25.700  34.825  1.00  0.00    -0.205 F 
ATOM     90  C   UNL A   1      46.946  26.648  35.458  1.00  0.00     0.022 A 
BRANCH  88  91
ATOM     91  S   UNL A   1      45.647  24.593  36.714  1.00  0.00     0.127 S 
ATOM     92  O   UNL A   1      45.269  23.478  35.847  1.00  0.00    -0.237 OA
ATOM     93  O   UNL A   1      47.019  24.536  37.219  1.00  0.00    -0.237 OA
ATOM     94  O   UNL A   1      44.652  24.975  37.709  1.00  0.00    -0.744 OA
ENDBRANCH  88  91
ENDBRANCH  61  84
ENDBRANCH  35  36
ENDBRANCH  27  30
ENDBRANCH  25  26
ENDBRANCH   1  25
TORSDOF 15
ENDMDL
