MODEL 1
REMARK VINA RESULT:     -11.4      0.000      0.000
REMARK SMILES CN(Cc1ccnn1C)C(=O)c1c(C(=O)NCCCNC(=O)c2ccc(-c3c4nc(c(-c5cccc(S(=O)(=O)[O-])c5F)c5ccc([nH]5)c(-c5cccc(S(=O)(=O)[O-])c5F)c5nc(c(-c6cccc(S(=O)(=O)[O-])c6F)c6ccc3[nH]6)C=C5)C=C4)cc2)cnn1C
REMARK SMILES IDX 17 1 16 2 14 3 15 4 13 6 12 7 88 8 86 9 87 10 89 11 10 12
REMARK SMILES IDX 11 13 2 14 1 15 3 16 4 17 5 18 8 19 6 20 7 21 9 22 18 23
REMARK SMILES IDX 19 24 20 25 21 26 22 28 23 29 24 30 85 31 25 32 84 33 26 34
REMARK SMILES IDX 27 35 28 36 78 37 29 38 83 39 77 40 79 41 30 42 82 43 76 44
REMARK SMILES IDX 75 45 31 47 63 48 43 49 62 50 44 51 47 52 61 53 80 54 45 55
REMARK SMILES IDX 46 56 60 58 81 59 48 60 32 61 33 62 41 63 34 64 36 65 42 66
REMARK SMILES IDX 35 67 37 68 38 69 39 70 40 71 64 72 65 73 73 74 66 75 68 76
REMARK SMILES IDX 74 77 67 78 69 79 70 80 71 81 72 82 49 83 50 84 58 85 51 86
REMARK SMILES IDX 53 87 59 88 52 89 54 90 55 91 56 92 57 93
REMARK H PARENT 16 5 20 27 79 46 47 57
REMARK Flexibility Score: inf
ROOT
ATOM      1  C   UNL A   1      33.759  21.455  26.971  1.00  0.00     0.118 C 
ENDROOT
BRANCH   1   2
ATOM      2  N   UNL A   1      32.599  22.202  27.424  1.00  0.00    -0.352 N 
ATOM      3  C   UNL A   1      31.758  23.101  26.854  1.00  0.00     0.255 C 
ATOM      4  O   UNL A   1      30.856  23.500  27.604  1.00  0.00    -0.269 OA
ATOM      5  H   UNL A   1      32.370  22.012  28.362  1.00  0.00     0.163 HD
BRANCH   3   6
ATOM      6  C   UNL A   1      31.839  23.638  25.503  1.00  0.00     0.090 A 
ATOM      7  C   UNL A   1      32.492  24.695  24.874  1.00  0.00     0.138 A 
ATOM      8  N   UNL A   1      32.228  24.559  23.531  1.00  0.00    -0.262 N 
ATOM      9  C   UNL A   1      31.144  23.013  24.428  1.00  0.00     0.149 A 
ATOM     10  N   UNL A   1      31.346  23.586  23.249  1.00  0.00    -0.180 NA
ATOM     11  C   UNL A   1      32.808  25.287  22.423  1.00  0.00     0.174 C 
BRANCH   7  12
ATOM     12  C   UNL A   1      33.411  25.699  25.362  1.00  0.00     0.273 C 
ATOM     13  O   UNL A   1      34.599  25.503  25.374  1.00  0.00    -0.267 OA
BRANCH  12  14
ATOM     14  N   UNL A   1      32.837  26.913  25.786  1.00  0.00    -0.334 N 
ATOM     15  C   UNL A   1      33.690  27.852  26.501  1.00  0.00     0.147 C 
BRANCH  14  16
ATOM     16  C   UNL A   1      31.408  27.223  25.740  1.00  0.00     0.175 C 
BRANCH  16  17
ATOM     17  C   UNL A   1      31.047  27.846  24.435  1.00  0.00     0.057 A 
ATOM     18  C   UNL A   1      31.579  28.943  23.779  1.00  0.00     0.047 A 
ATOM     19  N   UNL A   1      30.003  27.428  23.640  1.00  0.00    -0.271 N 
ATOM     20  C   UNL A   1      30.834  29.069  22.597  1.00  0.00     0.135 A 
ATOM     21  N   UNL A   1      29.899  28.128  22.492  1.00  0.00    -0.181 NA
ATOM     22  C   UNL A   1      29.050  26.368  23.877  1.00  0.00     0.174 C 
ENDBRANCH  16  17
ENDBRANCH  14  16
ENDBRANCH  12  14
ENDBRANCH   7  12
ENDBRANCH   3   6
ENDBRANCH   1   2
BRANCH   1  23
ATOM     23  C   UNL A   1      35.015  22.323  26.864  1.00  0.00     0.042 C 
BRANCH  23  24
ATOM     24  C   UNL A   1      35.749  22.207  25.531  1.00  0.00     0.118 C 
BRANCH  24  25
ATOM     25  N   UNL A   1      36.760  21.166  25.509  1.00  0.00    -0.352 N 
ATOM     26  C   UNL A   1      38.115  21.183  25.730  1.00  0.00     0.251 C 
ATOM     27  H   UNL A   1      36.404  20.273  25.293  1.00  0.00     0.163 HD
ATOM     28  O   UNL A   1      38.740  20.135  25.552  1.00  0.00    -0.269 OA
BRANCH  26  29
ATOM     29  C   UNL A   1      38.862  22.406  26.126  1.00  0.00     0.039 A 
ATOM     30  C   UNL A   1      40.008  22.239  26.918  1.00  0.00     0.014 A 
ATOM     31  C   UNL A   1      38.436  23.701  25.831  1.00  0.00     0.014 A 
ATOM     32  C   UNL A   1      40.738  23.347  27.363  1.00  0.00     0.010 A 
ATOM     33  C   UNL A   1      39.208  24.805  26.207  1.00  0.00     0.010 A 
ATOM     34  C   UNL A   1      40.360  24.644  26.988  1.00  0.00    -0.014 A 
BRANCH  34  35
ATOM     35  C   UNL A   1      41.130  25.840  27.427  1.00  0.00     0.031 A 
ATOM     36  C   UNL A   1      40.483  26.881  28.303  1.00  0.00     0.074 A 
ATOM     37  C   UNL A   1      42.388  26.037  26.985  1.00  0.00     0.049 A 
ATOM     38  N   UNL A   1      40.936  28.058  28.657  1.00  0.00    -0.248 NA
ATOM     39  C   UNL A   1      39.140  26.576  28.825  1.00  0.00     0.031 C 
ATOM     40  C   UNL A   1      43.122  25.141  26.092  1.00  0.00     0.029 A 
ATOM     41  N   UNL A   1      43.268  27.067  27.218  1.00  0.00    -0.354 N 
ATOM     42  C   UNL A   1      39.906  28.663  29.366  1.00  0.00     0.074 A 
ATOM     43  C   UNL A   1      38.811  27.717  29.414  1.00  0.00     0.031 C 
ATOM     44  C   UNL A   1      44.347  25.646  25.872  1.00  0.00     0.029 A 
ATOM     45  C   UNL A   1      44.477  26.915  26.582  1.00  0.00     0.049 A 
ATOM     46  H   UNL A   1      43.052  27.841  27.786  1.00  0.00     0.167 HD
ATOM     47  C   UNL A   1      39.875  29.888  29.941  1.00  0.00     0.034 A 
ATOM     48  C   UNL A   1      45.570  27.703  26.573  1.00  0.00     0.034 A 
ATOM     49  C   UNL A   1      40.994  30.788  29.999  1.00  0.00     0.049 A 
ATOM     50  C   UNL A   1      45.566  28.986  27.358  1.00  0.00     0.074 A 
ATOM     51  C   UNL A   1      41.066  32.036  30.594  1.00  0.00     0.029 A 
ATOM     52  N   UNL A   1      42.249  30.518  29.480  1.00  0.00    -0.354 N 
ATOM     53  N   UNL A   1      44.601  29.506  28.076  1.00  0.00    -0.248 NA
ATOM     54  C   UNL A   1      46.806  29.778  27.352  1.00  0.00     0.031 C 
ATOM     55  C   UNL A   1      42.380  32.503  30.469  1.00  0.00     0.029 A 
ATOM     56  C   UNL A   1      43.114  31.557  29.771  1.00  0.00     0.049 A 
ATOM     57  H   UNL A   1      42.489  29.707  28.976  1.00  0.00     0.167 HD
ATOM     58  C   UNL A   1      45.119  30.675  28.618  1.00  0.00     0.074 A 
ATOM     59  C   UNL A   1      46.492  30.777  28.169  1.00  0.00     0.031 C 
ATOM     60  C   UNL A   1      44.501  31.600  29.392  1.00  0.00     0.034 A 
BRANCH  47  61
ATOM     61  C   UNL A   1      38.600  30.301  30.617  1.00  0.00     0.023 A 
ATOM     62  C   UNL A   1      38.383  29.930  31.957  1.00  0.00     0.012 A 
ATOM     63  C   UNL A   1      37.639  31.080  29.948  1.00  0.00     0.148 A 
ATOM     64  C   UNL A   1      37.218  30.319  32.617  1.00  0.00     0.002 A 
ATOM     65  C   UNL A   1      36.487  31.480  30.621  1.00  0.00     0.091 A 
ATOM     66  F   UNL A   1      37.844  31.402  28.662  1.00  0.00    -0.205 F 
ATOM     67  C   UNL A   1      36.273  31.100  31.953  1.00  0.00     0.022 A 
BRANCH  65  68
ATOM     68  S   UNL A   1      35.275  32.517  29.793  1.00  0.00     0.127 S 
ATOM     69  O   UNL A   1      34.330  32.798  30.861  1.00  0.00    -0.237 OA
ATOM     70  O   UNL A   1      36.060  33.670  29.367  1.00  0.00    -0.237 OA
ATOM     71  O   UNL A   1      34.789  31.694  28.699  1.00  0.00    -0.744 OA
ENDBRANCH  65  68
ENDBRANCH  47  61
BRANCH  48  72
ATOM     72  C   UNL A   1      46.797  27.239  25.873  1.00  0.00     0.023 A 
ATOM     73  C   UNL A   1      46.942  27.515  24.500  1.00  0.00     0.012 A 
ATOM     74  C   UNL A   1      47.846  26.601  26.556  1.00  0.00     0.148 A 
ATOM     75  C   UNL A   1      48.104  27.151  23.819  1.00  0.00     0.002 A 
ATOM     76  C   UNL A   1      49.022  26.282  25.881  1.00  0.00     0.091 A 
ATOM     77  F   UNL A   1      47.701  26.336  27.864  1.00  0.00    -0.205 F 
ATOM     78  C   UNL A   1      49.151  26.544  24.511  1.00  0.00     0.022 A 
BRANCH  76  79
ATOM     79  S   UNL A   1      50.423  25.629  26.795  1.00  0.00     0.127 S 
ATOM     80  O   UNL A   1      50.752  26.727  27.688  1.00  0.00    -0.237 OA
ATOM     81  O   UNL A   1      49.869  24.453  27.455  1.00  0.00    -0.237 OA
ATOM     82  O   UNL A   1      51.390  25.320  25.755  1.00  0.00    -0.744 OA
ENDBRANCH  76  79
ENDBRANCH  48  72
BRANCH  60  83
ATOM     83  C   UNL A   1      45.300  32.797  29.820  1.00  0.00     0.023 A 
ATOM     84  C   UNL A   1      46.006  32.743  31.037  1.00  0.00     0.012 A 
ATOM     85  C   UNL A   1      45.421  33.929  28.997  1.00  0.00     0.148 A 
ATOM     86  C   UNL A   1      46.818  33.805  31.430  1.00  0.00     0.002 A 
ATOM     87  C   UNL A   1      46.248  34.979  29.389  1.00  0.00     0.091 A 
ATOM     88  F   UNL A   1      44.729  33.976  27.850  1.00  0.00    -0.205 F 
ATOM     89  C   UNL A   1      46.947  34.921  30.603  1.00  0.00     0.022 A 
BRANCH  87  90
ATOM     90  S   UNL A   1      46.461  36.402  28.313  1.00  0.00     0.127 S 
ATOM     91  O   UNL A   1      46.979  35.796  27.095  1.00  0.00    -0.237 OA
ATOM     92  O   UNL A   1      45.108  36.935  28.192  1.00  0.00    -0.237 OA
ATOM     93  O   UNL A   1      47.375  37.266  29.044  1.00  0.00    -0.744 OA
ENDBRANCH  87  90
ENDBRANCH  60  83
ENDBRANCH  34  35
ENDBRANCH  26  29
ENDBRANCH  24  25
ENDBRANCH  23  24
ENDBRANCH   1  23
TORSDOF 17
ENDMDL
MODEL 2
REMARK VINA RESULT:     -11.1      4.985      7.570
REMARK SMILES CN(Cc1ccnn1C)C(=O)c1c(C(=O)NCCCNC(=O)c2ccc(-c3c4nc(c(-c5cccc(S(=O)(=O)[O-])c5F)c5ccc([nH]5)c(-c5cccc(S(=O)(=O)[O-])c5F)c5nc(c(-c6cccc(S(=O)(=O)[O-])c6F)c6ccc3[nH]6)C=C5)C=C4)cc2)cnn1C
REMARK SMILES IDX 17 1 16 2 14 3 15 4 13 6 12 7 88 8 86 9 87 10 89 11 10 12
REMARK SMILES IDX 11 13 2 14 1 15 3 16 4 17 5 18 8 19 6 20 7 21 9 22 18 23
REMARK SMILES IDX 19 24 20 25 21 26 22 28 23 29 24 30 85 31 25 32 84 33 26 34
REMARK SMILES IDX 27 35 28 36 78 37 29 38 83 39 77 40 79 41 30 42 82 43 76 44
REMARK SMILES IDX 75 45 31 47 63 48 43 49 62 50 44 51 47 52 61 53 80 54 45 55
REMARK SMILES IDX 46 56 60 58 81 59 48 60 32 61 33 62 41 63 34 64 36 65 42 66
REMARK SMILES IDX 35 67 37 68 38 69 39 70 40 71 64 72 65 73 73 74 66 75 68 76
REMARK SMILES IDX 74 77 67 78 69 79 70 80 71 81 72 82 49 83 50 84 58 85 51 86
REMARK SMILES IDX 53 87 59 88 52 89 54 90 55 91 56 92 57 93
REMARK H PARENT 16 5 20 27 79 46 47 57
REMARK Flexibility Score: inf
ROOT
ATOM      1  C   UNL A   1      32.234  27.972  27.293  1.00  0.00     0.118 C 
ENDROOT
BRANCH   1   2
ATOM      2  N   UNL A   1      31.182  26.984  27.129  1.00  0.00    -0.352 N 
ATOM      3  C   UNL A   1      30.679  26.288  26.080  1.00  0.00     0.255 C 
ATOM      4  O   UNL A   1      29.765  25.507  26.378  1.00  0.00    -0.269 OA
ATOM      5  H   UNL A   1      30.731  26.769  27.977  1.00  0.00     0.163 HD
BRANCH   3   6
ATOM      6  C   UNL A   1      31.081  26.399  24.684  1.00  0.00     0.090 A 
ATOM      7  C   UNL A   1      31.739  25.597  23.756  1.00  0.00     0.138 A 
ATOM      8  N   UNL A   1      31.678  26.273  22.559  1.00  0.00    -0.262 N 
ATOM      9  C   UNL A   1      30.771  27.567  23.928  1.00  0.00     0.149 A 
ATOM     10  N   UNL A   1      31.161  27.509  22.662  1.00  0.00    -0.180 NA
ATOM     11  C   UNL A   1      32.051  25.805  21.242  1.00  0.00     0.174 C 
BRANCH   7  12
ATOM     12  C   UNL A   1      32.276  24.257  23.835  1.00  0.00     0.273 C 
ATOM     13  O   UNL A   1      31.554  23.293  23.799  1.00  0.00    -0.267 OA
BRANCH  12  14
ATOM     14  N   UNL A   1      33.678  24.154  23.926  1.00  0.00    -0.334 N 
ATOM     15  C   UNL A   1      34.368  25.081  24.811  1.00  0.00     0.147 C 
BRANCH  14  16
ATOM     16  C   UNL A   1      34.512  23.324  23.058  1.00  0.00     0.175 C 
BRANCH  16  17
ATOM     17  C   UNL A   1      35.500  22.550  23.862  1.00  0.00     0.057 A 
ATOM     18  C   UNL A   1      36.871  22.690  23.989  1.00  0.00     0.047 A 
ATOM     19  N   UNL A   1      35.184  21.446  24.623  1.00  0.00    -0.271 N 
ATOM     20  C   UNL A   1      37.271  21.675  24.871  1.00  0.00     0.135 A 
ATOM     21  N   UNL A   1      36.243  20.939  25.287  1.00  0.00    -0.181 NA
ATOM     22  C   UNL A   1      33.904  20.797  24.793  1.00  0.00     0.174 C 
ENDBRANCH  16  17
ENDBRANCH  14  16
ENDBRANCH  12  14
ENDBRANCH   7  12
ENDBRANCH   3   6
ENDBRANCH   1   2
BRANCH   1  23
ATOM     23  C   UNL A   1      31.730  29.406  27.116  1.00  0.00     0.042 C 
BRANCH  23  24
ATOM     24  C   UNL A   1      32.635  30.291  26.264  1.00  0.00     0.118 C 
BRANCH  24  25
ATOM     25  N   UNL A   1      32.610  31.691  26.645  1.00  0.00    -0.352 N 
ATOM     26  C   UNL A   1      33.442  32.455  27.426  1.00  0.00     0.251 C 
ATOM     27  H   UNL A   1      31.849  32.191  26.269  1.00  0.00     0.163 HD
ATOM     28  O   UNL A   1      33.113  33.622  27.646  1.00  0.00    -0.269 OA
BRANCH  26  29
ATOM     29  C   UNL A   1      34.685  31.930  28.050  1.00  0.00     0.039 A 
ATOM     30  C   UNL A   1      34.641  30.641  28.601  1.00  0.00     0.014 A 
ATOM     31  C   UNL A   1      35.854  32.679  28.193  1.00  0.00     0.014 A 
ATOM     32  C   UNL A   1      35.760  30.097  29.241  1.00  0.00     0.010 A 
ATOM     33  C   UNL A   1      36.998  32.107  28.761  1.00  0.00     0.010 A 
ATOM     34  C   UNL A   1      36.963  30.816  29.304  1.00  0.00    -0.014 A 
BRANCH  34  35
ATOM     35  C   UNL A   1      38.176  30.255  29.958  1.00  0.00     0.031 A 
ATOM     36  C   UNL A   1      38.530  30.647  31.369  1.00  0.00     0.074 A 
ATOM     37  C   UNL A   1      39.007  29.448  29.268  1.00  0.00     0.049 A 
ATOM     38  N   UNL A   1      39.620  30.389  32.048  1.00  0.00    -0.248 NA
ATOM     39  C   UNL A   1      37.546  31.460  32.103  1.00  0.00     0.031 C 
ATOM     40  C   UNL A   1      38.819  29.027  27.880  1.00  0.00     0.029 A 
ATOM     41  N   UNL A   1      40.187  28.850  29.639  1.00  0.00    -0.354 N 
ATOM     42  C   UNL A   1      39.490  31.075  33.249  1.00  0.00     0.074 A 
ATOM     43  C   UNL A   1      38.206  31.743  33.218  1.00  0.00     0.031 C 
ATOM     44  C   UNL A   1      39.833  28.220  27.524  1.00  0.00     0.029 A 
ATOM     45  C   UNL A   1      40.758  28.090  28.645  1.00  0.00     0.049 A 
ATOM     46  H   UNL A   1      40.587  28.956  30.532  1.00  0.00     0.167 HD
ATOM     47  C   UNL A   1      40.351  31.134  34.291  1.00  0.00     0.034 A 
ATOM     48  C   UNL A   1      41.894  27.366  28.637  1.00  0.00     0.034 A 
ATOM     49  C   UNL A   1      41.574  30.384  34.380  1.00  0.00     0.049 A 
ATOM     50  C   UNL A   1      42.752  27.317  29.871  1.00  0.00     0.074 A 
ATOM     51  C   UNL A   1      42.492  30.352  35.416  1.00  0.00     0.029 A 
ATOM     52  N   UNL A   1      42.028  29.501  33.415  1.00  0.00    -0.354 N 
ATOM     53  N   UNL A   1      42.575  27.923  31.019  1.00  0.00    -0.248 NA
ATOM     54  C   UNL A   1      43.953  26.468  29.818  1.00  0.00     0.031 C 
ATOM     55  C   UNL A   1      43.482  29.415  35.092  1.00  0.00     0.029 A 
ATOM     56  C   UNL A   1      43.192  28.889  33.844  1.00  0.00     0.049 A 
ATOM     57  H   UNL A   1      41.587  29.334  32.550  1.00  0.00     0.167 HD
ATOM     58  C   UNL A   1      43.628  27.519  31.829  1.00  0.00     0.074 A 
ATOM     59  C   UNL A   1      44.428  26.596  31.051  1.00  0.00     0.031 C 
ATOM     60  C   UNL A   1      43.926  27.907  33.093  1.00  0.00     0.034 A 
BRANCH  47  61
ATOM     61  C   UNL A   1      39.964  31.996  35.458  1.00  0.00     0.023 A 
ATOM     62  C   UNL A   1      40.531  33.279  35.580  1.00  0.00     0.012 A 
ATOM     63  C   UNL A   1      39.022  31.560  36.406  1.00  0.00     0.148 A 
ATOM     64  C   UNL A   1      40.173  34.110  36.641  1.00  0.00     0.002 A 
ATOM     65  C   UNL A   1      38.656  32.404  37.451  1.00  0.00     0.091 A 
ATOM     66  F   UNL A   1      38.511  30.325  36.294  1.00  0.00    -0.205 F 
ATOM     67  C   UNL A   1      39.230  33.677  37.572  1.00  0.00     0.022 A 
BRANCH  65  68
ATOM     68  S   UNL A   1      37.416  31.878  38.642  1.00  0.00     0.127 S 
ATOM     69  O   UNL A   1      38.111  32.053  39.907  1.00  0.00    -0.237 OA
ATOM     70  O   UNL A   1      36.324  32.819  38.422  1.00  0.00    -0.237 OA
ATOM     71  O   UNL A   1      37.108  30.512  38.255  1.00  0.00    -0.744 OA
ENDBRANCH  65  68
ENDBRANCH  47  61
BRANCH  48  72
ATOM     72  C   UNL A   1      42.225  26.543  27.443  1.00  0.00     0.023 A 
ATOM     73  C   UNL A   1      42.963  27.129  26.397  1.00  0.00     0.012 A 
ATOM     74  C   UNL A   1      41.887  25.181  27.362  1.00  0.00     0.148 A 
ATOM     75  C   UNL A   1      43.346  26.376  25.287  1.00  0.00     0.002 A 
ATOM     76  C   UNL A   1      42.313  24.425  26.273  1.00  0.00     0.091 A 
ATOM     77  F   UNL A   1      41.180  24.629  28.359  1.00  0.00    -0.205 F 
ATOM     78  C   UNL A   1      43.032  25.020  25.228  1.00  0.00     0.022 A 
BRANCH  76  79
ATOM     79  S   UNL A   1      42.032  22.651  26.259  1.00  0.00     0.127 S 
ATOM     80  O   UNL A   1      42.679  22.241  25.025  1.00  0.00    -0.237 OA
ATOM     81  O   UNL A   1      42.698  22.201  27.475  1.00  0.00    -0.237 OA
ATOM     82  O   UNL A   1      40.583  22.539  26.306  1.00  0.00    -0.744 OA
ENDBRANCH  76  79
ENDBRANCH  48  72
BRANCH  60  83
ATOM     83  C   UNL A   1      45.156  27.326  33.729  1.00  0.00     0.023 A 
ATOM     84  C   UNL A   1      46.387  27.987  33.559  1.00  0.00     0.012 A 
ATOM     85  C   UNL A   1      45.087  26.188  34.551  1.00  0.00     0.148 A 
ATOM     86  C   UNL A   1      47.534  27.518  34.196  1.00  0.00     0.002 A 
ATOM     87  C   UNL A   1      46.234  25.736  35.198  1.00  0.00     0.091 A 
ATOM     88  F   UNL A   1      43.912  25.556  34.690  1.00  0.00    -0.205 F 
ATOM     89  C   UNL A   1      47.458  26.398  35.023  1.00  0.00     0.022 A 
BRANCH  87  90
ATOM     90  S   UNL A   1      46.143  24.322  36.303  1.00  0.00     0.127 S 
ATOM     91  O   UNL A   1      45.768  23.245  35.398  1.00  0.00    -0.237 OA
ATOM     92  O   UNL A   1      47.499  24.221  36.829  1.00  0.00    -0.237 OA
ATOM     93  O   UNL A   1      45.150  24.709  37.293  1.00  0.00    -0.744 OA
ENDBRANCH  87  90
ENDBRANCH  60  83
ENDBRANCH  34  35
ENDBRANCH  26  29
ENDBRANCH  24  25
ENDBRANCH  23  24
ENDBRANCH   1  23
TORSDOF 17
ENDMDL
MODEL 3
REMARK VINA RESULT:     -10.9      1.750      7.714
REMARK SMILES CN(Cc1ccnn1C)C(=O)c1c(C(=O)NCCCNC(=O)c2ccc(-c3c4nc(c(-c5cccc(S(=O)(=O)[O-])c5F)c5ccc([nH]5)c(-c5cccc(S(=O)(=O)[O-])c5F)c5nc(c(-c6cccc(S(=O)(=O)[O-])c6F)c6ccc3[nH]6)C=C5)C=C4)cc2)cnn1C
REMARK SMILES IDX 17 1 16 2 14 3 15 4 13 6 12 7 88 8 86 9 87 10 89 11 10 12
REMARK SMILES IDX 11 13 2 14 1 15 3 16 4 17 5 18 8 19 6 20 7 21 9 22 18 23
REMARK SMILES IDX 19 24 20 25 21 26 22 28 23 29 24 30 85 31 25 32 84 33 26 34
REMARK SMILES IDX 27 35 28 36 78 37 29 38 83 39 77 40 79 41 30 42 82 43 76 44
REMARK SMILES IDX 75 45 31 47 63 48 43 49 62 50 44 51 47 52 61 53 80 54 45 55
REMARK SMILES IDX 46 56 60 58 81 59 48 60 32 61 33 62 41 63 34 64 36 65 42 66
REMARK SMILES IDX 35 67 37 68 38 69 39 70 40 71 64 72 65 73 73 74 66 75 68 76
REMARK SMILES IDX 74 77 67 78 69 79 70 80 71 81 72 82 49 83 50 84 58 85 51 86
REMARK SMILES IDX 53 87 59 88 52 89 54 90 55 91 56 92 57 93
REMARK H PARENT 16 5 20 27 79 46 47 57
REMARK Flexibility Score: inf
ROOT
ATOM      1  C   UNL A   1      34.745  20.124  24.960  1.00  0.00     0.118 C 
ENDROOT
BRANCH   1   2
ATOM      2  N   UNL A   1      33.365  20.417  25.305  1.00  0.00    -0.352 N 
ATOM      3  C   UNL A   1      32.466  21.361  24.932  1.00  0.00     0.255 C 
ATOM      4  O   UNL A   1      31.354  21.245  25.466  1.00  0.00    -0.269 OA
ATOM      5  H   UNL A   1      32.997  19.783  25.962  1.00  0.00     0.163 HD
BRANCH   3   6
ATOM      6  C   UNL A   1      32.695  22.473  24.019  1.00  0.00     0.090 A 
ATOM      7  C   UNL A   1      32.835  23.854  24.124  1.00  0.00     0.138 A 
ATOM      8  N   UNL A   1      33.162  24.299  22.864  1.00  0.00    -0.262 N 
ATOM      9  C   UNL A   1      32.865  22.244  22.623  1.00  0.00     0.149 A 
ATOM     10  N   UNL A   1      33.109  23.343  21.922  1.00  0.00    -0.180 NA
ATOM     11  C   UNL A   1      33.588  25.622  22.461  1.00  0.00     0.174 C 
BRANCH   7  12
ATOM     12  C   UNL A   1      32.829  24.749  25.261  1.00  0.00     0.273 C 
ATOM     13  O   UNL A   1      33.823  24.927  25.917  1.00  0.00    -0.267 OA
BRANCH  12  14
ATOM     14  N   UNL A   1      31.613  25.408  25.526  1.00  0.00    -0.334 N 
ATOM     15  C   UNL A   1      30.625  24.707  26.332  1.00  0.00     0.147 C 
BRANCH  14  16
ATOM     16  C   UNL A   1      31.186  26.657  24.895  1.00  0.00     0.175 C 
BRANCH  16  17
ATOM     17  C   UNL A   1      31.574  27.828  25.732  1.00  0.00     0.057 A 
ATOM     18  C   UNL A   1      32.122  27.891  27.002  1.00  0.00     0.047 A 
ATOM     19  N   UNL A   1      31.377  29.141  25.365  1.00  0.00    -0.271 N 
ATOM     20  C   UNL A   1      32.262  29.258  27.281  1.00  0.00     0.135 A 
ATOM     21  N   UNL A   1      31.844  30.021  26.274  1.00  0.00    -0.181 NA
ATOM     22  C   UNL A   1      30.762  29.666  24.167  1.00  0.00     0.174 C 
ENDBRANCH  16  17
ENDBRANCH  14  16
ENDBRANCH  12  14
ENDBRANCH   7  12
ENDBRANCH   3   6
ENDBRANCH   1   2
BRANCH   1  23
ATOM     23  C   UNL A   1      35.718  21.196  25.454  1.00  0.00     0.042 C 
BRANCH  23  24
ATOM     24  C   UNL A   1      37.044  21.239  24.701  1.00  0.00     0.118 C 
BRANCH  24  25
ATOM     25  N   UNL A   1      38.051  20.343  25.239  1.00  0.00    -0.352 N 
ATOM     26  C   UNL A   1      39.248  20.565  25.873  1.00  0.00     0.251 C 
ATOM     27  H   UNL A   1      37.832  19.389  25.127  1.00  0.00     0.163 HD
ATOM     28  O   UNL A   1      39.946  19.586  26.145  1.00  0.00    -0.269 OA
BRANCH  26  29
ATOM     29  C   UNL A   1      39.757  21.923  26.202  1.00  0.00     0.039 A 
ATOM     30  C   UNL A   1      41.072  22.026  26.680  1.00  0.00     0.014 A 
ATOM     31  C   UNL A   1      38.974  23.077  26.146  1.00  0.00     0.014 A 
ATOM     32  C   UNL A   1      41.605  23.266  27.049  1.00  0.00     0.010 A 
ATOM     33  C   UNL A   1      39.530  24.327  26.437  1.00  0.00     0.010 A 
ATOM     34  C   UNL A   1      40.846  24.437  26.905  1.00  0.00    -0.014 A 
BRANCH  34  35
ATOM     35  C   UNL A   1      41.393  25.772  27.268  1.00  0.00     0.031 A 
ATOM     36  C   UNL A   1      42.768  26.182  26.806  1.00  0.00     0.074 A 
ATOM     37  C   UNL A   1      40.692  26.598  28.071  1.00  0.00     0.049 A 
ATOM     38  N   UNL A   1      43.473  27.232  27.147  1.00  0.00    -0.248 NA
ATOM     39  C   UNL A   1      43.452  25.283  25.863  1.00  0.00     0.031 C 
ATOM     40  C   UNL A   1      39.373  26.312  28.635  1.00  0.00     0.029 A 
ATOM     41  N   UNL A   1      41.002  27.842  28.565  1.00  0.00    -0.354 N 
ATOM     42  C   UNL A   1      44.708  27.075  26.532  1.00  0.00     0.074 A 
ATOM     43  C   UNL A   1      44.652  25.841  25.777  1.00  0.00     0.031 C 
ATOM     44  C   UNL A   1      38.975  27.359  29.377  1.00  0.00     0.029 A 
ATOM     45  C   UNL A   1      40.021  28.377  29.368  1.00  0.00     0.049 A 
ATOM     46  H   UNL A   1      41.846  28.306  28.365  1.00  0.00     0.167 HD
ATOM     47  C   UNL A   1      45.789  27.888  26.576  1.00  0.00     0.034 A 
ATOM     48  C   UNL A   1      39.966  29.555  30.019  1.00  0.00     0.034 A 
ATOM     49  C   UNL A   1      45.818  29.170  27.226  1.00  0.00     0.049 A 
ATOM     50  C   UNL A   1      41.118  30.515  29.915  1.00  0.00     0.074 A 
ATOM     51  C   UNL A   1      46.858  30.081  27.290  1.00  0.00     0.029 A 
ATOM     52  N   UNL A   1      44.744  29.740  27.888  1.00  0.00    -0.354 N 
ATOM     53  N   UNL A   1      42.251  30.372  29.273  1.00  0.00    -0.248 NA
ATOM     54  C   UNL A   1      40.977  31.807  30.606  1.00  0.00     0.031 C 
ATOM     55  C   UNL A   1      46.398  31.222  27.958  1.00  0.00     0.029 A 
ATOM     56  C   UNL A   1      45.081  31.006  28.332  1.00  0.00     0.049 A 
ATOM     57  H   UNL A   1      43.869  29.307  28.024  1.00  0.00     0.167 HD
ATOM     58  C   UNL A   1      42.951  31.556  29.466  1.00  0.00     0.074 A 
ATOM     59  C   UNL A   1      42.106  32.419  30.265  1.00  0.00     0.031 C 
ATOM     60  C   UNL A   1      44.197  31.885  29.049  1.00  0.00     0.034 A 
BRANCH  47  61
ATOM     61  C   UNL A   1      47.018  27.443  25.838  1.00  0.00     0.023 A 
ATOM     62  C   UNL A   1      48.003  26.709  26.526  1.00  0.00     0.012 A 
ATOM     63  C   UNL A   1      47.185  27.713  24.467  1.00  0.00     0.148 A 
ATOM     64  C   UNL A   1      49.144  26.262  25.861  1.00  0.00     0.002 A 
ATOM     65  C   UNL A   1      48.319  27.247  23.807  1.00  0.00     0.091 A 
ATOM     66  F   UNL A   1      46.254  28.438  23.830  1.00  0.00    -0.205 F 
ATOM     67  C   UNL A   1      49.300  26.524  24.500  1.00  0.00     0.022 A 
BRANCH  65  68
ATOM     68  S   UNL A   1      48.520  27.543  22.046  1.00  0.00     0.127 S 
ATOM     69  O   UNL A   1      47.243  28.138  21.686  1.00  0.00    -0.237 OA
ATOM     70  O   UNL A   1      49.649  28.465  21.991  1.00  0.00    -0.237 OA
ATOM     71  O   UNL A   1      48.801  26.229  21.493  1.00  0.00    -0.744 OA
ENDBRANCH  65  68
ENDBRANCH  47  61
BRANCH  48  72
ATOM     72  C   UNL A   1      38.721  29.930  30.742  1.00  0.00     0.023 A 
ATOM     73  C   UNL A   1      38.565  29.524  32.081  1.00  0.00     0.012 A 
ATOM     74  C   UNL A   1      37.733  30.738  30.152  1.00  0.00     0.148 A 
ATOM     75  C   UNL A   1      37.441  29.907  32.814  1.00  0.00     0.002 A 
ATOM     76  C   UNL A   1      36.637  31.153  30.904  1.00  0.00     0.091 A 
ATOM     77  F   UNL A   1      37.885  31.116  28.874  1.00  0.00    -0.205 F 
ATOM     78  C   UNL A   1      36.481  30.731  32.231  1.00  0.00     0.022 A 
BRANCH  76  79
ATOM     79  S   UNL A   1      35.472  32.325  30.202  1.00  0.00     0.127 S 
ATOM     80  O   UNL A   1      34.990  31.621  29.026  1.00  0.00    -0.237 OA
ATOM     81  O   UNL A   1      34.485  32.487  31.262  1.00  0.00    -0.237 OA
ATOM     82  O   UNL A   1      36.284  33.509  29.969  1.00  0.00    -0.744 OA
ENDBRANCH  76  79
ENDBRANCH  48  72
BRANCH  60  83
ATOM     83  C   UNL A   1      44.724  33.239  29.428  1.00  0.00     0.023 A 
ATOM     84  C   UNL A   1      45.446  33.377  30.629  1.00  0.00     0.012 A 
ATOM     85  C   UNL A   1      44.581  34.346  28.574  1.00  0.00     0.148 A 
ATOM     86  C   UNL A   1      46.015  34.601  30.975  1.00  0.00     0.002 A 
ATOM     87  C   UNL A   1      45.166  35.561  28.919  1.00  0.00     0.091 A 
ATOM     88  F   UNL A   1      43.875  34.207  27.442  1.00  0.00    -0.205 F 
ATOM     89  C   UNL A   1      45.883  35.693  30.117  1.00  0.00     0.022 A 
BRANCH  87  90
ATOM     90  S   UNL A   1      45.045  36.964  27.803  1.00  0.00     0.127 S 
ATOM     91  O   UNL A   1      46.010  37.895  28.369  1.00  0.00    -0.237 OA
ATOM     92  O   UNL A   1      45.436  36.402  26.515  1.00  0.00    -0.237 OA
ATOM     93  O   UNL A   1      43.647  37.357  27.878  1.00  0.00    -0.744 OA
ENDBRANCH  87  90
ENDBRANCH  60  83
ENDBRANCH  34  35
ENDBRANCH  26  29
ENDBRANCH  24  25
ENDBRANCH  23  24
ENDBRANCH   1  23
TORSDOF 17
ENDMDL
