MODEL 1
REMARK VINA RESULT:     -13.0      0.000      0.000
REMARK SMILES O=C(C[C@@H](NS(=O)(=O)c1ccc2c(c1)OCCO2)c1ccccc1)NCCCNC(=O)c1ccc(-c2c3nc(c(-c4cccc(S(=O)(=O)[O-])c4F)c4ccc([nH]4)c(-c4cccc(S(=O)(=O)[O-])c4F)c4nc(c(-c5cccc(S(=O)(=O)[O-])c5F)c5ccc2[nH]5)C=C4)C=C3)cc1
REMARK SMILES IDX 26 1 25 2 1 3 2 4 3 6 4 7 5 8 6 10 7 11 8 12 9 13 10 14
REMARK SMILES IDX 14 15 11 16 13 17 12 18 15 19 18 20 16 21 17 22 19 23 20 24
REMARK SMILES IDX 24 25 21 26 23 27 22 28 27 29 28 30 29 31 30 32 31 34 32 35
REMARK SMILES IDX 33 36 94 37 34 38 93 39 35 40 36 41 37 42 87 43 38 44 92 45
REMARK SMILES IDX 86 46 88 47 39 48 91 49 85 50 84 51 40 53 72 54 52 55 71 56
REMARK SMILES IDX 53 57 56 58 70 59 89 60 54 61 55 62 69 64 90 65 57 66 41 67
REMARK SMILES IDX 42 68 50 69 43 70 45 71 51 72 44 73 46 74 47 75 48 76 49 77
REMARK SMILES IDX 73 78 74 79 82 80 75 81 77 82 83 83 76 84 78 85 79 86 80 87
REMARK SMILES IDX 81 88 58 89 59 90 67 91 60 92 62 93 68 94 61 95 63 96 64 97
REMARK SMILES IDX 65 98 66 99
REMARK H PARENT 25 5 5 9 29 33 88 52 56 63
REMARK Flexibility Score: inf
ROOT
ATOM      1  C   UNL A   1      35.832  23.522  24.026  1.00  0.00     0.117 C 
ENDROOT
BRANCH   1   2
ATOM      2  N   UNL A   1      34.467  23.063  24.197  1.00  0.00    -0.356 N 
ATOM      3  O   UNL A   1      33.806  23.602  22.060  1.00  0.00    -0.275 OA
ATOM      4  C   UNL A   1      33.559  23.121  23.161  1.00  0.00     0.221 C 
ATOM      5  H   UNL A   1      34.183  22.704  25.068  1.00  0.00     0.163 HD
BRANCH   4   6
ATOM      6  C   UNL A   1      32.230  22.477  23.471  1.00  0.00     0.124 C 
BRANCH   6   7
ATOM      7  C   UNL A   1      32.326  21.730  24.813  1.00  0.00     0.109 C 
BRANCH   7   8
ATOM      8  N   UNL A   1      31.095  21.987  25.605  1.00  0.00    -0.203 NA
ATOM      9  H   UNL A   1      30.780  21.088  25.970  1.00  0.00     0.142 HD
BRANCH   8  10
ATOM     10  S   UNL A   1      31.174  23.053  26.913  1.00  0.00     0.241 S 
ATOM     11  O   UNL A   1      29.896  23.017  27.589  1.00  0.00    -0.207 OA
ATOM     12  O   UNL A   1      32.404  22.728  27.601  1.00  0.00    -0.207 OA
BRANCH  10  13
ATOM     13  C   UNL A   1      31.396  24.650  26.186  1.00  0.00     0.086 A 
ATOM     14  C   UNL A   1      32.656  25.255  26.191  1.00  0.00     0.026 A 
ATOM     15  C   UNL A   1      30.317  25.244  25.525  1.00  0.00     0.072 A 
ATOM     16  C   UNL A   1      32.849  26.443  25.482  1.00  0.00     0.052 A 
ATOM     17  C   UNL A   1      30.521  26.420  24.811  1.00  0.00     0.162 A 
ATOM     18  C   UNL A   1      31.786  27.021  24.788  1.00  0.00     0.161 A 
ATOM     19  O   UNL A   1      29.439  26.920  24.134  1.00  0.00    -0.486 OA
ATOM     20  O   UNL A   1      32.063  28.160  24.078  1.00  0.00    -0.486 OA
ATOM     21  C   UNL A   1      29.854  27.826  23.109  1.00  0.00     0.271 C 
ATOM     22  C   UNL A   1      30.869  28.821  23.646  1.00  0.00     0.271 C 
ENDBRANCH  10  13
ENDBRANCH   8  10
ENDBRANCH   7   8
BRANCH   7  23
ATOM     23  C   UNL A   1      32.526  20.240  24.581  1.00  0.00    -0.029 A 
ATOM     24  C   UNL A   1      32.372  19.660  23.310  1.00  0.00     0.005 A 
ATOM     25  C   UNL A   1      32.802  19.398  25.670  1.00  0.00     0.005 A 
ATOM     26  C   UNL A   1      32.490  18.279  23.134  1.00  0.00     0.000 A 
ATOM     27  C   UNL A   1      32.907  18.016  25.495  1.00  0.00     0.000 A 
ATOM     28  C   UNL A   1      32.751  17.458  24.229  1.00  0.00     0.000 A 
ENDBRANCH   7  23
ENDBRANCH   6   7
ENDBRANCH   4   6
ENDBRANCH   1   2
BRANCH   1  29
ATOM     29  C   UNL A   1      36.868  22.423  24.230  1.00  0.00     0.042 C 
BRANCH  29  30
ATOM     30  C   UNL A   1      37.123  22.025  25.682  1.00  0.00     0.118 C 
BRANCH  30  31
ATOM     31  N   UNL A   1      38.232  21.102  25.850  1.00  0.00    -0.352 N 
ATOM     32  C   UNL A   1      39.520  21.347  26.265  1.00  0.00     0.251 C 
ATOM     33  H   UNL A   1      38.032  20.162  25.636  1.00  0.00     0.163 HD
ATOM     34  O   UNL A   1      40.347  20.439  26.226  1.00  0.00    -0.269 OA
BRANCH  32  35
ATOM     35  C   UNL A   1      39.931  22.695  26.724  1.00  0.00     0.039 A 
ATOM     36  C   UNL A   1      40.816  22.787  27.804  1.00  0.00     0.014 A 
ATOM     37  C   UNL A   1      39.447  23.862  26.125  1.00  0.00     0.014 A 
ATOM     38  C   UNL A   1      41.264  24.039  28.235  1.00  0.00     0.010 A 
ATOM     39  C   UNL A   1      39.943  25.108  26.516  1.00  0.00     0.010 A 
ATOM     40  C   UNL A   1      40.859  25.209  27.574  1.00  0.00    -0.014 A 
BRANCH  40  41
ATOM     41  C   UNL A   1      41.421  26.531  27.955  1.00  0.00     0.031 A 
ATOM     42  C   UNL A   1      42.853  26.883  27.653  1.00  0.00     0.074 A 
ATOM     43  C   UNL A   1      40.651  27.399  28.642  1.00  0.00     0.049 A 
ATOM     44  N   UNL A   1      43.496  27.994  27.904  1.00  0.00    -0.248 NA
ATOM     45  C   UNL A   1      43.676  25.846  27.012  1.00  0.00     0.031 C 
ATOM     46  C   UNL A   1      39.280  27.143  29.085  1.00  0.00     0.029 A 
ATOM     47  N   UNL A   1      40.918  28.663  29.104  1.00  0.00    -0.354 N 
ATOM     48  C   UNL A   1      44.802  27.784  27.479  1.00  0.00     0.074 A 
ATOM     49  C   UNL A   1      44.869  26.426  26.983  1.00  0.00     0.031 C 
ATOM     50  C   UNL A   1      38.822  28.218  29.745  1.00  0.00     0.029 A 
ATOM     51  C   UNL A   1      39.867  29.237  29.781  1.00  0.00     0.049 A 
ATOM     52  H   UNL A   1      41.780  29.118  28.964  1.00  0.00     0.167 HD
ATOM     53  C   UNL A   1      45.843  28.651  27.471  1.00  0.00     0.034 A 
ATOM     54  C   UNL A   1      39.750  30.451  30.353  1.00  0.00     0.034 A 
ATOM     55  C   UNL A   1      45.763  30.019  27.912  1.00  0.00     0.049 A 
ATOM     56  C   UNL A   1      40.890  31.426  30.247  1.00  0.00     0.074 A 
ATOM     57  C   UNL A   1      46.739  31.000  27.857  1.00  0.00     0.029 A 
ATOM     58  N   UNL A   1      44.644  30.602  28.486  1.00  0.00    -0.354 N 
ATOM     59  N   UNL A   1      42.060  31.266  29.677  1.00  0.00    -0.248 NA
ATOM     60  C   UNL A   1      40.678  32.763  30.819  1.00  0.00     0.031 C 
ATOM     61  C   UNL A   1      46.208  32.177  28.399  1.00  0.00     0.029 A 
ATOM     62  C   UNL A   1      44.902  31.929  28.786  1.00  0.00     0.049 A 
ATOM     63  H   UNL A   1      43.792  30.140  28.653  1.00  0.00     0.167 HD
ATOM     64  C   UNL A   1      42.711  32.489  29.795  1.00  0.00     0.074 A 
ATOM     65  C   UNL A   1      41.793  33.387  30.466  1.00  0.00     0.031 C 
ATOM     66  C   UNL A   1      43.963  32.831  29.401  1.00  0.00     0.034 A 
BRANCH  53  67
ATOM     67  C   UNL A   1      47.147  28.170  26.889  1.00  0.00     0.023 A 
ATOM     68  C   UNL A   1      48.202  27.829  27.759  1.00  0.00     0.012 A 
ATOM     69  C   UNL A   1      47.311  27.994  25.502  1.00  0.00     0.148 A 
ATOM     70  C   UNL A   1      49.411  27.348  27.259  1.00  0.00     0.002 A 
ATOM     71  C   UNL A   1      48.507  27.480  25.012  1.00  0.00     0.091 A 
ATOM     72  F   UNL A   1      46.307  28.348  24.686  1.00  0.00    -0.205 F 
ATOM     73  C   UNL A   1      49.560  27.164  25.887  1.00  0.00     0.022 A 
BRANCH  71  74
ATOM     74  S   UNL A   1      48.765  27.143  23.266  1.00  0.00     0.127 S 
ATOM     75  O   UNL A   1      50.224  27.140  23.177  1.00  0.00    -0.237 OA
ATOM     76  O   UNL A   1      48.143  25.828  23.104  1.00  0.00    -0.237 OA
ATOM     77  O   UNL A   1      48.091  28.219  22.551  1.00  0.00    -0.744 OA
ENDBRANCH  71  74
ENDBRANCH  53  67
BRANCH  54  78
ATOM     78  C   UNL A   1      38.460  30.848  30.983  1.00  0.00     0.023 A 
ATOM     79  C   UNL A   1      38.270  30.620  32.360  1.00  0.00     0.012 A 
ATOM     80  C   UNL A   1      37.445  31.486  30.246  1.00  0.00     0.148 A 
ATOM     81  C   UNL A   1      37.083  30.998  32.987  1.00  0.00     0.002 A 
ATOM     82  C   UNL A   1      36.284  31.906  30.887  1.00  0.00     0.091 A 
ATOM     83  F   UNL A   1      37.634  31.678  28.933  1.00  0.00    -0.205 F 
ATOM     84  C   UNL A   1      36.095  31.650  32.255  1.00  0.00     0.022 A 
BRANCH  82  85
ATOM     85  S   UNL A   1      35.029  32.872  30.041  1.00  0.00     0.127 S 
ATOM     86  O   UNL A   1      34.521  31.915  29.063  1.00  0.00    -0.237 OA
ATOM     87  O   UNL A   1      34.101  33.195  31.126  1.00  0.00    -0.237 OA
ATOM     88  O   UNL A   1      35.734  34.029  29.502  1.00  0.00    -0.744 OA
ENDBRANCH  82  85
ENDBRANCH  54  78
BRANCH  66  89
ATOM     89  C   UNL A   1      44.413  34.242  29.668  1.00  0.00     0.023 A 
ATOM     90  C   UNL A   1      45.015  34.555  30.903  1.00  0.00     0.012 A 
ATOM     91  C   UNL A   1      44.294  35.242  28.685  1.00  0.00     0.148 A 
ATOM     92  C   UNL A   1      45.463  35.849  31.168  1.00  0.00     0.002 A 
ATOM     93  C   UNL A   1      44.780  36.521  28.940  1.00  0.00     0.091 A 
ATOM     94  F   UNL A   1      43.697  34.937  27.524  1.00  0.00    -0.205 F 
ATOM     95  C   UNL A   1      45.355  36.828  30.183  1.00  0.00     0.022 A 
BRANCH  93  96
ATOM     96  S   UNL A   1      44.751  37.806  27.685  1.00  0.00     0.127 S 
ATOM     97  O   UNL A   1      43.325  37.895  27.378  1.00  0.00    -0.237 OA
ATOM     98  O   UNL A   1      45.292  38.964  28.398  1.00  0.00    -0.237 OA
ATOM     99  O   UNL A   1      45.604  37.316  26.611  1.00  0.00    -0.744 OA
ENDBRANCH  93  96
ENDBRANCH  66  89
ENDBRANCH  40  41
ENDBRANCH  32  35
ENDBRANCH  30  31
ENDBRANCH  29  30
ENDBRANCH   1  29
TORSDOF 18
ENDMDL
MODEL 2
REMARK VINA RESULT:     -12.8      1.713      3.958
REMARK SMILES O=C(C[C@@H](NS(=O)(=O)c1ccc2c(c1)OCCO2)c1ccccc1)NCCCNC(=O)c1ccc(-c2c3nc(c(-c4cccc(S(=O)(=O)[O-])c4F)c4ccc([nH]4)c(-c4cccc(S(=O)(=O)[O-])c4F)c4nc(c(-c5cccc(S(=O)(=O)[O-])c5F)c5ccc2[nH]5)C=C4)C=C3)cc1
REMARK SMILES IDX 26 1 25 2 1 3 2 4 3 6 4 7 5 8 6 10 7 11 8 12 9 13 10 14
REMARK SMILES IDX 14 15 11 16 13 17 12 18 15 19 18 20 16 21 17 22 19 23 20 24
REMARK SMILES IDX 24 25 21 26 23 27 22 28 27 29 28 30 29 31 30 32 31 34 32 35
REMARK SMILES IDX 33 36 94 37 34 38 93 39 35 40 36 41 37 42 87 43 38 44 92 45
REMARK SMILES IDX 86 46 88 47 39 48 91 49 85 50 84 51 40 53 72 54 52 55 71 56
REMARK SMILES IDX 53 57 56 58 70 59 89 60 54 61 55 62 69 64 90 65 57 66 41 67
REMARK SMILES IDX 42 68 50 69 43 70 45 71 51 72 44 73 46 74 47 75 48 76 49 77
REMARK SMILES IDX 73 78 74 79 82 80 75 81 77 82 83 83 76 84 78 85 79 86 80 87
REMARK SMILES IDX 81 88 58 89 59 90 67 91 60 92 62 93 68 94 61 95 63 96 64 97
REMARK SMILES IDX 65 98 66 99
REMARK H PARENT 25 5 5 9 29 33 88 52 56 63
REMARK Flexibility Score: inf
ROOT
ATOM      1  C   UNL A   1      35.534  22.890  23.474  1.00  0.00     0.117 C 
ENDROOT
BRANCH   1   2
ATOM      2  N   UNL A   1      35.266  23.891  24.490  1.00  0.00    -0.356 N 
ATOM      3  O   UNL A   1      33.638  24.974  23.278  1.00  0.00    -0.275 OA
ATOM      4  C   UNL A   1      34.297  24.854  24.306  1.00  0.00     0.221 C 
ATOM      5  H   UNL A   1      35.787  23.883  25.325  1.00  0.00     0.163 HD
BRANCH   4   6
ATOM      6  C   UNL A   1      34.058  25.725  25.514  1.00  0.00     0.124 C 
BRANCH   6   7
ATOM      7  C   UNL A   1      32.575  26.136  25.563  1.00  0.00     0.109 C 
BRANCH   7   8
ATOM      8  N   UNL A   1      31.882  25.343  26.611  1.00  0.00    -0.203 NA
ATOM      9  H   UNL A   1      31.321  25.996  27.159  1.00  0.00     0.142 HD
BRANCH   8  10
ATOM     10  S   UNL A   1      30.858  24.085  26.140  1.00  0.00     0.241 S 
ATOM     11  O   UNL A   1      29.978  23.793  27.250  1.00  0.00    -0.207 OA
ATOM     12  O   UNL A   1      30.342  24.472  24.845  1.00  0.00    -0.207 OA
BRANCH  10  13
ATOM     13  C   UNL A   1      31.929  22.702  25.876  1.00  0.00     0.086 A 
ATOM     14  C   UNL A   1      32.896  22.371  26.828  1.00  0.00     0.026 A 
ATOM     15  C   UNL A   1      31.720  21.895  24.754  1.00  0.00     0.072 A 
ATOM     16  C   UNL A   1      33.629  21.191  26.680  1.00  0.00     0.052 A 
ATOM     17  C   UNL A   1      32.445  20.715  24.621  1.00  0.00     0.162 A 
ATOM     18  C   UNL A   1      33.400  20.362  25.583  1.00  0.00     0.161 A 
ATOM     19  O   UNL A   1      32.153  19.937  23.530  1.00  0.00    -0.486 OA
ATOM     20  O   UNL A   1      34.124  19.199  25.530  1.00  0.00    -0.486 OA
ATOM     21  C   UNL A   1      32.600  18.593  23.729  1.00  0.00     0.271 C 
ATOM     22  C   UNL A   1      34.028  18.571  24.247  1.00  0.00     0.271 C 
ENDBRANCH  10  13
ENDBRANCH   8  10
ENDBRANCH   7   8
BRANCH   7  23
ATOM     23  C   UNL A   1      32.444  27.628  25.828  1.00  0.00    -0.029 A 
ATOM     24  C   UNL A   1      32.992  28.229  26.974  1.00  0.00     0.005 A 
ATOM     25  C   UNL A   1      31.696  28.427  24.947  1.00  0.00     0.005 A 
ATOM     26  C   UNL A   1      32.796  29.588  27.232  1.00  0.00     0.000 A 
ATOM     27  C   UNL A   1      31.490  29.782  25.214  1.00  0.00     0.000 A 
ATOM     28  C   UNL A   1      32.040  30.361  26.355  1.00  0.00     0.000 A 
ENDBRANCH   7  23
ENDBRANCH   6   7
ENDBRANCH   4   6
ENDBRANCH   1   2
BRANCH   1  29
ATOM     29  C   UNL A   1      36.705  21.978  23.821  1.00  0.00     0.042 C 
BRANCH  29  30
ATOM     30  C   UNL A   1      36.911  21.716  25.311  1.00  0.00     0.118 C 
BRANCH  30  31
ATOM     31  N   UNL A   1      37.924  20.715  25.595  1.00  0.00    -0.352 N 
ATOM     32  C   UNL A   1      39.193  20.874  26.102  1.00  0.00     0.251 C 
ATOM     33  H   UNL A   1      37.666  19.787  25.395  1.00  0.00     0.163 HD
ATOM     34  O   UNL A   1      39.944  19.902  26.156  1.00  0.00    -0.269 OA
BRANCH  32  35
ATOM     35  C   UNL A   1      39.678  22.201  26.549  1.00  0.00     0.039 A 
ATOM     36  C   UNL A   1      40.653  22.249  27.551  1.00  0.00     0.014 A 
ATOM     37  C   UNL A   1      39.176  23.392  26.014  1.00  0.00     0.014 A 
ATOM     38  C   UNL A   1      41.169  23.480  27.966  1.00  0.00     0.010 A 
ATOM     39  C   UNL A   1      39.737  24.616  26.384  1.00  0.00     0.010 A 
ATOM     40  C   UNL A   1      40.741  24.672  27.363  1.00  0.00    -0.014 A 
BRANCH  40  41
ATOM     41  C   UNL A   1      41.369  25.972  27.718  1.00  0.00     0.031 A 
ATOM     42  C   UNL A   1      42.797  26.271  27.353  1.00  0.00     0.074 A 
ATOM     43  C   UNL A   1      40.662  26.867  28.440  1.00  0.00     0.049 A 
ATOM     44  N   UNL A   1      43.491  27.358  27.575  1.00  0.00    -0.248 NA
ATOM     45  C   UNL A   1      43.552  25.206  26.675  1.00  0.00     0.031 C 
ATOM     46  C   UNL A   1      39.304  26.661  28.944  1.00  0.00     0.029 A 
ATOM     47  N   UNL A   1      40.996  28.119  28.890  1.00  0.00    -0.354 N 
ATOM     48  C   UNL A   1      44.769  27.101  27.092  1.00  0.00     0.074 A 
ATOM     49  C   UNL A   1      44.763  25.742  26.592  1.00  0.00     0.031 C 
ATOM     50  C   UNL A   1      38.916  27.751  29.624  1.00  0.00     0.029 A 
ATOM     51  C   UNL A   1      39.999  28.730  29.614  1.00  0.00     0.049 A 
ATOM     52  H   UNL A   1      41.868  28.542  28.712  1.00  0.00     0.167 HD
ATOM     53  C   UNL A   1      45.840  27.928  27.037  1.00  0.00     0.034 A 
ATOM     54  C   UNL A   1      39.952  29.947  30.191  1.00  0.00     0.034 A 
ATOM     55  C   UNL A   1      45.830  29.297  27.482  1.00  0.00     0.049 A 
ATOM     56  C   UNL A   1      41.122  30.878  30.034  1.00  0.00     0.074 A 
ATOM     57  C   UNL A   1      46.838  30.241  27.385  1.00  0.00     0.029 A 
ATOM     58  N   UNL A   1      44.761  29.920  28.106  1.00  0.00    -0.354 N 
ATOM     59  N   UNL A   1      42.259  30.677  29.413  1.00  0.00    -0.248 NA
ATOM     60  C   UNL A   1      40.986  32.222  30.616  1.00  0.00     0.031 C 
ATOM     61  C   UNL A   1      46.377  31.436  27.950  1.00  0.00     0.029 A 
ATOM     62  C   UNL A   1      45.081  31.236  28.395  1.00  0.00     0.049 A 
ATOM     63  H   UNL A   1      43.900  29.490  28.311  1.00  0.00     0.167 HD
ATOM     64  C   UNL A   1      42.959  31.874  29.501  1.00  0.00     0.074 A 
ATOM     65  C   UNL A   1      42.107  32.805  30.213  1.00  0.00     0.031 C 
ATOM     66  C   UNL A   1      44.204  32.170  29.052  1.00  0.00     0.034 A 
BRANCH  53  67
ATOM     67  C   UNL A   1      47.097  27.400  26.398  1.00  0.00     0.023 A 
ATOM     68  C   UNL A   1      47.360  27.704  25.047  1.00  0.00     0.012 A 
ATOM     69  C   UNL A   1      48.042  26.663  27.137  1.00  0.00     0.148 A 
ATOM     70  C   UNL A   1      48.529  27.260  24.432  1.00  0.00     0.002 A 
ATOM     71  C   UNL A   1      49.224  26.254  26.527  1.00  0.00     0.091 A 
ATOM     72  F   UNL A   1      47.766  26.360  28.413  1.00  0.00    -0.205 F 
ATOM     73  C   UNL A   1      49.465  26.545  25.173  1.00  0.00     0.022 A 
BRANCH  71  74
ATOM     74  S   UNL A   1      50.519  25.388  27.421  1.00  0.00     0.127 S 
ATOM     75  O   UNL A   1      49.784  24.256  27.983  1.00  0.00    -0.237 OA
ATOM     76  O   UNL A   1      51.456  25.034  26.353  1.00  0.00    -0.237 OA
ATOM     77  O   UNL A   1      51.041  26.344  28.387  1.00  0.00    -0.744 OA
ENDBRANCH  71  74
ENDBRANCH  53  67
BRANCH  54  78
ATOM     78  C   UNL A   1      38.708  30.389  30.878  1.00  0.00     0.023 A 
ATOM     79  C   UNL A   1      38.553  30.128  32.253  1.00  0.00     0.012 A 
ATOM     80  C   UNL A   1      37.704  31.103  30.198  1.00  0.00     0.148 A 
ATOM     81  C   UNL A   1      37.410  30.547  32.934  1.00  0.00     0.002 A 
ATOM     82  C   UNL A   1      36.589  31.563  30.893  1.00  0.00     0.091 A 
ATOM     83  F   UNL A   1      37.858  31.328  28.885  1.00  0.00    -0.205 F 
ATOM     84  C   UNL A   1      36.434  31.272  32.257  1.00  0.00     0.022 A 
BRANCH  82  85
ATOM     85  S   UNL A   1      35.360  32.620  30.122  1.00  0.00     0.127 S 
ATOM     86  O   UNL A   1      34.875  31.775  29.034  1.00  0.00    -0.237 OA
ATOM     87  O   UNL A   1      34.405  32.831  31.211  1.00  0.00    -0.237 OA
ATOM     88  O   UNL A   1      36.082  33.823  29.726  1.00  0.00    -0.744 OA
ENDBRANCH  82  85
ENDBRANCH  54  78
BRANCH  66  89
ATOM     89  C   UNL A   1      44.718  33.563  29.299  1.00  0.00     0.023 A 
ATOM     90  C   UNL A   1      45.359  33.859  30.519  1.00  0.00     0.012 A 
ATOM     91  C   UNL A   1      44.620  34.561  28.312  1.00  0.00     0.148 A 
ATOM     92  C   UNL A   1      45.866  35.135  30.764  1.00  0.00     0.002 A 
ATOM     93  C   UNL A   1      45.163  35.820  28.547  1.00  0.00     0.091 A 
ATOM     94  F   UNL A   1      43.985  34.274  27.165  1.00  0.00    -0.205 F 
ATOM     95  C   UNL A   1      45.777  36.112  29.775  1.00  0.00     0.022 A 
BRANCH  93  96
ATOM     96  S   UNL A   1      45.160  37.098  27.283  1.00  0.00     0.127 S 
ATOM     97  O   UNL A   1      45.952  38.150  27.917  1.00  0.00    -0.237 OA
ATOM     98  O   UNL A   1      45.819  36.437  26.156  1.00  0.00    -0.237 OA
ATOM     99  O   UNL A   1      43.755  37.408  27.054  1.00  0.00    -0.744 OA
ENDBRANCH  93  96
ENDBRANCH  66  89
ENDBRANCH  40  41
ENDBRANCH  32  35
ENDBRANCH  30  31
ENDBRANCH  29  30
ENDBRANCH   1  29
TORSDOF 18
ENDMDL
MODEL 3
REMARK VINA RESULT:     -12.6      5.701      9.024
REMARK SMILES O=C(C[C@@H](NS(=O)(=O)c1ccc2c(c1)OCCO2)c1ccccc1)NCCCNC(=O)c1ccc(-c2c3nc(c(-c4cccc(S(=O)(=O)[O-])c4F)c4ccc([nH]4)c(-c4cccc(S(=O)(=O)[O-])c4F)c4nc(c(-c5cccc(S(=O)(=O)[O-])c5F)c5ccc2[nH]5)C=C4)C=C3)cc1
REMARK SMILES IDX 26 1 25 2 1 3 2 4 3 6 4 7 5 8 6 10 7 11 8 12 9 13 10 14
REMARK SMILES IDX 14 15 11 16 13 17 12 18 15 19 18 20 16 21 17 22 19 23 20 24
REMARK SMILES IDX 24 25 21 26 23 27 22 28 27 29 28 30 29 31 30 32 31 34 32 35
REMARK SMILES IDX 33 36 94 37 34 38 93 39 35 40 36 41 37 42 87 43 38 44 92 45
REMARK SMILES IDX 86 46 88 47 39 48 91 49 85 50 84 51 40 53 72 54 52 55 71 56
REMARK SMILES IDX 53 57 56 58 70 59 89 60 54 61 55 62 69 64 90 65 57 66 41 67
REMARK SMILES IDX 42 68 50 69 43 70 45 71 51 72 44 73 46 74 47 75 48 76 49 77
REMARK SMILES IDX 73 78 74 79 82 80 75 81 77 82 83 83 76 84 78 85 79 86 80 87
REMARK SMILES IDX 81 88 58 89 59 90 67 91 60 92 62 93 68 94 61 95 63 96 64 97
REMARK SMILES IDX 65 98 66 99
REMARK H PARENT 25 5 5 9 29 33 88 52 56 63
REMARK Flexibility Score: inf
ROOT
ATOM      1  C   UNL A   1      31.680  30.416  26.373  1.00  0.00     0.117 C 
ENDROOT
BRANCH   1   2
ATOM      2  N   UNL A   1      31.771  30.061  24.969  1.00  0.00    -0.356 N 
ATOM      3  O   UNL A   1      33.743  28.897  25.184  1.00  0.00    -0.275 OA
ATOM      4  C   UNL A   1      32.809  29.290  24.493  1.00  0.00     0.221 C 
ATOM      5  H   UNL A   1      31.079  30.379  24.346  1.00  0.00     0.163 HD
BRANCH   4   6
ATOM      6  C   UNL A   1      32.673  28.904  23.041  1.00  0.00     0.124 C 
BRANCH   6   7
ATOM      7  C   UNL A   1      31.545  27.866  22.892  1.00  0.00     0.109 C 
BRANCH   7   8
ATOM      8  N   UNL A   1      31.468  27.046  24.129  1.00  0.00    -0.203 NA
ATOM      9  H   UNL A   1      30.689  27.407  24.679  1.00  0.00     0.142 HD
BRANCH   8  10
ATOM     10  S   UNL A   1      31.246  25.377  23.989  1.00  0.00     0.241 S 
ATOM     11  O   UNL A   1      30.267  24.979  24.976  1.00  0.00    -0.207 OA
ATOM     12  O   UNL A   1      31.044  25.132  22.579  1.00  0.00    -0.207 OA
BRANCH  10  13
ATOM     13  C   UNL A   1      32.811  24.672  24.416  1.00  0.00     0.086 A 
ATOM     14  C   UNL A   1      33.755  25.429  25.117  1.00  0.00     0.026 A 
ATOM     15  C   UNL A   1      33.043  23.324  24.128  1.00  0.00     0.072 A 
ATOM     16  C   UNL A   1      34.920  24.814  25.579  1.00  0.00     0.052 A 
ATOM     17  C   UNL A   1      34.200  22.717  24.603  1.00  0.00     0.162 A 
ATOM     18  C   UNL A   1      35.140  23.460  25.329  1.00  0.00     0.161 A 
ATOM     19  O   UNL A   1      34.341  21.378  24.340  1.00  0.00    -0.486 OA
ATOM     20  O   UNL A   1      36.284  22.916  25.853  1.00  0.00    -0.486 OA
ATOM     21  C   UNL A   1      35.290  20.782  25.228  1.00  0.00     0.271 C 
ATOM     22  C   UNL A   1      36.555  21.620  25.308  1.00  0.00     0.271 C 
ENDBRANCH  10  13
ENDBRANCH   8  10
ENDBRANCH   7   8
BRANCH   7  23
ATOM     23  C   UNL A   1      30.219  28.556  22.608  1.00  0.00    -0.029 A 
ATOM     24  C   UNL A   1      30.146  29.742  21.857  1.00  0.00     0.005 A 
ATOM     25  C   UNL A   1      29.036  28.045  23.167  1.00  0.00     0.005 A 
ATOM     26  C   UNL A   1      28.926  30.396  21.671  1.00  0.00     0.000 A 
ATOM     27  C   UNL A   1      27.820  28.708  22.991  1.00  0.00     0.000 A 
ATOM     28  C   UNL A   1      27.766  29.882  22.244  1.00  0.00     0.000 A 
ENDBRANCH   7  23
ENDBRANCH   6   7
ENDBRANCH   4   6
ENDBRANCH   1   2
BRANCH   1  29
ATOM     29  C   UNL A   1      31.554  31.917  26.609  1.00  0.00     0.042 C 
BRANCH  29  30
ATOM     30  C   UNL A   1      32.769  32.583  27.250  1.00  0.00     0.118 C 
BRANCH  30  31
ATOM     31  N   UNL A   1      32.554  33.975  27.605  1.00  0.00    -0.352 N 
ATOM     32  C   UNL A   1      33.181  34.741  28.560  1.00  0.00     0.251 C 
ATOM     33  H   UNL A   1      31.859  34.438  27.086  1.00  0.00     0.163 HD
ATOM     34  O   UNL A   1      32.766  35.876  28.786  1.00  0.00    -0.269 OA
BRANCH  32  35
ATOM     35  C   UNL A   1      34.321  34.207  29.342  1.00  0.00     0.039 A 
ATOM     36  C   UNL A   1      34.045  33.403  30.453  1.00  0.00     0.014 A 
ATOM     37  C   UNL A   1      35.648  34.500  29.012  1.00  0.00     0.014 A 
ATOM     38  C   UNL A   1      35.094  32.841  31.187  1.00  0.00     0.010 A 
ATOM     39  C   UNL A   1      36.694  33.889  29.708  1.00  0.00     0.010 A 
ATOM     40  C   UNL A   1      36.427  33.052  30.801  1.00  0.00    -0.014 A 
BRANCH  40  41
ATOM     41  C   UNL A   1      37.540  32.365  31.508  1.00  0.00     0.031 A 
ATOM     42  C   UNL A   1      38.290  31.232  30.861  1.00  0.00     0.074 A 
ATOM     43  C   UNL A   1      37.833  32.723  32.775  1.00  0.00     0.049 A 
ATOM     44  N   UNL A   1      39.293  30.536  31.333  1.00  0.00    -0.248 NA
ATOM     45  C   UNL A   1      37.841  30.808  29.526  1.00  0.00     0.031 C 
ATOM     46  C   UNL A   1      37.119  33.736  33.553  1.00  0.00     0.029 A 
ATOM     47  N   UNL A   1      38.796  32.261  33.638  1.00  0.00    -0.354 N 
ATOM     48  C   UNL A   1      39.578  29.576  30.369  1.00  0.00     0.074 A 
ATOM     49  C   UNL A   1      38.620  29.758  29.299  1.00  0.00     0.031 C 
ATOM     50  C   UNL A   1      37.673  33.827  34.772  1.00  0.00     0.029 A 
ATOM     51  C   UNL A   1      38.776  32.875  34.868  1.00  0.00     0.049 A 
ATOM     52  H   UNL A   1      39.442  31.557  33.398  1.00  0.00     0.167 HD
ATOM     53  C   UNL A   1      40.566  28.649  30.359  1.00  0.00     0.034 A 
ATOM     54  C   UNL A   1      39.563  32.703  35.948  1.00  0.00     0.034 A 
ATOM     55  C   UNL A   1      41.552  28.504  31.396  1.00  0.00     0.049 A 
ATOM     56  C   UNL A   1      40.709  31.733  35.873  1.00  0.00     0.074 A 
ATOM     57  C   UNL A   1      42.646  27.655  31.432  1.00  0.00     0.029 A 
ATOM     58  N   UNL A   1      41.570  29.225  32.580  1.00  0.00    -0.354 N 
ATOM     59  N   UNL A   1      41.071  30.960  34.878  1.00  0.00    -0.248 NA
ATOM     60  C   UNL A   1      41.584  31.644  37.051  1.00  0.00     0.031 C 
ATOM     61  C   UNL A   1      43.325  27.864  32.639  1.00  0.00     0.029 A 
ATOM     62  C   UNL A   1      42.655  28.846  33.351  1.00  0.00     0.049 A 
ATOM     63  H   UNL A   1      40.908  29.908  32.833  1.00  0.00     0.167 HD
ATOM     64  C   UNL A   1      42.231  30.318  35.297  1.00  0.00     0.074 A 
ATOM     65  C   UNL A   1      42.525  30.813  36.626  1.00  0.00     0.031 C 
ATOM     66  C   UNL A   1      42.972  29.386  34.647  1.00  0.00     0.034 A 
BRANCH  53  67
ATOM     67  C   UNL A   1      40.680  27.766  29.144  1.00  0.00     0.023 A 
ATOM     68  C   UNL A   1      39.864  26.621  29.048  1.00  0.00     0.012 A 
ATOM     69  C   UNL A   1      41.539  28.093  28.077  1.00  0.00     0.148 A 
ATOM     70  C   UNL A   1      39.918  25.800  27.923  1.00  0.00     0.002 A 
ATOM     71  C   UNL A   1      41.563  27.289  26.942  1.00  0.00     0.091 A 
ATOM     72  F   UNL A   1      42.329  29.171  28.195  1.00  0.00    -0.205 F 
ATOM     73  C   UNL A   1      40.759  26.139  26.867  1.00  0.00     0.022 A 
BRANCH  71  74
ATOM     74  S   UNL A   1      42.564  27.685  25.504  1.00  0.00     0.127 S 
ATOM     75  O   UNL A   1      42.329  26.522  24.650  1.00  0.00    -0.237 OA
ATOM     76  O   UNL A   1      41.949  28.925  25.025  1.00  0.00    -0.237 OA
ATOM     77  O   UNL A   1      43.924  27.840  25.999  1.00  0.00    -0.744 OA
ENDBRANCH  71  74
ENDBRANCH  53  67
BRANCH  54  78
ATOM     78  C   UNL A   1      39.356  33.553  37.153  1.00  0.00     0.023 A 
ATOM     79  C   UNL A   1      39.861  34.868  37.160  1.00  0.00     0.012 A 
ATOM     80  C   UNL A   1      38.628  33.091  38.265  1.00  0.00     0.148 A 
ATOM     81  C   UNL A   1      39.668  35.698  38.264  1.00  0.00     0.002 A 
ATOM     82  C   UNL A   1      38.395  33.941  39.342  1.00  0.00     0.091 A 
ATOM     83  F   UNL A   1      38.170  31.831  38.249  1.00  0.00    -0.205 F 
ATOM     84  C   UNL A   1      38.927  35.240  39.349  1.00  0.00     0.022 A 
BRANCH  82  85
ATOM     85  S   UNL A   1      37.334  33.469  40.711  1.00  0.00     0.127 S 
ATOM     86  O   UNL A   1      38.122  32.422  41.355  1.00  0.00    -0.237 OA
ATOM     87  O   UNL A   1      37.232  34.717  41.469  1.00  0.00    -0.237 OA
ATOM     88  O   UNL A   1      36.082  33.043  40.098  1.00  0.00    -0.744 OA
ENDBRANCH  82  85
ENDBRANCH  54  78
BRANCH  66  89
ATOM     89  C   UNL A   1      44.188  28.851  35.355  1.00  0.00     0.023 A 
ATOM     90  C   UNL A   1      45.450  29.420  35.092  1.00  0.00     0.012 A 
ATOM     91  C   UNL A   1      44.079  27.829  36.317  1.00  0.00     0.148 A 
ATOM     92  C   UNL A   1      46.589  28.959  35.752  1.00  0.00     0.002 A 
ATOM     93  C   UNL A   1      45.212  27.401  37.001  1.00  0.00     0.091 A 
ATOM     94  F   UNL A   1      42.875  27.279  36.540  1.00  0.00    -0.205 F 
ATOM     95  C   UNL A   1      46.468  27.957  36.713  1.00  0.00     0.022 A 
BRANCH  93  96
ATOM     96  S   UNL A   1      45.114  26.176  38.312  1.00  0.00     0.127 S 
ATOM     97  O   UNL A   1      46.501  26.112  38.768  1.00  0.00    -0.237 OA
ATOM     98  O   UNL A   1      44.189  26.795  39.262  1.00  0.00    -0.237 OA
ATOM     99  O   UNL A   1      44.597  24.972  37.676  1.00  0.00    -0.744 OA
ENDBRANCH  93  96
ENDBRANCH  66  89
ENDBRANCH  40  41
ENDBRANCH  32  35
ENDBRANCH  30  31
ENDBRANCH  29  30
ENDBRANCH   1  29
TORSDOF 18
ENDMDL
