MODEL 1
REMARK VINA RESULT:     -11.9      0.000      0.000
REMARK SMILES Cc1occc1C(=O)NN1C(=O)/C(=C\c2ccc(O[C@H](C)C(=O)NCCCNC(=O)c3ccc(-c4c5nc(c(-c6cccc(S(=O)(=O)[O-])c6F)c6ccc([nH]6)c(-c6cccc(S(=O)(=O)[O-])c6F)c6nc(c(-c7cccc(S(=O)(=O)[O-])c7F)c7ccc4[nH]7)C=C6)C=C5)cc3)cc2)SC1=S
REMARK SMILES IDX 25 1 24 2 22 3 23 4 20 6 21 7 19 8 18 9 15 10 16 11 95 12
REMARK SMILES IDX 17 13 94 14 14 15 10 16 11 17 97 18 12 19 13 20 96 21 98 22
REMARK SMILES IDX 9 23 7 24 8 25 6 27 1 28 2 29 3 30 4 31 5 32 26 33 27 34
REMARK SMILES IDX 28 35 29 36 30 38 31 39 32 40 93 41 33 42 92 43 34 44 35 45
REMARK SMILES IDX 36 46 86 47 37 48 91 49 85 50 87 51 38 52 90 53 84 54 83 55
REMARK SMILES IDX 39 57 71 58 51 59 70 60 52 61 55 62 69 63 88 64 53 65 54 66
REMARK SMILES IDX 68 68 89 69 56 70 40 71 41 72 49 73 42 74 44 75 50 76 43 77
REMARK SMILES IDX 45 78 46 79 47 80 48 81 72 82 73 83 81 84 74 85 76 86 82 87
REMARK SMILES IDX 75 88 77 89 78 90 79 91 80 92 57 93 58 94 66 95 59 96 61 97
REMARK SMILES IDX 67 98 60 99 62 100 63 101 64 102 65 103
REMARK H PARENT 24 5 9 26 28 37 87 56 55 67
REMARK Flexibility Score: inf
ROOT
ATOM      1  C   UNL A   1      34.117  34.404  28.058  1.00  0.00     0.118 C 
ENDROOT
BRANCH   1   2
ATOM      2  N   UNL A   1      34.433  33.407  29.054  1.00  0.00    -0.353 N 
ATOM      3  C   UNL A   1      34.569  32.058  28.956  1.00  0.00     0.260 C 
ATOM      4  O   UNL A   1      35.044  31.490  29.951  1.00  0.00    -0.271 OA
ATOM      5  H   UNL A   1      34.577  33.767  29.959  1.00  0.00     0.163 HD
BRANCH   3   6
ATOM      6  C   UNL A   1      34.075  31.211  27.752  1.00  0.00     0.258 C 
ATOM      7  C   UNL A   1      35.118  30.142  27.430  1.00  0.00     0.064 C 
BRANCH   6   8
ATOM      8  O   UNL A   1      32.700  30.898  27.576  1.00  0.00    -0.481 OA
BRANCH   8   9
ATOM      9  C   UNL A   1      32.190  29.926  26.778  1.00  0.00     0.120 A 
ATOM     10  C   UNL A   1      31.202  27.681  25.386  1.00  0.00    -0.024 A 
ATOM     11  C   UNL A   1      31.496  28.870  24.717  1.00  0.00     0.012 A 
ATOM     12  C   UNL A   1      31.401  27.613  26.766  1.00  0.00     0.012 A 
ATOM     13  C   UNL A   1      31.975  29.985  25.409  1.00  0.00     0.047 A 
ATOM     14  C   UNL A   1      31.870  28.739  27.454  1.00  0.00     0.047 A 
BRANCH  10  15
ATOM     15  C   UNL A   1      30.622  26.601  24.589  1.00  0.00     0.029 C 
ATOM     16  N   UNL A   1      33.156  24.310  23.341  1.00  0.00    -0.198 N 
ATOM     17  C   UNL A   1      32.819  25.469  24.025  1.00  0.00     0.285 C 
ATOM     18  C   UNL A   1      32.158  23.411  23.035  1.00  0.00     0.168 C 
ATOM     19  O   UNL A   1      33.623  26.252  24.495  1.00  0.00    -0.266 OA
ATOM     20  C   UNL A   1      31.332  25.588  24.072  1.00  0.00     0.082 C 
ATOM     21  S   UNL A   1      30.604  24.171  23.388  1.00  0.00    -0.052 SA
ATOM     22  S   UNL A   1      32.318  21.867  22.430  1.00  0.00    -0.050 S 
BRANCH  16  23
ATOM     23  N   UNL A   1      34.512  24.052  23.201  1.00  0.00    -0.254 N 
ATOM     24  C   UNL A   1      35.253  23.116  23.884  1.00  0.00     0.273 C 
ATOM     25  O   UNL A   1      36.371  22.853  23.434  1.00  0.00    -0.267 OA
ATOM     26  H   UNL A   1      34.998  24.598  22.541  1.00  0.00     0.192 HD
BRANCH  24  27
ATOM     27  C   UNL A   1      34.835  22.545  25.161  1.00  0.00     0.082 A 
ATOM     28  C   UNL A   1      34.356  19.926  24.963  1.00  0.00     0.088 C 
ATOM     29  C   UNL A   1      34.465  21.269  25.566  1.00  0.00     0.113 A 
ATOM     30  O   UNL A   1      34.168  21.266  26.902  1.00  0.00    -0.469 OA
ATOM     31  C   UNL A   1      34.401  22.505  27.382  1.00  0.00     0.196 A 
ATOM     32  C   UNL A   1      34.834  23.321  26.372  1.00  0.00     0.056 A 
ENDBRANCH  24  27
ENDBRANCH  16  23
ENDBRANCH  10  15
ENDBRANCH   8   9
ENDBRANCH   6   8
ENDBRANCH   3   6
ENDBRANCH   1   2
BRANCH   1  33
ATOM     33  C   UNL A   1      33.055  35.399  28.512  1.00  0.00     0.042 C 
BRANCH  33  34
ATOM     34  C   UNL A   1      33.527  36.303  29.648  1.00  0.00     0.118 C 
BRANCH  34  35
ATOM     35  N   UNL A   1      32.607  36.277  30.782  1.00  0.00    -0.352 N 
ATOM     36  C   UNL A   1      32.652  35.565  31.953  1.00  0.00     0.251 C 
ATOM     37  H   UNL A   1      31.827  36.870  30.691  1.00  0.00     0.163 HD
ATOM     38  O   UNL A   1      31.657  35.548  32.677  1.00  0.00    -0.269 OA
BRANCH  36  39
ATOM     39  C   UNL A   1      33.864  34.817  32.348  1.00  0.00     0.039 A 
ATOM     40  C   UNL A   1      35.113  35.425  32.183  1.00  0.00     0.014 A 
ATOM     41  C   UNL A   1      33.784  33.508  32.831  1.00  0.00     0.014 A 
ATOM     42  C   UNL A   1      36.275  34.742  32.549  1.00  0.00     0.010 A 
ATOM     43  C   UNL A   1      34.935  32.857  33.265  1.00  0.00     0.010 A 
ATOM     44  C   UNL A   1      36.192  33.462  33.118  1.00  0.00    -0.014 A 
BRANCH  44  45
ATOM     45  C   UNL A   1      37.405  32.735  33.567  1.00  0.00     0.031 A 
ATOM     46  C   UNL A   1      38.122  33.161  34.819  1.00  0.00     0.074 A 
ATOM     47  C   UNL A   1      37.912  31.752  32.796  1.00  0.00     0.049 A 
ATOM     48  N   UNL A   1      39.236  32.704  35.328  1.00  0.00    -0.248 NA
ATOM     49  C   UNL A   1      37.524  34.268  35.585  1.00  0.00     0.031 C 
ATOM     50  C   UNL A   1      37.345  31.299  31.524  1.00  0.00     0.029 A 
ATOM     51  N   UNL A   1      39.030  30.975  32.958  1.00  0.00    -0.354 N 
ATOM     52  C   UNL A   1      39.493  33.488  36.447  1.00  0.00     0.074 A 
ATOM     53  C   UNL A   1      38.437  34.474  36.523  1.00  0.00     0.031 C 
ATOM     54  C   UNL A   1      38.116  30.320  31.023  1.00  0.00     0.029 A 
ATOM     55  C   UNL A   1      39.243  30.095  31.922  1.00  0.00     0.049 A 
ATOM     56  H   UNL A   1      39.625  31.041  33.740  1.00  0.00     0.167 HD
ATOM     57  C   UNL A   1      40.496  33.377  37.350  1.00  0.00     0.034 A 
ATOM     58  C   UNL A   1      40.237  29.208  31.720  1.00  0.00     0.034 A 
ATOM     59  C   UNL A   1      41.513  32.362  37.297  1.00  0.00     0.049 A 
ATOM     60  C   UNL A   1      41.316  29.074  32.759  1.00  0.00     0.074 A 
ATOM     61  C   UNL A   1      42.526  32.110  38.205  1.00  0.00     0.029 A 
ATOM     62  N   UNL A   1      41.646  31.430  36.281  1.00  0.00    -0.354 N 
ATOM     63  N   UNL A   1      41.458  29.726  33.888  1.00  0.00    -0.248 NA
ATOM     64  C   UNL A   1      42.352  28.060  32.516  1.00  0.00     0.031 C 
ATOM     65  C   UNL A   1      43.278  31.029  37.730  1.00  0.00     0.029 A 
ATOM     66  C   UNL A   1      42.724  30.600  36.534  1.00  0.00     0.049 A 
ATOM     67  H   UNL A   1      41.059  31.366  35.493  1.00  0.00     0.167 HD
ATOM     68  C   UNL A   1      42.577  29.178  34.507  1.00  0.00     0.074 A 
ATOM     69  C   UNL A   1      43.061  28.127  33.634  1.00  0.00     0.031 C 
ATOM     70  C   UNL A   1      43.158  29.523  35.682  1.00  0.00     0.034 A 
BRANCH  57  71
ATOM     71  C   UNL A   1      40.500  34.341  38.508  1.00  0.00     0.023 A 
ATOM     72  C   UNL A   1      41.288  35.509  38.433  1.00  0.00     0.012 A 
ATOM     73  C   UNL A   1      39.704  34.119  39.648  1.00  0.00     0.148 A 
ATOM     74  C   UNL A   1      41.315  36.419  39.488  1.00  0.00     0.002 A 
ATOM     75  C   UNL A   1      39.703  35.053  40.680  1.00  0.00     0.091 A 
ATOM     76  F   UNL A   1      38.979  32.993  39.716  1.00  0.00    -0.205 F 
ATOM     77  C   UNL A   1      40.517  36.196  40.607  1.00  0.00     0.022 A 
BRANCH  75  78
ATOM     78  S   UNL A   1      38.652  34.892  42.127  1.00  0.00     0.127 S 
ATOM     79  O   UNL A   1      37.326  34.789  41.518  1.00  0.00    -0.237 OA
ATOM     80  O   UNL A   1      39.142  33.652  42.730  1.00  0.00    -0.237 OA
ATOM     81  O   UNL A   1      38.887  36.087  42.925  1.00  0.00    -0.744 OA
ENDBRANCH  75  78
ENDBRANCH  57  71
BRANCH  58  82
ATOM     82  C   UNL A   1      40.203  28.317  30.526  1.00  0.00     0.023 A 
ATOM     83  C   UNL A   1      39.239  27.292  30.464  1.00  0.00     0.012 A 
ATOM     84  C   UNL A   1      41.079  28.502  29.439  1.00  0.00     0.148 A 
ATOM     85  C   UNL A   1      39.164  26.450  29.353  1.00  0.00     0.002 A 
ATOM     86  C   UNL A   1      40.963  27.695  28.312  1.00  0.00     0.091 A 
ATOM     87  F   UNL A   1      41.996  29.476  29.520  1.00  0.00    -0.205 F 
ATOM     88  C   UNL A   1      40.017  26.658  28.274  1.00  0.00     0.022 A 
BRANCH  86  89
ATOM     89  S   UNL A   1      41.925  27.982  26.822  1.00  0.00     0.127 S 
ATOM     90  O   UNL A   1      43.287  27.747  27.295  1.00  0.00    -0.237 OA
ATOM     91  O   UNL A   1      41.399  26.958  25.918  1.00  0.00    -0.237 OA
ATOM     92  O   UNL A   1      41.620  29.348  26.416  1.00  0.00    -0.744 OA
ENDBRANCH  86  89
ENDBRANCH  58  82
BRANCH  70  93
ATOM     93  C   UNL A   1      44.369  28.739  36.115  1.00  0.00     0.023 A 
ATOM     94  C   UNL A   1      45.656  29.203  35.778  1.00  0.00     0.012 A 
ATOM     95  C   UNL A   1      44.234  27.589  36.915  1.00  0.00     0.148 A 
ATOM     96  C   UNL A   1      46.791  28.518  36.211  1.00  0.00     0.002 A 
ATOM     97  C   UNL A   1      45.370  26.937  37.381  1.00  0.00     0.091 A 
ATOM     98  F   UNL A   1      43.000  27.152  37.205  1.00  0.00    -0.205 F 
ATOM     99  C   UNL A   1      46.648  27.394  37.020  1.00  0.00     0.022 A 
BRANCH  97 100
ATOM    100  S   UNL A   1      45.281  25.538  38.504  1.00  0.00     0.127 S 
ATOM    101  O   UNL A   1      46.687  25.151  38.611  1.00  0.00    -0.237 OA
ATOM    102  O   UNL A   1      44.722  26.143  39.713  1.00  0.00    -0.237 OA
ATOM    103  O   UNL A   1      44.409  24.565  37.860  1.00  0.00    -0.744 OA
ENDBRANCH  97 100
ENDBRANCH  70  93
ENDBRANCH  44  45
ENDBRANCH  36  39
ENDBRANCH  34  35
ENDBRANCH  33  34
ENDBRANCH   1  33
TORSDOF 18
ENDMDL
MODEL 2
REMARK VINA RESULT:     -11.6      5.387     12.120
REMARK SMILES Cc1occc1C(=O)NN1C(=O)/C(=C\c2ccc(O[C@H](C)C(=O)NCCCNC(=O)c3ccc(-c4c5nc(c(-c6cccc(S(=O)(=O)[O-])c6F)c6ccc([nH]6)c(-c6cccc(S(=O)(=O)[O-])c6F)c6nc(c(-c7cccc(S(=O)(=O)[O-])c7F)c7ccc4[nH]7)C=C6)C=C5)cc3)cc2)SC1=S
REMARK SMILES IDX 25 1 24 2 22 3 23 4 20 6 21 7 19 8 18 9 15 10 16 11 95 12
REMARK SMILES IDX 17 13 94 14 14 15 10 16 11 17 97 18 12 19 13 20 96 21 98 22
REMARK SMILES IDX 9 23 7 24 8 25 6 27 1 28 2 29 3 30 4 31 5 32 26 33 27 34
REMARK SMILES IDX 28 35 29 36 30 38 31 39 32 40 93 41 33 42 92 43 34 44 35 45
REMARK SMILES IDX 36 46 86 47 37 48 91 49 85 50 87 51 38 52 90 53 84 54 83 55
REMARK SMILES IDX 39 57 71 58 51 59 70 60 52 61 55 62 69 63 88 64 53 65 54 66
REMARK SMILES IDX 68 68 89 69 56 70 40 71 41 72 49 73 42 74 44 75 50 76 43 77
REMARK SMILES IDX 45 78 46 79 47 80 48 81 72 82 73 83 81 84 74 85 76 86 82 87
REMARK SMILES IDX 75 88 77 89 78 90 79 91 80 92 57 93 58 94 66 95 59 96 61 97
REMARK SMILES IDX 67 98 60 99 62 100 63 101 64 102 65 103
REMARK H PARENT 24 5 9 26 28 37 87 56 55 67
REMARK Flexibility Score: inf
ROOT
ATOM      1  C   UNL A   1      42.361  22.153  25.747  1.00  0.00     0.118 C 
ENDROOT
BRANCH   1   2
ATOM      2  N   UNL A   1      42.866  23.397  25.216  1.00  0.00    -0.353 N 
ATOM      3  C   UNL A   1      44.095  23.971  25.300  1.00  0.00     0.260 C 
ATOM      4  O   UNL A   1      44.283  24.954  24.568  1.00  0.00    -0.271 OA
ATOM      5  H   UNL A   1      42.206  23.919  24.704  1.00  0.00     0.163 HD
BRANCH   3   6
ATOM      6  C   UNL A   1      45.197  23.544  26.309  1.00  0.00     0.258 C 
ATOM      7  C   UNL A   1      45.935  22.324  25.757  1.00  0.00     0.064 C 
BRANCH   6   8
ATOM      8  O   UNL A   1      45.928  24.501  27.062  1.00  0.00    -0.481 OA
BRANCH   8   9
ATOM      9  C   UNL A   1      45.850  24.702  28.402  1.00  0.00     0.120 A 
ATOM     10  C   UNL A   1      45.358  24.990  31.163  1.00  0.00    -0.024 A 
ATOM     11  C   UNL A   1      46.426  25.648  30.551  1.00  0.00     0.012 A 
ATOM     12  C   UNL A   1      44.528  24.178  30.389  1.00  0.00     0.012 A 
ATOM     13  C   UNL A   1      46.675  25.496  29.185  1.00  0.00     0.047 A 
ATOM     14  C   UNL A   1      44.792  24.021  29.023  1.00  0.00     0.047 A 
BRANCH  10  15
ATOM     15  C   UNL A   1      45.233  25.142  32.613  1.00  0.00     0.029 C 
ATOM     16  N   UNL A   1      42.874  27.758  33.515  1.00  0.00    -0.198 N 
ATOM     17  C   UNL A   1      43.569  27.053  32.543  1.00  0.00     0.285 C 
ATOM     18  C   UNL A   1      42.861  27.270  34.803  1.00  0.00     0.168 C 
ATOM     19  O   UNL A   1      43.517  27.287  31.351  1.00  0.00    -0.266 OA
ATOM     20  C   UNL A   1      44.379  25.989  33.205  1.00  0.00     0.082 C 
ATOM     21  S   UNL A   1      44.030  25.951  34.903  1.00  0.00    -0.052 SA
ATOM     22  S   UNL A   1      41.938  27.789  36.088  1.00  0.00    -0.050 S 
BRANCH  16  23
ATOM     23  N   UNL A   1      42.070  28.796  33.063  1.00  0.00    -0.254 N 
ATOM     24  C   UNL A   1      42.438  30.107  32.873  1.00  0.00     0.273 C 
ATOM     25  O   UNL A   1      41.668  30.813  32.218  1.00  0.00    -0.267 OA
ATOM     26  H   UNL A   1      41.133  28.569  32.858  1.00  0.00     0.192 HD
BRANCH  24  27
ATOM     27  C   UNL A   1      43.601  30.711  33.517  1.00  0.00     0.082 A 
ATOM     28  C   UNL A   1      43.047  31.517  36.002  1.00  0.00     0.088 C 
ATOM     29  C   UNL A   1      43.817  31.285  34.764  1.00  0.00     0.113 A 
ATOM     30  O   UNL A   1      45.117  31.700  34.873  1.00  0.00    -0.469 OA
ATOM     31  C   UNL A   1      45.761  31.348  33.741  1.00  0.00     0.196 A 
ATOM     32  C   UNL A   1      44.894  30.720  32.889  1.00  0.00     0.056 A 
ENDBRANCH  24  27
ENDBRANCH  16  23
ENDBRANCH  10  15
ENDBRANCH   8   9
ENDBRANCH   6   8
ENDBRANCH   3   6
ENDBRANCH   1   2
BRANCH   1  33
ATOM     33  C   UNL A   1      42.037  22.216  27.236  1.00  0.00     0.042 C 
BRANCH  33  34
ATOM     34  C   UNL A   1      40.768  21.454  27.607  1.00  0.00     0.118 C 
BRANCH  34  35
ATOM     35  N   UNL A   1      39.690  21.695  26.652  1.00  0.00    -0.352 N 
ATOM     36  C   UNL A   1      38.996  22.841  26.357  1.00  0.00     0.251 C 
ATOM     37  H   UNL A   1      39.417  20.905  26.133  1.00  0.00     0.163 HD
ATOM     38  O   UNL A   1      37.985  22.761  25.660  1.00  0.00    -0.269 OA
BRANCH  36  39
ATOM     39  C   UNL A   1      39.437  24.155  26.869  1.00  0.00     0.039 A 
ATOM     40  C   UNL A   1      39.244  24.448  28.223  1.00  0.00     0.014 A 
ATOM     41  C   UNL A   1      39.991  25.116  26.019  1.00  0.00     0.014 A 
ATOM     42  C   UNL A   1      39.653  25.682  28.734  1.00  0.00     0.010 A 
ATOM     43  C   UNL A   1      40.465  26.315  26.543  1.00  0.00     0.010 A 
ATOM     44  C   UNL A   1      40.291  26.615  27.903  1.00  0.00    -0.014 A 
BRANCH  44  45
ATOM     45  C   UNL A   1      40.785  27.911  28.429  1.00  0.00     0.031 A 
ATOM     46  C   UNL A   1      39.812  28.949  28.920  1.00  0.00     0.074 A 
ATOM     47  C   UNL A   1      42.104  28.188  28.378  1.00  0.00     0.049 A 
ATOM     48  N   UNL A   1      40.045  30.165  29.339  1.00  0.00    -0.248 NA
ATOM     49  C   UNL A   1      38.386  28.581  28.908  1.00  0.00     0.031 C 
ATOM     50  C   UNL A   1      43.135  27.290  27.856  1.00  0.00     0.029 A 
ATOM     51  N   UNL A   1      42.796  29.313  28.745  1.00  0.00    -0.354 N 
ATOM     52  C   UNL A   1      38.798  30.720  29.605  1.00  0.00     0.074 A 
ATOM     53  C   UNL A   1      37.809  29.720  29.265  1.00  0.00     0.031 C 
ATOM     54  C   UNL A   1      44.331  27.896  27.942  1.00  0.00     0.029 A 
ATOM     55  C   UNL A   1      44.147  29.232  28.498  1.00  0.00     0.049 A 
ATOM     56  H   UNL A   1      42.368  30.103  29.147  1.00  0.00     0.167 HD
ATOM     57  C   UNL A   1      38.503  31.938  30.119  1.00  0.00     0.034 A 
ATOM     58  C   UNL A   1      45.127  30.136  28.696  1.00  0.00     0.034 A 
ATOM     59  C   UNL A   1      39.493  32.907  30.503  1.00  0.00     0.049 A 
ATOM     60  C   UNL A   1      44.779  31.465  29.306  1.00  0.00     0.074 A 
ATOM     61  C   UNL A   1      39.306  34.137  31.108  1.00  0.00     0.029 A 
ATOM     62  N   UNL A   1      40.859  32.755  30.321  1.00  0.00    -0.354 N 
ATOM     63  N   UNL A   1      43.608  31.915  29.690  1.00  0.00    -0.248 NA
ATOM     64  C   UNL A   1      45.888  32.399  29.546  1.00  0.00     0.031 C 
ATOM     65  C   UNL A   1      40.560  34.733  31.282  1.00  0.00     0.029 A 
ATOM     66  C   UNL A   1      41.529  33.868  30.798  1.00  0.00     0.049 A 
ATOM     67  H   UNL A   1      41.291  31.971  29.912  1.00  0.00     0.167 HD
ATOM     68  C   UNL A   1      43.843  33.167  30.247  1.00  0.00     0.074 A 
ATOM     69  C   UNL A   1      45.273  33.394  30.170  1.00  0.00     0.031 C 
ATOM     70  C   UNL A   1      42.957  34.053  30.763  1.00  0.00     0.034 A 
BRANCH  57  71
ATOM     71  C   UNL A   1      37.050  32.260  30.354  1.00  0.00     0.023 A 
ATOM     72  C   UNL A   1      36.504  32.087  31.642  1.00  0.00     0.012 A 
ATOM     73  C   UNL A   1      36.237  32.767  29.322  1.00  0.00     0.148 A 
ATOM     74  C   UNL A   1      35.163  32.374  31.892  1.00  0.00     0.002 A 
ATOM     75  C   UNL A   1      34.909  33.091  29.589  1.00  0.00     0.091 A 
ATOM     76  F   UNL A   1      36.763  32.903  28.097  1.00  0.00    -0.205 F 
ATOM     77  C   UNL A   1      34.369  32.883  30.869  1.00  0.00     0.022 A 
BRANCH  75  78
ATOM     78  S   UNL A   1      33.829  33.824  28.356  1.00  0.00     0.127 S 
ATOM     79  O   UNL A   1      33.286  32.636  27.697  1.00  0.00    -0.237 OA
ATOM     80  O   UNL A   1      32.867  34.555  29.181  1.00  0.00    -0.237 OA
ATOM     81  O   UNL A   1      34.682  34.668  27.531  1.00  0.00    -0.744 OA
ENDBRANCH  75  78
ENDBRANCH  57  71
BRANCH  58  82
ATOM     82  C   UNL A   1      46.541  29.774  28.393  1.00  0.00     0.023 A 
ATOM     83  C   UNL A   1      47.043  29.999  27.097  1.00  0.00     0.012 A 
ATOM     84  C   UNL A   1      47.400  29.257  29.382  1.00  0.00     0.148 A 
ATOM     85  C   UNL A   1      48.367  29.690  26.782  1.00  0.00     0.002 A 
ATOM     86  C   UNL A   1      48.733  29.003  29.076  1.00  0.00     0.091 A 
ATOM     87  F   UNL A   1      46.902  29.040  30.608  1.00  0.00    -0.205 F 
ATOM     88  C   UNL A   1      49.214  29.204  27.773  1.00  0.00     0.022 A 
BRANCH  86  89
ATOM     89  S   UNL A   1      49.928  28.509  30.324  1.00  0.00     0.127 S 
ATOM     90  O   UNL A   1      49.476  27.160  30.654  1.00  0.00    -0.237 OA
ATOM     91  O   UNL A   1      51.188  28.575  29.582  1.00  0.00    -0.237 OA
ATOM     92  O   UNL A   1      49.812  29.496  31.391  1.00  0.00    -0.744 OA
ENDBRANCH  86  89
ENDBRANCH  58  82
BRANCH  70  93
ATOM     93  C   UNL A   1      43.504  35.343  31.314  1.00  0.00     0.023 A 
ATOM     94  C   UNL A   1      43.968  35.392  32.644  1.00  0.00     0.012 A 
ATOM     95  C   UNL A   1      43.628  36.481  30.494  1.00  0.00     0.148 A 
ATOM     96  C   UNL A   1      44.522  36.564  33.157  1.00  0.00     0.002 A 
ATOM     97  C   UNL A   1      44.223  37.632  30.999  1.00  0.00     0.091 A 
ATOM     98  F   UNL A   1      43.161  36.420  29.239  1.00  0.00    -0.205 F 
ATOM     99  C   UNL A   1      44.660  37.678  32.333  1.00  0.00     0.022 A 
BRANCH  97 100
ATOM    100  S   UNL A   1      44.527  39.081  29.981  1.00  0.00     0.127 S 
ATOM    101  O   UNL A   1      45.413  39.867  30.838  1.00  0.00    -0.237 OA
ATOM    102  O   UNL A   1      45.173  38.504  28.802  1.00  0.00    -0.237 OA
ATOM    103  O   UNL A   1      43.219  39.667  29.724  1.00  0.00    -0.744 OA
ENDBRANCH  97 100
ENDBRANCH  70  93
ENDBRANCH  44  45
ENDBRANCH  36  39
ENDBRANCH  34  35
ENDBRANCH  33  34
ENDBRANCH   1  33
TORSDOF 18
ENDMDL
MODEL 3
REMARK VINA RESULT:     -11.5      4.920     11.506
REMARK SMILES Cc1occc1C(=O)NN1C(=O)/C(=C\c2ccc(O[C@H](C)C(=O)NCCCNC(=O)c3ccc(-c4c5nc(c(-c6cccc(S(=O)(=O)[O-])c6F)c6ccc([nH]6)c(-c6cccc(S(=O)(=O)[O-])c6F)c6nc(c(-c7cccc(S(=O)(=O)[O-])c7F)c7ccc4[nH]7)C=C6)C=C5)cc3)cc2)SC1=S
REMARK SMILES IDX 25 1 24 2 22 3 23 4 20 6 21 7 19 8 18 9 15 10 16 11 95 12
REMARK SMILES IDX 17 13 94 14 14 15 10 16 11 17 97 18 12 19 13 20 96 21 98 22
REMARK SMILES IDX 9 23 7 24 8 25 6 27 1 28 2 29 3 30 4 31 5 32 26 33 27 34
REMARK SMILES IDX 28 35 29 36 30 38 31 39 32 40 93 41 33 42 92 43 34 44 35 45
REMARK SMILES IDX 36 46 86 47 37 48 91 49 85 50 87 51 38 52 90 53 84 54 83 55
REMARK SMILES IDX 39 57 71 58 51 59 70 60 52 61 55 62 69 63 88 64 53 65 54 66
REMARK SMILES IDX 68 68 89 69 56 70 40 71 41 72 49 73 42 74 44 75 50 76 43 77
REMARK SMILES IDX 45 78 46 79 47 80 48 81 72 82 73 83 81 84 74 85 76 86 82 87
REMARK SMILES IDX 75 88 77 89 78 90 79 91 80 92 57 93 58 94 66 95 59 96 61 97
REMARK SMILES IDX 67 98 60 99 62 100 63 101 64 102 65 103
REMARK H PARENT 24 5 9 26 28 37 87 56 55 67
REMARK Flexibility Score: inf
ROOT
ATOM      1  C   UNL A   1      42.335  22.397  25.765  1.00  0.00     0.118 C 
ENDROOT
BRANCH   1   2
ATOM      2  N   UNL A   1      42.884  23.627  25.244  1.00  0.00    -0.353 N 
ATOM      3  C   UNL A   1      44.114  24.186  25.385  1.00  0.00     0.260 C 
ATOM      4  O   UNL A   1      44.354  25.156  24.650  1.00  0.00    -0.271 OA
ATOM      5  H   UNL A   1      42.259  24.150  24.691  1.00  0.00     0.163 HD
BRANCH   3   6
ATOM      6  C   UNL A   1      45.157  23.758  26.455  1.00  0.00     0.258 C 
ATOM      7  C   UNL A   1      45.974  22.585  25.917  1.00  0.00     0.064 C 
BRANCH   6   8
ATOM      8  O   UNL A   1      45.798  24.711  27.291  1.00  0.00    -0.481 OA
BRANCH   8   9
ATOM      9  C   UNL A   1      45.726  24.773  28.645  1.00  0.00     0.120 A 
ATOM     10  C   UNL A   1      45.245  24.777  31.423  1.00  0.00    -0.024 A 
ATOM     11  C   UNL A   1      46.312  25.492  30.877  1.00  0.00     0.012 A 
ATOM     12  C   UNL A   1      44.410  24.050  30.573  1.00  0.00     0.012 A 
ATOM     13  C   UNL A   1      46.555  25.481  29.502  1.00  0.00     0.047 A 
ATOM     14  C   UNL A   1      44.669  24.034  29.197  1.00  0.00     0.047 A 
BRANCH  10  15
ATOM     15  C   UNL A   1      45.126  24.779  32.882  1.00  0.00     0.029 C 
ATOM     16  N   UNL A   1      42.742  27.262  34.054  1.00  0.00    -0.198 N 
ATOM     17  C   UNL A   1      43.440  26.667  33.014  1.00  0.00     0.285 C 
ATOM     18  C   UNL A   1      42.742  26.645  35.286  1.00  0.00     0.168 C 
ATOM     19  O   UNL A   1      43.379  27.020  31.851  1.00  0.00    -0.266 OA
ATOM     20  C   UNL A   1      44.266  25.551  33.561  1.00  0.00     0.082 C 
ATOM     21  S   UNL A   1      43.926  25.336  35.247  1.00  0.00    -0.052 SA
ATOM     22  S   UNL A   1      41.819  27.019  36.621  1.00  0.00    -0.050 S 
BRANCH  16  23
ATOM     23  N   UNL A   1      41.924  28.331  33.714  1.00  0.00    -0.254 N 
ATOM     24  C   UNL A   1      42.256  29.665  33.728  1.00  0.00     0.273 C 
ATOM     25  O   UNL A   1      41.491  30.435  33.141  1.00  0.00    -0.267 OA
ATOM     26  H   UNL A   1      41.006  28.109  33.434  1.00  0.00     0.192 HD
BRANCH  24  27
ATOM     27  C   UNL A   1      43.368  30.204  34.505  1.00  0.00     0.082 A 
ATOM     28  C   UNL A   1      42.604  30.911  36.963  1.00  0.00     0.088 C 
ATOM     29  C   UNL A   1      43.480  30.713  35.792  1.00  0.00     0.113 A 
ATOM     30  O   UNL A   1      44.774  31.083  36.041  1.00  0.00    -0.469 OA
ATOM     31  C   UNL A   1      45.513  30.764  34.958  1.00  0.00     0.196 A 
ATOM     32  C   UNL A   1      44.714  30.202  34.000  1.00  0.00     0.056 A 
ENDBRANCH  24  27
ENDBRANCH  16  23
ENDBRANCH  10  15
ENDBRANCH   8   9
ENDBRANCH   6   8
ENDBRANCH   3   6
ENDBRANCH   1   2
BRANCH   1  33
ATOM     33  C   UNL A   1      41.799  22.527  27.187  1.00  0.00     0.042 C 
BRANCH  33  34
ATOM     34  C   UNL A   1      40.489  21.774  27.405  1.00  0.00     0.118 C 
BRANCH  34  35
ATOM     35  N   UNL A   1      39.469  22.165  26.436  1.00  0.00    -0.352 N 
ATOM     36  C   UNL A   1      38.830  23.364  26.244  1.00  0.00     0.251 C 
ATOM     37  H   UNL A   1      39.195  21.450  25.818  1.00  0.00     0.163 HD
ATOM     38  O   UNL A   1      37.854  23.405  25.498  1.00  0.00    -0.269 OA
BRANCH  36  39
ATOM     39  C   UNL A   1      39.292  24.593  26.924  1.00  0.00     0.039 A 
ATOM     40  C   UNL A   1      38.966  24.778  28.272  1.00  0.00     0.014 A 
ATOM     41  C   UNL A   1      39.995  25.584  26.234  1.00  0.00     0.014 A 
ATOM     42  C   UNL A   1      39.390  25.930  28.939  1.00  0.00     0.010 A 
ATOM     43  C   UNL A   1      40.480  26.694  26.917  1.00  0.00     0.010 A 
ATOM     44  C   UNL A   1      40.174  26.884  28.273  1.00  0.00    -0.014 A 
BRANCH  44  45
ATOM     45  C   UNL A   1      40.684  28.090  28.971  1.00  0.00     0.031 A 
ATOM     46  C   UNL A   1      39.726  29.130  29.483  1.00  0.00     0.074 A 
ATOM     47  C   UNL A   1      42.014  28.291  29.059  1.00  0.00     0.049 A 
ATOM     48  N   UNL A   1      39.981  30.283  30.045  1.00  0.00    -0.248 NA
ATOM     49  C   UNL A   1      38.289  28.852  29.315  1.00  0.00     0.031 C 
ATOM     50  C   UNL A   1      43.041  27.389  28.535  1.00  0.00     0.029 A 
ATOM     51  N   UNL A   1      42.728  29.331  29.598  1.00  0.00    -0.354 N 
ATOM     52  C   UNL A   1      38.746  30.882  30.262  1.00  0.00     0.074 A 
ATOM     53  C   UNL A   1      37.742  29.982  29.738  1.00  0.00     0.031 C 
ATOM     54  C   UNL A   1      44.254  27.911  28.783  1.00  0.00     0.029 A 
ATOM     55  C   UNL A   1      44.090  29.194  29.457  1.00  0.00     0.049 A 
ATOM     56  H   UNL A   1      42.307  30.102  30.042  1.00  0.00     0.167 HD
ATOM     57  C   UNL A   1      38.469  32.059  30.872  1.00  0.00     0.034 A 
ATOM     58  C   UNL A   1      45.093  30.014  29.830  1.00  0.00     0.034 A 
ATOM     59  C   UNL A   1      39.469  32.925  31.437  1.00  0.00     0.049 A 
ATOM     60  C   UNL A   1      44.759  31.295  30.544  1.00  0.00     0.074 A 
ATOM     61  C   UNL A   1      39.291  34.097  32.148  1.00  0.00     0.029 A 
ATOM     62  N   UNL A   1      40.836  32.710  31.355  1.00  0.00    -0.354 N 
ATOM     63  N   UNL A   1      43.583  31.773  30.872  1.00  0.00    -0.248 NA
ATOM     64  C   UNL A   1      45.890  32.132  30.971  1.00  0.00     0.031 C 
ATOM     65  C   UNL A   1      40.553  34.597  32.488  1.00  0.00     0.029 A 
ATOM     66  C   UNL A   1      41.516  33.728  32.000  1.00  0.00     0.049 A 
ATOM     67  H   UNL A   1      41.262  31.945  30.904  1.00  0.00     0.167 HD
ATOM     68  C   UNL A   1      43.832  32.947  31.575  1.00  0.00     0.074 A 
ATOM     69  C   UNL A   1      45.272  33.095  31.641  1.00  0.00     0.031 C 
ATOM     70  C   UNL A   1      42.949  33.830  32.104  1.00  0.00     0.034 A 
BRANCH  57  71
ATOM     71  C   UNL A   1      37.019  32.443  31.018  1.00  0.00     0.023 A 
ATOM     72  C   UNL A   1      36.373  32.250  32.256  1.00  0.00     0.012 A 
ATOM     73  C   UNL A   1      36.306  33.026  29.952  1.00  0.00     0.148 A 
ATOM     74  C   UNL A   1      35.033  32.592  32.422  1.00  0.00     0.002 A 
ATOM     75  C   UNL A   1      34.979  33.404  30.138  1.00  0.00     0.091 A 
ATOM     76  F   UNL A   1      36.926  33.181  28.773  1.00  0.00    -0.205 F 
ATOM     77  C   UNL A   1      34.339  33.176  31.367  1.00  0.00     0.022 A 
BRANCH  75  78
ATOM     78  S   UNL A   1      34.025  34.233  28.862  1.00  0.00     0.127 S 
ATOM     79  O   UNL A   1      34.920  35.328  28.489  1.00  0.00    -0.237 OA
ATOM     80  O   UNL A   1      33.888  33.187  27.847  1.00  0.00    -0.237 OA
ATOM     81  O   UNL A   1      32.775  34.630  29.494  1.00  0.00    -0.744 OA
ENDBRANCH  75  78
ENDBRANCH  57  71
BRANCH  58  82
ATOM     82  C   UNL A   1      46.508  29.599  29.611  1.00  0.00     0.023 A 
ATOM     83  C   UNL A   1      47.229  29.037  30.682  1.00  0.00     0.012 A 
ATOM     84  C   UNL A   1      47.125  29.713  28.351  1.00  0.00     0.148 A 
ATOM     85  C   UNL A   1      48.549  28.619  30.509  1.00  0.00     0.002 A 
ATOM     86  C   UNL A   1      48.423  29.245  28.172  1.00  0.00     0.091 A 
ATOM     87  F   UNL A   1      46.427  30.261  27.346  1.00  0.00    -0.205 F 
ATOM     88  C   UNL A   1      49.142  28.713  29.254  1.00  0.00     0.022 A 
BRANCH  86  89
ATOM     89  S   UNL A   1      49.214  29.197  26.559  1.00  0.00     0.127 S 
ATOM     90  O   UNL A   1      49.651  30.582  26.399  1.00  0.00    -0.237 OA
ATOM     91  O   UNL A   1      50.291  28.230  26.776  1.00  0.00    -0.237 OA
ATOM     92  O   UNL A   1      48.185  28.746  25.631  1.00  0.00    -0.744 OA
ENDBRANCH  86  89
ENDBRANCH  58  82
BRANCH  70  93
ATOM     93  C   UNL A   1      43.510  35.024  32.830  1.00  0.00     0.023 A 
ATOM     94  C   UNL A   1      43.799  36.202  32.113  1.00  0.00     0.012 A 
ATOM     95  C   UNL A   1      43.679  35.003  34.227  1.00  0.00     0.148 A 
ATOM     96  C   UNL A   1      44.274  37.334  32.775  1.00  0.00     0.002 A 
ATOM     97  C   UNL A   1      44.109  36.149  34.886  1.00  0.00     0.091 A 
ATOM     98  F   UNL A   1      43.419  33.865  34.887  1.00  0.00    -0.205 F 
ATOM     99  C   UNL A   1      44.418  37.311  34.160  1.00  0.00     0.022 A 
BRANCH  97 100
ATOM    100  S   UNL A   1      44.232  36.238  36.676  1.00  0.00     0.127 S 
ATOM    101  O   UNL A   1      44.759  37.588  36.872  1.00  0.00    -0.237 OA
ATOM    102  O   UNL A   1      42.841  36.060  37.094  1.00  0.00    -0.237 OA
ATOM    103  O   UNL A   1      45.122  35.154  37.068  1.00  0.00    -0.744 OA
ENDBRANCH  97 100
ENDBRANCH  70  93
ENDBRANCH  44  45
ENDBRANCH  36  39
ENDBRANCH  34  35
ENDBRANCH  33  34
ENDBRANCH   1  33
TORSDOF 18
ENDMDL
