MODEL 1
REMARK VINA RESULT:     -11.7      0.000      0.000
REMARK SMILES CCN(CC)C(=O)COc1cc(C)ccc1C(=O)NCCCNC(=O)c1ccc(-c2c3nc(c(-c4cccc(S(=O)(=O)[O-])c4F)c4ccc([nH]4)c(-c4cccc(S(=O)(=O)[O-])c4F)c4nc(c(-c5cccc(S(=O)(=O)[O-])c5F)c5ccc2[nH]5)C=C4)C=C3)cc1
REMARK SMILES IDX 20 1 19 2 17 3 18 4 16 6 10 7 11 8 12 9 15 10 13 11 14 12
REMARK SMILES IDX 9 13 8 14 6 15 3 16 7 17 2 18 1 19 4 20 5 21 21 22 22 23
REMARK SMILES IDX 23 24 24 25 25 27 26 28 27 29 88 30 28 31 87 32 29 33 30 34
REMARK SMILES IDX 31 35 81 36 32 37 86 38 80 39 82 40 33 41 85 42 79 43 78 44
REMARK SMILES IDX 34 46 66 47 46 48 65 49 47 50 50 51 64 52 83 53 48 54 49 55
REMARK SMILES IDX 63 57 84 58 51 59 35 60 36 61 44 62 37 63 39 64 45 65 38 66
REMARK SMILES IDX 40 67 41 68 42 69 43 70 67 71 68 72 76 73 69 74 71 75 77 76
REMARK SMILES IDX 70 77 72 78 73 79 74 80 75 81 52 82 53 83 61 84 54 85 56 86
REMARK SMILES IDX 62 87 55 88 57 89 58 90 59 91 60 92
REMARK H PARENT 19 5 23 26 82 45 50 56
REMARK Flexibility Score: inf
ROOT
ATOM      1  C   UNL A   1      33.219  30.455  26.789  1.00  0.00     0.118 C 
ENDROOT
BRANCH   1   2
ATOM      2  N   UNL A   1      32.349  29.520  27.465  1.00  0.00    -0.352 N 
ATOM      3  C   UNL A   1      31.833  28.302  27.101  1.00  0.00     0.255 C 
ATOM      4  O   UNL A   1      31.021  27.815  27.896  1.00  0.00    -0.269 OA
ATOM      5  H   UNL A   1      32.073  29.815  28.364  1.00  0.00     0.163 HD
BRANCH   3   6
ATOM      6  C   UNL A   1      32.209  27.477  25.898  1.00  0.00     0.081 A 
ATOM      7  C   UNL A   1      31.541  27.294  24.672  1.00  0.00     0.133 A 
ATOM      8  C   UNL A   1      32.082  26.447  23.690  1.00  0.00     0.050 A 
ATOM      9  C   UNL A   1      33.253  25.722  23.910  1.00  0.00    -0.047 A 
ATOM     10  C   UNL A   1      33.376  26.709  26.109  1.00  0.00     0.018 A 
ATOM     11  C   UNL A   1      33.792  24.815  22.849  1.00  0.00     0.044 C 
ATOM     12  C   UNL A   1      33.888  25.841  25.141  1.00  0.00     0.004 A 
BRANCH   7  13
ATOM     13  O   UNL A   1      30.409  27.979  24.368  1.00  0.00    -0.483 OA
BRANCH  13  14
ATOM     14  C   UNL A   1      30.520  29.317  23.895  1.00  0.00     0.329 C 
BRANCH  14  15
ATOM     15  C   UNL A   1      29.944  29.652  22.515  1.00  0.00     0.260 C 
ATOM     16  N   UNL A   1      28.629  30.091  22.384  1.00  0.00    -0.340 N 
ATOM     17  O   UNL A   1      30.683  29.548  21.527  1.00  0.00    -0.271 OA
BRANCH  16  18
ATOM     18  C   UNL A   1      28.251  30.655  21.092  1.00  0.00     0.116 C 
ATOM     19  C   UNL A   1      28.119  32.170  21.197  1.00  0.00     0.027 C 
ENDBRANCH  16  18
BRANCH  16  20
ATOM     20  C   UNL A   1      27.583  30.043  23.410  1.00  0.00     0.116 C 
ATOM     21  C   UNL A   1      26.865  28.701  23.443  1.00  0.00     0.027 C 
ENDBRANCH  16  20
ENDBRANCH  14  15
ENDBRANCH  13  14
ENDBRANCH   7  13
ENDBRANCH   3   6
ENDBRANCH   1   2
BRANCH   1  22
ATOM     22  C   UNL A   1      34.636  30.287  27.296  1.00  0.00     0.042 C 
BRANCH  22  23
ATOM     23  C   UNL A   1      35.072  31.106  28.478  1.00  0.00     0.118 C 
BRANCH  23  24
ATOM     24  N   UNL A   1      34.415  32.403  28.504  1.00  0.00    -0.352 N 
ATOM     25  C   UNL A   1      34.604  33.455  29.375  1.00  0.00     0.251 C 
ATOM     26  H   UNL A   1      33.742  32.550  27.802  1.00  0.00     0.163 HD
ATOM     27  O   UNL A   1      33.756  34.345  29.420  1.00  0.00    -0.269 OA
BRANCH  25  28
ATOM     28  C   UNL A   1      35.893  33.575  30.094  1.00  0.00     0.039 A 
ATOM     29  C   UNL A   1      37.007  33.906  29.312  1.00  0.00     0.014 A 
ATOM     30  C   UNL A   1      36.065  33.029  31.360  1.00  0.00     0.014 A 
ATOM     31  C   UNL A   1      38.252  33.391  29.647  1.00  0.00     0.010 A 
ATOM     32  C   UNL A   1      37.261  32.426  31.643  1.00  0.00     0.010 A 
ATOM     33  C   UNL A   1      38.318  32.535  30.735  1.00  0.00    -0.014 A 
BRANCH  33  34
ATOM     34  C   UNL A   1      39.414  31.641  31.038  1.00  0.00     0.031 A 
ATOM     35  C   UNL A   1      39.502  30.356  30.327  1.00  0.00     0.074 A 
ATOM     36  C   UNL A   1      40.495  32.220  31.610  1.00  0.00     0.049 A 
ATOM     37  N   UNL A   1      40.332  29.419  30.619  1.00  0.00    -0.248 NA
ATOM     38  C   UNL A   1      38.663  30.060  29.172  1.00  0.00     0.031 C 
ATOM     39  C   UNL A   1      41.880  31.779  31.525  1.00  0.00     0.029 A 
ATOM     40  N   UNL A   1      40.552  33.312  32.488  1.00  0.00    -0.354 N 
ATOM     41  C   UNL A   1      40.381  28.579  29.525  1.00  0.00     0.074 A 
ATOM     42  C   UNL A   1      39.264  28.968  28.695  1.00  0.00     0.031 C 
ATOM     43  C   UNL A   1      42.583  32.379  32.498  1.00  0.00     0.029 A 
ATOM     44  C   UNL A   1      41.618  33.040  33.361  1.00  0.00     0.049 A 
ATOM     45  H   UNL A   1      39.966  34.102  32.492  1.00  0.00     0.167 HD
ATOM     46  C   UNL A   1      41.472  27.777  29.354  1.00  0.00     0.034 A 
ATOM     47  C   UNL A   1      41.432  32.758  34.687  1.00  0.00     0.034 A 
ATOM     48  C   UNL A   1      42.439  27.985  30.447  1.00  0.00     0.049 A 
ATOM     49  C   UNL A   1      41.882  31.349  35.064  1.00  0.00     0.074 A 
ATOM     50  C   UNL A   1      43.612  28.718  30.545  1.00  0.00     0.029 A 
ATOM     51  N   UNL A   1      42.076  27.662  31.750  1.00  0.00    -0.354 N 
ATOM     52  N   UNL A   1      42.323  30.463  34.212  1.00  0.00    -0.248 NA
ATOM     53  C   UNL A   1      41.862  30.820  36.426  1.00  0.00     0.031 C 
ATOM     54  C   UNL A   1      43.900  28.908  31.927  1.00  0.00     0.029 A 
ATOM     55  C   UNL A   1      42.924  28.266  32.671  1.00  0.00     0.049 A 
ATOM     56  H   UNL A   1      41.318  27.081  31.989  1.00  0.00     0.167 HD
ATOM     57  C   UNL A   1      42.480  29.245  34.823  1.00  0.00     0.074 A 
ATOM     58  C   UNL A   1      42.279  29.554  36.231  1.00  0.00     0.031 C 
ATOM     59  C   UNL A   1      42.689  28.090  34.106  1.00  0.00     0.034 A 
BRANCH  46  60
ATOM     60  C   UNL A   1      41.820  27.069  28.051  1.00  0.00     0.023 A 
ATOM     61  C   UNL A   1      41.591  27.769  26.845  1.00  0.00     0.012 A 
ATOM     62  C   UNL A   1      42.320  25.753  27.912  1.00  0.00     0.148 A 
ATOM     63  C   UNL A   1      41.737  27.173  25.587  1.00  0.00     0.002 A 
ATOM     64  C   UNL A   1      42.389  25.128  26.660  1.00  0.00     0.091 A 
ATOM     65  F   UNL A   1      42.830  25.118  28.973  1.00  0.00    -0.205 F 
ATOM     66  C   UNL A   1      42.096  25.838  25.494  1.00  0.00     0.022 A 
BRANCH  64  67
ATOM     67  S   UNL A   1      42.748  23.371  26.479  1.00  0.00     0.127 S 
ATOM     68  O   UNL A   1      44.119  23.278  26.987  1.00  0.00    -0.237 OA
ATOM     69  O   UNL A   1      41.742  22.750  27.336  1.00  0.00    -0.237 OA
ATOM     70  O   UNL A   1      42.629  23.088  25.052  1.00  0.00    -0.744 OA
ENDBRANCH  64  67
ENDBRANCH  46  60
BRANCH  47  71
ATOM     71  C   UNL A   1      40.295  33.521  35.290  1.00  0.00     0.023 A 
ATOM     72  C   UNL A   1      39.011  32.939  35.142  1.00  0.00     0.012 A 
ATOM     73  C   UNL A   1      40.494  34.466  36.312  1.00  0.00     0.148 A 
ATOM     74  C   UNL A   1      38.011  33.152  36.093  1.00  0.00     0.002 A 
ATOM     75  C   UNL A   1      39.486  34.681  37.254  1.00  0.00     0.091 A 
ATOM     76  F   UNL A   1      41.685  35.071  36.401  1.00  0.00    -0.205 F 
ATOM     77  C   UNL A   1      38.267  33.986  37.175  1.00  0.00     0.022 A 
BRANCH  75  78
ATOM     78  S   UNL A   1      39.730  35.750  38.679  1.00  0.00     0.127 S 
ATOM     79  O   UNL A   1      38.706  35.258  39.595  1.00  0.00    -0.237 OA
ATOM     80  O   UNL A   1      41.103  35.440  39.075  1.00  0.00    -0.237 OA
ATOM     81  O   UNL A   1      39.545  37.102  38.171  1.00  0.00    -0.744 OA
ENDBRANCH  75  78
ENDBRANCH  47  71
BRANCH  59  82
ATOM     82  C   UNL A   1      42.654  26.668  34.661  1.00  0.00     0.023 A 
ATOM     83  C   UNL A   1      41.507  26.104  35.249  1.00  0.00     0.012 A 
ATOM     84  C   UNL A   1      43.756  25.787  34.476  1.00  0.00     0.148 A 
ATOM     85  C   UNL A   1      41.465  24.769  35.673  1.00  0.00     0.002 A 
ATOM     86  C   UNL A   1      43.661  24.430  34.774  1.00  0.00     0.091 A 
ATOM     87  F   UNL A   1      44.930  26.259  34.032  1.00  0.00    -0.205 F 
ATOM     88  C   UNL A   1      42.529  23.922  35.407  1.00  0.00     0.022 A 
BRANCH  86  89
ATOM     89  S   UNL A   1      44.907  23.269  34.191  1.00  0.00     0.127 S 
ATOM     90  O   UNL A   1      44.355  21.987  34.623  1.00  0.00    -0.237 OA
ATOM     91  O   UNL A   1      44.883  23.483  32.743  1.00  0.00    -0.237 OA
ATOM     92  O   UNL A   1      46.142  23.694  34.834  1.00  0.00    -0.744 OA
ENDBRANCH  86  89
ENDBRANCH  59  82
ENDBRANCH  33  34
ENDBRANCH  25  28
ENDBRANCH  23  24
ENDBRANCH  22  23
ENDBRANCH   1  22
TORSDOF 18
ENDMDL
MODEL 2
REMARK VINA RESULT:     -11.3      1.761      3.202
REMARK SMILES CCN(CC)C(=O)COc1cc(C)ccc1C(=O)NCCCNC(=O)c1ccc(-c2c3nc(c(-c4cccc(S(=O)(=O)[O-])c4F)c4ccc([nH]4)c(-c4cccc(S(=O)(=O)[O-])c4F)c4nc(c(-c5cccc(S(=O)(=O)[O-])c5F)c5ccc2[nH]5)C=C4)C=C3)cc1
REMARK SMILES IDX 20 1 19 2 17 3 18 4 16 6 10 7 11 8 12 9 15 10 13 11 14 12
REMARK SMILES IDX 9 13 8 14 6 15 3 16 7 17 2 18 1 19 4 20 5 21 21 22 22 23
REMARK SMILES IDX 23 24 24 25 25 27 26 28 27 29 88 30 28 31 87 32 29 33 30 34
REMARK SMILES IDX 31 35 81 36 32 37 86 38 80 39 82 40 33 41 85 42 79 43 78 44
REMARK SMILES IDX 34 46 66 47 46 48 65 49 47 50 50 51 64 52 83 53 48 54 49 55
REMARK SMILES IDX 63 57 84 58 51 59 35 60 36 61 44 62 37 63 39 64 45 65 38 66
REMARK SMILES IDX 40 67 41 68 42 69 43 70 67 71 68 72 76 73 69 74 71 75 77 76
REMARK SMILES IDX 70 77 72 78 73 79 74 80 75 81 52 82 53 83 61 84 54 85 56 86
REMARK SMILES IDX 62 87 55 88 57 89 58 90 59 91 60 92
REMARK H PARENT 19 5 23 26 82 45 50 56
REMARK Flexibility Score: inf
ROOT
ATOM      1  C   UNL A   1      34.447  28.841  27.189  1.00  0.00     0.118 C 
ENDROOT
BRANCH   1   2
ATOM      2  N   UNL A   1      33.153  28.618  27.792  1.00  0.00    -0.352 N 
ATOM      3  C   UNL A   1      31.997  28.046  27.324  1.00  0.00     0.255 C 
ATOM      4  O   UNL A   1      31.027  28.119  28.087  1.00  0.00    -0.269 OA
ATOM      5  H   UNL A   1      33.088  28.940  28.721  1.00  0.00     0.163 HD
BRANCH   3   6
ATOM      6  C   UNL A   1      31.815  27.280  26.039  1.00  0.00     0.081 A 
ATOM      7  C   UNL A   1      31.593  25.908  25.819  1.00  0.00     0.133 A 
ATOM      8  C   UNL A   1      31.471  25.411  24.510  1.00  0.00     0.050 A 
ATOM      9  C   UNL A   1      31.620  26.236  23.395  1.00  0.00    -0.047 A 
ATOM     10  C   UNL A   1      31.992  28.090  24.895  1.00  0.00     0.018 A 
ATOM     11  C   UNL A   1      31.502  25.671  22.014  1.00  0.00     0.044 C 
ATOM     12  C   UNL A   1      31.905  27.581  23.596  1.00  0.00     0.004 A 
BRANCH   7  13
ATOM     13  O   UNL A   1      31.413  25.040  26.847  1.00  0.00    -0.483 OA
BRANCH  13  14
ATOM     14  C   UNL A   1      31.342  23.646  26.567  1.00  0.00     0.329 C 
BRANCH  14  15
ATOM     15  C   UNL A   1      32.526  22.761  26.970  1.00  0.00     0.260 C 
ATOM     16  N   UNL A   1      33.429  22.305  26.012  1.00  0.00    -0.340 N 
ATOM     17  O   UNL A   1      32.674  22.486  28.168  1.00  0.00    -0.271 OA
BRANCH  16  18
ATOM     18  C   UNL A   1      34.669  21.718  26.507  1.00  0.00     0.116 C 
ATOM     19  C   UNL A   1      35.849  22.629  26.187  1.00  0.00     0.027 C 
ENDBRANCH  16  18
BRANCH  16  20
ATOM     20  C   UNL A   1      33.259  22.353  24.556  1.00  0.00     0.116 C 
ATOM     21  C   UNL A   1      32.364  21.236  24.041  1.00  0.00     0.027 C 
ENDBRANCH  16  20
ENDBRANCH  14  15
ENDBRANCH  13  14
ENDBRANCH   7  13
ENDBRANCH   3   6
ENDBRANCH   1   2
BRANCH   1  22
ATOM     22  C   UNL A   1      34.775  30.319  27.223  1.00  0.00     0.042 C 
BRANCH  22  23
ATOM     23  C   UNL A   1      34.986  30.971  28.561  1.00  0.00     0.118 C 
BRANCH  23  24
ATOM     24  N   UNL A   1      34.295  32.246  28.651  1.00  0.00    -0.352 N 
ATOM     25  C   UNL A   1      34.501  33.286  29.534  1.00  0.00     0.251 C 
ATOM     26  H   UNL A   1      33.580  32.388  27.989  1.00  0.00     0.163 HD
ATOM     27  O   UNL A   1      33.631  34.149  29.644  1.00  0.00    -0.269 OA
BRANCH  25  28
ATOM     28  C   UNL A   1      35.824  33.429  30.184  1.00  0.00     0.039 A 
ATOM     29  C   UNL A   1      36.900  33.716  29.336  1.00  0.00     0.014 A 
ATOM     30  C   UNL A   1      36.053  32.941  31.464  1.00  0.00     0.014 A 
ATOM     31  C   UNL A   1      38.157  33.209  29.635  1.00  0.00     0.010 A 
ATOM     32  C   UNL A   1      37.258  32.343  31.717  1.00  0.00     0.010 A 
ATOM     33  C   UNL A   1      38.272  32.403  30.756  1.00  0.00    -0.014 A 
BRANCH  33  34
ATOM     34  C   UNL A   1      39.376  31.516  31.048  1.00  0.00     0.031 A 
ATOM     35  C   UNL A   1      39.465  30.231  30.337  1.00  0.00     0.074 A 
ATOM     36  C   UNL A   1      40.459  32.102  31.608  1.00  0.00     0.049 A 
ATOM     37  N   UNL A   1      40.303  29.300  30.620  1.00  0.00    -0.248 NA
ATOM     38  C   UNL A   1      38.615  29.929  29.191  1.00  0.00     0.031 C 
ATOM     39  C   UNL A   1      41.846  31.670  31.507  1.00  0.00     0.029 A 
ATOM     40  N   UNL A   1      40.520  33.195  32.484  1.00  0.00    -0.354 N 
ATOM     41  C   UNL A   1      40.346  28.459  29.526  1.00  0.00     0.074 A 
ATOM     42  C   UNL A   1      39.217  28.840  28.709  1.00  0.00     0.031 C 
ATOM     43  C   UNL A   1      42.557  32.275  32.473  1.00  0.00     0.029 A 
ATOM     44  C   UNL A   1      41.597  32.931  33.345  1.00  0.00     0.049 A 
ATOM     45  H   UNL A   1      39.929  33.982  32.494  1.00  0.00     0.167 HD
ATOM     46  C   UNL A   1      41.439  27.664  29.344  1.00  0.00     0.034 A 
ATOM     47  C   UNL A   1      41.428  32.648  34.673  1.00  0.00     0.034 A 
ATOM     48  C   UNL A   1      42.417  27.878  30.426  1.00  0.00     0.049 A 
ATOM     49  C   UNL A   1      41.890  31.243  35.047  1.00  0.00     0.074 A 
ATOM     50  C   UNL A   1      43.587  28.619  30.511  1.00  0.00     0.029 A 
ATOM     51  N   UNL A   1      42.071  27.555  31.733  1.00  0.00    -0.354 N 
ATOM     52  N   UNL A   1      42.327  30.359  34.191  1.00  0.00    -0.248 NA
ATOM     53  C   UNL A   1      41.888  30.715  36.409  1.00  0.00     0.031 C 
ATOM     54  C   UNL A   1      43.889  28.812  31.889  1.00  0.00     0.029 A 
ATOM     55  C   UNL A   1      42.925  28.164  32.644  1.00  0.00     0.049 A 
ATOM     56  H   UNL A   1      41.319  26.969  31.981  1.00  0.00     0.167 HD
ATOM     57  C   UNL A   1      42.499  29.142  34.801  1.00  0.00     0.074 A 
ATOM     58  C   UNL A   1      42.311  29.452  36.210  1.00  0.00     0.031 C 
ATOM     59  C   UNL A   1      42.707  27.988  34.082  1.00  0.00     0.034 A 
BRANCH  46  60
ATOM     60  C   UNL A   1      41.778  26.957  28.038  1.00  0.00     0.023 A 
ATOM     61  C   UNL A   1      41.547  27.661  26.835  1.00  0.00     0.012 A 
ATOM     62  C   UNL A   1      42.270  25.638  27.894  1.00  0.00     0.148 A 
ATOM     63  C   UNL A   1      41.683  27.067  25.574  1.00  0.00     0.002 A 
ATOM     64  C   UNL A   1      42.329  25.016  26.640  1.00  0.00     0.091 A 
ATOM     65  F   UNL A   1      42.782  24.999  28.951  1.00  0.00    -0.205 F 
ATOM     66  C   UNL A   1      42.034  25.730  25.476  1.00  0.00     0.022 A 
BRANCH  64  67
ATOM     67  S   UNL A   1      42.679  23.257  26.453  1.00  0.00     0.127 S 
ATOM     68  O   UNL A   1      44.045  23.152  26.974  1.00  0.00    -0.237 OA
ATOM     69  O   UNL A   1      41.660  22.639  27.297  1.00  0.00    -0.237 OA
ATOM     70  O   UNL A   1      42.573  22.983  25.024  1.00  0.00    -0.744 OA
ENDBRANCH  64  67
ENDBRANCH  46  60
BRANCH  47  71
ATOM     71  C   UNL A   1      40.292  33.404  35.288  1.00  0.00     0.023 A 
ATOM     72  C   UNL A   1      39.018  32.790  35.200  1.00  0.00     0.012 A 
ATOM     73  C   UNL A   1      40.501  34.386  36.274  1.00  0.00     0.148 A 
ATOM     74  C   UNL A   1      38.044  33.011  36.176  1.00  0.00     0.002 A 
ATOM     75  C   UNL A   1      39.518  34.608  37.240  1.00  0.00     0.091 A 
ATOM     76  F   UNL A   1      41.680  35.021  36.305  1.00  0.00    -0.205 F 
ATOM     77  C   UNL A   1      38.314  33.885  37.222  1.00  0.00     0.022 A 
BRANCH  75  78
ATOM     78  S   UNL A   1      39.782  35.728  38.623  1.00  0.00     0.127 S 
ATOM     79  O   UNL A   1      39.513  37.023  38.006  1.00  0.00    -0.237 OA
ATOM     80  O   UNL A   1      38.771  35.288  39.583  1.00  0.00    -0.237 OA
ATOM     81  O   UNL A   1      41.154  35.487  39.045  1.00  0.00    -0.744 OA
ENDBRANCH  75  78
ENDBRANCH  47  71
BRANCH  59  82
ATOM     82  C   UNL A   1      42.687  26.566  34.638  1.00  0.00     0.023 A 
ATOM     83  C   UNL A   1      41.587  26.031  35.333  1.00  0.00     0.012 A 
ATOM     84  C   UNL A   1      43.743  25.657  34.350  1.00  0.00     0.148 A 
ATOM     85  C   UNL A   1      41.549  24.697  35.760  1.00  0.00     0.002 A 
ATOM     86  C   UNL A   1      43.641  24.302  34.657  1.00  0.00     0.091 A 
ATOM     87  F   UNL A   1      44.882  26.099  33.797  1.00  0.00    -0.205 F 
ATOM     88  C   UNL A   1      42.561  23.823  35.394  1.00  0.00     0.022 A 
BRANCH  86  89
ATOM     89  S   UNL A   1      44.794  23.110  33.958  1.00  0.00     0.127 S 
ATOM     90  O   UNL A   1      44.583  23.285  32.524  1.00  0.00    -0.237 OA
ATOM     91  O   UNL A   1      46.086  23.599  34.446  1.00  0.00    -0.237 OA
ATOM     92  O   UNL A   1      44.393  21.829  34.522  1.00  0.00    -0.744 OA
ENDBRANCH  86  89
ENDBRANCH  59  82
ENDBRANCH  33  34
ENDBRANCH  25  28
ENDBRANCH  23  24
ENDBRANCH  22  23
ENDBRANCH   1  22
TORSDOF 18
ENDMDL
MODEL 3
REMARK VINA RESULT:     -11.2      4.985     10.557
REMARK SMILES CCN(CC)C(=O)COc1cc(C)ccc1C(=O)NCCCNC(=O)c1ccc(-c2c3nc(c(-c4cccc(S(=O)(=O)[O-])c4F)c4ccc([nH]4)c(-c4cccc(S(=O)(=O)[O-])c4F)c4nc(c(-c5cccc(S(=O)(=O)[O-])c5F)c5ccc2[nH]5)C=C4)C=C3)cc1
REMARK SMILES IDX 20 1 19 2 17 3 18 4 16 6 10 7 11 8 12 9 15 10 13 11 14 12
REMARK SMILES IDX 9 13 8 14 6 15 3 16 7 17 2 18 1 19 4 20 5 21 21 22 22 23
REMARK SMILES IDX 23 24 24 25 25 27 26 28 27 29 88 30 28 31 87 32 29 33 30 34
REMARK SMILES IDX 31 35 81 36 32 37 86 38 80 39 82 40 33 41 85 42 79 43 78 44
REMARK SMILES IDX 34 46 66 47 46 48 65 49 47 50 50 51 64 52 83 53 48 54 49 55
REMARK SMILES IDX 63 57 84 58 51 59 35 60 36 61 44 62 37 63 39 64 45 65 38 66
REMARK SMILES IDX 40 67 41 68 42 69 43 70 67 71 68 72 76 73 69 74 71 75 77 76
REMARK SMILES IDX 70 77 72 78 73 79 74 80 75 81 52 82 53 83 61 84 54 85 56 86
REMARK SMILES IDX 62 87 55 88 57 89 58 90 59 91 60 92
REMARK H PARENT 19 5 23 26 82 45 50 56
REMARK Flexibility Score: inf
ROOT
ATOM      1  C   UNL A   1      36.785  23.703  26.132  1.00  0.00     0.118 C 
ENDROOT
BRANCH   1   2
ATOM      2  N   UNL A   1      36.171  23.755  24.825  1.00  0.00    -0.352 N 
ATOM      3  C   UNL A   1      34.959  24.226  24.387  1.00  0.00     0.255 C 
ATOM      4  O   UNL A   1      34.709  24.010  23.196  1.00  0.00    -0.269 OA
ATOM      5  H   UNL A   1      36.733  23.379  24.108  1.00  0.00     0.163 HD
BRANCH   3   6
ATOM      6  C   UNL A   1      33.958  25.034  25.171  1.00  0.00     0.081 A 
ATOM      7  C   UNL A   1      32.659  24.707  25.603  1.00  0.00     0.133 A 
ATOM      8  C   UNL A   1      31.892  25.645  26.315  1.00  0.00     0.050 A 
ATOM      9  C   UNL A   1      32.359  26.934  26.569  1.00  0.00    -0.047 A 
ATOM     10  C   UNL A   1      34.397  26.356  25.414  1.00  0.00     0.018 A 
ATOM     11  C   UNL A   1      31.509  27.914  27.316  1.00  0.00     0.044 C 
ATOM     12  C   UNL A   1      33.614  27.293  26.091  1.00  0.00     0.004 A 
BRANCH   7  13
ATOM     13  O   UNL A   1      32.137  23.468  25.418  1.00  0.00    -0.483 OA
BRANCH  13  14
ATOM     14  C   UNL A   1      32.340  22.479  26.423  1.00  0.00     0.329 C 
BRANCH  14  15
ATOM     15  C   UNL A   1      33.460  21.453  26.217  1.00  0.00     0.260 C 
ATOM     16  N   UNL A   1      33.431  20.581  25.131  1.00  0.00    -0.340 N 
ATOM     17  O   UNL A   1      34.399  21.437  27.023  1.00  0.00    -0.271 OA
BRANCH  16  18
ATOM     18  C   UNL A   1      34.658  19.843  24.851  1.00  0.00     0.116 C 
ATOM     19  C   UNL A   1      34.332  18.401  24.478  1.00  0.00     0.027 C 
ENDBRANCH  16  18
BRANCH  16  20
ATOM     20  C   UNL A   1      32.294  20.328  24.241  1.00  0.00     0.116 C 
ATOM     21  C   UNL A   1      32.335  21.193  22.989  1.00  0.00     0.027 C 
ENDBRANCH  16  20
ENDBRANCH  14  15
ENDBRANCH  13  14
ENDBRANCH   7  13
ENDBRANCH   3   6
ENDBRANCH   1   2
BRANCH   1  22
ATOM     22  C   UNL A   1      38.282  23.884  25.997  1.00  0.00     0.042 C 
BRANCH  22  23
ATOM     23  C   UNL A   1      39.152  23.530  27.170  1.00  0.00     0.118 C 
BRANCH  23  24
ATOM     24  N   UNL A   1      39.725  22.202  27.031  1.00  0.00    -0.352 N 
ATOM     25  C   UNL A   1      41.045  21.838  26.861  1.00  0.00     0.251 C 
ATOM     26  H   UNL A   1      39.082  21.458  27.064  1.00  0.00     0.163 HD
ATOM     27  O   UNL A   1      41.299  20.700  26.469  1.00  0.00    -0.269 OA
BRANCH  25  28
ATOM     28  C   UNL A   1      42.111  22.757  27.319  1.00  0.00     0.039 A 
ATOM     29  C   UNL A   1      42.264  22.883  28.705  1.00  0.00     0.014 A 
ATOM     30  C   UNL A   1      42.657  23.709  26.467  1.00  0.00     0.014 A 
ATOM     31  C   UNL A   1      42.657  24.102  29.240  1.00  0.00     0.010 A 
ATOM     32  C   UNL A   1      42.938  24.947  26.981  1.00  0.00     0.010 A 
ATOM     33  C   UNL A   1      42.844  25.156  28.360  1.00  0.00    -0.014 A 
BRANCH  33  34
ATOM     34  C   UNL A   1      42.912  26.554  28.721  1.00  0.00     0.031 A 
ATOM     35  C   UNL A   1      41.686  27.366  28.659  1.00  0.00     0.074 A 
ATOM     36  C   UNL A   1      43.964  26.905  29.495  1.00  0.00     0.049 A 
ATOM     37  N   UNL A   1      41.651  28.643  28.803  1.00  0.00    -0.248 NA
ATOM     38  C   UNL A   1      40.373  26.760  28.472  1.00  0.00     0.031 C 
ATOM     39  C   UNL A   1      44.031  28.003  30.449  1.00  0.00     0.029 A 
ATOM     40  N   UNL A   1      45.262  26.374  29.515  1.00  0.00    -0.354 N 
ATOM     41  C   UNL A   1      40.338  28.976  29.070  1.00  0.00     0.074 A 
ATOM     42  C   UNL A   1      39.574  27.788  28.764  1.00  0.00     0.031 C 
ATOM     43  C   UNL A   1      45.320  28.245  30.736  1.00  0.00     0.029 A 
ATOM     44  C   UNL A   1      46.109  27.456  29.805  1.00  0.00     0.049 A 
ATOM     45  H   UNL A   1      45.524  25.439  29.357  1.00  0.00     0.167 HD
ATOM     46  C   UNL A   1      40.069  30.155  29.700  1.00  0.00     0.034 A 
ATOM     47  C   UNL A   1      46.985  27.973  28.889  1.00  0.00     0.034 A 
ATOM     48  C   UNL A   1      41.319  30.883  29.984  1.00  0.00     0.049 A 
ATOM     49  C   UNL A   1      46.671  29.419  28.515  1.00  0.00     0.074 A 
ATOM     50  C   UNL A   1      42.094  31.022  31.126  1.00  0.00     0.029 A 
ATOM     51  N   UNL A   1      42.108  31.323  28.928  1.00  0.00    -0.354 N 
ATOM     52  N   UNL A   1      45.634  30.084  28.949  1.00  0.00    -0.248 NA
ATOM     53  C   UNL A   1      47.491  30.229  27.617  1.00  0.00     0.031 C 
ATOM     54  C   UNL A   1      43.388  31.466  30.731  1.00  0.00     0.029 A 
ATOM     55  C   UNL A   1      43.395  31.629  29.355  1.00  0.00     0.049 A 
ATOM     56  H   UNL A   1      41.796  31.408  27.997  1.00  0.00     0.167 HD
ATOM     57  C   UNL A   1      45.532  31.290  28.303  1.00  0.00     0.074 A 
ATOM     58  C   UNL A   1      46.780  31.372  27.559  1.00  0.00     0.031 C 
ATOM     59  C   UNL A   1      44.402  32.070  28.387  1.00  0.00     0.034 A 
BRANCH  46  60
ATOM     60  C   UNL A   1      38.736  30.493  30.354  1.00  0.00     0.023 A 
ATOM     61  C   UNL A   1      38.328  29.704  31.453  1.00  0.00     0.012 A 
ATOM     62  C   UNL A   1      37.829  31.503  29.953  1.00  0.00     0.148 A 
ATOM     63  C   UNL A   1      37.065  29.826  32.043  1.00  0.00     0.002 A 
ATOM     64  C   UNL A   1      36.536  31.574  30.487  1.00  0.00     0.091 A 
ATOM     65  F   UNL A   1      38.235  32.471  29.124  1.00  0.00    -0.205 F 
ATOM     66  C   UNL A   1      36.150  30.733  31.533  1.00  0.00     0.022 A 
BRANCH  64  67
ATOM     67  S   UNL A   1      35.269  32.659  29.800  1.00  0.00     0.127 S 
ATOM     68  O   UNL A   1      34.256  32.665  30.858  1.00  0.00    -0.237 OA
ATOM     69  O   UNL A   1      35.985  33.921  29.641  1.00  0.00    -0.237 OA
ATOM     70  O   UNL A   1      34.827  32.018  28.567  1.00  0.00    -0.744 OA
ENDBRANCH  64  67
ENDBRANCH  46  60
BRANCH  47  71
ATOM     71  C   UNL A   1      47.571  26.929  27.991  1.00  0.00     0.023 A 
ATOM     72  C   UNL A   1      48.497  26.042  28.594  1.00  0.00     0.012 A 
ATOM     73  C   UNL A   1      46.938  26.536  26.798  1.00  0.00     0.148 A 
ATOM     74  C   UNL A   1      48.649  24.735  28.126  1.00  0.00     0.002 A 
ATOM     75  C   UNL A   1      47.103  25.230  26.331  1.00  0.00     0.091 A 
ATOM     76  F   UNL A   1      46.123  27.406  26.189  1.00  0.00    -0.205 F 
ATOM     77  C   UNL A   1      47.915  24.316  27.024  1.00  0.00     0.022 A 
BRANCH  75  78
ATOM     78  S   UNL A   1      46.198  24.609  24.907  1.00  0.00     0.127 S 
ATOM     79  O   UNL A   1      47.218  24.667  23.864  1.00  0.00    -0.237 OA
ATOM     80  O   UNL A   1      45.833  23.258  25.329  1.00  0.00    -0.237 OA
ATOM     81  O   UNL A   1      45.069  25.515  24.755  1.00  0.00    -0.744 OA
ENDBRANCH  75  78
ENDBRANCH  47  71
BRANCH  59  82
ATOM     82  C   UNL A   1      44.097  33.304  27.542  1.00  0.00     0.023 A 
ATOM     83  C   UNL A   1      44.076  33.284  26.136  1.00  0.00     0.012 A 
ATOM     84  C   UNL A   1      43.671  34.517  28.154  1.00  0.00     0.148 A 
ATOM     85  C   UNL A   1      43.708  34.404  25.377  1.00  0.00     0.002 A 
ATOM     86  C   UNL A   1      43.178  35.579  27.398  1.00  0.00     0.091 A 
ATOM     87  F   UNL A   1      43.767  34.673  29.482  1.00  0.00    -0.205 F 
ATOM     88  C   UNL A   1      43.227  35.540  26.007  1.00  0.00     0.022 A 
BRANCH  86  89
ATOM     89  S   UNL A   1      42.300  36.939  28.185  1.00  0.00     0.127 S 
ATOM     90  O   UNL A   1      41.889  37.742  27.036  1.00  0.00    -0.237 OA
ATOM     91  O   UNL A   1      41.203  36.251  28.870  1.00  0.00    -0.237 OA
ATOM     92  O   UNL A   1      43.275  37.542  29.083  1.00  0.00    -0.744 OA
ENDBRANCH  86  89
ENDBRANCH  59  82
ENDBRANCH  33  34
ENDBRANCH  25  28
ENDBRANCH  23  24
ENDBRANCH  22  23
ENDBRANCH   1  22
TORSDOF 18
ENDMDL
