MODEL 1
REMARK VINA RESULT:     -12.4      0.000      0.000
REMARK SMILES C/C(=N\[NH+]=C1\NC(=O)[C@H](CC(=O)NCCCNC(=O)c2ccc(-c3c4nc(c(-c5cccc(S(=O)(=O)[O-])c5F)c5ccc([nH]5)c(-c5cccc(S(=O)(=O)[O-])c5F)c5nc(c(-c6cccc(S(=O)(=O)[O-])c6F)c6ccc3[nH]6)C=C5)C=C4)cc2)S1)c1ccc([N+](=O)[O-])cc1
REMARK SMILES IDX 14 1 13 2 11 3 12 4 10 6 9 7 4 8 5 9 6 11 83 12 7 13 8 15
REMARK SMILES IDX 3 16 1 17 2 18 84 19 85 20 92 21 86 22 91 23 87 24 88 25
REMARK SMILES IDX 89 26 90 27 15 28 16 29 17 30 18 31 19 33 20 34 21 35 82 36
REMARK SMILES IDX 22 37 81 38 23 39 24 40 25 41 75 42 26 43 80 44 74 45 76 46
REMARK SMILES IDX 27 47 79 48 73 49 72 50 28 52 60 53 40 54 59 55 41 56 44 57
REMARK SMILES IDX 58 58 77 59 42 60 43 61 57 63 78 64 45 65 29 66 30 67 38 68
REMARK SMILES IDX 31 69 33 70 39 71 32 72 34 73 35 74 36 75 37 76 61 77 62 78
REMARK SMILES IDX 70 79 63 80 65 81 71 82 64 83 66 84 67 85 68 86 69 87 46 88
REMARK SMILES IDX 47 89 55 90 48 91 50 92 56 93 49 94 51 95 52 96 53 97 54 98
REMARK H PARENT 13 5 4 10 6 14 17 32 76 51 44 62
REMARK Flexibility Score: inf
ROOT
ATOM      1  C   UNL A   1      31.548  30.544  25.809  1.00  0.00     0.117 C 
ENDROOT
BRANCH   1   2
ATOM      2  N   UNL A   1      30.842  30.452  24.538  1.00  0.00    -0.356 N 
ATOM      3  C   UNL A   1      30.500  29.368  23.789  1.00  0.00     0.221 C 
ATOM      4  O   UNL A   1      29.916  29.532  22.719  1.00  0.00    -0.275 OA
ATOM      5  H   UNL A   1      30.565  31.318  24.158  1.00  0.00     0.163 HD
BRANCH   3   6
ATOM      6  C   UNL A   1      30.837  27.983  24.279  1.00  0.00     0.127 C 
BRANCH   6   7
ATOM      7  C   UNL A   1      31.947  27.353  23.457  1.00  0.00     0.183 C 
ATOM      8  N   UNL A   1      34.611  24.893  24.730  1.00  0.00    -0.142 N 
ATOM      9  C   UNL A   1      33.717  25.787  24.481  1.00  0.00     0.337 C 
ATOM     10  H   UNL A   1      35.464  25.114  25.169  1.00  0.00     0.343 HD
ATOM     11  N   UNL A   1      34.074  27.087  24.506  1.00  0.00    -0.202 N 
ATOM     12  S   UNL A   1      32.093  25.584  23.888  1.00  0.00    -0.020 SA
ATOM     13  C   UNL A   1      33.316  27.920  23.746  1.00  0.00     0.322 C 
ATOM     14  H   UNL A   1      34.835  27.412  25.039  1.00  0.00     0.316 HD
ATOM     15  O   UNL A   1      33.735  28.981  23.291  1.00  0.00    -0.246 OA
BRANCH   8  16
ATOM     16  N   UNL A   1      34.294  23.596  24.339  1.00  0.00    -0.090 NA
ATOM     17  C   UNL A   1      35.120  22.989  26.625  1.00  0.00     0.071 C 
ATOM     18  C   UNL A   1      34.476  22.697  25.271  1.00  0.00     0.088 C 
BRANCH  18  19
ATOM     19  C   UNL A   1      34.128  21.274  24.967  1.00  0.00    -0.000 A 
ATOM     20  C   UNL A   1      35.153  20.317  24.904  1.00  0.00     0.017 A 
ATOM     21  C   UNL A   1      32.803  20.878  24.739  1.00  0.00     0.017 A 
ATOM     22  C   UNL A   1      34.860  18.981  24.616  1.00  0.00     0.086 A 
ATOM     23  C   UNL A   1      32.501  19.546  24.447  1.00  0.00     0.086 A 
ATOM     24  C   UNL A   1      33.532  18.602  24.385  1.00  0.00     0.269 A 
BRANCH  24  25
ATOM     25  N   UNL A   1      33.214  17.204  24.074  1.00  0.00     0.062 N 
ATOM     26  O   UNL A   1      32.545  16.566  24.899  1.00  0.00    -0.258 OA
ATOM     27  O   UNL A   1      33.626  16.744  22.999  1.00  0.00    -0.258 OA
ENDBRANCH  24  25
ENDBRANCH  18  19
ENDBRANCH   8  16
ENDBRANCH   6   7
ENDBRANCH   3   6
ENDBRANCH   1   2
BRANCH   1  28
ATOM     28  C   UNL A   1      31.377  31.899  26.491  1.00  0.00     0.042 C 
BRANCH  28  29
ATOM     29  C   UNL A   1      32.636  32.419  27.165  1.00  0.00     0.118 C 
BRANCH  29  30
ATOM     30  N   UNL A   1      32.525  33.833  27.484  1.00  0.00    -0.352 N 
ATOM     31  C   UNL A   1      33.149  34.545  28.481  1.00  0.00     0.251 C 
ATOM     32  H   UNL A   1      31.920  34.352  26.907  1.00  0.00     0.163 HD
ATOM     33  O   UNL A   1      32.737  35.665  28.768  1.00  0.00    -0.269 OA
BRANCH  31  34
ATOM     34  C   UNL A   1      34.301  33.963  29.209  1.00  0.00     0.039 A 
ATOM     35  C   UNL A   1      34.058  33.076  30.261  1.00  0.00     0.014 A 
ATOM     36  C   UNL A   1      35.614  34.310  28.880  1.00  0.00     0.014 A 
ATOM     37  C   UNL A   1      35.133  32.511  30.953  1.00  0.00     0.010 A 
ATOM     38  C   UNL A   1      36.682  33.673  29.506  1.00  0.00     0.010 A 
ATOM     39  C   UNL A   1      36.455  32.785  30.568  1.00  0.00    -0.014 A 
BRANCH  39  40
ATOM     40  C   UNL A   1      37.609  32.168  31.272  1.00  0.00     0.031 A 
ATOM     41  C   UNL A   1      38.381  31.044  30.632  1.00  0.00     0.074 A 
ATOM     42  C   UNL A   1      37.922  32.570  32.519  1.00  0.00     0.049 A 
ATOM     43  N   UNL A   1      39.407  30.379  31.095  1.00  0.00    -0.248 NA
ATOM     44  C   UNL A   1      37.922  30.589  29.309  1.00  0.00     0.031 C 
ATOM     45  C   UNL A   1      37.209  33.597  33.280  1.00  0.00     0.029 A 
ATOM     46  N   UNL A   1      38.915  32.155  33.371  1.00  0.00    -0.354 N 
ATOM     47  C   UNL A   1      39.692  29.406  30.143  1.00  0.00     0.074 A 
ATOM     48  C   UNL A   1      38.702  29.541  29.097  1.00  0.00     0.031 C 
ATOM     49  C   UNL A   1      37.801  33.749  34.475  1.00  0.00     0.029 A 
ATOM     50  C   UNL A   1      38.914  32.811  34.580  1.00  0.00     0.049 A 
ATOM     51  H   UNL A   1      39.566  31.454  33.139  1.00  0.00     0.167 HD
ATOM     52  C   UNL A   1      40.703  28.503  30.121  1.00  0.00     0.034 A 
ATOM     53  C   UNL A   1      39.721  32.675  35.650  1.00  0.00     0.034 A 
ATOM     54  C   UNL A   1      41.704  28.395  31.148  1.00  0.00     0.049 A 
ATOM     55  C   UNL A   1      40.849  31.682  35.596  1.00  0.00     0.074 A 
ATOM     56  C   UNL A   1      42.821  27.578  31.178  1.00  0.00     0.029 A 
ATOM     57  N   UNL A   1      41.701  29.111  32.335  1.00  0.00    -0.354 N 
ATOM     58  N   UNL A   1      41.201  30.883  34.618  1.00  0.00    -0.248 NA
ATOM     59  C   UNL A   1      41.712  31.597  36.783  1.00  0.00     0.031 C 
ATOM     60  C   UNL A   1      43.472  27.776  32.401  1.00  0.00     0.029 A 
ATOM     61  C   UNL A   1      42.783  28.744  33.116  1.00  0.00     0.049 A 
ATOM     62  H   UNL A   1      41.027  29.784  32.586  1.00  0.00     0.167 HD
ATOM     63  C   UNL A   1      42.347  30.227  35.054  1.00  0.00     0.074 A 
ATOM     64  C   UNL A   1      42.638  30.737  36.379  1.00  0.00     0.031 C 
ATOM     65  C   UNL A   1      43.085  29.283  34.419  1.00  0.00     0.034 A 
BRANCH  52  66
ATOM     66  C   UNL A   1      40.786  27.586  28.926  1.00  0.00     0.023 A 
ATOM     67  C   UNL A   1      39.912  26.482  28.827  1.00  0.00     0.012 A 
ATOM     68  C   UNL A   1      41.716  27.821  27.894  1.00  0.00     0.148 A 
ATOM     69  C   UNL A   1      40.002  25.595  27.754  1.00  0.00     0.002 A 
ATOM     70  C   UNL A   1      41.763  26.961  26.801  1.00  0.00     0.091 A 
ATOM     71  F   UNL A   1      42.553  28.861  28.009  1.00  0.00    -0.205 F 
ATOM     72  C   UNL A   1      40.922  25.840  26.738  1.00  0.00     0.022 A 
BRANCH  70  73
ATOM     73  S   UNL A   1      42.855  27.241  25.402  1.00  0.00     0.127 S 
ATOM     74  O   UNL A   1      42.753  25.969  24.688  1.00  0.00    -0.237 OA
ATOM     75  O   UNL A   1      42.212  28.370  24.729  1.00  0.00    -0.237 OA
ATOM     76  O   UNL A   1      44.160  27.543  25.971  1.00  0.00    -0.744 OA
ENDBRANCH  70  73
ENDBRANCH  52  66
BRANCH  53  77
ATOM     77  C   UNL A   1      39.540  33.571  36.826  1.00  0.00     0.023 A 
ATOM     78  C   UNL A   1      39.928  34.922  36.726  1.00  0.00     0.012 A 
ATOM     79  C   UNL A   1      38.942  33.114  38.017  1.00  0.00     0.148 A 
ATOM     80  C   UNL A   1      39.744  35.796  37.797  1.00  0.00     0.002 A 
ATOM     81  C   UNL A   1      38.713  34.002  39.061  1.00  0.00     0.091 A 
ATOM     82  F   UNL A   1      38.584  31.824  38.091  1.00  0.00    -0.205 F 
ATOM     83  C   UNL A   1      39.128  35.340  38.959  1.00  0.00     0.022 A 
BRANCH  81  84
ATOM     84  S   UNL A   1      37.813  33.543  40.545  1.00  0.00     0.127 S 
ATOM     85  O   UNL A   1      37.759  34.810  41.269  1.00  0.00    -0.237 OA
ATOM     86  O   UNL A   1      36.535  33.093  39.992  1.00  0.00    -0.237 OA
ATOM     87  O   UNL A   1      38.600  32.493  41.179  1.00  0.00    -0.744 OA
ENDBRANCH  81  84
ENDBRANCH  53  77
BRANCH  65  88
ATOM     88  C   UNL A   1      44.305  28.755  35.131  1.00  0.00     0.023 A 
ATOM     89  C   UNL A   1      45.576  29.294  34.847  1.00  0.00     0.012 A 
ATOM     90  C   UNL A   1      44.182  27.768  36.129  1.00  0.00     0.148 A 
ATOM     91  C   UNL A   1      46.707  28.834  35.519  1.00  0.00     0.002 A 
ATOM     92  C   UNL A   1      45.306  27.351  36.831  1.00  0.00     0.091 A 
ATOM     93  F   UNL A   1      42.967  27.252  36.372  1.00  0.00    -0.205 F 
ATOM     94  C   UNL A   1      46.572  27.873  36.518  1.00  0.00     0.022 A 
BRANCH  92  95
ATOM     95  S   UNL A   1      45.212  26.192  38.201  1.00  0.00     0.127 S 
ATOM     96  O   UNL A   1      44.738  24.981  37.533  1.00  0.00    -0.237 OA
ATOM     97  O   UNL A   1      46.603  26.135  38.653  1.00  0.00    -0.237 OA
ATOM     98  O   UNL A   1      44.288  26.779  39.161  1.00  0.00    -0.744 OA
ENDBRANCH  92  95
ENDBRANCH  65  88
ENDBRANCH  39  40
ENDBRANCH  31  34
ENDBRANCH  29  30
ENDBRANCH  28  29
ENDBRANCH   1  28
TORSDOF 17
ENDMDL
MODEL 2
REMARK VINA RESULT:     -12.3      3.247      8.392
REMARK SMILES C/C(=N\[NH+]=C1\NC(=O)[C@H](CC(=O)NCCCNC(=O)c2ccc(-c3c4nc(c(-c5cccc(S(=O)(=O)[O-])c5F)c5ccc([nH]5)c(-c5cccc(S(=O)(=O)[O-])c5F)c5nc(c(-c6cccc(S(=O)(=O)[O-])c6F)c6ccc3[nH]6)C=C5)C=C4)cc2)S1)c1ccc([N+](=O)[O-])cc1
REMARK SMILES IDX 14 1 13 2 11 3 12 4 10 6 9 7 4 8 5 9 6 11 83 12 7 13 8 15
REMARK SMILES IDX 3 16 1 17 2 18 84 19 85 20 92 21 86 22 91 23 87 24 88 25
REMARK SMILES IDX 89 26 90 27 15 28 16 29 17 30 18 31 19 33 20 34 21 35 82 36
REMARK SMILES IDX 22 37 81 38 23 39 24 40 25 41 75 42 26 43 80 44 74 45 76 46
REMARK SMILES IDX 27 47 79 48 73 49 72 50 28 52 60 53 40 54 59 55 41 56 44 57
REMARK SMILES IDX 58 58 77 59 42 60 43 61 57 63 78 64 45 65 29 66 30 67 38 68
REMARK SMILES IDX 31 69 33 70 39 71 32 72 34 73 35 74 36 75 37 76 61 77 62 78
REMARK SMILES IDX 70 79 63 80 65 81 71 82 64 83 66 84 67 85 68 86 69 87 46 88
REMARK SMILES IDX 47 89 55 90 48 91 50 92 56 93 49 94 51 95 52 96 53 97 54 98
REMARK H PARENT 13 5 4 10 6 14 17 32 76 51 44 62
REMARK Flexibility Score: inf
ROOT
ATOM      1  C   UNL A   1      31.799  27.776  26.282  1.00  0.00     0.117 C 
ENDROOT
BRANCH   1   2
ATOM      2  N   UNL A   1      31.101  26.557  26.669  1.00  0.00    -0.356 N 
ATOM      3  C   UNL A   1      30.233  25.772  25.974  1.00  0.00     0.221 C 
ATOM      4  O   UNL A   1      29.739  24.786  26.519  1.00  0.00    -0.275 OA
ATOM      5  H   UNL A   1      31.290  26.250  27.586  1.00  0.00     0.163 HD
BRANCH   3   6
ATOM      6  C   UNL A   1      29.889  26.117  24.547  1.00  0.00     0.127 C 
BRANCH   6   7
ATOM      7  C   UNL A   1      30.671  25.267  23.562  1.00  0.00     0.183 C 
ATOM      8  N   UNL A   1      33.741  23.097  24.357  1.00  0.00    -0.142 N 
ATOM      9  C   UNL A   1      32.769  23.935  24.235  1.00  0.00     0.337 C 
ATOM     10  H   UNL A   1      34.680  23.388  24.398  1.00  0.00     0.343 HD
ATOM     11  N   UNL A   1      33.041  25.189  23.819  1.00  0.00    -0.202 N 
ATOM     12  S   UNL A   1      31.054  23.652  24.324  1.00  0.00    -0.020 SA
ATOM     13  C   UNL A   1      32.021  25.839  23.202  1.00  0.00     0.322 C 
ATOM     14  H   UNL A   1      33.923  25.606  23.954  1.00  0.00     0.316 HD
ATOM     15  O   UNL A   1      32.195  26.741  22.388  1.00  0.00    -0.246 OA
BRANCH   8  16
ATOM     16  N   UNL A   1      33.377  21.756  24.427  1.00  0.00    -0.090 NA
ATOM     17  C   UNL A   1      35.804  21.398  24.936  1.00  0.00     0.071 C 
ATOM     18  C   UNL A   1      34.351  20.954  24.769  1.00  0.00     0.088 C 
BRANCH  18  19
ATOM     19  C   UNL A   1      34.058  19.495  24.912  1.00  0.00    -0.000 A 
ATOM     20  C   UNL A   1      32.913  19.092  25.618  1.00  0.00     0.017 A 
ATOM     21  C   UNL A   1      34.902  18.521  24.360  1.00  0.00     0.017 A 
ATOM     22  C   UNL A   1      32.615  17.736  25.772  1.00  0.00     0.086 A 
ATOM     23  C   UNL A   1      34.614  17.163  24.513  1.00  0.00     0.086 A 
ATOM     24  C   UNL A   1      33.472  16.775  25.220  1.00  0.00     0.269 A 
BRANCH  24  25
ATOM     25  N   UNL A   1      33.174  15.348  25.384  1.00  0.00     0.062 N 
ATOM     26  O   UNL A   1      31.984  15.012  25.469  1.00  0.00    -0.258 OA
ATOM     27  O   UNL A   1      34.129  14.559  25.421  1.00  0.00    -0.258 OA
ENDBRANCH  24  25
ENDBRANCH  18  19
ENDBRANCH   8  16
ENDBRANCH   6   7
ENDBRANCH   3   6
ENDBRANCH   1   2
BRANCH   1  28
ATOM     28  C   UNL A   1      33.288  27.743  26.616  1.00  0.00     0.042 C 
BRANCH  28  29
ATOM     29  C   UNL A   1      34.109  28.804  25.899  1.00  0.00     0.118 C 
BRANCH  29  30
ATOM     30  N   UNL A   1      33.841  30.131  26.427  1.00  0.00    -0.352 N 
ATOM     31  C   UNL A   1      34.467  30.794  27.455  1.00  0.00     0.251 C 
ATOM     32  H   UNL A   1      33.110  30.623  25.988  1.00  0.00     0.163 HD
ATOM     33  O   UNL A   1      33.940  31.793  27.937  1.00  0.00    -0.269 OA
BRANCH  31  34
ATOM     34  C   UNL A   1      35.761  30.304  27.985  1.00  0.00     0.039 A 
ATOM     35  C   UNL A   1      35.790  29.691  29.240  1.00  0.00     0.014 A 
ATOM     36  C   UNL A   1      36.947  30.472  27.265  1.00  0.00     0.014 A 
ATOM     37  C   UNL A   1      37.000  29.214  29.752  1.00  0.00     0.010 A 
ATOM     38  C   UNL A   1      38.133  29.911  27.733  1.00  0.00     0.010 A 
ATOM     39  C   UNL A   1      38.180  29.298  28.993  1.00  0.00    -0.014 A 
BRANCH  39  40
ATOM     40  C   UNL A   1      39.468  28.768  29.509  1.00  0.00     0.031 A 
ATOM     41  C   UNL A   1      40.166  29.443  30.660  1.00  0.00     0.074 A 
ATOM     42  C   UNL A   1      40.049  27.717  28.897  1.00  0.00     0.049 A 
ATOM     43  N   UNL A   1      41.296  29.130  31.239  1.00  0.00    -0.248 NA
ATOM     44  C   UNL A   1      39.522  30.644  31.217  1.00  0.00     0.031 C 
ATOM     45  C   UNL A   1      39.516  27.019  27.726  1.00  0.00     0.029 A 
ATOM     46  N   UNL A   1      41.224  27.061  29.168  1.00  0.00    -0.354 N 
ATOM     47  C   UNL A   1      41.518  30.112  32.199  1.00  0.00     0.074 A 
ATOM     48  C   UNL A   1      40.426  31.055  32.093  1.00  0.00     0.031 C 
ATOM     49  C   UNL A   1      40.346  26.018  27.395  1.00  0.00     0.029 A 
ATOM     50  C   UNL A   1      41.486  26.022  28.306  1.00  0.00     0.049 A 
ATOM     51  H   UNL A   1      41.823  27.311  29.908  1.00  0.00     0.167 HD
ATOM     52  C   UNL A   1      42.519  30.207  33.107  1.00  0.00     0.034 A 
ATOM     53  C   UNL A   1      42.525  25.166  28.257  1.00  0.00     0.034 A 
ATOM     54  C   UNL A   1      43.585  29.249  33.229  1.00  0.00     0.049 A 
ATOM     55  C   UNL A   1      43.615  25.276  29.288  1.00  0.00     0.074 A 
ATOM     56  C   UNL A   1      44.596  29.202  34.173  1.00  0.00     0.029 A 
ATOM     57  N   UNL A   1      43.790  28.179  32.371  1.00  0.00    -0.354 N 
ATOM     58  N   UNL A   1      43.723  26.114  30.290  1.00  0.00    -0.248 NA
ATOM     59  C   UNL A   1      44.709  24.298  29.201  1.00  0.00     0.031 C 
ATOM     60  C   UNL A   1      45.433  28.124  33.863  1.00  0.00     0.029 A 
ATOM     61  C   UNL A   1      44.922  27.477  32.748  1.00  0.00     0.049 A 
ATOM     62  H   UNL A   1      43.215  27.953  31.605  1.00  0.00     0.167 HD
ATOM     63  C   UNL A   1      44.875  25.744  30.975  1.00  0.00     0.074 A 
ATOM     64  C   UNL A   1      45.419  24.593  30.282  1.00  0.00     0.031 C 
ATOM     65  C   UNL A   1      45.435  26.311  32.073  1.00  0.00     0.034 A 
BRANCH  52  66
ATOM     66  C   UNL A   1      42.480  31.376  34.060  1.00  0.00     0.023 A 
ATOM     67  C   UNL A   1      43.299  32.501  33.823  1.00  0.00     0.012 A 
ATOM     68  C   UNL A   1      41.627  31.372  35.180  1.00  0.00     0.148 A 
ATOM     69  C   UNL A   1      43.314  33.573  34.715  1.00  0.00     0.002 A 
ATOM     70  C   UNL A   1      41.609  32.468  36.036  1.00  0.00     0.091 A 
ATOM     71  F   UNL A   1      40.869  30.290  35.405  1.00  0.00    -0.205 F 
ATOM     72  C   UNL A   1      42.463  33.560  35.816  1.00  0.00     0.022 A 
BRANCH  70  73
ATOM     73  S   UNL A   1      40.486  32.581  37.435  1.00  0.00     0.127 S 
ATOM     74  O   UNL A   1      41.314  32.062  38.522  1.00  0.00    -0.237 OA
ATOM     75  O   UNL A   1      40.221  34.018  37.503  1.00  0.00    -0.237 OA
ATOM     76  O   UNL A   1      39.329  31.771  37.081  1.00  0.00    -0.744 OA
ENDBRANCH  70  73
ENDBRANCH  52  66
BRANCH  53  77
ATOM     77  C   UNL A   1      42.531  24.072  27.245  1.00  0.00     0.023 A 
ATOM     78  C   UNL A   1      43.422  24.150  26.156  1.00  0.00     0.012 A 
ATOM     79  C   UNL A   1      41.708  22.938  27.381  1.00  0.00     0.148 A 
ATOM     80  C   UNL A   1      43.477  23.129  25.208  1.00  0.00     0.002 A 
ATOM     81  C   UNL A   1      41.806  21.899  26.462  1.00  0.00     0.091 A 
ATOM     82  F   UNL A   1      40.867  22.886  28.423  1.00  0.00    -0.205 F 
ATOM     83  C   UNL A   1      42.678  22.000  25.366  1.00  0.00     0.022 A 
BRANCH  81  84
ATOM     84  S   UNL A   1      40.914  20.352  26.649  1.00  0.00     0.127 S 
ATOM     85  O   UNL A   1      41.120  20.055  28.065  1.00  0.00    -0.237 OA
ATOM     86  O   UNL A   1      39.552  20.747  26.293  1.00  0.00    -0.237 OA
ATOM     87  O   UNL A   1      41.535  19.419  25.718  1.00  0.00    -0.744 OA
ENDBRANCH  81  84
ENDBRANCH  53  77
BRANCH  65  88
ATOM     88  C   UNL A   1      46.690  25.679  32.621  1.00  0.00     0.023 A 
ATOM     89  C   UNL A   1      47.952  26.092  32.149  1.00  0.00     0.012 A 
ATOM     90  C   UNL A   1      46.619  24.721  33.653  1.00  0.00     0.148 A 
ATOM     91  C   UNL A   1      49.120  25.536  32.667  1.00  0.00     0.002 A 
ATOM     92  C   UNL A   1      47.789  24.210  34.202  1.00  0.00     0.091 A 
ATOM     93  F   UNL A   1      45.409  24.327  34.078  1.00  0.00    -0.205 F 
ATOM     94  C   UNL A   1      49.040  24.605  33.700  1.00  0.00     0.022 A 
BRANCH  92  95
ATOM     95  S   UNL A   1      47.785  23.084  35.601  1.00  0.00     0.127 S 
ATOM     96  O   UNL A   1      47.281  23.943  36.673  1.00  0.00    -0.237 OA
ATOM     97  O   UNL A   1      46.850  22.047  35.160  1.00  0.00    -0.237 OA
ATOM     98  O   UNL A   1      49.160  22.631  35.758  1.00  0.00    -0.744 OA
ENDBRANCH  92  95
ENDBRANCH  65  88
ENDBRANCH  39  40
ENDBRANCH  31  34
ENDBRANCH  29  30
ENDBRANCH  28  29
ENDBRANCH   1  28
TORSDOF 17
ENDMDL
MODEL 3
REMARK VINA RESULT:     -12.3      2.468      8.057
REMARK SMILES C/C(=N\[NH+]=C1\NC(=O)[C@H](CC(=O)NCCCNC(=O)c2ccc(-c3c4nc(c(-c5cccc(S(=O)(=O)[O-])c5F)c5ccc([nH]5)c(-c5cccc(S(=O)(=O)[O-])c5F)c5nc(c(-c6cccc(S(=O)(=O)[O-])c6F)c6ccc3[nH]6)C=C5)C=C4)cc2)S1)c1ccc([N+](=O)[O-])cc1
REMARK SMILES IDX 14 1 13 2 11 3 12 4 10 6 9 7 4 8 5 9 6 11 83 12 7 13 8 15
REMARK SMILES IDX 3 16 1 17 2 18 84 19 85 20 92 21 86 22 91 23 87 24 88 25
REMARK SMILES IDX 89 26 90 27 15 28 16 29 17 30 18 31 19 33 20 34 21 35 82 36
REMARK SMILES IDX 22 37 81 38 23 39 24 40 25 41 75 42 26 43 80 44 74 45 76 46
REMARK SMILES IDX 27 47 79 48 73 49 72 50 28 52 60 53 40 54 59 55 41 56 44 57
REMARK SMILES IDX 58 58 77 59 42 60 43 61 57 63 78 64 45 65 29 66 30 67 38 68
REMARK SMILES IDX 31 69 33 70 39 71 32 72 34 73 35 74 36 75 37 76 61 77 62 78
REMARK SMILES IDX 70 79 63 80 65 81 71 82 64 83 66 84 67 85 68 86 69 87 46 88
REMARK SMILES IDX 47 89 55 90 48 91 50 92 56 93 49 94 51 95 52 96 53 97 54 98
REMARK H PARENT 13 5 4 10 6 14 17 32 76 51 44 62
REMARK Flexibility Score: inf
ROOT
ATOM      1  C   UNL A   1      31.427  28.657  24.707  1.00  0.00     0.117 C 
ENDROOT
BRANCH   1   2
ATOM      2  N   UNL A   1      31.232  27.522  25.599  1.00  0.00    -0.356 N 
ATOM      3  C   UNL A   1      30.537  26.364  25.424  1.00  0.00     0.221 C 
ATOM      4  O   UNL A   1      30.488  25.543  26.338  1.00  0.00    -0.275 OA
ATOM      5  H   UNL A   1      31.677  27.605  26.474  1.00  0.00     0.163 HD
BRANCH   3   6
ATOM      6  C   UNL A   1      29.839  26.101  24.113  1.00  0.00     0.127 C 
BRANCH   6   7
ATOM      7  C   UNL A   1      30.659  25.193  23.215  1.00  0.00     0.183 C 
ATOM      8  N   UNL A   1      33.700  23.090  24.264  1.00  0.00    -0.142 N 
ATOM      9  C   UNL A   1      32.732  23.914  24.051  1.00  0.00     0.337 C 
ATOM     10  H   UNL A   1      34.636  23.386  24.322  1.00  0.00     0.343 HD
ATOM     11  N   UNL A   1      33.018  25.140  23.567  1.00  0.00    -0.202 N 
ATOM     12  S   UNL A   1      31.015  23.631  24.092  1.00  0.00    -0.020 SA
ATOM     13  C   UNL A   1      32.022  25.745  22.871  1.00  0.00     0.322 C 
ATOM     14  H   UNL A   1      33.894  25.568  23.708  1.00  0.00     0.316 HD
ATOM     15  O   UNL A   1      32.225  26.595  22.007  1.00  0.00    -0.246 OA
BRANCH   8  16
ATOM     16  N   UNL A   1      33.335  21.755  24.405  1.00  0.00    -0.090 NA
ATOM     17  C   UNL A   1      35.805  21.376  24.595  1.00  0.00     0.071 C 
ATOM     18  C   UNL A   1      34.338  20.947  24.630  1.00  0.00     0.088 C 
BRANCH  18  19
ATOM     19  C   UNL A   1      34.052  19.493  24.836  1.00  0.00    -0.000 A 
ATOM     20  C   UNL A   1      32.790  19.105  25.314  1.00  0.00     0.017 A 
ATOM     21  C   UNL A   1      35.016  18.512  24.568  1.00  0.00     0.017 A 
ATOM     22  C   UNL A   1      32.495  17.755  25.522  1.00  0.00     0.086 A 
ATOM     23  C   UNL A   1      34.731  17.161  24.777  1.00  0.00     0.086 A 
ATOM     24  C   UNL A   1      33.471  16.787  25.255  1.00  0.00     0.269 A 
BRANCH  24  25
ATOM     25  N   UNL A   1      33.175  15.368  25.478  1.00  0.00     0.062 N 
ATOM     26  O   UNL A   1      34.093  14.553  25.309  1.00  0.00    -0.258 OA
ATOM     27  O   UNL A   1      32.025  15.067  25.830  1.00  0.00    -0.258 OA
ENDBRANCH  24  25
ENDBRANCH  18  19
ENDBRANCH   8  16
ENDBRANCH   6   7
ENDBRANCH   3   6
ENDBRANCH   1   2
BRANCH   1  28
ATOM     28  C   UNL A   1      32.898  29.015  24.510  1.00  0.00     0.042 C 
BRANCH  28  29
ATOM     29  C   UNL A   1      33.623  29.392  25.792  1.00  0.00     0.118 C 
BRANCH  29  30
ATOM     30  N   UNL A   1      33.296  30.745  26.211  1.00  0.00    -0.352 N 
ATOM     31  C   UNL A   1      33.809  31.473  27.258  1.00  0.00     0.251 C 
ATOM     32  H   UNL A   1      32.613  31.203  25.671  1.00  0.00     0.163 HD
ATOM     33  O   UNL A   1      33.230  32.492  27.624  1.00  0.00    -0.269 OA
BRANCH  31  34
ATOM     34  C   UNL A   1      35.043  31.027  27.946  1.00  0.00     0.039 A 
ATOM     35  C   UNL A   1      35.052  29.782  28.581  1.00  0.00     0.014 A 
ATOM     36  C   UNL A   1      36.178  31.841  27.995  1.00  0.00     0.014 A 
ATOM     37  C   UNL A   1      36.210  29.341  29.227  1.00  0.00     0.010 A 
ATOM     38  C   UNL A   1      37.358  31.360  28.556  1.00  0.00     0.010 A 
ATOM     39  C   UNL A   1      37.382  30.115  29.201  1.00  0.00    -0.014 A 
BRANCH  39  40
ATOM     40  C   UNL A   1      38.631  29.648  29.856  1.00  0.00     0.031 A 
ATOM     41  C   UNL A   1      39.025  30.174  31.211  1.00  0.00     0.074 A 
ATOM     42  C   UNL A   1      39.449  28.799  29.203  1.00  0.00     0.049 A 
ATOM     43  N   UNL A   1      40.078  29.889  31.933  1.00  0.00    -0.248 NA
ATOM     44  C   UNL A   1      38.134  31.172  31.824  1.00  0.00     0.031 C 
ATOM     45  C   UNL A   1      39.221  28.273  27.857  1.00  0.00     0.029 A 
ATOM     46  N   UNL A   1      40.645  28.241  29.580  1.00  0.00    -0.354 N 
ATOM     47  C   UNL A   1      39.996  30.697  33.062  1.00  0.00     0.074 A 
ATOM     48  C   UNL A   1      38.813  31.514  32.907  1.00  0.00     0.031 C 
ATOM     49  C   UNL A   1      40.229  27.449  27.530  1.00  0.00     0.029 A 
ATOM     50  C   UNL A   1      41.191  27.414  28.626  1.00  0.00     0.049 A 
ATOM     51  H   UNL A   1      41.072  28.416  30.449  1.00  0.00     0.167 HD
ATOM     52  C   UNL A   1      40.810  30.736  34.145  1.00  0.00     0.034 A 
ATOM     53  C   UNL A   1      42.336  26.704  28.636  1.00  0.00     0.034 A 
ATOM     54  C   UNL A   1      41.967  29.898  34.309  1.00  0.00     0.049 A 
ATOM     55  C   UNL A   1      43.215  26.744  29.856  1.00  0.00     0.074 A 
ATOM     56  C   UNL A   1      42.806  29.792  35.405  1.00  0.00     0.029 A 
ATOM     57  N   UNL A   1      42.462  29.034  33.344  1.00  0.00    -0.354 N 
ATOM     58  N   UNL A   1      43.035  27.391  30.982  1.00  0.00    -0.248 NA
ATOM     59  C   UNL A   1      44.436  25.929  29.819  1.00  0.00     0.031 C 
ATOM     60  C   UNL A   1      43.828  28.891  35.087  1.00  0.00     0.029 A 
ATOM     61  C   UNL A   1      43.605  28.406  33.808  1.00  0.00     0.049 A 
ATOM     62  H   UNL A   1      42.059  28.889  32.457  1.00  0.00     0.167 HD
ATOM     63  C   UNL A   1      44.100  27.034  31.802  1.00  0.00     0.074 A 
ATOM     64  C   UNL A   1      44.909  26.098  31.047  1.00  0.00     0.031 C 
ATOM     65  C   UNL A   1      44.385  27.448  33.062  1.00  0.00     0.034 A 
BRANCH  52  66
ATOM     66  C   UNL A   1      40.448  31.698  35.249  1.00  0.00     0.023 A 
ATOM     67  C   UNL A   1      41.159  32.910  35.384  1.00  0.00     0.012 A 
ATOM     68  C   UNL A   1      39.399  31.415  36.145  1.00  0.00     0.148 A 
ATOM     69  C   UNL A   1      40.873  33.793  36.424  1.00  0.00     0.002 A 
ATOM     70  C   UNL A   1      39.085  32.326  37.148  1.00  0.00     0.091 A 
ATOM     71  F   UNL A   1      38.745  30.252  36.019  1.00  0.00    -0.205 F 
ATOM     72  C   UNL A   1      39.831  33.505  37.301  1.00  0.00     0.022 A 
BRANCH  70  73
ATOM     73  S   UNL A   1      37.704  32.082  38.273  1.00  0.00     0.127 S 
ATOM     74  O   UNL A   1      38.311  32.411  39.561  1.00  0.00    -0.237 OA
ATOM     75  O   UNL A   1      36.734  33.064  37.788  1.00  0.00    -0.237 OA
ATOM     76  O   UNL A   1      37.295  30.696  38.104  1.00  0.00    -0.744 OA
ENDBRANCH  70  73
ENDBRANCH  52  66
BRANCH  53  77
ATOM     77  C   UNL A   1      42.665  25.822  27.481  1.00  0.00     0.023 A 
ATOM     78  C   UNL A   1      43.522  26.305  26.471  1.00  0.00     0.012 A 
ATOM     79  C   UNL A   1      42.185  24.501  27.401  1.00  0.00     0.148 A 
ATOM     80  C   UNL A   1      43.876  25.496  25.393  1.00  0.00     0.002 A 
ATOM     81  C   UNL A   1      42.585  23.682  26.351  1.00  0.00     0.091 A 
ATOM     82  F   UNL A   1      41.369  24.064  28.371  1.00  0.00    -0.205 F 
ATOM     83  C   UNL A   1      43.418  24.183  25.338  1.00  0.00     0.022 A 
BRANCH  81  84
ATOM     84  S   UNL A   1      42.152  21.942  26.260  1.00  0.00     0.127 S 
ATOM     85  O   UNL A   1      40.712  22.002  26.020  1.00  0.00    -0.237 OA
ATOM     86  O   UNL A   1      42.950  21.495  25.118  1.00  0.00    -0.237 OA
ATOM     87  O   UNL A   1      42.550  21.365  27.537  1.00  0.00    -0.744 OA
ENDBRANCH  81  84
ENDBRANCH  53  77
BRANCH  65  88
ATOM     88  C   UNL A   1      45.610  26.872  33.726  1.00  0.00     0.023 A 
ATOM     89  C   UNL A   1      46.820  27.594  33.722  1.00  0.00     0.012 A 
ATOM     90  C   UNL A   1      45.542  25.642  34.411  1.00  0.00     0.148 A 
ATOM     91  C   UNL A   1      47.951  27.085  34.356  1.00  0.00     0.002 A 
ATOM     92  C   UNL A   1      46.660  25.166  35.086  1.00  0.00     0.091 A 
ATOM     93  F   UNL A   1      44.387  24.959  34.389  1.00  0.00    -0.205 F 
ATOM     94  C   UNL A   1      47.870  25.878  35.048  1.00  0.00     0.022 A 
BRANCH  92  95
ATOM     95  S   UNL A   1      46.618  23.673  36.085  1.00  0.00     0.127 S 
ATOM     96  O   UNL A   1      45.486  23.940  36.971  1.00  0.00    -0.237 OA
ATOM     97  O   UNL A   1      46.376  22.636  35.081  1.00  0.00    -0.237 OA
ATOM     98  O   UNL A   1      47.917  23.590  36.738  1.00  0.00    -0.744 OA
ENDBRANCH  92  95
ENDBRANCH  65  88
ENDBRANCH  39  40
ENDBRANCH  31  34
ENDBRANCH  29  30
ENDBRANCH  28  29
ENDBRANCH   1  28
TORSDOF 17
ENDMDL
