MODEL 1
REMARK VINA RESULT:     -10.4      0.000      0.000
REMARK SMILES CS(=O)(=O)c1ccc(C2=NN(c3ccc(C(=O)NCCCNC(=O)c4ccc(-c5c6nc(c(-c7cccc(S(=O)(=O)[O-])c7F)c7ccc([nH]7)c(-c7cccc(S(=O)(=O)[O-])c7F)c7nc(c(-c8cccc(S(=O)(=O)[O-])c8F)c8ccc5[nH]8)C=C7)C=C6)cc4)cc3)[C@H](c3ccccc3)C2)cc1
REMARK SMILES IDX 20 1 19 2 18 3 16 4 17 5 15 7 12 8 13 9 89 10 14 11 88 12
REMARK SMILES IDX 11 13 9 14 10 15 97 16 90 17 8 18 5 19 6 20 99 21 7 22 98 23
REMARK SMILES IDX 2 24 1 25 3 26 4 27 91 28 92 29 96 30 93 31 95 32 94 33
REMARK SMILES IDX 21 34 22 35 23 36 24 38 25 39 26 40 87 41 27 42 86 43 28 44
REMARK SMILES IDX 29 45 30 46 80 47 31 48 85 49 79 50 81 51 32 52 84 53 78 54
REMARK SMILES IDX 77 55 33 57 65 58 45 59 64 60 46 61 49 62 63 63 82 64 47 65
REMARK SMILES IDX 48 66 62 68 83 69 50 70 34 71 35 72 43 73 36 74 38 75 44 76
REMARK SMILES IDX 37 77 39 78 40 79 41 80 42 81 66 82 67 83 75 84 68 85 70 86
REMARK SMILES IDX 76 87 69 88 71 89 72 90 73 91 74 92 51 93 52 94 60 95 53 96
REMARK SMILES IDX 55 97 61 98 54 99 56 100 57 101 58 102 59 103
REMARK H PARENT 18 6 22 37 81 56 49 67
REMARK Flexibility Score: inf
ROOT
ATOM      1  C   UNL A   1      34.562  33.061  29.566  1.00  0.00     0.042 C 
ENDROOT
BRANCH   1   2
ATOM      2  C   UNL A   1      35.864  32.899  30.347  1.00  0.00     0.118 C 
BRANCH   2   3
ATOM      3  N   UNL A   1      35.862  33.704  31.558  1.00  0.00    -0.352 N 
ATOM      4  C   UNL A   1      36.856  34.431  32.166  1.00  0.00     0.251 C 
ATOM      5  O   UNL A   1      36.559  35.127  33.136  1.00  0.00    -0.269 OA
ATOM      6  H   UNL A   1      34.995  33.733  32.024  1.00  0.00     0.163 HD
BRANCH   4   7
ATOM      7  C   UNL A   1      38.242  34.469  31.636  1.00  0.00     0.039 A 
ATOM      8  C   UNL A   1      40.809  34.322  30.487  1.00  0.00     0.060 A 
ATOM      9  C   UNL A   1      39.682  34.500  29.680  1.00  0.00     0.029 A 
ATOM     10  C   UNL A   1      40.644  34.328  31.874  1.00  0.00     0.029 A 
ATOM     11  C   UNL A   1      38.407  34.575  30.248  1.00  0.00     0.016 A 
ATOM     12  C   UNL A   1      39.376  34.415  32.446  1.00  0.00     0.016 A 
BRANCH   8  13
ATOM     13  N   UNL A   1      42.067  34.142  29.949  1.00  0.00    -0.257 N 
ATOM     14  C   UNL A   1      43.675  32.969  29.235  1.00  0.00     0.071 C 
ATOM     15  N   UNL A   1      42.399  32.935  29.449  1.00  0.00    -0.176 NA
ATOM     16  C   UNL A   1      44.372  34.237  29.653  1.00  0.00     0.091 C 
ATOM     17  C   UNL A   1      43.154  35.122  29.985  1.00  0.00     0.144 C 
BRANCH  14  18
ATOM     18  C   UNL A   1      44.387  31.823  28.653  1.00  0.00    -0.002 A 
ATOM     19  C   UNL A   1      45.870  29.680  27.689  1.00  0.00     0.067 A 
ATOM     20  C   UNL A   1      45.409  29.654  29.006  1.00  0.00     0.021 A 
ATOM     21  C   UNL A   1      45.606  30.774  26.854  1.00  0.00     0.021 A 
ATOM     22  C   UNL A   1      44.670  30.733  29.488  1.00  0.00     0.011 A 
ATOM     23  C   UNL A   1      44.849  31.847  27.335  1.00  0.00     0.011 A 
BRANCH  19  24
ATOM     24  S   UNL A   1      46.870  28.339  27.089  1.00  0.00     0.175 S 
ATOM     25  C   UNL A   1      45.687  27.281  26.297  1.00  0.00     0.163 C 
ATOM     26  O   UNL A   1      47.411  27.638  28.233  1.00  0.00    -0.224 OA
ATOM     27  O   UNL A   1      47.745  28.876  26.060  1.00  0.00    -0.224 OA
ENDBRANCH  19  24
ENDBRANCH  14  18
BRANCH  17  28
ATOM     28  C   UNL A   1      42.867  36.318  29.076  1.00  0.00    -0.023 A 
ATOM     29  C   UNL A   1      43.059  37.658  29.445  1.00  0.00     0.006 A 
ATOM     30  C   UNL A   1      42.404  36.069  27.766  1.00  0.00     0.006 A 
ATOM     31  C   UNL A   1      42.797  38.700  28.546  1.00  0.00     0.000 A 
ATOM     32  C   UNL A   1      42.175  37.106  26.858  1.00  0.00     0.000 A 
ATOM     33  C   UNL A   1      42.366  38.424  27.251  1.00  0.00     0.000 A 
ENDBRANCH  17  28
ENDBRANCH   8  13
ENDBRANCH   4   7
ENDBRANCH   2   3
ENDBRANCH   1   2
BRANCH   1  34
ATOM     34  C   UNL A   1      34.714  32.793  28.071  1.00  0.00     0.118 C 
BRANCH  34  35
ATOM     35  N   UNL A   1      34.047  31.562  27.667  1.00  0.00    -0.352 N 
ATOM     36  C   UNL A   1      34.548  30.293  27.521  1.00  0.00     0.251 C 
ATOM     37  H   UNL A   1      33.088  31.656  27.467  1.00  0.00     0.163 HD
ATOM     38  O   UNL A   1      33.872  29.445  26.943  1.00  0.00    -0.269 OA
BRANCH  36  39
ATOM     39  C   UNL A   1      35.887  29.944  28.043  1.00  0.00     0.039 A 
ATOM     40  C   UNL A   1      35.987  29.411  29.332  1.00  0.00     0.014 A 
ATOM     41  C   UNL A   1      37.043  30.169  27.291  1.00  0.00     0.014 A 
ATOM     42  C   UNL A   1      37.238  29.047  29.839  1.00  0.00     0.010 A 
ATOM     43  C   UNL A   1      38.279  29.736  27.767  1.00  0.00     0.010 A 
ATOM     44  C   UNL A   1      38.390  29.171  29.045  1.00  0.00    -0.014 A 
BRANCH  44  45
ATOM     45  C   UNL A   1      39.707  28.676  29.524  1.00  0.00     0.031 A 
ATOM     46  C   UNL A   1      40.446  29.395  30.621  1.00  0.00     0.074 A 
ATOM     47  C   UNL A   1      40.276  27.620  28.907  1.00  0.00     0.049 A 
ATOM     48  N   UNL A   1      41.622  29.130  31.131  1.00  0.00    -0.248 NA
ATOM     49  C   UNL A   1      39.793  30.576  31.211  1.00  0.00     0.031 C 
ATOM     50  C   UNL A   1      39.693  26.884  27.782  1.00  0.00     0.029 A 
ATOM     51  N   UNL A   1      41.482  26.998  29.116  1.00  0.00    -0.354 N 
ATOM     52  C   UNL A   1      41.867  30.127  32.067  1.00  0.00     0.074 A 
ATOM     53  C   UNL A   1      40.726  31.015  32.045  1.00  0.00     0.031 C 
ATOM     54  C   UNL A   1      40.536  25.909  27.407  1.00  0.00     0.029 A 
ATOM     55  C   UNL A   1      41.737  25.974  28.231  1.00  0.00     0.049 A 
ATOM     56  H   UNL A   1      42.106  27.260  29.831  1.00  0.00     0.167 HD
ATOM     57  C   UNL A   1      42.937  30.279  32.883  1.00  0.00     0.034 A 
ATOM     58  C   UNL A   1      42.821  25.188  28.089  1.00  0.00     0.034 A 
ATOM     59  C   UNL A   1      44.052  29.371  32.928  1.00  0.00     0.049 A 
ATOM     60  C   UNL A   1      43.984  25.371  29.027  1.00  0.00     0.074 A 
ATOM     61  C   UNL A   1      45.133  29.383  33.792  1.00  0.00     0.029 A 
ATOM     62  N   UNL A   1      44.243  28.305  32.064  1.00  0.00    -0.354 N 
ATOM     63  N   UNL A   1      44.116  26.212  30.025  1.00  0.00    -0.248 NA
ATOM     64  C   UNL A   1      45.136  24.476  28.842  1.00  0.00     0.031 C 
ATOM     65  C   UNL A   1      46.000  28.351  33.423  1.00  0.00     0.029 A 
ATOM     66  C   UNL A   1      45.437  27.668  32.358  1.00  0.00     0.049 A 
ATOM     67  H   UNL A   1      43.623  28.040  31.348  1.00  0.00     0.167 HD
ATOM     68  C   UNL A   1      45.344  25.921  30.607  1.00  0.00     0.074 A 
ATOM     69  C   UNL A   1      45.904  24.809  29.868  1.00  0.00     0.031 C 
ATOM     70  C   UNL A   1      45.960  26.529  31.650  1.00  0.00     0.034 A 
BRANCH  57  71
ATOM     71  C   UNL A   1      42.953  31.450  33.829  1.00  0.00     0.023 A 
ATOM     72  C   UNL A   1      43.497  32.681  33.411  1.00  0.00     0.012 A 
ATOM     73  C   UNL A   1      42.331  31.362  35.091  1.00  0.00     0.148 A 
ATOM     74  C   UNL A   1      43.442  33.800  34.243  1.00  0.00     0.002 A 
ATOM     75  C   UNL A   1      42.238  32.492  35.893  1.00  0.00     0.091 A 
ATOM     76  F   UNL A   1      41.833  30.177  35.475  1.00  0.00    -0.205 F 
ATOM     77  C   UNL A   1      42.802  33.709  35.477  1.00  0.00     0.022 A 
BRANCH  75  78
ATOM     78  S   UNL A   1      41.360  32.503  37.462  1.00  0.00     0.127 S 
ATOM     79  O   UNL A   1      42.189  31.610  38.270  1.00  0.00    -0.237 OA
ATOM     80  O   UNL A   1      41.433  33.913  37.841  1.00  0.00    -0.237 OA
ATOM     81  O   UNL A   1      40.018  32.013  37.177  1.00  0.00    -0.744 OA
ENDBRANCH  75  78
ENDBRANCH  57  71
BRANCH  58  82
ATOM     82  C   UNL A   1      42.854  24.125  27.043  1.00  0.00     0.023 A 
ATOM     83  C   UNL A   1      43.533  24.365  25.832  1.00  0.00     0.012 A 
ATOM     84  C   UNL A   1      42.207  22.889  27.232  1.00  0.00     0.148 A 
ATOM     85  C   UNL A   1      43.525  23.414  24.810  1.00  0.00     0.002 A 
ATOM     86  C   UNL A   1      42.255  21.922  26.234  1.00  0.00     0.091 A 
ATOM     87  F   UNL A   1      41.556  22.682  28.386  1.00  0.00    -0.205 F 
ATOM     88  C   UNL A   1      42.893  22.191  25.014  1.00  0.00     0.022 A 
BRANCH  86  89
ATOM     89  S   UNL A   1      41.584  20.272  26.462  1.00  0.00     0.127 S 
ATOM     90  O   UNL A   1      42.078  19.930  27.794  1.00  0.00    -0.237 OA
ATOM     91  O   UNL A   1      40.144  20.517  26.383  1.00  0.00    -0.237 OA
ATOM     92  O   UNL A   1      42.117  19.478  25.364  1.00  0.00    -0.744 OA
ENDBRANCH  86  89
ENDBRANCH  58  82
BRANCH  70  93
ATOM     93  C   UNL A   1      47.293  25.981  32.090  1.00  0.00     0.023 A 
ATOM     94  C   UNL A   1      48.480  26.440  31.486  1.00  0.00     0.012 A 
ATOM     95  C   UNL A   1      47.371  25.058  33.152  1.00  0.00     0.148 A 
ATOM     96  C   UNL A   1      49.720  25.960  31.904  1.00  0.00     0.002 A 
ATOM     97  C   UNL A   1      48.613  24.627  33.601  1.00  0.00     0.091 A 
ATOM     98  F   UNL A   1      46.229  24.622  33.705  1.00  0.00    -0.205 F 
ATOM     99  C   UNL A   1      49.787  25.063  32.968  1.00  0.00     0.022 A 
BRANCH  97 100
ATOM    100  S   UNL A   1      48.803  23.552  35.027  1.00  0.00     0.127 S 
ATOM    101  O   UNL A   1      48.132  22.333  34.573  1.00  0.00    -0.237 OA
ATOM    102  O   UNL A   1      50.257  23.441  35.138  1.00  0.00    -0.237 OA
ATOM    103  O   UNL A   1      48.160  24.238  36.140  1.00  0.00    -0.744 OA
ENDBRANCH  97 100
ENDBRANCH  70  93
ENDBRANCH  44  45
ENDBRANCH  36  39
ENDBRANCH  34  35
ENDBRANCH   1  34
TORSDOF 17
ENDMDL
MODEL 2
REMARK VINA RESULT:     -10.3      3.209      4.382
REMARK SMILES CS(=O)(=O)c1ccc(C2=NN(c3ccc(C(=O)NCCCNC(=O)c4ccc(-c5c6nc(c(-c7cccc(S(=O)(=O)[O-])c7F)c7ccc([nH]7)c(-c7cccc(S(=O)(=O)[O-])c7F)c7nc(c(-c8cccc(S(=O)(=O)[O-])c8F)c8ccc5[nH]8)C=C7)C=C6)cc4)cc3)[C@H](c3ccccc3)C2)cc1
REMARK SMILES IDX 20 1 19 2 18 3 16 4 17 5 15 7 12 8 13 9 89 10 14 11 88 12
REMARK SMILES IDX 11 13 9 14 10 15 97 16 90 17 8 18 5 19 6 20 99 21 7 22 98 23
REMARK SMILES IDX 2 24 1 25 3 26 4 27 91 28 92 29 96 30 93 31 95 32 94 33
REMARK SMILES IDX 21 34 22 35 23 36 24 38 25 39 26 40 87 41 27 42 86 43 28 44
REMARK SMILES IDX 29 45 30 46 80 47 31 48 85 49 79 50 81 51 32 52 84 53 78 54
REMARK SMILES IDX 77 55 33 57 65 58 45 59 64 60 46 61 49 62 63 63 82 64 47 65
REMARK SMILES IDX 48 66 62 68 83 69 50 70 34 71 35 72 43 73 36 74 38 75 44 76
REMARK SMILES IDX 37 77 39 78 40 79 41 80 42 81 66 82 67 83 75 84 68 85 70 86
REMARK SMILES IDX 76 87 69 88 71 89 72 90 73 91 74 92 51 93 52 94 60 95 53 96
REMARK SMILES IDX 55 97 61 98 54 99 56 100 57 101 58 102 59 103
REMARK H PARENT 18 6 22 37 81 56 49 67
REMARK Flexibility Score: inf
ROOT
ATOM      1  C   UNL A   1      34.329  33.722  29.104  1.00  0.00     0.042 C 
ENDROOT
BRANCH   1   2
ATOM      2  C   UNL A   1      34.719  34.254  30.481  1.00  0.00     0.118 C 
BRANCH   2   3
ATOM      3  N   UNL A   1      33.815  33.774  31.513  1.00  0.00    -0.352 N 
ATOM      4  C   UNL A   1      34.058  33.199  32.737  1.00  0.00     0.251 C 
ATOM      5  O   UNL A   1      33.101  32.985  33.481  1.00  0.00    -0.269 OA
ATOM      6  H   UNL A   1      32.860  33.879  31.297  1.00  0.00     0.163 HD
BRANCH   4   7
ATOM      7  C   UNL A   1      35.434  32.915  33.215  1.00  0.00     0.039 A 
ATOM      8  C   UNL A   1      37.959  32.129  34.183  1.00  0.00     0.060 A 
ATOM      9  C   UNL A   1      37.378  31.463  33.102  1.00  0.00     0.029 A 
ATOM     10  C   UNL A   1      37.313  33.255  34.699  1.00  0.00     0.029 A 
ATOM     11  C   UNL A   1      36.125  31.852  32.618  1.00  0.00     0.016 A 
ATOM     12  C   UNL A   1      36.070  33.655  34.212  1.00  0.00     0.016 A 
BRANCH   8  13
ATOM     13  N   UNL A   1      39.144  31.703  34.747  1.00  0.00    -0.257 N 
ATOM     14  C   UNL A   1      40.584  30.242  35.261  1.00  0.00     0.071 C 
ATOM     15  N   UNL A   1      39.616  30.479  34.436  1.00  0.00    -0.176 NA
ATOM     16  C   UNL A   1      40.827  31.301  36.303  1.00  0.00     0.091 C 
ATOM     17  C   UNL A   1      39.898  32.416  35.781  1.00  0.00     0.144 C 
BRANCH  14  18
ATOM     18  C   UNL A   1      41.363  28.997  35.194  1.00  0.00    -0.002 A 
ATOM     19  C   UNL A   1      42.997  26.753  35.082  1.00  0.00     0.067 A 
ATOM     20  C   UNL A   1      43.045  27.578  36.208  1.00  0.00     0.021 A 
ATOM     21  C   UNL A   1      42.148  27.049  34.007  1.00  0.00     0.021 A 
ATOM     22  C   UNL A   1      42.227  28.706  36.258  1.00  0.00     0.011 A 
ATOM     23  C   UNL A   1      41.317  28.171  34.068  1.00  0.00     0.011 A 
BRANCH  19  24
ATOM     24  S   UNL A   1      44.085  25.351  34.982  1.00  0.00     0.175 S 
ATOM     25  C   UNL A   1      44.490  25.037  36.680  1.00  0.00     0.163 C 
ATOM     26  O   UNL A   1      45.290  25.769  34.299  1.00  0.00    -0.224 OA
ATOM     27  O   UNL A   1      43.302  24.228  34.495  1.00  0.00    -0.224 OA
ENDBRANCH  19  24
ENDBRANCH  14  18
BRANCH  17  28
ATOM     28  C   UNL A   1      40.542  33.690  35.233  1.00  0.00    -0.023 A 
ATOM     29  C   UNL A   1      40.994  33.844  33.913  1.00  0.00     0.006 A 
ATOM     30  C   UNL A   1      40.668  34.801  36.093  1.00  0.00     0.006 A 
ATOM     31  C   UNL A   1      41.552  35.053  33.477  1.00  0.00     0.000 A 
ATOM     32  C   UNL A   1      41.191  36.019  35.648  1.00  0.00     0.000 A 
ATOM     33  C   UNL A   1      41.640  36.142  34.340  1.00  0.00     0.000 A 
ENDBRANCH  17  28
ENDBRANCH   8  13
ENDBRANCH   4   7
ENDBRANCH   2   3
ENDBRANCH   1   2
BRANCH   1  34
ATOM     34  C   UNL A   1      35.269  32.638  28.584  1.00  0.00     0.118 C 
BRANCH  34  35
ATOM     35  N   UNL A   1      34.576  31.376  28.359  1.00  0.00    -0.352 N 
ATOM     36  C   UNL A   1      35.077  30.106  28.218  1.00  0.00     0.251 C 
ATOM     37  H   UNL A   1      33.597  31.445  28.299  1.00  0.00     0.163 HD
ATOM     38  O   UNL A   1      34.342  29.215  27.800  1.00  0.00    -0.269 OA
BRANCH  36  39
ATOM     39  C   UNL A   1      36.486  29.807  28.555  1.00  0.00     0.039 A 
ATOM     40  C   UNL A   1      36.781  29.304  29.826  1.00  0.00     0.014 A 
ATOM     41  C   UNL A   1      37.519  30.051  27.646  1.00  0.00     0.014 A 
ATOM     42  C   UNL A   1      38.100  28.987  30.160  1.00  0.00     0.010 A 
ATOM     43  C   UNL A   1      38.822  29.664  27.952  1.00  0.00     0.010 A 
ATOM     44  C   UNL A   1      39.127  29.129  29.212  1.00  0.00    -0.014 A 
BRANCH  44  45
ATOM     45  C   UNL A   1      40.513  28.683  29.511  1.00  0.00     0.031 A 
ATOM     46  C   UNL A   1      41.382  29.459  30.465  1.00  0.00     0.074 A 
ATOM     47  C   UNL A   1      41.017  27.618  28.854  1.00  0.00     0.049 A 
ATOM     48  N   UNL A   1      42.626  29.241  30.807  1.00  0.00    -0.248 NA
ATOM     49  C   UNL A   1      40.787  30.647  31.103  1.00  0.00     0.031 C 
ATOM     50  C   UNL A   1      40.298  26.826  27.851  1.00  0.00     0.029 A 
ATOM     51  N   UNL A   1      42.257  27.032  28.907  1.00  0.00    -0.354 N 
ATOM     52  C   UNL A   1      42.975  30.278  31.664  1.00  0.00     0.074 A 
ATOM     53  C   UNL A   1      41.818  31.138  31.777  1.00  0.00     0.031 C 
ATOM     54  C   UNL A   1      41.106  25.858  27.391  1.00  0.00     0.029 A 
ATOM     55  C   UNL A   1      42.410  25.982  28.031  1.00  0.00     0.049 A 
ATOM     56  H   UNL A   1      42.970  27.335  29.515  1.00  0.00     0.167 HD
ATOM     57  C   UNL A   1      44.147  30.485  32.310  1.00  0.00     0.034 A 
ATOM     58  C   UNL A   1      43.485  25.216  27.759  1.00  0.00     0.034 A 
ATOM     59  C   UNL A   1      45.281  29.605  32.224  1.00  0.00     0.049 A 
ATOM     60  C   UNL A   1      44.765  25.461  28.512  1.00  0.00     0.074 A 
ATOM     61  C   UNL A   1      46.475  29.675  32.921  1.00  0.00     0.029 A 
ATOM     62  N   UNL A   1      45.377  28.512  31.378  1.00  0.00    -0.354 N 
ATOM     63  N   UNL A   1      45.016  26.342  29.451  1.00  0.00    -0.248 NA
ATOM     64  C   UNL A   1      45.903  24.586  28.192  1.00  0.00     0.031 C 
ATOM     65  C   UNL A   1      47.309  28.650  32.466  1.00  0.00     0.029 A 
ATOM     66  C   UNL A   1      46.618  27.914  31.517  1.00  0.00     0.049 A 
ATOM     67  H   UNL A   1      44.667  28.206  30.768  1.00  0.00     0.167 HD
ATOM     68  C   UNL A   1      46.323  26.101  29.859  1.00  0.00     0.074 A 
ATOM     69  C   UNL A   1      46.802  24.975  29.085  1.00  0.00     0.031 C 
ATOM     70  C   UNL A   1      47.065  26.762  30.780  1.00  0.00     0.034 A 
BRANCH  57  71
ATOM     71  C   UNL A   1      44.265  31.691  33.204  1.00  0.00     0.023 A 
ATOM     72  C   UNL A   1      44.000  31.571  34.583  1.00  0.00     0.012 A 
ATOM     73  C   UNL A   1      44.744  32.916  32.696  1.00  0.00     0.148 A 
ATOM     74  C   UNL A   1      44.188  32.656  35.439  1.00  0.00     0.002 A 
ATOM     75  C   UNL A   1      44.975  33.977  33.562  1.00  0.00     0.091 A 
ATOM     76  F   UNL A   1      44.976  33.013  31.379  1.00  0.00    -0.205 F 
ATOM     77  C   UNL A   1      44.687  33.853  34.931  1.00  0.00     0.022 A 
BRANCH  75  78
ATOM     78  S   UNL A   1      45.695  35.533  33.024  1.00  0.00     0.127 S 
ATOM     79  O   UNL A   1      44.667  36.036  32.114  1.00  0.00    -0.237 OA
ATOM     80  O   UNL A   1      45.806  36.268  34.284  1.00  0.00    -0.237 OA
ATOM     81  O   UNL A   1      46.966  35.195  32.398  1.00  0.00    -0.744 OA
ENDBRANCH  75  78
ENDBRANCH  57  71
BRANCH  58  82
ATOM     82  C   UNL A   1      43.396  24.115  26.756  1.00  0.00     0.023 A 
ATOM     83  C   UNL A   1      44.026  24.265  25.505  1.00  0.00     0.012 A 
ATOM     84  C   UNL A   1      42.684  22.931  27.026  1.00  0.00     0.148 A 
ATOM     85  C   UNL A   1      43.906  23.281  24.523  1.00  0.00     0.002 A 
ATOM     86  C   UNL A   1      42.619  21.928  26.066  1.00  0.00     0.091 A 
ATOM     87  F   UNL A   1      42.081  22.810  28.218  1.00  0.00    -0.205 F 
ATOM     88  C   UNL A   1      43.209  22.110  24.807  1.00  0.00     0.022 A 
BRANCH  86  89
ATOM     89  S   UNL A   1      41.858  20.335  26.393  1.00  0.00     0.127 S 
ATOM     90  O   UNL A   1      40.437  20.669  26.359  1.00  0.00    -0.237 OA
ATOM     91  O   UNL A   1      42.331  19.536  25.262  1.00  0.00    -0.237 OA
ATOM     92  O   UNL A   1      42.379  19.910  27.684  1.00  0.00    -0.744 OA
ENDBRANCH  86  89
ENDBRANCH  58  82
BRANCH  70  93
ATOM     93  C   UNL A   1      48.463  26.262  31.040  1.00  0.00     0.023 A 
ATOM     94  C   UNL A   1      49.543  26.758  30.284  1.00  0.00     0.012 A 
ATOM     95  C   UNL A   1      48.711  25.347  32.083  1.00  0.00     0.148 A 
ATOM     96  C   UNL A   1      50.843  26.322  30.536  1.00  0.00     0.002 A 
ATOM     97  C   UNL A   1      50.016  24.960  32.364  1.00  0.00     0.091 A 
ATOM     98  F   UNL A   1      47.668  24.875  32.782  1.00  0.00    -0.205 F 
ATOM     99  C   UNL A   1      51.081  25.433  31.581  1.00  0.00     0.022 A 
BRANCH  97 100
ATOM    100  S   UNL A   1      50.429  23.899  33.753  1.00  0.00     0.127 S 
ATOM    101  O   UNL A   1      49.379  24.242  34.713  1.00  0.00    -0.237 OA
ATOM    102  O   UNL A   1      50.307  22.564  33.168  1.00  0.00    -0.237 OA
ATOM    103  O   UNL A   1      51.781  24.264  34.153  1.00  0.00    -0.744 OA
ENDBRANCH  97 100
ENDBRANCH  70  93
ENDBRANCH  44  45
ENDBRANCH  36  39
ENDBRANCH  34  35
ENDBRANCH   1  34
TORSDOF 17
ENDMDL
MODEL 3
REMARK VINA RESULT:      -9.8      4.842     11.385
REMARK SMILES CS(=O)(=O)c1ccc(C2=NN(c3ccc(C(=O)NCCCNC(=O)c4ccc(-c5c6nc(c(-c7cccc(S(=O)(=O)[O-])c7F)c7ccc([nH]7)c(-c7cccc(S(=O)(=O)[O-])c7F)c7nc(c(-c8cccc(S(=O)(=O)[O-])c8F)c8ccc5[nH]8)C=C7)C=C6)cc4)cc3)[C@H](c3ccccc3)C2)cc1
REMARK SMILES IDX 20 1 19 2 18 3 16 4 17 5 15 7 12 8 13 9 89 10 14 11 88 12
REMARK SMILES IDX 11 13 9 14 10 15 97 16 90 17 8 18 5 19 6 20 99 21 7 22 98 23
REMARK SMILES IDX 2 24 1 25 3 26 4 27 91 28 92 29 96 30 93 31 95 32 94 33
REMARK SMILES IDX 21 34 22 35 23 36 24 38 25 39 26 40 87 41 27 42 86 43 28 44
REMARK SMILES IDX 29 45 30 46 80 47 31 48 85 49 79 50 81 51 32 52 84 53 78 54
REMARK SMILES IDX 77 55 33 57 65 58 45 59 64 60 46 61 49 62 63 63 82 64 47 65
REMARK SMILES IDX 48 66 62 68 83 69 50 70 34 71 35 72 43 73 36 74 38 75 44 76
REMARK SMILES IDX 37 77 39 78 40 79 41 80 42 81 66 82 67 83 75 84 68 85 70 86
REMARK SMILES IDX 76 87 69 88 71 89 72 90 73 91 74 92 51 93 52 94 60 95 53 96
REMARK SMILES IDX 55 97 61 98 54 99 56 100 57 101 58 102 59 103
REMARK H PARENT 18 6 22 37 81 56 49 67
REMARK Flexibility Score: inf
ROOT
ATOM      1  C   UNL A   1      36.953  30.183  27.872  1.00  0.00     0.042 C 
ENDROOT
BRANCH   1   2
ATOM      2  C   UNL A   1      35.706  30.006  28.736  1.00  0.00     0.118 C 
BRANCH   2   3
ATOM      3  N   UNL A   1      34.665  30.952  28.369  1.00  0.00    -0.352 N 
ATOM      4  C   UNL A   1      33.557  30.817  27.569  1.00  0.00     0.251 C 
ATOM      5  O   UNL A   1      32.761  31.754  27.513  1.00  0.00    -0.269 OA
ATOM      6  H   UNL A   1      34.774  31.849  28.763  1.00  0.00     0.163 HD
BRANCH   4   7
ATOM      7  C   UNL A   1      33.253  29.555  26.850  1.00  0.00     0.039 A 
ATOM      8  C   UNL A   1      32.639  27.309  25.265  1.00  0.00     0.060 A 
ATOM      9  C   UNL A   1      33.734  28.118  24.952  1.00  0.00     0.029 A 
ATOM     10  C   UNL A   1      31.926  27.576  26.437  1.00  0.00     0.029 A 
ATOM     11  C   UNL A   1      34.043  29.232  25.738  1.00  0.00     0.016 A 
ATOM     12  C   UNL A   1      32.237  28.678  27.231  1.00  0.00     0.016 A 
BRANCH   8  13
ATOM     13  N   UNL A   1      32.250  26.265  24.452  1.00  0.00    -0.257 N 
ATOM     14  C   UNL A   1      32.300  24.259  23.785  1.00  0.00     0.071 C 
ATOM     15  N   UNL A   1      32.560  25.003  24.811  1.00  0.00    -0.176 NA
ATOM     16  C   UNL A   1      31.833  24.987  22.553  1.00  0.00     0.091 C 
ATOM     17  C   UNL A   1      31.630  26.402  23.132  1.00  0.00     0.144 C 
BRANCH  14  18
ATOM     18  C   UNL A   1      32.486  22.801  23.828  1.00  0.00    -0.002 A 
ATOM     19  C   UNL A   1      32.650  20.028  23.862  1.00  0.00     0.067 A 
ATOM     20  C   UNL A   1      32.254  20.675  22.689  1.00  0.00     0.021 A 
ATOM     21  C   UNL A   1      32.952  20.756  25.020  1.00  0.00     0.021 A 
ATOM     22  C   UNL A   1      32.168  22.066  22.678  1.00  0.00     0.011 A 
ATOM     23  C   UNL A   1      32.882  22.153  24.999  1.00  0.00     0.011 A 
BRANCH  19  24
ATOM     24  S   UNL A   1      32.697  18.252  23.904  1.00  0.00     0.175 S 
ATOM     25  C   UNL A   1      34.395  17.905  24.278  1.00  0.00     0.163 C 
ATOM     26  O   UNL A   1      32.417  17.765  22.570  1.00  0.00    -0.224 OA
ATOM     27  O   UNL A   1      31.895  17.823  25.038  1.00  0.00    -0.224 OA
ENDBRANCH  19  24
ENDBRANCH  14  18
BRANCH  17  28
ATOM     28  C   UNL A   1      30.203  26.940  23.232  1.00  0.00    -0.023 A 
ATOM     29  C   UNL A   1      29.141  26.259  23.847  1.00  0.00     0.006 A 
ATOM     30  C   UNL A   1      29.928  28.218  22.701  1.00  0.00     0.006 A 
ATOM     31  C   UNL A   1      27.863  26.829  23.922  1.00  0.00     0.000 A 
ATOM     32  C   UNL A   1      28.663  28.802  22.807  1.00  0.00     0.000 A 
ATOM     33  C   UNL A   1      27.627  28.103  23.412  1.00  0.00     0.000 A 
ENDBRANCH  17  28
ENDBRANCH   8  13
ENDBRANCH   4   7
ENDBRANCH   2   3
ENDBRANCH   1   2
BRANCH   1  34
ATOM     34  C   UNL A   1      38.207  30.514  28.677  1.00  0.00     0.118 C 
BRANCH  34  35
ATOM     35  N   UNL A   1      37.890  30.908  30.043  1.00  0.00    -0.352 N 
ATOM     36  C   UNL A   1      38.539  30.619  31.218  1.00  0.00     0.251 C 
ATOM     37  H   UNL A   1      37.087  31.467  30.140  1.00  0.00     0.163 HD
ATOM     38  O   UNL A   1      37.976  30.849  32.286  1.00  0.00    -0.269 OA
BRANCH  36  39
ATOM     39  C   UNL A   1      39.895  30.029  31.208  1.00  0.00     0.039 A 
ATOM     40  C   UNL A   1      40.985  30.855  30.918  1.00  0.00     0.014 A 
ATOM     41  C   UNL A   1      40.098  28.667  31.446  1.00  0.00     0.014 A 
ATOM     42  C   UNL A   1      42.279  30.329  30.929  1.00  0.00     0.010 A 
ATOM     43  C   UNL A   1      41.394  28.160  31.531  1.00  0.00     0.010 A 
ATOM     44  C   UNL A   1      42.498  28.985  31.274  1.00  0.00    -0.014 A 
BRANCH  44  45
ATOM     45  C   UNL A   1      43.875  28.442  31.408  1.00  0.00     0.031 A 
ATOM     46  C   UNL A   1      44.522  27.695  30.272  1.00  0.00     0.074 A 
ATOM     47  C   UNL A   1      44.512  28.554  32.592  1.00  0.00     0.049 A 
ATOM     48  N   UNL A   1      45.695  27.117  30.231  1.00  0.00    -0.248 NA
ATOM     49  C   UNL A   1      43.745  27.559  29.027  1.00  0.00     0.031 C 
ATOM     50  C   UNL A   1      43.962  29.192  33.791  1.00  0.00     0.029 A 
ATOM     51  N   UNL A   1      45.749  28.112  32.993  1.00  0.00    -0.354 N 
ATOM     52  C   UNL A   1      45.782  26.518  28.980  1.00  0.00     0.074 A 
ATOM     53  C   UNL A   1      44.536  26.787  28.296  1.00  0.00     0.031 C 
ATOM     54  C   UNL A   1      44.858  29.106  34.787  1.00  0.00     0.029 A 
ATOM     55  C   UNL A   1      46.026  28.372  34.316  1.00  0.00     0.049 A 
ATOM     56  H   UNL A   1      46.378  27.652  32.391  1.00  0.00     0.167 HD
ATOM     57  C   UNL A   1      46.813  25.823  28.443  1.00  0.00     0.034 A 
ATOM     58  C   UNL A   1      47.093  28.043  35.070  1.00  0.00     0.034 A 
ATOM     59  C   UNL A   1      48.065  25.592  29.113  1.00  0.00     0.049 A 
ATOM     60  C   UNL A   1      48.230  27.288  34.434  1.00  0.00     0.074 A 
ATOM     61  C   UNL A   1      49.206  24.989  28.614  1.00  0.00     0.029 A 
ATOM     62  N   UNL A   1      48.336  25.930  30.429  1.00  0.00    -0.354 N 
ATOM     63  N   UNL A   1      48.364  26.886  33.194  1.00  0.00    -0.248 NA
ATOM     64  C   UNL A   1      49.379  26.969  35.295  1.00  0.00     0.031 C 
ATOM     65  C   UNL A   1      50.152  24.923  29.641  1.00  0.00     0.029 A 
ATOM     66  C   UNL A   1      49.617  25.526  30.767  1.00  0.00     0.049 A 
ATOM     67  H   UNL A   1      47.710  26.390  31.035  1.00  0.00     0.167 HD
ATOM     68  C   UNL A   1      49.624  26.303  33.117  1.00  0.00     0.074 A 
ATOM     69  C   UNL A   1      50.223  26.429  34.428  1.00  0.00     0.031 C 
ATOM     70  C   UNL A   1      50.223  25.703  32.060  1.00  0.00     0.034 A 
BRANCH  57  71
ATOM     71  C   UNL A   1      46.660  25.284  27.046  1.00  0.00     0.023 A 
ATOM     72  C   UNL A   1      47.267  25.956  25.965  1.00  0.00     0.012 A 
ATOM     73  C   UNL A   1      46.009  24.055  26.818  1.00  0.00     0.148 A 
ATOM     74  C   UNL A   1      47.208  25.424  24.677  1.00  0.00     0.002 A 
ATOM     75  C   UNL A   1      45.996  23.509  25.541  1.00  0.00     0.091 A 
ATOM     76  F   UNL A   1      45.426  23.440  27.857  1.00  0.00    -0.205 F 
ATOM     77  C   UNL A   1      46.585  24.196  24.467  1.00  0.00     0.022 A 
BRANCH  75  78
ATOM     78  S   UNL A   1      45.295  21.894  25.180  1.00  0.00     0.127 S 
ATOM     79  O   UNL A   1      44.074  21.915  25.986  1.00  0.00    -0.237 OA
ATOM     80  O   UNL A   1      45.074  21.974  23.737  1.00  0.00    -0.237 OA
ATOM     81  O   UNL A   1      46.293  20.918  25.594  1.00  0.00    -0.744 OA
ENDBRANCH  75  78
ENDBRANCH  57  71
BRANCH  58  82
ATOM     82  C   UNL A   1      47.165  28.454  36.502  1.00  0.00     0.023 A 
ATOM     83  C   UNL A   1      47.739  29.696  36.838  1.00  0.00     0.012 A 
ATOM     84  C   UNL A   1      46.683  27.622  37.530  1.00  0.00     0.148 A 
ATOM     85  C   UNL A   1      47.879  30.078  38.173  1.00  0.00     0.002 A 
ATOM     86  C   UNL A   1      46.770  28.036  38.854  1.00  0.00     0.091 A 
ATOM     87  F   UNL A   1      46.149  26.439  37.193  1.00  0.00    -0.205 F 
ATOM     88  C   UNL A   1      47.388  29.252  39.180  1.00  0.00     0.022 A 
BRANCH  86  89
ATOM     89  S   UNL A   1      46.044  27.098  40.203  1.00  0.00     0.127 S 
ATOM     90  O   UNL A   1      46.626  27.754  41.371  1.00  0.00    -0.237 OA
ATOM     91  O   UNL A   1      44.615  27.342  40.007  1.00  0.00    -0.237 OA
ATOM     92  O   UNL A   1      46.451  25.718  39.982  1.00  0.00    -0.744 OA
ENDBRANCH  86  89
ENDBRANCH  58  82
BRANCH  70  93
ATOM     93  C   UNL A   1      51.620  25.174  32.257  1.00  0.00     0.023 A 
ATOM     94  C   UNL A   1      52.724  26.046  32.180  1.00  0.00     0.012 A 
ATOM     95  C   UNL A   1      51.831  23.820  32.587  1.00  0.00     0.148 A 
ATOM     96  C   UNL A   1      54.018  25.572  32.389  1.00  0.00     0.002 A 
ATOM     97  C   UNL A   1      53.119  23.367  32.848  1.00  0.00     0.091 A 
ATOM     98  F   UNL A   1      50.770  23.002  32.641  1.00  0.00    -0.205 F 
ATOM     99  C   UNL A   1      54.214  24.237  32.733  1.00  0.00     0.022 A 
BRANCH  97 100
ATOM    100  S   UNL A   1      53.458  21.690  33.395  1.00  0.00     0.127 S 
ATOM    101  O   UNL A   1      54.766  21.843  34.032  1.00  0.00    -0.237 OA
ATOM    102  O   UNL A   1      52.354  21.440  34.323  1.00  0.00    -0.237 OA
ATOM    103  O   UNL A   1      53.441  20.862  32.197  1.00  0.00    -0.744 OA
ENDBRANCH  97 100
ENDBRANCH  70  93
ENDBRANCH  44  45
ENDBRANCH  36  39
ENDBRANCH  34  35
ENDBRANCH   1  34
TORSDOF 17
ENDMDL
