MODEL 1
REMARK VINA RESULT:     -11.3      0.000      0.000
REMARK SMILES CC[NH+](CC)C[C@H](C)NC(=O)N[C@H]1C=C[C@@H](C(=O)NCCCNC(=O)c2ccc(-c3c4nc(c(-c5cccc(S(=O)(=O)[O-])c5F)c5ccc([nH]5)c(-c5cccc(S(=O)(=O)[O-])c5F)c5nc(c(-c6cccc(S(=O)(=O)[O-])c6F)c6ccc3[nH]6)C=C5)C=C4)cc2)C1
REMARK SMILES IDX 20 1 19 2 17 3 18 4 16 6 13 7 14 8 89 9 15 10 12 11 9 12
REMARK SMILES IDX 10 13 11 15 7 17 8 18 6 19 3 20 2 22 1 23 4 24 5 25 21 26
REMARK SMILES IDX 22 27 23 28 24 29 25 31 26 32 27 33 88 34 28 35 87 36 29 37
REMARK SMILES IDX 30 38 31 39 81 40 32 41 86 42 80 43 82 44 33 45 85 46 79 47
REMARK SMILES IDX 78 48 34 50 66 51 46 52 65 53 47 54 50 55 64 56 83 57 48 58
REMARK SMILES IDX 49 59 63 61 84 62 51 63 35 64 36 65 44 66 37 67 39 68 45 69
REMARK SMILES IDX 38 70 40 71 41 72 42 73 43 74 67 75 68 76 76 77 69 78 71 79
REMARK SMILES IDX 77 80 70 81 72 82 73 83 74 84 75 85 52 86 53 87 61 88 54 89
REMARK SMILES IDX 56 90 62 91 55 92 57 93 58 94 59 95 60 96
REMARK H PARENT 19 5 9 14 12 16 3 21 23 30 82 49 50 60
REMARK Flexibility Score: inf
ROOT
ATOM      1  C   UNL A   1      31.805  30.601  26.522  1.00  0.00     0.117 C 
ENDROOT
BRANCH   1   2
ATOM      2  N   UNL A   1      31.500  30.316  25.131  1.00  0.00    -0.356 N 
ATOM      3  C   UNL A   1      31.467  29.139  24.446  1.00  0.00     0.227 C 
ATOM      4  O   UNL A   1      31.101  29.173  23.267  1.00  0.00    -0.274 OA
ATOM      5  H   UNL A   1      31.281  31.109  24.591  1.00  0.00     0.163 HD
BRANCH   3   6
ATOM      6  C   UNL A   1      31.878  27.810  25.080  1.00  0.00     0.103 C 
ATOM      7  C   UNL A   1      32.757  25.720  24.173  1.00  0.00     0.107 C 
ATOM      8  C   UNL A   1      33.846  26.582  24.718  1.00  0.00    -0.006 C 
ATOM      9  C   UNL A   1      31.505  26.598  24.222  1.00  0.00     0.047 C 
ATOM     10  C   UNL A   1      33.360  27.693  25.282  1.00  0.00    -0.016 C 
BRANCH   7  11
ATOM     11  N   UNL A   1      33.034  25.285  22.832  1.00  0.00    -0.332 N 
ATOM     12  N   UNL A   1      32.990  22.920  22.918  1.00  0.00    -0.330 N 
ATOM     13  C   UNL A   1      33.091  24.077  22.254  1.00  0.00     0.315 C 
ATOM     14  H   UNL A   1      33.016  22.136  22.322  1.00  0.00     0.165 HD
ATOM     15  O   UNL A   1      33.270  24.040  21.036  1.00  0.00    -0.249 OA
ATOM     16  H   UNL A   1      33.222  26.026  22.211  1.00  0.00     0.165 HD
BRANCH  12  17
ATOM     17  C   UNL A   1      32.850  22.561  24.319  1.00  0.00     0.135 C 
ATOM     18  C   UNL A   1      32.049  21.264  24.482  1.00  0.00     0.037 C 
BRANCH  17  19
ATOM     19  C   UNL A   1      34.181  22.578  25.156  1.00  0.00     0.287 C 
BRANCH  19  20
ATOM     20  N   UNL A   1      35.457  21.989  24.729  1.00  0.00    -0.334 N 
ATOM     21  H   UNL A   1      35.112  21.717  23.808  1.00  0.00     0.348 HD
BRANCH  20  22
ATOM     22  C   UNL A   1      36.565  22.848  24.336  1.00  0.00     0.258 C 
ATOM     23  C   UNL A   1      36.693  23.002  22.828  1.00  0.00     0.071 C 
ENDBRANCH  20  22
BRANCH  20  24
ATOM     24  C   UNL A   1      35.864  20.733  25.361  1.00  0.00     0.258 C 
ATOM     25  C   UNL A   1      37.185  20.125  24.915  1.00  0.00     0.071 C 
ENDBRANCH  20  24
ENDBRANCH  19  20
ENDBRANCH  17  19
ENDBRANCH  12  17
ENDBRANCH   7  11
ENDBRANCH   3   6
ENDBRANCH   1   2
BRANCH   1  26
ATOM     26  C   UNL A   1      31.558  32.050  26.898  1.00  0.00     0.042 C 
BRANCH  26  27
ATOM     27  C   UNL A   1      32.822  32.770  27.324  1.00  0.00     0.118 C 
BRANCH  27  28
ATOM     28  N   UNL A   1      32.569  34.162  27.687  1.00  0.00    -0.352 N 
ATOM     29  C   UNL A   1      33.088  34.905  28.715  1.00  0.00     0.251 C 
ATOM     30  H   UNL A   1      31.930  34.637  27.107  1.00  0.00     0.163 HD
ATOM     31  O   UNL A   1      32.589  35.995  28.994  1.00  0.00    -0.269 OA
BRANCH  29  32
ATOM     32  C   UNL A   1      34.237  34.389  29.483  1.00  0.00     0.039 A 
ATOM     33  C   UNL A   1      34.015  33.732  30.696  1.00  0.00     0.014 A 
ATOM     34  C   UNL A   1      35.536  34.553  28.998  1.00  0.00     0.014 A 
ATOM     35  C   UNL A   1      35.096  33.188  31.390  1.00  0.00     0.010 A 
ATOM     36  C   UNL A   1      36.592  33.915  29.629  1.00  0.00     0.010 A 
ATOM     37  C   UNL A   1      36.388  33.248  30.844  1.00  0.00    -0.014 A 
BRANCH  37  38
ATOM     38  C   UNL A   1      37.555  32.645  31.530  1.00  0.00     0.031 A 
ATOM     39  C   UNL A   1      38.296  31.506  30.884  1.00  0.00     0.074 A 
ATOM     40  C   UNL A   1      37.880  33.049  32.773  1.00  0.00     0.049 A 
ATOM     41  N   UNL A   1      39.288  30.795  31.351  1.00  0.00    -0.248 NA
ATOM     42  C   UNL A   1      37.836  31.085  29.549  1.00  0.00     0.031 C 
ATOM     43  C   UNL A   1      37.187  34.091  33.534  1.00  0.00     0.029 A 
ATOM     44  N   UNL A   1      38.862  32.613  33.624  1.00  0.00    -0.354 N 
ATOM     45  C   UNL A   1      39.536  29.818  30.395  1.00  0.00     0.074 A 
ATOM     46  C   UNL A   1      38.563  29.999  29.342  1.00  0.00     0.031 C 
ATOM     47  C   UNL A   1      37.779  34.228  34.732  1.00  0.00     0.029 A 
ATOM     48  C   UNL A   1      38.865  33.259  34.839  1.00  0.00     0.049 A 
ATOM     49  H   UNL A   1      39.505  31.905  33.390  1.00  0.00     0.167 HD
ATOM     50  C   UNL A   1      40.506  28.872  30.378  1.00  0.00     0.034 A 
ATOM     51  C   UNL A   1      39.653  33.087  35.917  1.00  0.00     0.034 A 
ATOM     52  C   UNL A   1      41.495  28.727  31.410  1.00  0.00     0.049 A 
ATOM     53  C   UNL A   1      40.742  32.052  35.864  1.00  0.00     0.074 A 
ATOM     54  C   UNL A   1      42.580  27.872  31.448  1.00  0.00     0.029 A 
ATOM     55  N   UNL A   1      41.509  29.447  32.595  1.00  0.00    -0.354 N 
ATOM     56  N   UNL A   1      41.065  31.240  34.886  1.00  0.00    -0.248 NA
ATOM     57  C   UNL A   1      41.600  31.933  37.052  1.00  0.00     0.031 C 
ATOM     58  C   UNL A   1      43.229  28.047  32.675  1.00  0.00     0.029 A 
ATOM     59  C   UNL A   1      42.573  29.043  33.382  1.00  0.00     0.049 A 
ATOM     60  H   UNL A   1      40.858  30.143  32.841  1.00  0.00     0.167 HD
ATOM     61  C   UNL A   1      42.186  30.543  35.322  1.00  0.00     0.074 A 
ATOM     62  C   UNL A   1      42.492  31.037  36.649  1.00  0.00     0.031 C 
ATOM     63  C   UNL A   1      42.892  29.577  34.683  1.00  0.00     0.034 A 
BRANCH  50  64
ATOM     64  C   UNL A   1      40.553  27.947  29.188  1.00  0.00     0.023 A 
ATOM     65  C   UNL A   1      39.683  26.837  29.124  1.00  0.00     0.012 A 
ATOM     66  C   UNL A   1      41.447  28.182  28.125  1.00  0.00     0.148 A 
ATOM     67  C   UNL A   1      39.742  25.945  28.054  1.00  0.00     0.002 A 
ATOM     68  C   UNL A   1      41.463  27.317  27.035  1.00  0.00     0.091 A 
ATOM     69  F   UNL A   1      42.283  29.226  28.209  1.00  0.00    -0.205 F 
ATOM     70  C   UNL A   1      40.625  26.191  27.007  1.00  0.00     0.022 A 
BRANCH  68  71
ATOM     71  S   UNL A   1      42.503  27.598  25.599  1.00  0.00     0.127 S 
ATOM     72  O   UNL A   1      42.228  26.407  24.798  1.00  0.00    -0.237 OA
ATOM     73  O   UNL A   1      41.948  28.839  25.056  1.00  0.00    -0.237 OA
ATOM     74  O   UNL A   1      43.862  27.716  26.106  1.00  0.00    -0.744 OA
ENDBRANCH  68  71
ENDBRANCH  50  64
BRANCH  51  75
ATOM     75  C   UNL A   1      39.493  33.979  37.099  1.00  0.00     0.023 A 
ATOM     76  C   UNL A   1      39.874  35.331  36.992  1.00  0.00     0.012 A 
ATOM     77  C   UNL A   1      38.926  33.517  38.302  1.00  0.00     0.148 A 
ATOM     78  C   UNL A   1      39.717  36.202  38.070  1.00  0.00     0.002 A 
ATOM     79  C   UNL A   1      38.726  34.401  39.356  1.00  0.00     0.091 A 
ATOM     80  F   UNL A   1      38.571  32.226  38.381  1.00  0.00    -0.205 F 
ATOM     81  C   UNL A   1      39.134  35.740  39.248  1.00  0.00     0.022 A 
BRANCH  79  82
ATOM     82  S   UNL A   1      37.884  33.933  40.872  1.00  0.00     0.127 S 
ATOM     83  O   UNL A   1      38.886  33.092  41.523  1.00  0.00    -0.237 OA
ATOM     84  O   UNL A   1      37.665  35.234  41.506  1.00  0.00    -0.237 OA
ATOM     85  O   UNL A   1      36.668  33.247  40.456  1.00  0.00    -0.744 OA
ENDBRANCH  79  82
ENDBRANCH  51  75
BRANCH  63  86
ATOM     86  C   UNL A   1      44.101  29.014  35.385  1.00  0.00     0.023 A 
ATOM     87  C   UNL A   1      45.361  29.621  35.222  1.00  0.00     0.012 A 
ATOM     88  C   UNL A   1      43.966  27.926  36.272  1.00  0.00     0.148 A 
ATOM     89  C   UNL A   1      46.475  29.136  35.907  1.00  0.00     0.002 A 
ATOM     90  C   UNL A   1      45.069  27.484  36.992  1.00  0.00     0.091 A 
ATOM     91  F   UNL A   1      42.762  27.350  36.400  1.00  0.00    -0.205 F 
ATOM     92  C   UNL A   1      46.326  28.078  36.800  1.00  0.00     0.022 A 
BRANCH  90  93
ATOM     93  S   UNL A   1      44.951  26.197  38.240  1.00  0.00     0.127 S 
ATOM     94  O   UNL A   1      43.982  26.771  39.170  1.00  0.00    -0.237 OA
ATOM     95  O   UNL A   1      44.454  25.060  37.465  1.00  0.00    -0.237 OA
ATOM     96  O   UNL A   1      46.298  26.025  38.769  1.00  0.00    -0.744 OA
ENDBRANCH  90  93
ENDBRANCH  63  86
ENDBRANCH  37  38
ENDBRANCH  29  32
ENDBRANCH  27  28
ENDBRANCH  26  27
ENDBRANCH   1  26
TORSDOF 19
ENDMDL
MODEL 2
REMARK VINA RESULT:     -11.2      0.854      7.860
REMARK SMILES CC[NH+](CC)C[C@H](C)NC(=O)N[C@H]1C=C[C@@H](C(=O)NCCCNC(=O)c2ccc(-c3c4nc(c(-c5cccc(S(=O)(=O)[O-])c5F)c5ccc([nH]5)c(-c5cccc(S(=O)(=O)[O-])c5F)c5nc(c(-c6cccc(S(=O)(=O)[O-])c6F)c6ccc3[nH]6)C=C5)C=C4)cc2)C1
REMARK SMILES IDX 20 1 19 2 17 3 18 4 16 6 13 7 14 8 89 9 15 10 12 11 9 12
REMARK SMILES IDX 10 13 11 15 7 17 8 18 6 19 3 20 2 22 1 23 4 24 5 25 21 26
REMARK SMILES IDX 22 27 23 28 24 29 25 31 26 32 27 33 88 34 28 35 87 36 29 37
REMARK SMILES IDX 30 38 31 39 81 40 32 41 86 42 80 43 82 44 33 45 85 46 79 47
REMARK SMILES IDX 78 48 34 50 66 51 46 52 65 53 47 54 50 55 64 56 83 57 48 58
REMARK SMILES IDX 49 59 63 61 84 62 51 63 35 64 36 65 44 66 37 67 39 68 45 69
REMARK SMILES IDX 38 70 40 71 41 72 42 73 43 74 67 75 68 76 76 77 69 78 71 79
REMARK SMILES IDX 77 80 70 81 72 82 73 83 74 84 75 85 52 86 53 87 61 88 54 89
REMARK SMILES IDX 56 90 62 91 55 92 57 93 58 94 59 95 60 96
REMARK H PARENT 19 5 9 14 12 16 3 21 23 30 82 49 50 60
REMARK Flexibility Score: inf
ROOT
ATOM      1  C   UNL A   1      31.488  30.980  26.242  1.00  0.00     0.117 C 
ENDROOT
BRANCH   1   2
ATOM      2  N   UNL A   1      30.882  30.651  24.963  1.00  0.00    -0.356 N 
ATOM      3  C   UNL A   1      30.989  29.539  24.183  1.00  0.00     0.227 C 
ATOM      4  O   UNL A   1      30.298  29.489  23.161  1.00  0.00    -0.274 OA
ATOM      5  H   UNL A   1      30.295  31.351  24.597  1.00  0.00     0.163 HD
BRANCH   3   6
ATOM      6  C   UNL A   1      31.932  28.386  24.526  1.00  0.00     0.103 C 
ATOM      7  C   UNL A   1      33.133  26.744  23.174  1.00  0.00     0.107 C 
ATOM      8  C   UNL A   1      34.014  27.885  23.562  1.00  0.00    -0.006 C 
ATOM      9  C   UNL A   1      31.733  27.164  23.625  1.00  0.00     0.047 C 
ATOM     10  C   UNL A   1      33.379  28.747  24.365  1.00  0.00    -0.016 C 
BRANCH   7  11
ATOM     11  N   UNL A   1      33.171  26.493  21.760  1.00  0.00    -0.332 N 
ATOM     12  N   UNL A   1      32.571  24.217  21.512  1.00  0.00    -0.330 N 
ATOM     13  C   UNL A   1      32.882  25.418  21.013  1.00  0.00     0.315 C 
ATOM     14  H   UNL A   1      32.353  23.558  20.813  1.00  0.00     0.165 HD
ATOM     15  O   UNL A   1      32.931  25.549  19.789  1.00  0.00    -0.249 OA
ATOM     16  H   UNL A   1      33.470  27.269  21.232  1.00  0.00     0.165 HD
BRANCH  12  17
ATOM     17  C   UNL A   1      32.483  23.665  22.854  1.00  0.00     0.135 C 
ATOM     18  C   UNL A   1      31.037  23.667  23.362  1.00  0.00     0.037 C 
BRANCH  17  19
ATOM     19  C   UNL A   1      33.212  22.288  23.065  1.00  0.00     0.287 C 
BRANCH  19  20
ATOM     20  N   UNL A   1      33.994  21.917  24.253  1.00  0.00    -0.334 N 
ATOM     21  H   UNL A   1      34.407  21.093  23.817  1.00  0.00     0.348 HD
BRANCH  20  22
ATOM     22  C   UNL A   1      35.204  22.653  24.590  1.00  0.00     0.258 C 
ATOM     23  C   UNL A   1      36.260  22.597  23.498  1.00  0.00     0.071 C 
ENDBRANCH  20  22
BRANCH  20  24
ATOM     24  C   UNL A   1      33.260  21.403  25.408  1.00  0.00     0.258 C 
ATOM     25  C   UNL A   1      33.235  22.267  26.659  1.00  0.00     0.071 C 
ENDBRANCH  20  24
ENDBRANCH  19  20
ENDBRANCH  17  19
ENDBRANCH  12  17
ENDBRANCH   7  11
ENDBRANCH   3   6
ENDBRANCH   1   2
BRANCH   1  26
ATOM     26  C   UNL A   1      31.434  32.463  26.559  1.00  0.00     0.042 C 
BRANCH  26  27
ATOM     27  C   UNL A   1      32.639  32.939  27.346  1.00  0.00     0.118 C 
BRANCH  27  28
ATOM     28  N   UNL A   1      32.511  34.335  27.759  1.00  0.00    -0.352 N 
ATOM     29  C   UNL A   1      33.121  34.999  28.791  1.00  0.00     0.251 C 
ATOM     30  H   UNL A   1      31.896  34.878  27.215  1.00  0.00     0.163 HD
ATOM     31  O   UNL A   1      32.722  36.117  29.119  1.00  0.00    -0.269 OA
BRANCH  29  32
ATOM     32  C   UNL A   1      34.246  34.368  29.504  1.00  0.00     0.039 A 
ATOM     33  C   UNL A   1      33.999  33.632  30.666  1.00  0.00     0.014 A 
ATOM     34  C   UNL A   1      35.549  34.502  29.018  1.00  0.00     0.014 A 
ATOM     35  C   UNL A   1      35.056  32.982  31.304  1.00  0.00     0.010 A 
ATOM     36  C   UNL A   1      36.575  33.764  29.587  1.00  0.00     0.010 A 
ATOM     37  C   UNL A   1      36.346  33.017  30.750  1.00  0.00    -0.014 A 
BRANCH  37  38
ATOM     38  C   UNL A   1      37.484  32.304  31.375  1.00  0.00     0.031 A 
ATOM     39  C   UNL A   1      38.004  32.753  32.714  1.00  0.00     0.074 A 
ATOM     40  C   UNL A   1      38.113  31.326  30.695  1.00  0.00     0.049 A 
ATOM     41  N   UNL A   1      39.032  32.313  33.391  1.00  0.00    -0.248 NA
ATOM     42  C   UNL A   1      37.295  33.870  33.362  1.00  0.00     0.031 C 
ATOM     43  C   UNL A   1      37.749  30.856  29.356  1.00  0.00     0.029 A 
ATOM     44  N   UNL A   1      39.206  30.569  31.028  1.00  0.00    -0.354 N 
ATOM     45  C   UNL A   1      39.123  33.128  34.512  1.00  0.00     0.074 A 
ATOM     46  C   UNL A   1      38.074  34.116  34.404  1.00  0.00     0.031 C 
ATOM     47  C   UNL A   1      38.592  29.876  28.991  1.00  0.00     0.029 A 
ATOM     48  C   UNL A   1      39.577  29.676  30.049  1.00  0.00     0.049 A 
ATOM     49  H   UNL A   1      39.682  30.655  31.886  1.00  0.00     0.167 HD
ATOM     50  C   UNL A   1      39.982  33.045  35.556  1.00  0.00     0.034 A 
ATOM     51  C   UNL A   1      40.598  28.800  30.009  1.00  0.00     0.034 A 
ATOM     52  C   UNL A   1      40.996  32.034  35.675  1.00  0.00     0.049 A 
ATOM     53  C   UNL A   1      41.521  28.703  31.191  1.00  0.00     0.074 A 
ATOM     54  C   UNL A   1      41.854  31.794  36.731  1.00  0.00     0.029 A 
ATOM     55  N   UNL A   1      41.297  31.101  34.693  1.00  0.00    -0.354 N 
ATOM     56  N   UNL A   1      41.497  29.377  32.317  1.00  0.00    -0.248 NA
ATOM     57  C   UNL A   1      42.594  27.702  31.114  1.00  0.00     0.031 C 
ATOM     58  C   UNL A   1      42.702  30.740  36.373  1.00  0.00     0.029 A 
ATOM     59  C   UNL A   1      42.342  30.295  35.111  1.00  0.00     0.049 A 
ATOM     60  H   UNL A   1      40.836  31.022  33.827  1.00  0.00     0.167 HD
ATOM     61  C   UNL A   1      42.522  28.855  33.097  1.00  0.00     0.074 A 
ATOM     62  C   UNL A   1      43.140  27.800  32.319  1.00  0.00     0.031 C 
ATOM     63  C   UNL A   1      42.918  29.219  34.342  1.00  0.00     0.034 A 
BRANCH  50  64
ATOM     64  C   UNL A   1      39.835  34.062  36.660  1.00  0.00     0.023 A 
ATOM     65  C   UNL A   1      40.225  35.401  36.440  1.00  0.00     0.012 A 
ATOM     66  C   UNL A   1      39.298  33.699  37.910  1.00  0.00     0.148 A 
ATOM     67  C   UNL A   1      40.139  36.345  37.462  1.00  0.00     0.002 A 
ATOM     68  C   UNL A   1      39.165  34.659  38.908  1.00  0.00     0.091 A 
ATOM     69  F   UNL A   1      38.953  32.419  38.112  1.00  0.00    -0.205 F 
ATOM     70  C   UNL A   1      39.600  35.976  38.691  1.00  0.00     0.022 A 
BRANCH  68  71
ATOM     71  S   UNL A   1      38.404  34.300  40.494  1.00  0.00     0.127 S 
ATOM     72  O   UNL A   1      37.230  33.529  40.090  1.00  0.00    -0.237 OA
ATOM     73  O   UNL A   1      39.445  33.520  41.164  1.00  0.00    -0.237 OA
ATOM     74  O   UNL A   1      38.129  35.591  41.107  1.00  0.00    -0.744 OA
ENDBRANCH  68  71
ENDBRANCH  50  64
BRANCH  51  75
ATOM     75  C   UNL A   1      40.739  27.883  28.843  1.00  0.00     0.023 A 
ATOM     76  C   UNL A   1      39.811  26.836  28.680  1.00  0.00     0.012 A 
ATOM     77  C   UNL A   1      41.745  28.067  27.876  1.00  0.00     0.148 A 
ATOM     78  C   UNL A   1      39.897  25.972  27.589  1.00  0.00     0.002 A 
ATOM     79  C   UNL A   1      41.796  27.234  26.764  1.00  0.00     0.091 A 
ATOM     80  F   UNL A   1      42.617  29.071  28.052  1.00  0.00    -0.205 F 
ATOM     81  C   UNL A   1      40.882  26.177  26.626  1.00  0.00     0.022 A 
BRANCH  79  82
ATOM     82  S   UNL A   1      42.955  27.483  25.414  1.00  0.00     0.127 S 
ATOM     83  O   UNL A   1      42.999  26.153  24.810  1.00  0.00    -0.237 OA
ATOM     84  O   UNL A   1      42.269  28.499  24.616  1.00  0.00    -0.237 OA
ATOM     85  O   UNL A   1      44.195  27.930  26.033  1.00  0.00    -0.744 OA
ENDBRANCH  79  82
ENDBRANCH  51  75
BRANCH  63  86
ATOM     86  C   UNL A   1      44.048  28.446  34.972  1.00  0.00     0.023 A 
ATOM     87  C   UNL A   1      45.384  28.784  34.682  1.00  0.00     0.012 A 
ATOM     88  C   UNL A   1      43.778  27.434  35.915  1.00  0.00     0.148 A 
ATOM     89  C   UNL A   1      46.435  28.105  35.298  1.00  0.00     0.002 A 
ATOM     90  C   UNL A   1      44.830  26.800  36.565  1.00  0.00     0.091 A 
ATOM     91  F   UNL A   1      42.500  27.114  36.163  1.00  0.00    -0.205 F 
ATOM     92  C   UNL A   1      46.158  27.124  36.247  1.00  0.00     0.022 A 
BRANCH  90  93
ATOM     93  S   UNL A   1      44.569  25.599  37.875  1.00  0.00     0.127 S 
ATOM     94  O   UNL A   1      45.939  25.318  38.298  1.00  0.00    -0.237 OA
ATOM     95  O   UNL A   1      43.776  26.361  38.839  1.00  0.00    -0.237 OA
ATOM     96  O   UNL A   1      43.864  24.481  37.262  1.00  0.00    -0.744 OA
ENDBRANCH  90  93
ENDBRANCH  63  86
ENDBRANCH  37  38
ENDBRANCH  29  32
ENDBRANCH  27  28
ENDBRANCH  26  27
ENDBRANCH   1  26
TORSDOF 19
ENDMDL
MODEL 3
REMARK VINA RESULT:     -11.2      6.507     11.849
REMARK SMILES CC[NH+](CC)C[C@H](C)NC(=O)N[C@H]1C=C[C@@H](C(=O)NCCCNC(=O)c2ccc(-c3c4nc(c(-c5cccc(S(=O)(=O)[O-])c5F)c5ccc([nH]5)c(-c5cccc(S(=O)(=O)[O-])c5F)c5nc(c(-c6cccc(S(=O)(=O)[O-])c6F)c6ccc3[nH]6)C=C5)C=C4)cc2)C1
REMARK SMILES IDX 20 1 19 2 17 3 18 4 16 6 13 7 14 8 89 9 15 10 12 11 9 12
REMARK SMILES IDX 10 13 11 15 7 17 8 18 6 19 3 20 2 22 1 23 4 24 5 25 21 26
REMARK SMILES IDX 22 27 23 28 24 29 25 31 26 32 27 33 88 34 28 35 87 36 29 37
REMARK SMILES IDX 30 38 31 39 81 40 32 41 86 42 80 43 82 44 33 45 85 46 79 47
REMARK SMILES IDX 78 48 34 50 66 51 46 52 65 53 47 54 50 55 64 56 83 57 48 58
REMARK SMILES IDX 49 59 63 61 84 62 51 63 35 64 36 65 44 66 37 67 39 68 45 69
REMARK SMILES IDX 38 70 40 71 41 72 42 73 43 74 67 75 68 76 76 77 69 78 71 79
REMARK SMILES IDX 77 80 70 81 72 82 73 83 74 84 75 85 52 86 53 87 61 88 54 89
REMARK SMILES IDX 56 90 62 91 55 92 57 93 58 94 59 95 60 96
REMARK H PARENT 19 5 9 14 12 16 3 21 23 30 82 49 50 60
REMARK Flexibility Score: inf
ROOT
ATOM      1  C   UNL A   1      36.819  20.576  24.994  1.00  0.00     0.117 C 
ENDROOT
BRANCH   1   2
ATOM      2  N   UNL A   1      35.542  19.883  25.006  1.00  0.00    -0.356 N 
ATOM      3  C   UNL A   1      34.274  20.344  24.817  1.00  0.00     0.227 C 
ATOM      4  O   UNL A   1      33.359  19.514  24.808  1.00  0.00    -0.274 OA
ATOM      5  H   UNL A   1      35.603  18.916  25.181  1.00  0.00     0.163 HD
BRANCH   3   6
ATOM      6  C   UNL A   1      33.960  21.829  24.636  1.00  0.00     0.103 C 
ATOM      7  C   UNL A   1      32.293  23.322  25.616  1.00  0.00     0.107 C 
ATOM      8  C   UNL A   1      33.613  23.446  26.303  1.00  0.00    -0.006 C 
ATOM      9  C   UNL A   1      32.459  22.131  24.671  1.00  0.00     0.047 C 
ATOM     10  C   UNL A   1      34.545  22.686  25.720  1.00  0.00    -0.016 C 
BRANCH   7  11
ATOM     11  N   UNL A   1      31.222  23.101  26.548  1.00  0.00    -0.332 N 
ATOM     12  N   UNL A   1      29.737  24.917  26.235  1.00  0.00    -0.330 N 
ATOM     13  C   UNL A   1      30.078  23.754  26.798  1.00  0.00     0.315 C 
ATOM     14  H   UNL A   1      28.843  25.227  26.511  1.00  0.00     0.165 HD
ATOM     15  O   UNL A   1      29.307  23.251  27.618  1.00  0.00    -0.249 OA
ATOM     16  H   UNL A   1      31.355  22.310  27.119  1.00  0.00     0.165 HD
BRANCH  12  17
ATOM     17  C   UNL A   1      30.387  25.828  25.308  1.00  0.00     0.135 C 
ATOM     18  C   UNL A   1      29.390  26.386  24.285  1.00  0.00     0.037 C 
BRANCH  17  19
ATOM     19  C   UNL A   1      31.284  26.937  25.969  1.00  0.00     0.287 C 
BRANCH  19  20
ATOM     20  N   UNL A   1      31.953  28.027  25.246  1.00  0.00    -0.334 N 
ATOM     21  H   UNL A   1      31.492  27.825  24.359  1.00  0.00     0.348 HD
BRANCH  20  22
ATOM     22  C   UNL A   1      31.525  29.405  25.441  1.00  0.00     0.258 C 
ATOM     23  C   UNL A   1      32.251  30.099  26.583  1.00  0.00     0.071 C 
ENDBRANCH  20  22
BRANCH  20  24
ATOM     24  C   UNL A   1      33.381  27.873  24.969  1.00  0.00     0.258 C 
ATOM     25  C   UNL A   1      33.857  28.197  23.562  1.00  0.00     0.071 C 
ENDBRANCH  20  24
ENDBRANCH  19  20
ENDBRANCH  17  19
ENDBRANCH  12  17
ENDBRANCH   7  11
ENDBRANCH   3   6
ENDBRANCH   1   2
BRANCH   1  26
ATOM     26  C   UNL A   1      38.005  19.631  25.037  1.00  0.00     0.042 C 
BRANCH  26  27
ATOM     27  C   UNL A   1      39.215  20.238  25.718  1.00  0.00     0.118 C 
BRANCH  27  28
ATOM     28  N   UNL A   1      40.236  19.238  26.023  1.00  0.00    -0.352 N 
ATOM     29  C   UNL A   1      41.572  19.405  26.280  1.00  0.00     0.251 C 
ATOM     30  H   UNL A   1      39.917  18.308  26.047  1.00  0.00     0.163 HD
ATOM     31  O   UNL A   1      42.318  18.426  26.298  1.00  0.00    -0.269 OA
BRANCH  29  32
ATOM     32  C   UNL A   1      42.107  20.757  26.527  1.00  0.00     0.039 A 
ATOM     33  C   UNL A   1      42.309  21.625  25.450  1.00  0.00     0.014 A 
ATOM     34  C   UNL A   1      42.404  21.167  27.828  1.00  0.00     0.014 A 
ATOM     35  C   UNL A   1      42.754  22.925  25.691  1.00  0.00     0.010 A 
ATOM     36  C   UNL A   1      42.735  22.490  28.074  1.00  0.00     0.010 A 
ATOM     37  C   UNL A   1      42.939  23.376  27.008  1.00  0.00    -0.014 A 
BRANCH  37  38
ATOM     38  C   UNL A   1      43.369  24.763  27.305  1.00  0.00     0.031 A 
ATOM     39  C   UNL A   1      42.395  25.733  27.917  1.00  0.00     0.074 A 
ATOM     40  C   UNL A   1      44.595  25.176  26.931  1.00  0.00     0.049 A 
ATOM     41  N   UNL A   1      42.550  27.003  28.183  1.00  0.00    -0.248 NA
ATOM     42  C   UNL A   1      41.054  25.215  28.240  1.00  0.00     0.031 C 
ATOM     43  C   UNL A   1      45.599  24.348  26.259  1.00  0.00     0.029 A 
ATOM     44  N   UNL A   1      45.195  26.404  27.040  1.00  0.00    -0.354 N 
ATOM     45  C   UNL A   1      41.320  27.444  28.653  1.00  0.00     0.074 A 
ATOM     46  C   UNL A   1      40.415  26.318  28.596  1.00  0.00     0.031 C 
ATOM     47  C   UNL A   1      46.698  25.087  26.035  1.00  0.00     0.029 A 
ATOM     48  C   UNL A   1      46.463  26.446  26.510  1.00  0.00     0.049 A 
ATOM     49  H   UNL A   1      44.759  27.182  27.458  1.00  0.00     0.167 HD
ATOM     50  C   UNL A   1      40.978  28.669  29.120  1.00  0.00     0.034 A 
ATOM     51  C   UNL A   1      47.335  27.468  26.414  1.00  0.00     0.034 A 
ATOM     52  C   UNL A   1      41.895  29.771  29.211  1.00  0.00     0.049 A 
ATOM     53  C   UNL A   1      46.946  28.811  26.967  1.00  0.00     0.074 A 
ATOM     54  C   UNL A   1      41.686  31.023  29.759  1.00  0.00     0.029 A 
ATOM     55  N   UNL A   1      43.195  29.757  28.728  1.00  0.00    -0.354 N 
ATOM     56  N   UNL A   1      45.830  29.172  27.555  1.00  0.00    -0.248 NA
ATOM     57  C   UNL A   1      47.949  29.881  26.875  1.00  0.00     0.031 C 
ATOM     58  C   UNL A   1      42.847  31.780  29.571  1.00  0.00     0.029 A 
ATOM     59  C   UNL A   1      43.795  30.985  28.946  1.00  0.00     0.049 A 
ATOM     60  H   UNL A   1      43.628  28.988  28.293  1.00  0.00     0.167 HD
ATOM     61  C   UNL A   1      46.010  30.495  27.939  1.00  0.00     0.074 A 
ATOM     62  C   UNL A   1      47.348  30.868  27.527  1.00  0.00     0.031 C 
ATOM     63  C   UNL A   1      45.144  31.327  28.570  1.00  0.00     0.034 A 
BRANCH  50  64
ATOM     64  C   UNL A   1      39.559  28.861  29.593  1.00  0.00     0.023 A 
ATOM     65  C   UNL A   1      39.199  28.492  30.908  1.00  0.00     0.012 A 
ATOM     66  C   UNL A   1      38.584  29.419  28.745  1.00  0.00     0.148 A 
ATOM     67  C   UNL A   1      37.883  28.619  31.349  1.00  0.00     0.002 A 
ATOM     68  C   UNL A   1      37.284  29.593  29.210  1.00  0.00     0.091 A 
ATOM     69  F   UNL A   1      38.933  29.744  27.493  1.00  0.00    -0.205 F 
ATOM     70  C   UNL A   1      36.929  29.178  30.504  1.00  0.00     0.022 A 
BRANCH  68  71
ATOM     71  S   UNL A   1      36.007  30.382  28.226  1.00  0.00     0.127 S 
ATOM     72  O   UNL A   1      34.984  30.656  29.234  1.00  0.00    -0.237 OA
ATOM     73  O   UNL A   1      36.698  31.569  27.721  1.00  0.00    -0.237 OA
ATOM     74  O   UNL A   1      35.637  29.417  27.202  1.00  0.00    -0.744 OA
ENDBRANCH  68  71
ENDBRANCH  50  64
BRANCH  51  75
ATOM     75  C   UNL A   1      48.693  27.230  25.851  1.00  0.00     0.023 A 
ATOM     76  C   UNL A   1      49.688  26.672  26.679  1.00  0.00     0.012 A 
ATOM     77  C   UNL A   1      48.992  27.502  24.503  1.00  0.00     0.148 A 
ATOM     78  C   UNL A   1      50.964  26.413  26.180  1.00  0.00     0.002 A 
ATOM     79  C   UNL A   1      50.251  27.195  23.998  1.00  0.00     0.091 A 
ATOM     80  F   UNL A   1      48.029  28.032  23.735  1.00  0.00    -0.205 F 
ATOM     81  C   UNL A   1      51.243  26.664  24.839  1.00  0.00     0.022 A 
BRANCH  79  82
ATOM     82  S   UNL A   1      50.674  27.377  22.263  1.00  0.00     0.127 S 
ATOM     83  O   UNL A   1      52.024  26.816  22.224  1.00  0.00    -0.237 OA
ATOM     84  O   UNL A   1      49.648  26.558  21.618  1.00  0.00    -0.237 OA
ATOM     85  O   UNL A   1      50.582  28.802  21.978  1.00  0.00    -0.744 OA
ENDBRANCH  79  82
ENDBRANCH  51  75
BRANCH  63  86
ATOM     86  C   UNL A   1      45.624  32.716  28.901  1.00  0.00     0.023 A 
ATOM     87  C   UNL A   1      46.345  32.952  30.088  1.00  0.00     0.012 A 
ATOM     88  C   UNL A   1      45.426  33.774  27.991  1.00  0.00     0.148 A 
ATOM     89  C   UNL A   1      46.835  34.225  30.378  1.00  0.00     0.002 A 
ATOM     90  C   UNL A   1      45.964  35.026  28.260  1.00  0.00     0.091 A 
ATOM     91  F   UNL A   1      44.722  33.534  26.875  1.00  0.00    -0.205 F 
ATOM     92  C   UNL A   1      46.656  35.257  29.459  1.00  0.00     0.022 A 
BRANCH  90  93
ATOM     93  S   UNL A   1      45.874  36.386  27.090  1.00  0.00     0.127 S 
ATOM     94  O   UNL A   1      44.437  36.647  27.047  1.00  0.00    -0.237 OA
ATOM     95  O   UNL A   1      46.663  37.421  27.758  1.00  0.00    -0.237 OA
ATOM     96  O   UNL A   1      46.455  35.889  25.850  1.00  0.00    -0.744 OA
ENDBRANCH  90  93
ENDBRANCH  63  86
ENDBRANCH  37  38
ENDBRANCH  29  32
ENDBRANCH  27  28
ENDBRANCH  26  27
ENDBRANCH   1  26
TORSDOF 19
ENDMDL
