MODEL 1
REMARK VINA RESULT:     -12.8      0.000      0.000
REMARK SMILES C[C@H](C(=O)NCCCNC(=O)c1ccc(-c2c3nc(c(-c4cccc(S(=O)(=O)[O-])c4F)c4ccc([nH]4)c(-c4cccc(S(=O)(=O)[O-])c4F)c4nc(c(-c5cccc(S(=O)(=O)[O-])c5F)c5ccc2[nH]5)C=C4)C=C3)cc1)c1ccc2c(c1)[nH]c1ccc(Cl)cc12
REMARK SMILES IDX 8 1 7 2 6 3 5 4 3 5 4 6 2 8 1 9 75 10 76 11 80 12 77 13
REMARK SMILES IDX 79 14 78 15 81 16 88 17 82 18 87 20 83 21 85 22 84 23 86 24
REMARK SMILES IDX 9 25 10 26 11 28 12 29 13 30 74 31 14 32 73 33 15 34 16 35
REMARK SMILES IDX 17 36 67 37 18 38 72 39 66 40 68 41 19 42 71 43 65 44 64 45
REMARK SMILES IDX 20 47 52 48 32 49 51 50 33 51 36 52 50 53 69 54 34 55 35 56
REMARK SMILES IDX 49 58 70 59 37 60 21 61 22 62 30 63 23 64 25 65 31 66 24 67
REMARK SMILES IDX 26 68 27 69 28 70 29 71 53 72 54 73 62 74 55 75 57 76 63 77
REMARK SMILES IDX 56 78 58 79 59 80 60 81 61 82 38 83 39 84 47 85 40 86 42 87
REMARK SMILES IDX 48 88 41 89 43 90 44 91 45 92 46 93
REMARK H PARENT 5 7 81 19 9 27 68 46 36 57
REMARK Flexibility Score: inf
ROOT
ATOM      1  C   UNL A   1      32.690  32.402  27.195  1.00  0.00     0.118 C 
ENDROOT
BRANCH   1   2
ATOM      2  C   UNL A   1      31.454  31.863  26.484  1.00  0.00     0.042 C 
BRANCH   2   3
ATOM      3  C   UNL A   1      31.626  30.429  25.985  1.00  0.00     0.117 C 
BRANCH   3   4
ATOM      4  N   UNL A   1      31.226  30.313  24.598  1.00  0.00    -0.356 N 
ATOM      5  C   UNL A   1      30.878  29.210  23.872  1.00  0.00     0.227 C 
ATOM      6  O   UNL A   1      30.742  29.376  22.656  1.00  0.00    -0.274 OA
ATOM      7  H   UNL A   1      31.200  31.163  24.101  1.00  0.00     0.163 HD
BRANCH   5   8
ATOM      8  C   UNL A   1      30.576  27.862  24.553  1.00  0.00     0.105 C 
ATOM      9  C   UNL A   1      29.427  27.184  23.783  1.00  0.00     0.023 C 
BRANCH   8  10
ATOM     10  C   UNL A   1      31.783  26.931  24.697  1.00  0.00    -0.034 A 
ATOM     11  C   UNL A   1      32.491  26.890  25.909  1.00  0.00     0.005 A 
ATOM     12  C   UNL A   1      32.191  26.078  23.654  1.00  0.00     0.031 A 
ATOM     13  C   UNL A   1      33.638  26.102  26.078  1.00  0.00     0.011 A 
ATOM     14  C   UNL A   1      33.297  25.238  23.865  1.00  0.00     0.047 A 
ATOM     15  C   UNL A   1      34.050  25.256  25.036  1.00  0.00     0.007 A 
ATOM     16  N   UNL A   1      33.858  24.286  23.046  1.00  0.00    -0.355 N 
ATOM     17  C   UNL A   1      35.146  24.355  24.860  1.00  0.00     0.009 A 
ATOM     18  C   UNL A   1      34.993  23.754  23.611  1.00  0.00     0.047 A 
ATOM     19  H   UNL A   1      33.497  24.021  22.169  1.00  0.00     0.167 HD
ATOM     20  C   UNL A   1      36.261  24.003  25.648  1.00  0.00     0.031 A 
ATOM     21  C   UNL A   1      35.897  22.809  23.108  1.00  0.00     0.028 A 
ATOM     22  C   UNL A   1      37.179  23.074  25.151  1.00  0.00     0.041 A 
ATOM     23  C   UNL A   1      37.004  22.487  23.900  1.00  0.00     0.022 A 
ATOM     24  Cl  UNL A   1      38.535  22.635  26.116  1.00  0.00    -0.084 Cl
ENDBRANCH   8  10
ENDBRANCH   5   8
ENDBRANCH   3   4
ENDBRANCH   2   3
ENDBRANCH   1   2
BRANCH   1  25
ATOM     25  N   UNL A   1      32.540  33.812  27.528  1.00  0.00    -0.352 N 
ATOM     26  C   UNL A   1      33.094  34.536  28.555  1.00  0.00     0.251 C 
ATOM     27  H   UNL A   1      31.951  34.322  26.928  1.00  0.00     0.163 HD
ATOM     28  O   UNL A   1      32.626  35.643  28.816  1.00  0.00    -0.269 OA
BRANCH  26  29
ATOM     29  C   UNL A   1      34.239  34.014  29.339  1.00  0.00     0.039 A 
ATOM     30  C   UNL A   1      35.533  34.400  28.974  1.00  0.00     0.014 A 
ATOM     31  C   UNL A   1      34.060  33.087  30.370  1.00  0.00     0.014 A 
ATOM     32  C   UNL A   1      36.639  33.871  29.649  1.00  0.00     0.010 A 
ATOM     33  C   UNL A   1      35.157  32.624  31.095  1.00  0.00     0.010 A 
ATOM     34  C   UNL A   1      36.459  32.985  30.722  1.00  0.00    -0.014 A 
BRANCH  34  35
ATOM     35  C   UNL A   1      37.621  32.392  31.435  1.00  0.00     0.031 A 
ATOM     36  C   UNL A   1      38.393  31.257  30.812  1.00  0.00     0.074 A 
ATOM     37  C   UNL A   1      37.940  32.825  32.670  1.00  0.00     0.049 A 
ATOM     38  N   UNL A   1      39.410  30.587  31.292  1.00  0.00    -0.248 NA
ATOM     39  C   UNL A   1      37.948  30.793  29.486  1.00  0.00     0.031 C 
ATOM     40  C   UNL A   1      37.221  33.860  33.416  1.00  0.00     0.029 A 
ATOM     41  N   UNL A   1      38.939  32.434  33.526  1.00  0.00    -0.354 N 
ATOM     42  C   UNL A   1      39.692  29.600  30.355  1.00  0.00     0.074 A 
ATOM     43  C   UNL A   1      38.723  29.736  29.292  1.00  0.00     0.031 C 
ATOM     44  C   UNL A   1      37.806  34.026  34.613  1.00  0.00     0.029 A 
ATOM     45  C   UNL A   1      38.925  33.098  34.731  1.00  0.00     0.049 A 
ATOM     46  H   UNL A   1      39.603  31.743  33.300  1.00  0.00     0.167 HD
ATOM     47  C   UNL A   1      40.689  28.682  30.360  1.00  0.00     0.034 A 
ATOM     48  C   UNL A   1      39.727  32.974  35.807  1.00  0.00     0.034 A 
ATOM     49  C   UNL A   1      41.691  28.591  31.388  1.00  0.00     0.049 A 
ATOM     50  C   UNL A   1      40.872  31.998  35.756  1.00  0.00     0.074 A 
ATOM     51  C   UNL A   1      42.800  27.767  31.439  1.00  0.00     0.029 A 
ATOM     52  N   UNL A   1      41.705  29.353  32.546  1.00  0.00    -0.354 N 
ATOM     53  N   UNL A   1      41.222  31.186  34.788  1.00  0.00    -0.248 NA
ATOM     54  C   UNL A   1      41.757  31.951  36.928  1.00  0.00     0.031 C 
ATOM     55  C   UNL A   1      43.478  28.020  32.637  1.00  0.00     0.029 A 
ATOM     56  C   UNL A   1      42.801  29.017  33.321  1.00  0.00     0.049 A 
ATOM     57  H   UNL A   1      41.034  30.034  32.782  1.00  0.00     0.167 HD
ATOM     58  C   UNL A   1      42.387  30.559  35.217  1.00  0.00     0.074 A 
ATOM     59  C   UNL A   1      42.694  31.103  36.524  1.00  0.00     0.031 C 
ATOM     60  C   UNL A   1      43.125  29.609  34.594  1.00  0.00     0.034 A 
BRANCH  47  61
ATOM     61  C   UNL A   1      40.784  27.739  29.188  1.00  0.00     0.023 A 
ATOM     62  C   UNL A   1      39.979  26.582  29.159  1.00  0.00     0.012 A 
ATOM     63  C   UNL A   1      41.622  28.022  28.091  1.00  0.00     0.148 A 
ATOM     64  C   UNL A   1      40.033  25.702  28.079  1.00  0.00     0.002 A 
ATOM     65  C   UNL A   1      41.637  27.164  26.996  1.00  0.00     0.091 A 
ATOM     66  F   UNL A   1      42.396  29.115  28.142  1.00  0.00    -0.205 F 
ATOM     67  C   UNL A   1      40.855  25.999  26.994  1.00  0.00     0.022 A 
BRANCH  65  68
ATOM     68  S   UNL A   1      42.600  27.498  25.517  1.00  0.00     0.127 S 
ATOM     69  O   UNL A   1      43.956  27.585  26.060  1.00  0.00    -0.237 OA
ATOM     70  O   UNL A   1      42.345  26.306  24.706  1.00  0.00    -0.237 OA
ATOM     71  O   UNL A   1      42.068  28.734  24.962  1.00  0.00    -0.744 OA
ENDBRANCH  65  68
ENDBRANCH  47  61
BRANCH  48  72
ATOM     72  C   UNL A   1      39.529  33.860  36.988  1.00  0.00     0.023 A 
ATOM     73  C   UNL A   1      39.942  35.205  36.915  1.00  0.00     0.012 A 
ATOM     74  C   UNL A   1      38.910  33.395  38.164  1.00  0.00     0.148 A 
ATOM     75  C   UNL A   1      39.771  36.062  38.003  1.00  0.00     0.002 A 
ATOM     76  C   UNL A   1      38.697  34.267  39.226  1.00  0.00     0.091 A 
ATOM     77  F   UNL A   1      38.536  32.108  38.219  1.00  0.00    -0.205 F 
ATOM     78  C   UNL A   1      39.140  35.597  39.153  1.00  0.00     0.022 A 
BRANCH  76  79
ATOM     79  S   UNL A   1      37.784  33.786  40.697  1.00  0.00     0.127 S 
ATOM     80  O   UNL A   1      38.761  32.956  41.396  1.00  0.00    -0.237 OA
ATOM     81  O   UNL A   1      37.515  35.080  41.323  1.00  0.00    -0.237 OA
ATOM     82  O   UNL A   1      36.597  33.095  40.209  1.00  0.00    -0.744 OA
ENDBRANCH  76  79
ENDBRANCH  48  72
BRANCH  60  83
ATOM     83  C   UNL A   1      44.363  29.117  35.295  1.00  0.00     0.023 A 
ATOM     84  C   UNL A   1      45.604  29.733  35.040  1.00  0.00     0.012 A 
ATOM     85  C   UNL A   1      44.286  28.093  36.260  1.00  0.00     0.148 A 
ATOM     86  C   UNL A   1      46.754  29.316  35.708  1.00  0.00     0.002 A 
ATOM     87  C   UNL A   1      45.427  27.715  36.957  1.00  0.00     0.091 A 
ATOM     88  F   UNL A   1      43.099  27.504  36.475  1.00  0.00    -0.205 F 
ATOM     89  C   UNL A   1      46.663  28.317  36.674  1.00  0.00     0.022 A 
BRANCH  87  90
ATOM     90  S   UNL A   1      45.380  26.506  38.285  1.00  0.00     0.127 S 
ATOM     91  O   UNL A   1      45.196  25.258  37.548  1.00  0.00    -0.237 OA
ATOM     92  O   UNL A   1      46.701  26.663  38.898  1.00  0.00    -0.237 OA
ATOM     93  O   UNL A   1      44.270  26.900  39.143  1.00  0.00    -0.744 OA
ENDBRANCH  87  90
ENDBRANCH  60  83
ENDBRANCH  34  35
ENDBRANCH  26  29
ENDBRANCH   1  25
TORSDOF 14
ENDMDL
MODEL 2
REMARK VINA RESULT:     -12.6      5.910     11.806
REMARK SMILES C[C@H](C(=O)NCCCNC(=O)c1ccc(-c2c3nc(c(-c4cccc(S(=O)(=O)[O-])c4F)c4ccc([nH]4)c(-c4cccc(S(=O)(=O)[O-])c4F)c4nc(c(-c5cccc(S(=O)(=O)[O-])c5F)c5ccc2[nH]5)C=C4)C=C3)cc1)c1ccc2c(c1)[nH]c1ccc(Cl)cc12
REMARK SMILES IDX 8 1 7 2 6 3 5 4 3 5 4 6 2 8 1 9 75 10 76 11 80 12 77 13
REMARK SMILES IDX 79 14 78 15 81 16 88 17 82 18 87 20 83 21 85 22 84 23 86 24
REMARK SMILES IDX 9 25 10 26 11 28 12 29 13 30 74 31 14 32 73 33 15 34 16 35
REMARK SMILES IDX 17 36 67 37 18 38 72 39 66 40 68 41 19 42 71 43 65 44 64 45
REMARK SMILES IDX 20 47 52 48 32 49 51 50 33 51 36 52 50 53 69 54 34 55 35 56
REMARK SMILES IDX 49 58 70 59 37 60 21 61 22 62 30 63 23 64 25 65 31 66 24 67
REMARK SMILES IDX 26 68 27 69 28 70 29 71 53 72 54 73 62 74 55 75 57 76 63 77
REMARK SMILES IDX 56 78 58 79 59 80 60 81 61 82 38 83 39 84 47 85 40 86 42 87
REMARK SMILES IDX 48 88 41 89 43 90 44 91 45 92 46 93
REMARK H PARENT 5 7 81 19 9 27 68 46 36 57
REMARK Flexibility Score: inf
ROOT
ATOM      1  C   UNL A   1      39.041  20.332  25.741  1.00  0.00     0.118 C 
ENDROOT
BRANCH   1   2
ATOM      2  C   UNL A   1      37.845  19.750  24.996  1.00  0.00     0.042 C 
BRANCH   2   3
ATOM      3  C   UNL A   1      36.668  20.721  24.899  1.00  0.00     0.117 C 
BRANCH   3   4
ATOM      4  N   UNL A   1      35.447  20.100  25.371  1.00  0.00    -0.356 N 
ATOM      5  C   UNL A   1      34.144  20.456  25.168  1.00  0.00     0.227 C 
ATOM      6  O   UNL A   1      33.300  19.844  25.830  1.00  0.00    -0.274 OA
ATOM      7  H   UNL A   1      35.577  19.296  25.925  1.00  0.00     0.163 HD
BRANCH   5   8
ATOM      8  C   UNL A   1      33.752  21.492  24.099  1.00  0.00     0.105 C 
ATOM      9  C   UNL A   1      32.415  21.050  23.473  1.00  0.00     0.023 C 
BRANCH   8  10
ATOM     10  C   UNL A   1      33.688  22.938  24.598  1.00  0.00    -0.034 A 
ATOM     11  C   UNL A   1      34.783  23.793  24.397  1.00  0.00     0.005 A 
ATOM     12  C   UNL A   1      32.541  23.456  25.229  1.00  0.00     0.031 A 
ATOM     13  C   UNL A   1      34.804  25.108  24.885  1.00  0.00     0.011 A 
ATOM     14  C   UNL A   1      32.548  24.798  25.644  1.00  0.00     0.047 A 
ATOM     15  C   UNL A   1      33.663  25.623  25.520  1.00  0.00     0.007 A 
ATOM     16  N   UNL A   1      31.556  25.554  26.225  1.00  0.00    -0.355 N 
ATOM     17  C   UNL A   1      33.346  26.874  26.135  1.00  0.00     0.009 A 
ATOM     18  C   UNL A   1      32.018  26.806  26.556  1.00  0.00     0.047 A 
ATOM     19  H   UNL A   1      30.637  25.239  26.384  1.00  0.00     0.167 HD
ATOM     20  C   UNL A   1      34.073  28.057  26.380  1.00  0.00     0.031 A 
ATOM     21  C   UNL A   1      31.372  27.865  27.206  1.00  0.00     0.028 A 
ATOM     22  C   UNL A   1      33.445  29.116  27.043  1.00  0.00     0.041 A 
ATOM     23  C   UNL A   1      32.118  29.023  27.453  1.00  0.00     0.022 A 
ATOM     24  Cl  UNL A   1      34.328  30.565  27.334  1.00  0.00    -0.084 Cl
ENDBRANCH   8  10
ENDBRANCH   5   8
ENDBRANCH   3   4
ENDBRANCH   2   3
ENDBRANCH   1   2
BRANCH   1  25
ATOM     25  N   UNL A   1      40.074  19.328  25.955  1.00  0.00    -0.352 N 
ATOM     26  C   UNL A   1      41.432  19.478  26.087  1.00  0.00     0.251 C 
ATOM     27  H   UNL A   1      39.749  18.401  26.013  1.00  0.00     0.163 HD
ATOM     28  O   UNL A   1      42.148  18.484  25.990  1.00  0.00    -0.269 OA
BRANCH  26  29
ATOM     29  C   UNL A   1      42.040  20.805  26.351  1.00  0.00     0.039 A 
ATOM     30  C   UNL A   1      42.288  21.178  27.676  1.00  0.00     0.014 A 
ATOM     31  C   UNL A   1      42.290  21.715  25.320  1.00  0.00     0.014 A 
ATOM     32  C   UNL A   1      42.797  22.449  27.963  1.00  0.00     0.010 A 
ATOM     33  C   UNL A   1      42.873  22.950  25.600  1.00  0.00     0.010 A 
ATOM     34  C   UNL A   1      43.103  23.343  26.926  1.00  0.00    -0.014 A 
BRANCH  34  35
ATOM     35  C   UNL A   1      43.619  24.707  27.211  1.00  0.00     0.031 A 
ATOM     36  C   UNL A   1      42.690  25.778  27.722  1.00  0.00     0.074 A 
ATOM     37  C   UNL A   1      44.907  25.004  26.947  1.00  0.00     0.049 A 
ATOM     38  N   UNL A   1      42.943  27.032  27.994  1.00  0.00    -0.248 NA
ATOM     39  C   UNL A   1      41.281  25.398  27.928  1.00  0.00     0.031 C 
ATOM     40  C   UNL A   1      45.888  24.080  26.374  1.00  0.00     0.029 A 
ATOM     41  N   UNL A   1      45.607  26.174  27.104  1.00  0.00    -0.354 N 
ATOM     42  C   UNL A   1      41.726  27.598  28.355  1.00  0.00     0.074 A 
ATOM     43  C   UNL A   1      40.726  26.561  28.239  1.00  0.00     0.031 C 
ATOM     44  C   UNL A   1      47.062  24.715  26.236  1.00  0.00     0.029 A 
ATOM     45  C   UNL A   1      46.915  26.094  26.687  1.00  0.00     0.049 A 
ATOM     46  H   UNL A   1      45.210  26.993  27.480  1.00  0.00     0.167 HD
ATOM     47  C   UNL A   1      41.465  28.860  28.778  1.00  0.00     0.034 A 
ATOM     48  C   UNL A   1      47.886  27.029  26.674  1.00  0.00     0.034 A 
ATOM     49  C   UNL A   1      42.472  29.870  28.954  1.00  0.00     0.049 A 
ATOM     50  C   UNL A   1      47.588  28.400  27.218  1.00  0.00     0.074 A 
ATOM     51  C   UNL A   1      42.332  31.145  29.471  1.00  0.00     0.029 A 
ATOM     52  N   UNL A   1      43.809  29.721  28.619  1.00  0.00    -0.354 N 
ATOM     53  N   UNL A   1      46.467  28.867  27.710  1.00  0.00    -0.248 NA
ATOM     54  C   UNL A   1      48.701  29.360  27.244  1.00  0.00     0.031 C 
ATOM     55  C   UNL A   1      43.582  31.773  29.435  1.00  0.00     0.029 A 
ATOM     56  C   UNL A   1      44.504  30.880  28.913  1.00  0.00     0.049 A 
ATOM     57  H   UNL A   1      44.205  28.908  28.228  1.00  0.00     0.167 HD
ATOM     58  C   UNL A   1      46.746  30.160  28.138  1.00  0.00     0.074 A 
ATOM     59  C   UNL A   1      48.150  30.394  27.866  1.00  0.00     0.031 C 
ATOM     60  C   UNL A   1      45.914  31.077  28.690  1.00  0.00     0.034 A 
BRANCH  47  61
ATOM     61  C   UNL A   1      40.041  29.200  29.138  1.00  0.00     0.023 A 
ATOM     62  C   UNL A   1      39.115  29.491  28.115  1.00  0.00     0.012 A 
ATOM     63  C   UNL A   1      39.604  29.180  30.477  1.00  0.00     0.148 A 
ATOM     64  C   UNL A   1      37.788  29.792  28.419  1.00  0.00     0.002 A 
ATOM     65  C   UNL A   1      38.269  29.437  30.770  1.00  0.00     0.091 A 
ATOM     66  F   UNL A   1      40.501  28.922  31.439  1.00  0.00    -0.205 F 
ATOM     67  C   UNL A   1      37.364  29.755  29.744  1.00  0.00     0.022 A 
BRANCH  65  68
ATOM     68  S   UNL A   1      37.605  29.336  32.436  1.00  0.00     0.127 S 
ATOM     69  O   UNL A   1      38.474  30.266  33.157  1.00  0.00    -0.237 OA
ATOM     70  O   UNL A   1      36.231  29.806  32.251  1.00  0.00    -0.237 OA
ATOM     71  O   UNL A   1      37.719  27.939  32.830  1.00  0.00    -0.744 OA
ENDBRANCH  65  68
ENDBRANCH  47  61
BRANCH  48  72
ATOM     72  C   UNL A   1      49.256  26.670  26.209  1.00  0.00     0.023 A 
ATOM     73  C   UNL A   1      50.047  25.813  26.999  1.00  0.00     0.012 A 
ATOM     74  C   UNL A   1      49.767  27.142  24.985  1.00  0.00     0.148 A 
ATOM     75  C   UNL A   1      51.334  25.457  26.593  1.00  0.00     0.002 A 
ATOM     76  C   UNL A   1      51.031  26.743  24.563  1.00  0.00     0.091 A 
ATOM     77  F   UNL A   1      49.004  27.968  24.253  1.00  0.00    -0.205 F 
ATOM     78  C   UNL A   1      51.822  25.913  25.372  1.00  0.00     0.022 A 
BRANCH  76  79
ATOM     79  S   UNL A   1      51.688  27.184  22.949  1.00  0.00     0.127 S 
ATOM     80  O   UNL A   1      52.882  26.346  22.874  1.00  0.00    -0.237 OA
ATOM     81  O   UNL A   1      50.599  26.785  22.059  1.00  0.00    -0.237 OA
ATOM     82  O   UNL A   1      51.924  28.621  23.005  1.00  0.00    -0.744 OA
ENDBRANCH  76  79
ENDBRANCH  48  72
BRANCH  60  83
ATOM     83  C   UNL A   1      46.501  32.408  29.077  1.00  0.00     0.023 A 
ATOM     84  C   UNL A   1      47.079  32.575  30.350  1.00  0.00     0.012 A 
ATOM     85  C   UNL A   1      46.544  33.471  28.153  1.00  0.00     0.148 A 
ATOM     86  C   UNL A   1      47.661  33.789  30.711  1.00  0.00     0.002 A 
ATOM     87  C   UNL A   1      47.168  34.663  28.502  1.00  0.00     0.091 A 
ATOM     88  F   UNL A   1      45.970  33.300  26.952  1.00  0.00    -0.205 F 
ATOM     89  C   UNL A   1      47.716  34.828  29.784  1.00  0.00     0.022 A 
BRANCH  87  90
ATOM     90  S   UNL A   1      47.369  36.015  27.336  1.00  0.00     0.127 S 
ATOM     91  O   UNL A   1      48.175  35.389  26.290  1.00  0.00    -0.237 OA
ATOM     92  O   UNL A   1      45.987  36.304  26.950  1.00  0.00    -0.237 OA
ATOM     93  O   UNL A   1      48.022  37.086  28.078  1.00  0.00    -0.744 OA
ENDBRANCH  87  90
ENDBRANCH  60  83
ENDBRANCH  34  35
ENDBRANCH  26  29
ENDBRANCH   1  25
TORSDOF 14
ENDMDL
MODEL 3
REMARK VINA RESULT:     -12.5      6.072     11.938
REMARK SMILES C[C@H](C(=O)NCCCNC(=O)c1ccc(-c2c3nc(c(-c4cccc(S(=O)(=O)[O-])c4F)c4ccc([nH]4)c(-c4cccc(S(=O)(=O)[O-])c4F)c4nc(c(-c5cccc(S(=O)(=O)[O-])c5F)c5ccc2[nH]5)C=C4)C=C3)cc1)c1ccc2c(c1)[nH]c1ccc(Cl)cc12
REMARK SMILES IDX 8 1 7 2 6 3 5 4 3 5 4 6 2 8 1 9 75 10 76 11 80 12 77 13
REMARK SMILES IDX 79 14 78 15 81 16 88 17 82 18 87 20 83 21 85 22 84 23 86 24
REMARK SMILES IDX 9 25 10 26 11 28 12 29 13 30 74 31 14 32 73 33 15 34 16 35
REMARK SMILES IDX 17 36 67 37 18 38 72 39 66 40 68 41 19 42 71 43 65 44 64 45
REMARK SMILES IDX 20 47 52 48 32 49 51 50 33 51 36 52 50 53 69 54 34 55 35 56
REMARK SMILES IDX 49 58 70 59 37 60 21 61 22 62 30 63 23 64 25 65 31 66 24 67
REMARK SMILES IDX 26 68 27 69 28 70 29 71 53 72 54 73 62 74 55 75 57 76 63 77
REMARK SMILES IDX 56 78 58 79 59 80 60 81 61 82 38 83 39 84 47 85 40 86 42 87
REMARK SMILES IDX 48 88 41 89 43 90 44 91 45 92 46 93
REMARK H PARENT 5 7 81 19 9 27 68 46 36 57
REMARK Flexibility Score: inf
ROOT
ATOM      1  C   UNL A   1      39.095  20.222  25.861  1.00  0.00     0.118 C 
ENDROOT
BRANCH   1   2
ATOM      2  C   UNL A   1      37.966  19.680  24.994  1.00  0.00     0.042 C 
BRANCH   2   3
ATOM      3  C   UNL A   1      36.898  20.726  24.675  1.00  0.00     0.117 C 
BRANCH   3   4
ATOM      4  N   UNL A   1      35.887  20.764  25.712  1.00  0.00    -0.356 N 
ATOM      5  C   UNL A   1      34.545  21.006  25.624  1.00  0.00     0.227 C 
ATOM      6  O   UNL A   1      33.944  21.145  26.694  1.00  0.00    -0.274 OA
ATOM      7  H   UNL A   1      36.219  20.589  26.623  1.00  0.00     0.163 HD
BRANCH   5   8
ATOM      8  C   UNL A   1      33.816  21.002  24.268  1.00  0.00     0.105 C 
ATOM      9  C   UNL A   1      32.819  19.826  24.266  1.00  0.00     0.023 C 
BRANCH   8  10
ATOM     10  C   UNL A   1      33.130  22.321  23.905  1.00  0.00    -0.034 A 
ATOM     11  C   UNL A   1      33.756  23.211  23.018  1.00  0.00     0.005 A 
ATOM     12  C   UNL A   1      31.860  22.661  24.408  1.00  0.00     0.031 A 
ATOM     13  C   UNL A   1      33.203  24.458  22.695  1.00  0.00     0.011 A 
ATOM     14  C   UNL A   1      31.284  23.881  24.016  1.00  0.00     0.047 A 
ATOM     15  C   UNL A   1      31.940  24.801  23.203  1.00  0.00     0.007 A 
ATOM     16  N   UNL A   1      30.054  24.419  24.314  1.00  0.00    -0.355 N 
ATOM     17  C   UNL A   1      31.106  25.958  23.098  1.00  0.00     0.009 A 
ATOM     18  C   UNL A   1      29.928  25.686  23.793  1.00  0.00     0.047 A 
ATOM     19  H   UNL A   1      29.354  23.959  24.833  1.00  0.00     0.167 HD
ATOM     20  C   UNL A   1      31.252  27.218  22.482  1.00  0.00     0.031 A 
ATOM     21  C   UNL A   1      28.879  26.607  23.899  1.00  0.00     0.028 A 
ATOM     22  C   UNL A   1      30.219  28.153  22.595  1.00  0.00     0.041 A 
ATOM     23  C   UNL A   1      29.052  27.857  23.294  1.00  0.00     0.022 A 
ATOM     24  Cl  UNL A   1      30.391  29.688  21.834  1.00  0.00    -0.084 Cl
ENDBRANCH   8  10
ENDBRANCH   5   8
ENDBRANCH   3   4
ENDBRANCH   2   3
ENDBRANCH   1   2
BRANCH   1  25
ATOM     25  N   UNL A   1      40.150  19.234  26.040  1.00  0.00    -0.352 N 
ATOM     26  C   UNL A   1      41.509  19.406  26.131  1.00  0.00     0.251 C 
ATOM     27  H   UNL A   1      39.842  18.302  26.104  1.00  0.00     0.163 HD
ATOM     28  O   UNL A   1      42.238  18.423  26.008  1.00  0.00    -0.269 OA
BRANCH  26  29
ATOM     29  C   UNL A   1      42.104  20.741  26.381  1.00  0.00     0.039 A 
ATOM     30  C   UNL A   1      42.319  21.142  27.704  1.00  0.00     0.014 A 
ATOM     31  C   UNL A   1      42.373  21.631  25.337  1.00  0.00     0.014 A 
ATOM     32  C   UNL A   1      42.815  22.422  27.976  1.00  0.00     0.010 A 
ATOM     33  C   UNL A   1      42.943  22.875  25.605  1.00  0.00     0.010 A 
ATOM     34  C   UNL A   1      43.140  23.297  26.927  1.00  0.00    -0.014 A 
BRANCH  34  35
ATOM     35  C   UNL A   1      43.643  24.669  27.196  1.00  0.00     0.031 A 
ATOM     36  C   UNL A   1      42.708  25.729  27.721  1.00  0.00     0.074 A 
ATOM     37  C   UNL A   1      44.921  24.982  26.905  1.00  0.00     0.049 A 
ATOM     38  N   UNL A   1      42.949  26.988  27.982  1.00  0.00    -0.248 NA
ATOM     39  C   UNL A   1      41.309  25.331  27.956  1.00  0.00     0.031 C 
ATOM     40  C   UNL A   1      45.903  24.070  26.317  1.00  0.00     0.029 A 
ATOM     41  N   UNL A   1      45.607  26.163  27.043  1.00  0.00    -0.354 N 
ATOM     42  C   UNL A   1      41.731  27.539  28.364  1.00  0.00     0.074 A 
ATOM     43  C   UNL A   1      40.745  26.487  28.272  1.00  0.00     0.031 C 
ATOM     44  C   UNL A   1      47.065  24.721  26.152  1.00  0.00     0.029 A 
ATOM     45  C   UNL A   1      46.908  26.100  26.601  1.00  0.00     0.049 A 
ATOM     46  H   UNL A   1      45.206  26.978  27.423  1.00  0.00     0.167 HD
ATOM     47  C   UNL A   1      41.461  28.798  28.786  1.00  0.00     0.034 A 
ATOM     48  C   UNL A   1      47.865  27.048  26.563  1.00  0.00     0.034 A 
ATOM     49  C   UNL A   1      42.457  29.824  28.937  1.00  0.00     0.049 A 
ATOM     50  C   UNL A   1      47.558  28.418  27.107  1.00  0.00     0.074 A 
ATOM     51  C   UNL A   1      42.309  31.099  29.452  1.00  0.00     0.029 A 
ATOM     52  N   UNL A   1      43.789  29.691  28.576  1.00  0.00    -0.354 N 
ATOM     53  N   UNL A   1      46.440  28.871  27.619  1.00  0.00    -0.248 NA
ATOM     54  C   UNL A   1      48.658  29.393  27.106  1.00  0.00     0.031 C 
ATOM     55  C   UNL A   1      43.549  31.744  29.387  1.00  0.00     0.029 A 
ATOM     56  C   UNL A   1      44.474  30.862  28.852  1.00  0.00     0.049 A 
ATOM     57  H   UNL A   1      44.189  28.882  28.181  1.00  0.00     0.167 HD
ATOM     58  C   UNL A   1      46.710  30.170  28.036  1.00  0.00     0.074 A 
ATOM     59  C   UNL A   1      48.105  30.422  27.735  1.00  0.00     0.031 C 
ATOM     60  C   UNL A   1      45.876  31.077  28.600  1.00  0.00     0.034 A 
BRANCH  47  61
ATOM     61  C   UNL A   1      40.040  29.121  29.173  1.00  0.00     0.023 A 
ATOM     62  C   UNL A   1      39.092  29.402  28.168  1.00  0.00     0.012 A 
ATOM     63  C   UNL A   1      39.628  29.092  30.520  1.00  0.00     0.148 A 
ATOM     64  C   UNL A   1      37.768  29.687  28.496  1.00  0.00     0.002 A 
ATOM     65  C   UNL A   1      38.295  29.332  30.837  1.00  0.00     0.091 A 
ATOM     66  F   UNL A   1      40.545  28.843  31.465  1.00  0.00    -0.205 F 
ATOM     67  C   UNL A   1      37.368  29.642  29.829  1.00  0.00     0.022 A 
BRANCH  65  68
ATOM     68  S   UNL A   1      37.663  29.219  32.515  1.00  0.00     0.127 S 
ATOM     69  O   UNL A   1      38.558  30.129  33.229  1.00  0.00    -0.237 OA
ATOM     70  O   UNL A   1      36.292  29.709  32.362  1.00  0.00    -0.237 OA
ATOM     71  O   UNL A   1      37.767  27.816  32.889  1.00  0.00    -0.744 OA
ENDBRANCH  65  68
ENDBRANCH  47  61
BRANCH  48  72
ATOM     72  C   UNL A   1      49.230  26.706  26.073  1.00  0.00     0.023 A 
ATOM     73  C   UNL A   1      50.077  25.926  26.885  1.00  0.00     0.012 A 
ATOM     74  C   UNL A   1      49.683  27.118  24.805  1.00  0.00     0.148 A 
ATOM     75  C   UNL A   1      51.361  25.588  26.457  1.00  0.00     0.002 A 
ATOM     76  C   UNL A   1      50.945  26.736  24.364  1.00  0.00     0.091 A 
ATOM     77  F   UNL A   1      48.868  27.872  24.052  1.00  0.00    -0.205 F 
ATOM     78  C   UNL A   1      51.792  25.984  25.194  1.00  0.00     0.022 A 
BRANCH  76  79
ATOM     79  S   UNL A   1      51.533  27.097  22.705  1.00  0.00     0.127 S 
ATOM     80  O   UNL A   1      51.776  28.535  22.780  1.00  0.00    -0.237 OA
ATOM     81  O   UNL A   1      52.738  26.272  22.623  1.00  0.00    -0.237 OA
ATOM     82  O   UNL A   1      50.458  26.681  21.812  1.00  0.00    -0.744 OA
ENDBRANCH  76  79
ENDBRANCH  48  72
BRANCH  60  83
ATOM     83  C   UNL A   1      46.451  32.419  28.968  1.00  0.00     0.023 A 
ATOM     84  C   UNL A   1      47.043  32.603  30.233  1.00  0.00     0.012 A 
ATOM     85  C   UNL A   1      46.470  33.475  28.036  1.00  0.00     0.148 A 
ATOM     86  C   UNL A   1      47.614  33.827  30.578  1.00  0.00     0.002 A 
ATOM     87  C   UNL A   1      47.084  34.676  28.368  1.00  0.00     0.091 A 
ATOM     88  F   UNL A   1      45.884  33.287  26.844  1.00  0.00    -0.205 F 
ATOM     89  C   UNL A   1      47.645  34.859  29.642  1.00  0.00     0.022 A 
BRANCH  87  90
ATOM     90  S   UNL A   1      47.256  36.021  27.189  1.00  0.00     0.127 S 
ATOM     91  O   UNL A   1      45.863  36.289  26.836  1.00  0.00    -0.237 OA
ATOM     92  O   UNL A   1      47.892  37.065  27.995  1.00  0.00    -0.237 OA
ATOM     93  O   UNL A   1      48.089  35.503  26.112  1.00  0.00    -0.744 OA
ENDBRANCH  87  90
ENDBRANCH  60  83
ENDBRANCH  34  35
ENDBRANCH  26  29
ENDBRANCH   1  25
TORSDOF 14
ENDMDL
