MODEL 1
REMARK VINA RESULT:     -11.4      0.000      0.000
REMARK SMILES Cc1cscc1-c1noc(SCC(=O)NCCCNC(=O)c2ccc(-c3c4nc(c(-c5cccc(S(=O)(=O)[O-])c5F)c5ccc([nH]5)c(-c5cccc(S(=O)(=O)[O-])c5F)c5nc(c(-c6cccc(S(=O)(=O)[O-])c6F)c6ccc3[nH]6)C=C5)C=C4)cc2)n1
REMARK SMILES IDX 17 1 16 2 15 3 13 4 14 5 12 7 11 8 10 9 7 10 8 11 85 12 9 13
REMARK SMILES IDX 6 14 1 15 2 16 3 17 4 18 5 19 18 20 19 21 20 22 21 24 22 25
REMARK SMILES IDX 23 26 84 27 24 28 83 29 25 30 26 31 27 32 77 33 28 34 82 35
REMARK SMILES IDX 76 36 78 37 29 38 81 39 75 40 74 41 30 43 62 44 42 45 61 46
REMARK SMILES IDX 43 47 46 48 60 49 79 50 44 51 45 52 59 54 80 55 47 56 31 57
REMARK SMILES IDX 32 58 40 59 33 60 35 61 41 62 34 63 36 64 37 65 38 66 39 67
REMARK SMILES IDX 63 68 64 69 72 70 65 71 67 72 73 73 66 74 68 75 69 76 70 77
REMARK SMILES IDX 71 78 48 79 49 80 57 81 50 82 52 83 58 84 51 85 53 86 54 87
REMARK SMILES IDX 55 88 56 89
REMARK H PARENT 15 6 19 23 78 42 46 53
REMARK Flexibility Score: inf
ROOT
ATOM      1  C   UNL A   1      31.607  32.014  26.883  1.00  0.00     0.042 C 
ENDROOT
BRANCH   1   2
ATOM      2  C   UNL A   1      31.882  30.547  26.568  1.00  0.00     0.117 C 
BRANCH   2   3
ATOM      3  N   UNL A   1      33.266  30.186  26.821  1.00  0.00    -0.355 N 
ATOM      4  C   UNL A   1      33.849  28.959  26.938  1.00  0.00     0.230 C 
ATOM      5  O   UNL A   1      35.071  28.927  27.103  1.00  0.00    -0.274 OA
ATOM      6  H   UNL A   1      33.881  30.948  26.925  1.00  0.00     0.163 HD
BRANCH   4   7
ATOM      7  C   UNL A   1      33.051  27.687  26.731  1.00  0.00     0.179 C 
BRANCH   7   8
ATOM      8  S   UNL A   1      33.604  26.664  25.351  1.00  0.00    -0.055 SA
BRANCH   8   9
ATOM      9  C   UNL A   1      32.472  27.049  24.097  1.00  0.00     0.286 A 
ATOM     10  C   UNL A   1      30.915  27.850  22.960  1.00  0.00     0.204 A 
ATOM     11  N   UNL A   1      31.351  26.843  22.196  1.00  0.00    -0.056 NA
ATOM     12  N   UNL A   1      31.578  28.009  24.149  1.00  0.00    -0.181 NA
ATOM     13  O   UNL A   1      32.409  26.324  22.938  1.00  0.00    -0.327 OA
BRANCH  10  14
ATOM     14  C   UNL A   1      29.748  28.666  22.627  1.00  0.00     0.036 A 
ATOM     15  C   UNL A   1      27.980  27.128  23.772  1.00  0.00     0.046 C 
ATOM     16  C   UNL A   1      28.398  28.329  22.987  1.00  0.00    -0.029 A 
ATOM     17  C   UNL A   1      27.521  29.301  22.535  1.00  0.00     0.069 A 
ATOM     18  S   UNL A   1      28.299  30.576  21.705  1.00  0.00    -0.151 S 
ATOM     19  C   UNL A   1      29.832  29.867  21.951  1.00  0.00     0.077 A 
ENDBRANCH  10  14
ENDBRANCH   8   9
ENDBRANCH   7   8
ENDBRANCH   4   7
ENDBRANCH   2   3
ENDBRANCH   1   2
BRANCH   1  20
ATOM     20  C   UNL A   1      32.855  32.829  27.213  1.00  0.00     0.118 C 
BRANCH  20  21
ATOM     21  N   UNL A   1      32.544  34.172  27.680  1.00  0.00    -0.352 N 
ATOM     22  C   UNL A   1      33.076  34.889  28.723  1.00  0.00     0.251 C 
ATOM     23  H   UNL A   1      31.844  34.639  27.168  1.00  0.00     0.163 HD
ATOM     24  O   UNL A   1      32.544  35.949  29.057  1.00  0.00    -0.269 OA
BRANCH  22  25
ATOM     25  C   UNL A   1      34.262  34.395  29.456  1.00  0.00     0.039 A 
ATOM     26  C   UNL A   1      34.084  33.831  30.723  1.00  0.00     0.014 A 
ATOM     27  C   UNL A   1      35.546  34.505  28.917  1.00  0.00     0.014 A 
ATOM     28  C   UNL A   1      35.183  33.320  31.418  1.00  0.00     0.010 A 
ATOM     29  C   UNL A   1      36.628  33.923  29.576  1.00  0.00     0.010 A 
ATOM     30  C   UNL A   1      36.461  33.328  30.835  1.00  0.00    -0.014 A 
BRANCH  30  31
ATOM     31  C   UNL A   1      37.624  32.701  31.517  1.00  0.00     0.031 A 
ATOM     32  C   UNL A   1      38.353  31.546  30.883  1.00  0.00     0.074 A 
ATOM     33  C   UNL A   1      37.973  33.116  32.752  1.00  0.00     0.049 A 
ATOM     34  N   UNL A   1      39.348  30.841  31.354  1.00  0.00    -0.248 NA
ATOM     35  C   UNL A   1      37.889  31.111  29.555  1.00  0.00     0.031 C 
ATOM     36  C   UNL A   1      37.299  34.172  33.510  1.00  0.00     0.029 A 
ATOM     37  N   UNL A   1      38.961  32.680  33.600  1.00  0.00    -0.354 N 
ATOM     38  C   UNL A   1      39.604  29.859  30.405  1.00  0.00     0.074 A 
ATOM     39  C   UNL A   1      38.639  30.040  29.342  1.00  0.00     0.031 C 
ATOM     40  C   UNL A   1      37.892  34.304  34.706  1.00  0.00     0.029 A 
ATOM     41  C   UNL A   1      38.964  33.321  34.819  1.00  0.00     0.049 A 
ATOM     42  H   UNL A   1      39.606  31.975  33.360  1.00  0.00     0.167 HD
ATOM     43  C   UNL A   1      40.569  28.908  30.404  1.00  0.00     0.034 A 
ATOM     44  C   UNL A   1      39.732  33.129  35.910  1.00  0.00     0.034 A 
ATOM     45  C   UNL A   1      41.550  28.751  31.445  1.00  0.00     0.049 A 
ATOM     46  C   UNL A   1      40.816  32.086  35.869  1.00  0.00     0.074 A 
ATOM     47  C   UNL A   1      42.622  27.877  31.491  1.00  0.00     0.029 A 
ATOM     48  N   UNL A   1      41.572  29.472  32.629  1.00  0.00    -0.354 N 
ATOM     49  N   UNL A   1      41.143  31.274  34.894  1.00  0.00    -0.248 NA
ATOM     50  C   UNL A   1      41.660  31.958  37.066  1.00  0.00     0.031 C 
ATOM     51  C   UNL A   1      43.271  28.045  32.719  1.00  0.00     0.029 A 
ATOM     52  C   UNL A   1      42.628  29.053  33.419  1.00  0.00     0.049 A 
ATOM     53  H   UNL A   1      40.930  30.178  32.871  1.00  0.00     0.167 HD
ATOM     54  C   UNL A   1      42.252  30.566  35.344  1.00  0.00     0.074 A 
ATOM     55  C   UNL A   1      42.552  31.060  36.672  1.00  0.00     0.031 C 
ATOM     56  C   UNL A   1      42.950  29.586  34.718  1.00  0.00     0.034 A 
BRANCH  43  57
ATOM     57  C   UNL A   1      40.643  27.981  29.217  1.00  0.00     0.023 A 
ATOM     58  C   UNL A   1      39.767  26.878  29.136  1.00  0.00     0.012 A 
ATOM     59  C   UNL A   1      41.529  28.237  28.153  1.00  0.00     0.148 A 
ATOM     60  C   UNL A   1      39.797  26.026  28.033  1.00  0.00     0.002 A 
ATOM     61  C   UNL A   1      41.520  27.411  27.034  1.00  0.00     0.091 A 
ATOM     62  F   UNL A   1      42.367  29.279  28.255  1.00  0.00    -0.205 F 
ATOM     63  C   UNL A   1      40.664  26.298  26.979  1.00  0.00     0.022 A 
BRANCH  61  64
ATOM     64  S   UNL A   1      42.538  27.722  25.589  1.00  0.00     0.127 S 
ATOM     65  O   UNL A   1      42.288  26.525  24.788  1.00  0.00    -0.237 OA
ATOM     66  O   UNL A   1      41.944  28.948  25.054  1.00  0.00    -0.237 OA
ATOM     67  O   UNL A   1      43.902  27.871  26.079  1.00  0.00    -0.744 OA
ENDBRANCH  61  64
ENDBRANCH  43  57
BRANCH  44  68
ATOM     68  C   UNL A   1      39.537  33.981  37.117  1.00  0.00     0.023 A 
ATOM     69  C   UNL A   1      39.973  35.320  37.102  1.00  0.00     0.012 A 
ATOM     70  C   UNL A   1      38.902  33.479  38.270  1.00  0.00     0.148 A 
ATOM     71  C   UNL A   1      39.814  36.133  38.224  1.00  0.00     0.002 A 
ATOM     72  C   UNL A   1      38.694  34.312  39.363  1.00  0.00     0.091 A 
ATOM     73  F   UNL A   1      38.502  32.200  38.267  1.00  0.00    -0.205 F 
ATOM     74  C   UNL A   1      39.166  35.632  39.350  1.00  0.00     0.022 A 
BRANCH  72  75
ATOM     75  S   UNL A   1      37.751  33.794  40.802  1.00  0.00     0.127 S 
ATOM     76  O   UNL A   1      36.565  33.205  40.186  1.00  0.00    -0.237 OA
ATOM     77  O   UNL A   1      38.663  32.835  41.428  1.00  0.00    -0.237 OA
ATOM     78  O   UNL A   1      37.526  35.003  41.581  1.00  0.00    -0.744 OA
ENDBRANCH  72  75
ENDBRANCH  44  68
BRANCH  56  79
ATOM     79  C   UNL A   1      44.141  29.005  35.437  1.00  0.00     0.023 A 
ATOM     80  C   UNL A   1      45.408  29.606  35.304  1.00  0.00     0.012 A 
ATOM     81  C   UNL A   1      43.985  27.903  36.302  1.00  0.00     0.148 A 
ATOM     82  C   UNL A   1      46.509  29.099  35.994  1.00  0.00     0.002 A 
ATOM     83  C   UNL A   1      45.075  27.437  37.027  1.00  0.00     0.091 A 
ATOM     84  F   UNL A   1      42.776  27.334  36.401  1.00  0.00    -0.205 F 
ATOM     85  C   UNL A   1      46.340  28.024  36.864  1.00  0.00     0.022 A 
BRANCH  83  86
ATOM     86  S   UNL A   1      44.932  26.122  38.243  1.00  0.00     0.127 S 
ATOM     87  O   UNL A   1      43.769  26.556  39.016  1.00  0.00    -0.237 OA
ATOM     88  O   UNL A   1      44.700  24.947  37.402  1.00  0.00    -0.237 OA
ATOM     89  O   UNL A   1      46.193  26.105  38.971  1.00  0.00    -0.744 OA
ENDBRANCH  83  86
ENDBRANCH  56  79
ENDBRANCH  30  31
ENDBRANCH  22  25
ENDBRANCH  20  21
ENDBRANCH   1  20
TORSDOF 16
ENDMDL
MODEL 2
REMARK VINA RESULT:     -11.3      1.958      3.012
REMARK SMILES Cc1cscc1-c1noc(SCC(=O)NCCCNC(=O)c2ccc(-c3c4nc(c(-c5cccc(S(=O)(=O)[O-])c5F)c5ccc([nH]5)c(-c5cccc(S(=O)(=O)[O-])c5F)c5nc(c(-c6cccc(S(=O)(=O)[O-])c6F)c6ccc3[nH]6)C=C5)C=C4)cc2)n1
REMARK SMILES IDX 17 1 16 2 15 3 13 4 14 5 12 7 11 8 10 9 7 10 8 11 85 12 9 13
REMARK SMILES IDX 6 14 1 15 2 16 3 17 4 18 5 19 18 20 19 21 20 22 21 24 22 25
REMARK SMILES IDX 23 26 84 27 24 28 83 29 25 30 26 31 27 32 77 33 28 34 82 35
REMARK SMILES IDX 76 36 78 37 29 38 81 39 75 40 74 41 30 43 62 44 42 45 61 46
REMARK SMILES IDX 43 47 46 48 60 49 79 50 44 51 45 52 59 54 80 55 47 56 31 57
REMARK SMILES IDX 32 58 40 59 33 60 35 61 41 62 34 63 36 64 37 65 38 66 39 67
REMARK SMILES IDX 63 68 64 69 72 70 65 71 67 72 73 73 66 74 68 75 69 76 70 77
REMARK SMILES IDX 71 78 48 79 49 80 57 81 50 82 52 83 58 84 51 85 53 86 54 87
REMARK SMILES IDX 55 88 56 89
REMARK H PARENT 15 6 19 23 78 42 46 53
REMARK Flexibility Score: inf
ROOT
ATOM      1  C   UNL A   1      31.489  31.626  26.536  1.00  0.00     0.042 C 
ENDROOT
BRANCH   1   2
ATOM      2  C   UNL A   1      31.836  30.372  25.740  1.00  0.00     0.117 C 
BRANCH   2   3
ATOM      3  N   UNL A   1      31.670  29.163  26.528  1.00  0.00    -0.355 N 
ATOM      4  C   UNL A   1      31.649  27.856  26.141  1.00  0.00     0.230 C 
ATOM      5  O   UNL A   1      31.544  27.005  27.029  1.00  0.00    -0.274 OA
ATOM      6  H   UNL A   1      31.554  29.311  27.495  1.00  0.00     0.163 HD
BRANCH   4   7
ATOM      7  C   UNL A   1      31.885  27.459  24.697  1.00  0.00     0.179 C 
BRANCH   7   8
ATOM      8  S   UNL A   1      33.613  27.169  24.267  1.00  0.00    -0.055 SA
BRANCH   8   9
ATOM      9  C   UNL A   1      33.606  25.535  23.690  1.00  0.00     0.286 A 
ATOM     10  C   UNL A   1      33.558  23.454  23.520  1.00  0.00     0.204 A 
ATOM     11  N   UNL A   1      33.862  23.845  22.278  1.00  0.00    -0.056 NA
ATOM     12  N   UNL A   1      33.396  24.470  24.427  1.00  0.00    -0.181 NA
ATOM     13  O   UNL A   1      33.867  25.235  22.381  1.00  0.00    -0.327 OA
BRANCH  10  14
ATOM     14  C   UNL A   1      33.504  22.052  23.933  1.00  0.00     0.036 A 
ATOM     15  C   UNL A   1      35.916  21.947  24.920  1.00  0.00     0.046 C 
ATOM     16  C   UNL A   1      34.591  21.355  24.563  1.00  0.00    -0.029 A 
ATOM     17  C   UNL A   1      34.231  20.046  24.836  1.00  0.00     0.069 A 
ATOM     18  S   UNL A   1      32.636  19.672  24.348  1.00  0.00    -0.151 S 
ATOM     19  C   UNL A   1      32.384  21.261  23.781  1.00  0.00     0.077 A 
ENDBRANCH  10  14
ENDBRANCH   8   9
ENDBRANCH   7   8
ENDBRANCH   4   7
ENDBRANCH   2   3
ENDBRANCH   1   2
BRANCH   1  20
ATOM     20  C   UNL A   1      32.672  32.245  27.277  1.00  0.00     0.118 C 
BRANCH  20  21
ATOM     21  N   UNL A   1      32.490  33.666  27.541  1.00  0.00    -0.352 N 
ATOM     22  C   UNL A   1      33.120  34.481  28.448  1.00  0.00     0.251 C 
ATOM     23  H   UNL A   1      31.812  34.110  26.984  1.00  0.00     0.163 HD
ATOM     24  O   UNL A   1      32.690  35.621  28.630  1.00  0.00    -0.269 OA
BRANCH  22  25
ATOM     25  C   UNL A   1      34.290  34.002  29.216  1.00  0.00     0.039 A 
ATOM     26  C   UNL A   1      34.076  33.194  30.337  1.00  0.00     0.014 A 
ATOM     27  C   UNL A   1      35.592  34.360  28.855  1.00  0.00     0.014 A 
ATOM     28  C   UNL A   1      35.165  32.695  31.054  1.00  0.00     0.010 A 
ATOM     29  C   UNL A   1      36.678  33.797  29.523  1.00  0.00     0.010 A 
ATOM     30  C   UNL A   1      36.479  32.962  30.632  1.00  0.00    -0.014 A 
BRANCH  30  31
ATOM     31  C   UNL A   1      37.648  32.359  31.325  1.00  0.00     0.031 A 
ATOM     32  C   UNL A   1      38.399  31.211  30.702  1.00  0.00     0.074 A 
ATOM     33  C   UNL A   1      37.985  32.789  32.558  1.00  0.00     0.049 A 
ATOM     34  N   UNL A   1      39.404  30.526  31.183  1.00  0.00    -0.248 NA
ATOM     35  C   UNL A   1      37.947  30.758  29.376  1.00  0.00     0.031 C 
ATOM     36  C   UNL A   1      37.291  33.840  33.304  1.00  0.00     0.029 A 
ATOM     37  N   UNL A   1      38.976  32.376  33.413  1.00  0.00    -0.354 N 
ATOM     38  C   UNL A   1      39.680  29.541  30.243  1.00  0.00     0.074 A 
ATOM     39  C   UNL A   1      38.716  29.698  29.175  1.00  0.00     0.031 C 
ATOM     40  C   UNL A   1      37.877  33.991  34.502  1.00  0.00     0.029 A 
ATOM     41  C   UNL A   1      38.964  33.026  34.626  1.00  0.00     0.049 A 
ATOM     42  H   UNL A   1      39.634  31.680  33.181  1.00  0.00     0.167 HD
ATOM     43  C   UNL A   1      40.660  28.606  30.253  1.00  0.00     0.034 A 
ATOM     44  C   UNL A   1      39.730  32.856  35.722  1.00  0.00     0.034 A 
ATOM     45  C   UNL A   1      41.638  28.474  31.300  1.00  0.00     0.049 A 
ATOM     46  C   UNL A   1      40.831  31.831  35.694  1.00  0.00     0.074 A 
ATOM     47  C   UNL A   1      42.724  27.618  31.357  1.00  0.00     0.029 A 
ATOM     48  N   UNL A   1      41.643  29.204  32.478  1.00  0.00    -0.354 N 
ATOM     49  N   UNL A   1      41.176  31.016  34.727  1.00  0.00    -0.248 NA
ATOM     50  C   UNL A   1      41.672  31.725  36.896  1.00  0.00     0.031 C 
ATOM     51  C   UNL A   1      43.365  27.806  32.586  1.00  0.00     0.029 A 
ATOM     52  C   UNL A   1      42.703  28.809  33.276  1.00  0.00     0.049 A 
ATOM     53  H   UNL A   1      40.989  29.901  32.712  1.00  0.00     0.167 HD
ATOM     54  C   UNL A   1      42.294  30.329  35.187  1.00  0.00     0.074 A 
ATOM     55  C   UNL A   1      42.580  30.839  36.513  1.00  0.00     0.031 C 
ATOM     56  C   UNL A   1      43.011  29.356  34.572  1.00  0.00     0.034 A 
BRANCH  43  57
ATOM     57  C   UNL A   1      40.754  27.671  29.074  1.00  0.00     0.023 A 
ATOM     58  C   UNL A   1      39.881  26.566  28.987  1.00  0.00     0.012 A 
ATOM     59  C   UNL A   1      41.656  27.921  28.022  1.00  0.00     0.148 A 
ATOM     60  C   UNL A   1      39.930  25.706  27.890  1.00  0.00     0.002 A 
ATOM     61  C   UNL A   1      41.666  27.088  26.909  1.00  0.00     0.091 A 
ATOM     62  F   UNL A   1      42.491  28.966  28.130  1.00  0.00    -0.205 F 
ATOM     63  C   UNL A   1      40.813  25.973  26.849  1.00  0.00     0.022 A 
BRANCH  61  64
ATOM     64  S   UNL A   1      42.707  27.391  25.478  1.00  0.00     0.127 S 
ATOM     65  O   UNL A   1      42.094  28.595  24.918  1.00  0.00    -0.237 OA
ATOM     66  O   UNL A   1      44.018  27.605  26.092  1.00  0.00    -0.237 OA
ATOM     67  O   UNL A   1      42.610  26.199  24.648  1.00  0.00    -0.744 OA
ENDBRANCH  61  64
ENDBRANCH  43  57
BRANCH  44  68
ATOM     68  C   UNL A   1      39.516  33.714  36.922  1.00  0.00     0.023 A 
ATOM     69  C   UNL A   1      39.917  35.063  36.893  1.00  0.00     0.012 A 
ATOM     70  C   UNL A   1      38.897  33.207  38.081  1.00  0.00     0.148 A 
ATOM     71  C   UNL A   1      39.740  35.883  38.008  1.00  0.00     0.002 A 
ATOM     72  C   UNL A   1      38.670  34.044  39.167  1.00  0.00     0.091 A 
ATOM     73  F   UNL A   1      38.530  31.917  38.092  1.00  0.00    -0.205 F 
ATOM     74  C   UNL A   1      39.108  35.376  39.140  1.00  0.00     0.022 A 
BRANCH  72  75
ATOM     75  S   UNL A   1      37.745  33.516  40.613  1.00  0.00     0.127 S 
ATOM     76  O   UNL A   1      37.655  34.756  41.380  1.00  0.00    -0.237 OA
ATOM     77  O   UNL A   1      36.486  33.068  40.016  1.00  0.00    -0.237 OA
ATOM     78  O   UNL A   1      38.533  32.453  41.219  1.00  0.00    -0.744 OA
ENDBRANCH  72  75
ENDBRANCH  44  68
BRANCH  56  79
ATOM     79  C   UNL A   1      44.208  28.801  35.300  1.00  0.00     0.023 A 
ATOM     80  C   UNL A   1      45.481  29.371  35.104  1.00  0.00     0.012 A 
ATOM     81  C   UNL A   1      44.054  27.757  36.235  1.00  0.00     0.148 A 
ATOM     82  C   UNL A   1      46.589  28.888  35.801  1.00  0.00     0.002 A 
ATOM     83  C   UNL A   1      45.152  27.318  36.965  1.00  0.00     0.091 A 
ATOM     84  F   UNL A   1      42.838  27.216  36.394  1.00  0.00    -0.205 F 
ATOM     85  C   UNL A   1      46.422  27.872  36.740  1.00  0.00     0.022 A 
BRANCH  83  86
ATOM     86  S   UNL A   1      45.014  26.083  38.262  1.00  0.00     0.127 S 
ATOM     87  O   UNL A   1      46.416  25.865  38.617  1.00  0.00    -0.237 OA
ATOM     88  O   UNL A   1      44.231  26.788  39.278  1.00  0.00    -0.237 OA
ATOM     89  O   UNL A   1      44.338  24.941  37.663  1.00  0.00    -0.744 OA
ENDBRANCH  83  86
ENDBRANCH  56  79
ENDBRANCH  30  31
ENDBRANCH  22  25
ENDBRANCH  20  21
ENDBRANCH   1  20
TORSDOF 16
ENDMDL
MODEL 3
REMARK VINA RESULT:     -11.2      2.344      3.605
REMARK SMILES Cc1cscc1-c1noc(SCC(=O)NCCCNC(=O)c2ccc(-c3c4nc(c(-c5cccc(S(=O)(=O)[O-])c5F)c5ccc([nH]5)c(-c5cccc(S(=O)(=O)[O-])c5F)c5nc(c(-c6cccc(S(=O)(=O)[O-])c6F)c6ccc3[nH]6)C=C5)C=C4)cc2)n1
REMARK SMILES IDX 17 1 16 2 15 3 13 4 14 5 12 7 11 8 10 9 7 10 8 11 85 12 9 13
REMARK SMILES IDX 6 14 1 15 2 16 3 17 4 18 5 19 18 20 19 21 20 22 21 24 22 25
REMARK SMILES IDX 23 26 84 27 24 28 83 29 25 30 26 31 27 32 77 33 28 34 82 35
REMARK SMILES IDX 76 36 78 37 29 38 81 39 75 40 74 41 30 43 62 44 42 45 61 46
REMARK SMILES IDX 43 47 46 48 60 49 79 50 44 51 45 52 59 54 80 55 47 56 31 57
REMARK SMILES IDX 32 58 40 59 33 60 35 61 41 62 34 63 36 64 37 65 38 66 39 67
REMARK SMILES IDX 63 68 64 69 72 70 65 71 67 72 73 73 66 74 68 75 69 76 70 77
REMARK SMILES IDX 71 78 48 79 49 80 57 81 50 82 52 83 58 84 51 85 53 86 54 87
REMARK SMILES IDX 55 88 56 89
REMARK H PARENT 15 6 19 23 78 42 46 53
REMARK Flexibility Score: inf
ROOT
ATOM      1  C   UNL A   1      31.009  31.314  25.768  1.00  0.00     0.042 C 
ENDROOT
BRANCH   1   2
ATOM      2  C   UNL A   1      31.269  30.022  25.001  1.00  0.00     0.117 C 
BRANCH   2   3
ATOM      3  N   UNL A   1      30.608  30.014  23.707  1.00  0.00    -0.355 N 
ATOM      4  C   UNL A   1      30.351  28.980  22.856  1.00  0.00     0.230 C 
ATOM      5  O   UNL A   1      29.719  29.238  21.828  1.00  0.00    -0.274 OA
ATOM      6  H   UNL A   1      30.297  30.895  23.395  1.00  0.00     0.163 HD
BRANCH   4   7
ATOM      7  C   UNL A   1      30.702  27.552  23.225  1.00  0.00     0.179 C 
BRANCH   7   8
ATOM      8  S   UNL A   1      29.381  26.637  24.044  1.00  0.00    -0.055 SA
BRANCH   8   9
ATOM      9  C   UNL A   1      30.236  25.640  25.175  1.00  0.00     0.286 A 
ATOM     10  C   UNL A   1      31.618  24.402  26.132  1.00  0.00     0.204 A 
ATOM     11  N   UNL A   1      30.585  24.401  26.980  1.00  0.00    -0.056 NA
ATOM     12  N   UNL A   1      31.442  25.152  24.998  1.00  0.00    -0.181 NA
ATOM     13  O   UNL A   1      29.671  25.250  26.359  1.00  0.00    -0.327 OA
BRANCH  10  14
ATOM     14  C   UNL A   1      32.816  23.584  26.322  1.00  0.00     0.036 A 
ATOM     15  C   UNL A   1      34.526  25.383  25.520  1.00  0.00     0.046 C 
ATOM     16  C   UNL A   1      34.151  24.028  26.029  1.00  0.00    -0.029 A 
ATOM     17  C   UNL A   1      35.066  23.031  26.319  1.00  0.00     0.069 A 
ATOM     18  S   UNL A   1      34.340  21.608  26.925  1.00  0.00    -0.151 S 
ATOM     19  C   UNL A   1      32.784  22.303  26.834  1.00  0.00     0.077 A 
ENDBRANCH  10  14
ENDBRANCH   8   9
ENDBRANCH   7   8
ENDBRANCH   4   7
ENDBRANCH   2   3
ENDBRANCH   1   2
BRANCH   1  20
ATOM     20  C   UNL A   1      32.111  31.688  26.757  1.00  0.00     0.118 C 
BRANCH  20  21
ATOM     21  N   UNL A   1      32.151  33.115  27.044  1.00  0.00    -0.352 N 
ATOM     22  C   UNL A   1      33.011  33.831  27.838  1.00  0.00     0.251 C 
ATOM     23  H   UNL A   1      31.454  33.649  26.598  1.00  0.00     0.163 HD
ATOM     24  O   UNL A   1      32.760  35.012  28.083  1.00  0.00    -0.269 OA
BRANCH  22  25
ATOM     25  C   UNL A   1      34.218  33.199  28.414  1.00  0.00     0.039 A 
ATOM     26  C   UNL A   1      35.441  33.869  28.319  1.00  0.00     0.014 A 
ATOM     27  C   UNL A   1      34.158  31.943  29.025  1.00  0.00     0.014 A 
ATOM     28  C   UNL A   1      36.586  33.313  28.893  1.00  0.00     0.010 A 
ATOM     29  C   UNL A   1      35.284  31.427  29.664  1.00  0.00     0.010 A 
ATOM     30  C   UNL A   1      36.512  32.102  29.602  1.00  0.00    -0.014 A 
BRANCH  30  31
ATOM     31  C   UNL A   1      37.700  31.544  30.302  1.00  0.00     0.031 A 
ATOM     32  C   UNL A   1      38.548  30.487  29.647  1.00  0.00     0.074 A 
ATOM     33  C   UNL A   1      37.967  31.929  31.567  1.00  0.00     0.049 A 
ATOM     34  N   UNL A   1      39.584  29.848  30.126  1.00  0.00    -0.248 NA
ATOM     35  C   UNL A   1      38.170  30.076  28.284  1.00  0.00     0.031 C 
ATOM     36  C   UNL A   1      37.178  32.888  32.343  1.00  0.00     0.029 A 
ATOM     37  N   UNL A   1      38.958  31.539  32.433  1.00  0.00    -0.354 N 
ATOM     38  C   UNL A   1      39.957  28.937  29.145  1.00  0.00     0.074 A 
ATOM     39  C   UNL A   1      39.018  29.085  28.054  1.00  0.00     0.031 C 
ATOM     40  C   UNL A   1      37.715  33.013  33.566  1.00  0.00     0.029 A 
ATOM     41  C   UNL A   1      38.863  32.120  33.677  1.00  0.00     0.049 A 
ATOM     42  H   UNL A   1      39.670  30.904  32.188  1.00  0.00     0.167 HD
ATOM     43  C   UNL A   1      41.000  28.072  29.140  1.00  0.00     0.034 A 
ATOM     44  C   UNL A   1      39.606  31.944  34.788  1.00  0.00     0.034 A 
ATOM     45  C   UNL A   1      41.953  27.951  30.211  1.00  0.00     0.049 A 
ATOM     46  C   UNL A   1      40.776  31.000  34.745  1.00  0.00     0.074 A 
ATOM     47  C   UNL A   1      43.095  27.170  30.261  1.00  0.00     0.029 A 
ATOM     48  N   UNL A   1      41.870  28.614  31.426  1.00  0.00    -0.354 N 
ATOM     49  N   UNL A   1      41.208  30.265  33.749  1.00  0.00    -0.248 NA
ATOM     50  C   UNL A   1      41.586  30.887  35.967  1.00  0.00     0.031 C 
ATOM     51  C   UNL A   1      43.682  27.334  31.520  1.00  0.00     0.029 A 
ATOM     52  C   UNL A   1      42.930  28.250  32.238  1.00  0.00     0.049 A 
ATOM     53  H   UNL A   1      41.162  29.251  31.673  1.00  0.00     0.167 HD
ATOM     54  C   UNL A   1      42.356  29.633  34.211  1.00  0.00     0.074 A 
ATOM     55  C   UNL A   1      42.566  30.088  35.570  1.00  0.00     0.031 C 
ATOM     56  C   UNL A   1      43.159  28.746  33.570  1.00  0.00     0.034 A 
BRANCH  43  57
ATOM     57  C   UNL A   1      41.196  27.211  27.917  1.00  0.00     0.023 A 
ATOM     58  C   UNL A   1      41.810  27.757  26.771  1.00  0.00     0.012 A 
ATOM     59  C   UNL A   1      40.835  25.850  27.924  1.00  0.00     0.148 A 
ATOM     60  C   UNL A   1      42.028  26.971  25.639  1.00  0.00     0.002 A 
ATOM     61  C   UNL A   1      41.099  25.061  26.811  1.00  0.00     0.091 A 
ATOM     62  F   UNL A   1      40.236  25.353  29.017  1.00  0.00    -0.205 F 
ATOM     63  C   UNL A   1      41.684  25.623  25.664  1.00  0.00     0.022 A 
BRANCH  61  64
ATOM     64  S   UNL A   1      40.770  23.296  26.772  1.00  0.00     0.127 S 
ATOM     65  O   UNL A   1      41.206  22.885  28.105  1.00  0.00    -0.237 OA
ATOM     66  O   UNL A   1      39.322  23.259  26.567  1.00  0.00    -0.237 OA
ATOM     67  O   UNL A   1      41.555  22.764  25.667  1.00  0.00    -0.744 OA
ENDBRANCH  61  64
ENDBRANCH  43  57
BRANCH  44  68
ATOM     68  C   UNL A   1      39.295  32.718  36.023  1.00  0.00     0.023 A 
ATOM     69  C   UNL A   1      39.829  34.010  36.187  1.00  0.00     0.012 A 
ATOM     70  C   UNL A   1      38.455  32.191  37.023  1.00  0.00     0.148 A 
ATOM     71  C   UNL A   1      39.564  34.750  37.340  1.00  0.00     0.002 A 
ATOM     72  C   UNL A   1      38.147  32.956  38.143  1.00  0.00     0.091 A 
ATOM     73  F   UNL A   1      37.963  30.956  36.853  1.00  0.00    -0.205 F 
ATOM     74  C   UNL A   1      38.715  34.226  38.312  1.00  0.00     0.022 A 
BRANCH  72  75
ATOM     75  S   UNL A   1      36.959  32.419  39.379  1.00  0.00     0.127 S 
ATOM     76  O   UNL A   1      37.466  31.094  39.724  1.00  0.00    -0.237 OA
ATOM     77  O   UNL A   1      37.130  33.435  40.419  1.00  0.00    -0.237 OA
ATOM     78  O   UNL A   1      35.662  32.449  38.718  1.00  0.00    -0.744 OA
ENDBRANCH  72  75
ENDBRANCH  44  68
BRANCH  56  79
ATOM     79  C   UNL A   1      44.369  28.236  34.309  1.00  0.00     0.023 A 
ATOM     80  C   UNL A   1      45.576  28.963  34.276  1.00  0.00     0.012 A 
ATOM     81  C   UNL A   1      44.286  27.069  35.096  1.00  0.00     0.148 A 
ATOM     82  C   UNL A   1      46.691  28.518  34.986  1.00  0.00     0.002 A 
ATOM     83  C   UNL A   1      45.385  26.662  35.844  1.00  0.00     0.091 A 
ATOM     84  F   UNL A   1      43.135  26.382  35.101  1.00  0.00    -0.205 F 
ATOM     85  C   UNL A   1      46.592  27.377  35.779  1.00  0.00     0.022 A 
BRANCH  83  86
ATOM     86  S   UNL A   1      45.320  25.262  36.968  1.00  0.00     0.127 S 
ATOM     87  O   UNL A   1      44.424  25.759  38.011  1.00  0.00    -0.237 OA
ATOM     88  O   UNL A   1      44.748  24.213  36.122  1.00  0.00    -0.237 OA
ATOM     89  O   UNL A   1      46.692  25.018  37.389  1.00  0.00    -0.744 OA
ENDBRANCH  83  86
ENDBRANCH  56  79
ENDBRANCH  30  31
ENDBRANCH  22  25
ENDBRANCH  20  21
ENDBRANCH   1  20
TORSDOF 16
ENDMDL
