MODEL 1
REMARK VINA RESULT:     -11.8      0.000      0.000
REMARK SMILES CCSc1cccc(-c2ccc([C@@H](C)C(=O)NCCCNC(=O)c3ccc(-c4c5nc(c(-c6cccc(S(=O)(=O)[O-])c6F)c6ccc([nH]6)c(-c6cccc(S(=O)(=O)[O-])c6F)c6nc(c(-c7cccc(S(=O)(=O)[O-])c7F)c7ccc4[nH]7)C=C6)C=C5)cc3)cc2)c1
REMARK SMILES IDX 18 1 17 2 15 3 16 4 13 6 14 7 12 8 9 9 10 10 88 11 11 12
REMARK SMILES IDX 87 13 8 14 4 15 5 16 89 17 6 18 7 19 3 20 2 21 1 22 19 23
REMARK SMILES IDX 20 24 21 25 22 26 23 28 24 29 25 30 86 31 26 32 85 33 27 34
REMARK SMILES IDX 28 35 29 36 79 37 30 38 84 39 78 40 80 41 31 42 83 43 77 44
REMARK SMILES IDX 76 45 32 47 64 48 44 49 63 50 45 51 48 52 62 53 81 54 46 55
REMARK SMILES IDX 47 56 61 58 82 59 49 60 33 61 34 62 42 63 35 64 37 65 43 66
REMARK SMILES IDX 36 67 38 68 39 69 40 70 41 71 65 72 66 73 74 74 67 75 69 76
REMARK SMILES IDX 75 77 68 78 70 79 71 80 72 81 73 82 50 83 51 84 59 85 52 86
REMARK SMILES IDX 54 87 60 88 53 89 55 90 56 91 57 92 58 93
REMARK H PARENT 17 5 21 27 80 46 48 57
REMARK Flexibility Score: inf
ROOT
ATOM      1  C   UNL A   1      31.607  30.786  25.853  1.00  0.00     0.117 C 
ENDROOT
BRANCH   1   2
ATOM      2  N   UNL A   1      31.618  29.701  26.815  1.00  0.00    -0.356 N 
ATOM      3  C   UNL A   1      31.614  28.349  26.664  1.00  0.00     0.227 C 
ATOM      4  O   UNL A   1      31.602  27.685  27.710  1.00  0.00    -0.274 OA
ATOM      5  H   UNL A   1      31.630  29.999  27.754  1.00  0.00     0.163 HD
BRANCH   3   6
ATOM      6  C   UNL A   1      31.657  27.631  25.306  1.00  0.00     0.105 C 
ATOM      7  C   UNL A   1      30.321  27.610  24.565  1.00  0.00     0.023 C 
BRANCH   6   8
ATOM      8  C   UNL A   1      32.411  26.312  25.334  1.00  0.00    -0.036 A 
ATOM      9  C   UNL A   1      33.767  23.799  25.209  1.00  0.00    -0.018 A 
ATOM     10  C   UNL A   1      34.466  25.015  25.242  1.00  0.00     0.009 A 
ATOM     11  C   UNL A   1      32.367  23.871  25.265  1.00  0.00     0.009 A 
ATOM     12  C   UNL A   1      33.804  26.241  25.351  1.00  0.00     0.005 A 
ATOM     13  C   UNL A   1      31.700  25.103  25.305  1.00  0.00     0.005 A 
BRANCH   9  14
ATOM     14  C   UNL A   1      34.489  22.510  25.139  1.00  0.00    -0.017 A 
ATOM     15  C   UNL A   1      34.490  20.051  24.934  1.00  0.00     0.008 A 
ATOM     16  C   UNL A   1      35.882  20.062  24.994  1.00  0.00     0.015 A 
ATOM     17  C   UNL A   1      33.810  21.282  24.994  1.00  0.00     0.023 A 
ATOM     18  C   UNL A   1      36.580  21.261  25.117  1.00  0.00     0.002 A 
ATOM     19  C   UNL A   1      35.891  22.466  25.204  1.00  0.00     0.009 A 
BRANCH  15  20
ATOM     20  S   UNL A   1      33.480  18.578  24.780  1.00  0.00    -0.126 SA
BRANCH  20  21
ATOM     21  C   UNL A   1      34.649  17.285  24.230  1.00  0.00     0.071 C 
ATOM     22  C   UNL A   1      34.205  16.605  22.950  1.00  0.00     0.016 C 
ENDBRANCH  20  21
ENDBRANCH  15  20
ENDBRANCH   9  14
ENDBRANCH   6   8
ENDBRANCH   3   6
ENDBRANCH   1   2
BRANCH   1  23
ATOM     23  C   UNL A   1      31.423  32.149  26.512  1.00  0.00     0.042 C 
BRANCH  23  24
ATOM     24  C   UNL A   1      32.658  32.643  27.248  1.00  0.00     0.118 C 
BRANCH  24  25
ATOM     25  N   UNL A   1      32.502  34.011  27.728  1.00  0.00    -0.352 N 
ATOM     26  C   UNL A   1      33.130  34.663  28.763  1.00  0.00     0.251 C 
ATOM     27  H   UNL A   1      31.843  34.552  27.236  1.00  0.00     0.163 HD
ATOM     28  O   UNL A   1      32.696  35.746  29.142  1.00  0.00    -0.269 OA
BRANCH  26  29
ATOM     29  C   UNL A   1      34.315  34.066  29.421  1.00  0.00     0.039 A 
ATOM     30  C   UNL A   1      35.590  34.517  29.066  1.00  0.00     0.014 A 
ATOM     31  C   UNL A   1      34.176  33.042  30.360  1.00  0.00     0.014 A 
ATOM     32  C   UNL A   1      36.718  33.980  29.695  1.00  0.00     0.010 A 
ATOM     33  C   UNL A   1      35.288  32.579  31.053  1.00  0.00     0.010 A 
ATOM     34  C   UNL A   1      36.575  33.028  30.716  1.00  0.00    -0.014 A 
BRANCH  34  35
ATOM     35  C   UNL A   1      37.747  32.457  31.430  1.00  0.00     0.031 A 
ATOM     36  C   UNL A   1      38.499  31.302  30.821  1.00  0.00     0.074 A 
ATOM     37  C   UNL A   1      38.077  32.910  32.657  1.00  0.00     0.049 A 
ATOM     38  N   UNL A   1      39.459  30.579  31.334  1.00  0.00    -0.248 NA
ATOM     39  C   UNL A   1      38.098  30.886  29.464  1.00  0.00     0.031 C 
ATOM     40  C   UNL A   1      37.389  33.983  33.375  1.00  0.00     0.029 A 
ATOM     41  N   UNL A   1      39.054  32.501  33.529  1.00  0.00    -0.354 N 
ATOM     42  C   UNL A   1      39.751  29.606  30.385  1.00  0.00     0.074 A 
ATOM     43  C   UNL A   1      38.837  29.802  29.281  1.00  0.00     0.031 C 
ATOM     44  C   UNL A   1      37.965  34.149  34.577  1.00  0.00     0.029 A 
ATOM     45  C   UNL A   1      39.030  33.164  34.736  1.00  0.00     0.049 A 
ATOM     46  H   UNL A   1      39.709  31.798  33.314  1.00  0.00     0.167 HD
ATOM     47  C   UNL A   1      40.714  28.655  30.411  1.00  0.00     0.034 A 
ATOM     48  C   UNL A   1      39.769  32.985  35.849  1.00  0.00     0.034 A 
ATOM     49  C   UNL A   1      41.646  28.489  31.493  1.00  0.00     0.049 A 
ATOM     50  C   UNL A   1      40.834  31.919  35.850  1.00  0.00     0.074 A 
ATOM     51  C   UNL A   1      42.699  27.596  31.591  1.00  0.00     0.029 A 
ATOM     52  N   UNL A   1      41.639  29.232  32.662  1.00  0.00    -0.354 N 
ATOM     53  N   UNL A   1      41.172  31.089  34.894  1.00  0.00    -0.248 NA
ATOM     54  C   UNL A   1      41.643  31.787  37.071  1.00  0.00     0.031 C 
ATOM     55  C   UNL A   1      43.314  27.785  32.831  1.00  0.00     0.029 A 
ATOM     56  C   UNL A   1      42.668  28.820  33.489  1.00  0.00     0.049 A 
ATOM     57  H   UNL A   1      40.996  29.947  32.873  1.00  0.00     0.167 HD
ATOM     58  C   UNL A   1      42.262  30.373  35.378  1.00  0.00     0.074 A 
ATOM     59  C   UNL A   1      42.535  30.876  36.707  1.00  0.00     0.031 C 
ATOM     60  C   UNL A   1      42.968  29.382  34.780  1.00  0.00     0.034 A 
BRANCH  47  61
ATOM     61  C   UNL A   1      40.849  27.757  29.208  1.00  0.00     0.023 A 
ATOM     62  C   UNL A   1      40.074  26.580  29.130  1.00  0.00     0.012 A 
ATOM     63  C   UNL A   1      41.684  28.104  28.129  1.00  0.00     0.148 A 
ATOM     64  C   UNL A   1      40.154  25.747  28.016  1.00  0.00     0.002 A 
ATOM     65  C   UNL A   1      41.722  27.295  27.000  1.00  0.00     0.091 A 
ATOM     66  F   UNL A   1      42.425  29.218  28.226  1.00  0.00    -0.205 F 
ATOM     67  C   UNL A   1      40.969  26.110  26.948  1.00  0.00     0.022 A 
BRANCH  65  68
ATOM     68  S   UNL A   1      42.673  27.710  25.534  1.00  0.00     0.127 S 
ATOM     69  O   UNL A   1      42.369  26.582  24.656  1.00  0.00    -0.237 OA
ATOM     70  O   UNL A   1      42.070  28.979  25.128  1.00  0.00    -0.237 OA
ATOM     71  O   UNL A   1      44.061  27.804  25.967  1.00  0.00    -0.744 OA
ENDBRANCH  65  68
ENDBRANCH  47  61
BRANCH  48  72
ATOM     72  C   UNL A   1      39.567  33.864  37.040  1.00  0.00     0.023 A 
ATOM     73  C   UNL A   1      40.013  35.201  36.999  1.00  0.00     0.012 A 
ATOM     74  C   UNL A   1      38.933  33.396  38.205  1.00  0.00     0.148 A 
ATOM     75  C   UNL A   1      39.873  36.036  38.110  1.00  0.00     0.002 A 
ATOM     76  C   UNL A   1      38.730  34.256  39.280  1.00  0.00     0.091 A 
ATOM     77  F   UNL A   1      38.535  32.116  38.249  1.00  0.00    -0.205 F 
ATOM     78  C   UNL A   1      39.222  35.568  39.246  1.00  0.00     0.022 A 
BRANCH  76  79
ATOM     79  S   UNL A   1      37.730  33.775  40.689  1.00  0.00     0.127 S 
ATOM     80  O   UNL A   1      36.509  33.292  40.052  1.00  0.00    -0.237 OA
ATOM     81  O   UNL A   1      38.541  32.736  41.324  1.00  0.00    -0.237 OA
ATOM     82  O   UNL A   1      37.607  34.987  41.486  1.00  0.00    -0.744 OA
ENDBRANCH  76  79
ENDBRANCH  48  72
BRANCH  60  83
ATOM     83  C   UNL A   1      44.155  28.821  35.517  1.00  0.00     0.023 A 
ATOM     84  C   UNL A   1      45.425  29.410  35.368  1.00  0.00     0.012 A 
ATOM     85  C   UNL A   1      43.985  27.760  36.428  1.00  0.00     0.148 A 
ATOM     86  C   UNL A   1      46.516  28.931  36.094  1.00  0.00     0.002 A 
ATOM     87  C   UNL A   1      45.062  27.323  37.187  1.00  0.00     0.091 A 
ATOM     88  F   UNL A   1      42.769  27.204  36.542  1.00  0.00    -0.205 F 
ATOM     89  C   UNL A   1      46.332  27.898  37.011  1.00  0.00     0.022 A 
BRANCH  87  90
ATOM     90  S   UNL A   1      44.900  26.070  38.462  1.00  0.00     0.127 S 
ATOM     91  O   UNL A   1      43.920  26.681  39.358  1.00  0.00    -0.237 OA
ATOM     92  O   UNL A   1      44.402  24.922  37.703  1.00  0.00    -0.237 OA
ATOM     93  O   UNL A   1      46.232  25.892  39.026  1.00  0.00    -0.744 OA
ENDBRANCH  87  90
ENDBRANCH  60  83
ENDBRANCH  34  35
ENDBRANCH  26  29
ENDBRANCH  24  25
ENDBRANCH  23  24
ENDBRANCH   1  23
TORSDOF 17
ENDMDL
MODEL 2
REMARK VINA RESULT:     -11.6      2.120      2.826
REMARK SMILES CCSc1cccc(-c2ccc([C@@H](C)C(=O)NCCCNC(=O)c3ccc(-c4c5nc(c(-c6cccc(S(=O)(=O)[O-])c6F)c6ccc([nH]6)c(-c6cccc(S(=O)(=O)[O-])c6F)c6nc(c(-c7cccc(S(=O)(=O)[O-])c7F)c7ccc4[nH]7)C=C6)C=C5)cc3)cc2)c1
REMARK SMILES IDX 18 1 17 2 15 3 16 4 13 6 14 7 12 8 9 9 10 10 88 11 11 12
REMARK SMILES IDX 87 13 8 14 4 15 5 16 89 17 6 18 7 19 3 20 2 21 1 22 19 23
REMARK SMILES IDX 20 24 21 25 22 26 23 28 24 29 25 30 86 31 26 32 85 33 27 34
REMARK SMILES IDX 28 35 29 36 79 37 30 38 84 39 78 40 80 41 31 42 83 43 77 44
REMARK SMILES IDX 76 45 32 47 64 48 44 49 63 50 45 51 48 52 62 53 81 54 46 55
REMARK SMILES IDX 47 56 61 58 82 59 49 60 33 61 34 62 42 63 35 64 37 65 43 66
REMARK SMILES IDX 36 67 38 68 39 69 40 70 41 71 65 72 66 73 74 74 67 75 69 76
REMARK SMILES IDX 75 77 68 78 70 79 71 80 72 81 73 82 50 83 51 84 59 85 52 86
REMARK SMILES IDX 54 87 60 88 53 89 55 90 56 91 57 92 58 93
REMARK H PARENT 17 5 21 27 80 46 48 57
REMARK Flexibility Score: inf
ROOT
ATOM      1  C   UNL A   1      31.177  27.474  25.757  1.00  0.00     0.117 C 
ENDROOT
BRANCH   1   2
ATOM      2  N   UNL A   1      30.913  27.903  24.397  1.00  0.00    -0.356 N 
ATOM      3  C   UNL A   1      31.727  28.063  23.318  1.00  0.00     0.227 C 
ATOM      4  O   UNL A   1      31.184  28.477  22.284  1.00  0.00    -0.274 OA
ATOM      5  H   UNL A   1      29.969  28.121  24.222  1.00  0.00     0.163 HD
BRANCH   3   6
ATOM      6  C   UNL A   1      33.228  27.735  23.311  1.00  0.00     0.105 C 
ATOM      7  C   UNL A   1      33.991  28.307  22.117  1.00  0.00     0.023 C 
BRANCH   6   8
ATOM      8  C   UNL A   1      33.539  26.288  23.655  1.00  0.00    -0.036 A 
ATOM      9  C   UNL A   1      34.255  23.567  24.161  1.00  0.00    -0.018 A 
ATOM     10  C   UNL A   1      34.551  24.590  25.074  1.00  0.00     0.009 A 
ATOM     11  C   UNL A   1      33.568  23.936  22.996  1.00  0.00     0.009 A 
ATOM     12  C   UNL A   1      34.159  25.913  24.848  1.00  0.00     0.005 A 
ATOM     13  C   UNL A   1      33.235  25.273  22.736  1.00  0.00     0.005 A 
BRANCH   9  14
ATOM     14  C   UNL A   1      34.640  22.166  24.441  1.00  0.00    -0.017 A 
ATOM     15  C   UNL A   1      34.054  19.784  24.704  1.00  0.00     0.008 A 
ATOM     16  C   UNL A   1      35.393  19.499  24.963  1.00  0.00     0.015 A 
ATOM     17  C   UNL A   1      33.697  21.118  24.432  1.00  0.00     0.023 A 
ATOM     18  C   UNL A   1      36.350  20.511  24.959  1.00  0.00     0.002 A 
ATOM     19  C   UNL A   1      35.975  21.828  24.717  1.00  0.00     0.009 A 
BRANCH  15  20
ATOM     20  S   UNL A   1      32.731  18.575  24.684  1.00  0.00    -0.126 SA
BRANCH  20  21
ATOM     21  C   UNL A   1      33.141  17.482  23.276  1.00  0.00     0.071 C 
ATOM     22  C   UNL A   1      34.040  16.330  23.677  1.00  0.00     0.016 C 
ENDBRANCH  20  21
ENDBRANCH  15  20
ENDBRANCH   9  14
ENDBRANCH   6   8
ENDBRANCH   3   6
ENDBRANCH   1   2
BRANCH   1  23
ATOM     23  C   UNL A   1      31.497  28.641  26.685  1.00  0.00     0.042 C 
BRANCH  23  24
ATOM     24  C   UNL A   1      32.660  29.498  26.209  1.00  0.00     0.118 C 
BRANCH  24  25
ATOM     25  N   UNL A   1      32.402  30.923  26.384  1.00  0.00    -0.352 N 
ATOM     26  C   UNL A   1      33.041  31.848  27.175  1.00  0.00     0.251 C 
ATOM     27  H   UNL A   1      31.653  31.277  25.853  1.00  0.00     0.163 HD
ATOM     28  O   UNL A   1      32.529  32.950  27.344  1.00  0.00    -0.269 OA
BRANCH  26  29
ATOM     29  C   UNL A   1      34.330  31.520  27.825  1.00  0.00     0.039 A 
ATOM     30  C   UNL A   1      35.298  32.521  27.959  1.00  0.00     0.014 A 
ATOM     31  C   UNL A   1      34.602  30.226  28.272  1.00  0.00     0.014 A 
ATOM     32  C   UNL A   1      36.512  32.234  28.592  1.00  0.00     0.010 A 
ATOM     33  C   UNL A   1      35.767  29.968  28.985  1.00  0.00     0.010 A 
ATOM     34  C   UNL A   1      36.744  30.963  29.138  1.00  0.00    -0.014 A 
BRANCH  34  35
ATOM     35  C   UNL A   1      38.009  30.629  29.844  1.00  0.00     0.031 A 
ATOM     36  C   UNL A   1      38.995  29.687  29.202  1.00  0.00     0.074 A 
ATOM     37  C   UNL A   1      38.228  31.092  31.092  1.00  0.00     0.049 A 
ATOM     38  N   UNL A   1      40.085  29.167  29.699  1.00  0.00    -0.248 NA
ATOM     39  C   UNL A   1      38.699  29.249  27.825  1.00  0.00     0.031 C 
ATOM     40  C   UNL A   1      37.322  31.963  31.842  1.00  0.00     0.029 A 
ATOM     41  N   UNL A   1      39.266  30.868  31.961  1.00  0.00    -0.354 N 
ATOM     42  C   UNL A   1      40.584  28.318  28.718  1.00  0.00     0.074 A 
ATOM     43  C   UNL A   1      39.654  28.357  27.611  1.00  0.00     0.031 C 
ATOM     44  C   UNL A   1      37.843  32.201  33.056  1.00  0.00     0.029 A 
ATOM     45  C   UNL A   1      39.094  31.462  33.191  1.00  0.00     0.049 A 
ATOM     46  H   UNL A   1      40.058  30.332  31.728  1.00  0.00     0.167 HD
ATOM     47  C   UNL A   1      41.729  27.596  28.721  1.00  0.00     0.034 A 
ATOM     48  C   UNL A   1      39.850  31.402  34.307  1.00  0.00     0.034 A 
ATOM     49  C   UNL A   1      42.670  27.591  29.808  1.00  0.00     0.049 A 
ATOM     50  C   UNL A   1      41.119  30.590  34.281  1.00  0.00     0.074 A 
ATOM     51  C   UNL A   1      43.889  26.941  29.886  1.00  0.00     0.029 A 
ATOM     52  N   UNL A   1      42.497  28.268  31.004  1.00  0.00    -0.354 N 
ATOM     53  N   UNL A   1      41.632  29.890  33.298  1.00  0.00    -0.248 NA
ATOM     54  C   UNL A   1      41.931  30.586  35.507  1.00  0.00     0.031 C 
ATOM     55  C   UNL A   1      44.444  27.208  31.140  1.00  0.00     0.029 A 
ATOM     56  C   UNL A   1      43.587  28.054  31.828  1.00  0.00     0.049 A 
ATOM     57  H   UNL A   1      41.715  28.819  31.234  1.00  0.00     0.167 HD
ATOM     58  C   UNL A   1      42.848  29.406  33.769  1.00  0.00     0.074 A 
ATOM     59  C   UNL A   1      43.000  29.903  35.121  1.00  0.00     0.031 C 
ATOM     60  C   UNL A   1      43.753  28.615  33.144  1.00  0.00     0.034 A 
BRANCH  47  61
ATOM     61  C   UNL A   1      42.059  26.796  27.487  1.00  0.00     0.023 A 
ATOM     62  C   UNL A   1      42.637  27.444  26.374  1.00  0.00     0.012 A 
ATOM     63  C   UNL A   1      41.865  25.402  27.448  1.00  0.00     0.148 A 
ATOM     64  C   UNL A   1      42.982  26.725  25.232  1.00  0.00     0.002 A 
ATOM     65  C   UNL A   1      42.256  24.684  26.324  1.00  0.00     0.091 A 
ATOM     66  F   UNL A   1      41.300  24.805  28.508  1.00  0.00    -0.205 F 
ATOM     67  C   UNL A   1      42.802  25.345  25.211  1.00  0.00     0.022 A 
BRANCH  65  68
ATOM     68  S   UNL A   1      42.146  22.894  26.224  1.00  0.00     0.127 S 
ATOM     69  O   UNL A   1      42.916  22.485  27.398  1.00  0.00    -0.237 OA
ATOM     70  O   UNL A   1      40.705  22.669  26.332  1.00  0.00    -0.237 OA
ATOM     71  O   UNL A   1      42.728  22.525  24.941  1.00  0.00    -0.744 OA
ENDBRANCH  65  68
ENDBRANCH  47  61
BRANCH  48  72
ATOM     72  C   UNL A   1      39.458  32.168  35.527  1.00  0.00     0.023 A 
ATOM     73  C   UNL A   1      39.823  33.525  35.641  1.00  0.00     0.012 A 
ATOM     74  C   UNL A   1      38.723  31.575  36.570  1.00  0.00     0.148 A 
ATOM     75  C   UNL A   1      39.504  34.258  36.787  1.00  0.00     0.002 A 
ATOM     76  C   UNL A   1      38.344  32.332  37.674  1.00  0.00     0.091 A 
ATOM     77  F   UNL A   1      38.401  30.276  36.469  1.00  0.00    -0.205 F 
ATOM     78  C   UNL A   1      38.756  33.666  37.798  1.00  0.00     0.022 A 
BRANCH  76  79
ATOM     79  S   UNL A   1      37.219  31.686  38.912  1.00  0.00     0.127 S 
ATOM     80  O   UNL A   1      37.998  31.820  40.138  1.00  0.00    -0.237 OA
ATOM     81  O   UNL A   1      36.073  32.589  38.814  1.00  0.00    -0.237 OA
ATOM     82  O   UNL A   1      36.930  30.328  38.475  1.00  0.00    -0.744 OA
ENDBRANCH  76  79
ENDBRANCH  48  72
BRANCH  60  83
ATOM     83  C   UNL A   1      45.030  28.293  33.875  1.00  0.00     0.023 A 
ATOM     84  C   UNL A   1      46.140  29.154  33.775  1.00  0.00     0.012 A 
ATOM     85  C   UNL A   1      45.091  27.177  34.732  1.00  0.00     0.148 A 
ATOM     86  C   UNL A   1      47.304  28.891  34.497  1.00  0.00     0.002 A 
ATOM     87  C   UNL A   1      46.233  26.951  35.488  1.00  0.00     0.091 A 
ATOM     88  F   UNL A   1      44.028  26.363  34.798  1.00  0.00    -0.205 F 
ATOM     89  C   UNL A   1      47.346  27.798  35.361  1.00  0.00     0.022 A 
BRANCH  87  90
ATOM     90  S   UNL A   1      46.343  25.631  36.700  1.00  0.00     0.127 S 
ATOM     91  O   UNL A   1      46.289  24.441  35.851  1.00  0.00    -0.237 OA
ATOM     92  O   UNL A   1      47.647  25.884  37.314  1.00  0.00    -0.237 OA
ATOM     93  O   UNL A   1      45.207  25.808  37.595  1.00  0.00    -0.744 OA
ENDBRANCH  87  90
ENDBRANCH  60  83
ENDBRANCH  34  35
ENDBRANCH  26  29
ENDBRANCH  24  25
ENDBRANCH  23  24
ENDBRANCH   1  23
TORSDOF 17
ENDMDL
MODEL 3
REMARK VINA RESULT:     -11.5      6.120     11.037
REMARK SMILES CCSc1cccc(-c2ccc([C@@H](C)C(=O)NCCCNC(=O)c3ccc(-c4c5nc(c(-c6cccc(S(=O)(=O)[O-])c6F)c6ccc([nH]6)c(-c6cccc(S(=O)(=O)[O-])c6F)c6nc(c(-c7cccc(S(=O)(=O)[O-])c7F)c7ccc4[nH]7)C=C6)C=C5)cc3)cc2)c1
REMARK SMILES IDX 18 1 17 2 15 3 16 4 13 6 14 7 12 8 9 9 10 10 88 11 11 12
REMARK SMILES IDX 87 13 8 14 4 15 5 16 89 17 6 18 7 19 3 20 2 21 1 22 19 23
REMARK SMILES IDX 20 24 21 25 22 26 23 28 24 29 25 30 86 31 26 32 85 33 27 34
REMARK SMILES IDX 28 35 29 36 79 37 30 38 84 39 78 40 80 41 31 42 83 43 77 44
REMARK SMILES IDX 76 45 32 47 64 48 44 49 63 50 45 51 48 52 62 53 81 54 46 55
REMARK SMILES IDX 47 56 61 58 82 59 49 60 33 61 34 62 42 63 35 64 37 65 43 66
REMARK SMILES IDX 36 67 38 68 39 69 40 70 41 71 65 72 66 73 74 74 67 75 69 76
REMARK SMILES IDX 75 77 68 78 70 79 71 80 72 81 73 82 50 83 51 84 59 85 52 86
REMARK SMILES IDX 54 87 60 88 53 89 55 90 56 91 57 92 58 93
REMARK H PARENT 17 5 21 27 80 46 48 57
REMARK Flexibility Score: inf
ROOT
ATOM      1  C   UNL A   1      35.238  20.576  24.788  1.00  0.00     0.117 C 
ENDROOT
BRANCH   1   2
ATOM      2  N   UNL A   1      34.336  19.604  25.376  1.00  0.00    -0.356 N 
ATOM      3  C   UNL A   1      33.019  19.338  25.162  1.00  0.00     0.227 C 
ATOM      4  O   UNL A   1      32.525  18.441  25.860  1.00  0.00    -0.274 OA
ATOM      5  H   UNL A   1      34.755  19.032  26.059  1.00  0.00     0.163 HD
BRANCH   3   6
ATOM      6  C   UNL A   1      32.153  20.047  24.110  1.00  0.00     0.105 C 
ATOM      7  C   UNL A   1      32.415  19.597  22.673  1.00  0.00     0.023 C 
BRANCH   6   8
ATOM      8  C   UNL A   1      32.047  21.549  24.316  1.00  0.00    -0.036 A 
ATOM      9  C   UNL A   1      31.705  24.375  24.577  1.00  0.00    -0.018 A 
ATOM     10  C   UNL A   1      31.392  23.494  25.622  1.00  0.00     0.009 A 
ATOM     11  C   UNL A   1      32.218  23.808  23.401  1.00  0.00     0.009 A 
ATOM     12  C   UNL A   1      31.604  22.116  25.511  1.00  0.00     0.005 A 
ATOM     13  C   UNL A   1      32.367  22.420  23.264  1.00  0.00     0.005 A 
BRANCH   9  14
ATOM     14  C   UNL A   1      31.515  25.834  24.731  1.00  0.00    -0.017 A 
ATOM     15  C   UNL A   1      30.852  28.028  23.817  1.00  0.00     0.008 A 
ATOM     16  C   UNL A   1      31.146  28.612  25.048  1.00  0.00     0.015 A 
ATOM     17  C   UNL A   1      31.028  26.638  23.680  1.00  0.00     0.023 A 
ATOM     18  C   UNL A   1      31.609  27.839  26.111  1.00  0.00     0.002 A 
ATOM     19  C   UNL A   1      31.805  26.472  25.948  1.00  0.00     0.009 A 
BRANCH  15  20
ATOM     20  S   UNL A   1      30.255  28.911  22.376  1.00  0.00    -0.126 SA
BRANCH  20  21
ATOM     21  C   UNL A   1      28.741  29.754  22.961  1.00  0.00     0.071 C 
ATOM     22  C   UNL A   1      27.572  28.804  23.123  1.00  0.00     0.016 C 
ENDBRANCH  20  21
ENDBRANCH  15  20
ENDBRANCH   9  14
ENDBRANCH   6   8
ENDBRANCH   3   6
ENDBRANCH   1   2
BRANCH   1  23
ATOM     23  C   UNL A   1      35.299  21.873  25.587  1.00  0.00     0.042 C 
BRANCH  23  24
ATOM     24  C   UNL A   1      36.708  22.422  25.752  1.00  0.00     0.118 C 
BRANCH  24  25
ATOM     25  N   UNL A   1      37.703  21.362  25.856  1.00  0.00    -0.352 N 
ATOM     26  C   UNL A   1      39.049  21.434  26.126  1.00  0.00     0.251 C 
ATOM     27  H   UNL A   1      37.358  20.452  25.708  1.00  0.00     0.163 HD
ATOM     28  O   UNL A   1      39.751  20.444  25.952  1.00  0.00    -0.269 OA
BRANCH  26  29
ATOM     29  C   UNL A   1      39.651  22.694  26.618  1.00  0.00     0.039 A 
ATOM     30  C   UNL A   1      40.619  22.639  27.626  1.00  0.00     0.014 A 
ATOM     31  C   UNL A   1      39.244  23.931  26.113  1.00  0.00     0.014 A 
ATOM     32  C   UNL A   1      41.215  23.818  28.084  1.00  0.00     0.010 A 
ATOM     33  C   UNL A   1      39.905  25.091  26.499  1.00  0.00     0.010 A 
ATOM     34  C   UNL A   1      40.885  25.052  27.503  1.00  0.00    -0.014 A 
BRANCH  34  35
ATOM     35  C   UNL A   1      41.519  26.323  27.940  1.00  0.00     0.031 A 
ATOM     36  C   UNL A   1      40.681  27.381  28.611  1.00  0.00     0.074 A 
ATOM     37  C   UNL A   1      42.815  26.565  27.655  1.00  0.00     0.049 A 
ATOM     38  N   UNL A   1      41.005  28.601  28.949  1.00  0.00    -0.248 NA
ATOM     39  C   UNL A   1      39.282  27.029  28.917  1.00  0.00     0.031 C 
ATOM     40  C   UNL A   1      43.714  25.643  26.959  1.00  0.00     0.029 A 
ATOM     41  N   UNL A   1      43.592  27.673  27.887  1.00  0.00    -0.354 N 
ATOM     42  C   UNL A   1      39.849  29.171  29.470  1.00  0.00     0.074 A 
ATOM     43  C   UNL A   1      38.802  28.179  29.364  1.00  0.00     0.031 C 
ATOM     44  C   UNL A   1      44.918  26.222  26.821  1.00  0.00     0.029 A 
ATOM     45  C   UNL A   1      44.865  27.571  27.374  1.00  0.00     0.049 A 
ATOM     46  H   UNL A   1      43.268  28.466  28.372  1.00  0.00     0.167 HD
ATOM     47  C   UNL A   1      39.679  30.397  30.019  1.00  0.00     0.034 A 
ATOM     48  C   UNL A   1      45.869  28.471  27.336  1.00  0.00     0.034 A 
ATOM     49  C   UNL A   1      40.733  31.365  30.158  1.00  0.00     0.049 A 
ATOM     50  C   UNL A   1      45.652  29.827  27.955  1.00  0.00     0.074 A 
ATOM     51  C   UNL A   1      40.681  32.613  30.754  1.00  0.00     0.029 A 
ATOM     52  N   UNL A   1      42.028  31.193  29.697  1.00  0.00    -0.354 N 
ATOM     53  N   UNL A   1      44.585  30.302  28.550  1.00  0.00    -0.248 NA
ATOM     54  C   UNL A   1      46.787  30.761  27.926  1.00  0.00     0.031 C 
ATOM     55  C   UNL A   1      41.940  33.205  30.632  1.00  0.00     0.029 A 
ATOM     56  C   UNL A   1      42.787  32.311  29.994  1.00  0.00     0.049 A 
ATOM     57  H   UNL A   1      42.360  30.395  29.227  1.00  0.00     0.167 HD
ATOM     58  C   UNL A   1      44.936  31.567  29.010  1.00  0.00     0.074 A 
ATOM     59  C   UNL A   1      46.318  31.779  28.635  1.00  0.00     0.031 C 
ATOM     60  C   UNL A   1      44.181  32.475  29.675  1.00  0.00     0.034 A 
BRANCH  47  61
ATOM     61  C   UNL A   1      38.318  30.740  30.565  1.00  0.00     0.023 A 
ATOM     62  C   UNL A   1      37.994  30.388  31.893  1.00  0.00     0.012 A 
ATOM     63  C   UNL A   1      37.387  31.467  29.799  1.00  0.00     0.148 A 
ATOM     64  C   UNL A   1      36.754  30.720  32.436  1.00  0.00     0.002 A 
ATOM     65  C   UNL A   1      36.171  31.838  30.362  1.00  0.00     0.091 A 
ATOM     66  F   UNL A   1      37.704  31.781  28.534  1.00  0.00    -0.205 F 
ATOM     67  C   UNL A   1      35.848  31.453  31.675  1.00  0.00     0.022 A 
BRANCH  65  68
ATOM     68  S   UNL A   1      34.967  32.853  29.501  1.00  0.00     0.127 S 
ATOM     69  O   UNL A   1      34.445  31.915  28.509  1.00  0.00    -0.237 OA
ATOM     70  O   UNL A   1      34.031  33.193  30.571  1.00  0.00    -0.237 OA
ATOM     71  O   UNL A   1      35.708  33.983  28.956  1.00  0.00    -0.744 OA
ENDBRANCH  65  68
ENDBRANCH  47  61
BRANCH  48  72
ATOM     72  C   UNL A   1      47.188  28.107  26.737  1.00  0.00     0.023 A 
ATOM     73  C   UNL A   1      48.298  27.896  27.579  1.00  0.00     0.012 A 
ATOM     74  C   UNL A   1      47.354  27.959  25.348  1.00  0.00     0.148 A 
ATOM     75  C   UNL A   1      49.553  27.592  27.047  1.00  0.00     0.002 A 
ATOM     76  C   UNL A   1      48.589  27.582  24.830  1.00  0.00     0.091 A 
ATOM     77  F   UNL A   1      46.301  28.188  24.548  1.00  0.00    -0.205 F 
ATOM     78  C   UNL A   1      49.697  27.424  25.674  1.00  0.00     0.022 A 
BRANCH  76  79
ATOM     79  S   UNL A   1      48.790  27.162  23.098  1.00  0.00     0.127 S 
ATOM     80  O   UNL A   1      48.016  28.205  22.434  1.00  0.00    -0.237 OA
ATOM     81  O   UNL A   1      50.238  27.258  22.906  1.00  0.00    -0.237 OA
ATOM     82  O   UNL A   1      48.277  25.804  22.986  1.00  0.00    -0.744 OA
ENDBRANCH  76  79
ENDBRANCH  48  72
BRANCH  60  83
ATOM     83  C   UNL A   1      44.844  33.753  30.115  1.00  0.00     0.023 A 
ATOM     84  C   UNL A   1      45.527  33.811  31.345  1.00  0.00     0.012 A 
ATOM     85  C   UNL A   1      44.860  34.872  29.259  1.00  0.00     0.148 A 
ATOM     86  C   UNL A   1      46.192  34.975  31.729  1.00  0.00     0.002 A 
ATOM     87  C   UNL A   1      45.568  36.009  29.624  1.00  0.00     0.091 A 
ATOM     88  F   UNL A   1      44.189  34.799  28.100  1.00  0.00    -0.205 F 
ATOM     89  C   UNL A   1      46.223  36.068  30.865  1.00  0.00     0.022 A 
BRANCH  87  90
ATOM     90  S   UNL A   1      45.749  37.424  28.534  1.00  0.00     0.127 S 
ATOM     91  O   UNL A   1      44.369  37.896  28.427  1.00  0.00    -0.237 OA
ATOM     92  O   UNL A   1      46.633  38.297  29.307  1.00  0.00    -0.237 OA
ATOM     93  O   UNL A   1      46.329  36.913  27.299  1.00  0.00    -0.744 OA
ENDBRANCH  87  90
ENDBRANCH  60  83
ENDBRANCH  34  35
ENDBRANCH  26  29
ENDBRANCH  24  25
ENDBRANCH  23  24
ENDBRANCH   1  23
TORSDOF 17
ENDMDL
