MODEL 1
REMARK VINA RESULT:     -11.5      0.000      0.000
REMARK SMILES CC(C)n1cncc1[C@@H](NC(=O)OC(C)(C)C)C(=O)NCCCNC(=O)c1ccc(-c2c3nc(c(-c4cccc(S(=O)(=O)[O-])c4F)c4ccc([nH]4)c(-c4cccc(S(=O)(=O)[O-])c4F)c4nc(c(-c5cccc(S(=O)(=O)[O-])c5F)c5ccc2[nH]5)C=C4)C=C3)cc1
REMARK SMILES IDX 22 1 21 2 20 3 18 4 19 5 9 7 8 8 4 9 5 10 6 11 7 12 2 13
REMARK SMILES IDX 1 14 3 15 10 16 11 17 12 19 13 20 14 21 15 22 16 23 17 24
REMARK SMILES IDX 23 25 24 26 25 27 26 29 27 30 28 31 89 32 29 33 88 34 30 35
REMARK SMILES IDX 31 36 32 37 82 38 33 39 87 40 81 41 83 42 34 43 86 44 80 45
REMARK SMILES IDX 79 46 35 48 67 49 47 50 66 51 48 52 51 53 65 54 84 55 49 56
REMARK SMILES IDX 50 57 64 59 85 60 52 61 36 62 37 63 45 64 38 65 40 66 46 67
REMARK SMILES IDX 39 68 41 69 42 70 43 71 44 72 68 73 69 74 77 75 70 76 72 77
REMARK SMILES IDX 78 78 71 79 73 80 74 81 75 82 76 83 53 84 54 85 62 86 55 87
REMARK SMILES IDX 57 88 63 89 56 90 58 91 59 92 60 93 61 94
REMARK H PARENT 20 6 10 18 24 28 83 47 51 58
REMARK Flexibility Score: inf
ROOT
ATOM      1  C   UNL A   1      31.719  30.803  26.268  1.00  0.00     0.042 C 
ENDROOT
BRANCH   1   2
ATOM      2  C   UNL A   1      32.274  29.479  25.757  1.00  0.00     0.117 C 
BRANCH   2   3
ATOM      3  N   UNL A   1      33.245  29.620  24.694  1.00  0.00    -0.354 N 
ATOM      4  C   UNL A   1      33.265  29.015  23.470  1.00  0.00     0.248 C 
ATOM      5  O   UNL A   1      34.137  29.362  22.667  1.00  0.00    -0.272 OA
ATOM      6  H   UNL A   1      33.992  30.234  24.878  1.00  0.00     0.163 HD
BRANCH   4   7
ATOM      7  C   UNL A   1      32.305  27.850  23.097  1.00  0.00     0.223 C 
BRANCH   7   8
ATOM      8  C   UNL A   1      30.929  28.443  22.836  1.00  0.00     0.070 A 
ATOM      9  N   UNL A   1      29.712  28.003  23.337  1.00  0.00    -0.330 N 
ATOM     10  C   UNL A   1      28.827  29.043  23.178  1.00  0.00     0.199 A 
ATOM     11  N   UNL A   1      29.291  29.956  22.361  1.00  0.00    -0.245 NA
ATOM     12  C   UNL A   1      30.572  29.572  22.113  1.00  0.00     0.137 A 
BRANCH   9  13
ATOM     13  C   UNL A   1      29.344  26.659  23.794  1.00  0.00     0.082 C 
ATOM     14  C   UNL A   1      29.995  26.269  25.136  1.00  0.00     0.031 C 
ATOM     15  C   UNL A   1      27.824  26.551  23.990  1.00  0.00     0.031 C 
ENDBRANCH   9  13
ENDBRANCH   7   8
BRANCH   7  16
ATOM     16  N   UNL A   1      32.625  26.988  21.962  1.00  0.00    -0.304 N 
ATOM     17  C   UNL A   1      33.300  25.796  21.933  1.00  0.00     0.408 C 
ATOM     18  H   UNL A   1      32.308  27.312  21.088  1.00  0.00     0.168 HD
ATOM     19  O   UNL A   1      33.276  25.104  20.934  1.00  0.00    -0.225 OA
BRANCH  17  20
ATOM     20  O   UNL A   1      34.057  25.566  23.033  1.00  0.00    -0.444 OA
BRANCH  20  21
ATOM     21  C   UNL A   1      33.870  24.386  23.869  1.00  0.00     0.106 C 
ATOM     22  C   UNL A   1      34.290  24.658  25.314  1.00  0.00     0.056 C 
ATOM     23  C   UNL A   1      32.430  23.846  23.815  1.00  0.00     0.056 C 
ATOM     24  C   UNL A   1      34.808  23.315  23.281  1.00  0.00     0.056 C 
ENDBRANCH  20  21
ENDBRANCH  17  20
ENDBRANCH   7  16
ENDBRANCH   4   7
ENDBRANCH   2   3
ENDBRANCH   1   2
BRANCH   1  25
ATOM     25  C   UNL A   1      32.741  31.515  27.129  1.00  0.00     0.118 C 
BRANCH  25  26
ATOM     26  N   UNL A   1      32.415  32.943  27.306  1.00  0.00    -0.352 N 
ATOM     27  C   UNL A   1      32.955  33.840  28.210  1.00  0.00     0.251 C 
ATOM     28  H   UNL A   1      31.727  33.304  26.702  1.00  0.00     0.163 HD
ATOM     29  O   UNL A   1      32.382  34.883  28.496  1.00  0.00    -0.269 OA
BRANCH  27  30
ATOM     30  C   UNL A   1      34.264  33.509  28.790  1.00  0.00     0.039 A 
ATOM     31  C   UNL A   1      34.404  32.755  29.957  1.00  0.00     0.014 A 
ATOM     32  C   UNL A   1      35.366  33.885  28.032  1.00  0.00     0.014 A 
ATOM     33  C   UNL A   1      35.679  32.322  30.308  1.00  0.00     0.010 A 
ATOM     34  C   UNL A   1      36.546  33.235  28.229  1.00  0.00     0.010 A 
ATOM     35  C   UNL A   1      36.742  32.553  29.418  1.00  0.00    -0.014 A 
BRANCH  35  36
ATOM     36  C   UNL A   1      38.059  31.965  29.601  1.00  0.00     0.031 A 
ATOM     37  C   UNL A   1      38.137  30.586  29.064  1.00  0.00     0.074 A 
ATOM     38  C   UNL A   1      39.135  32.701  29.962  1.00  0.00     0.049 A 
ATOM     39  N   UNL A   1      38.017  29.487  29.734  1.00  0.00    -0.248 NA
ATOM     40  C   UNL A   1      38.057  30.398  27.605  1.00  0.00     0.031 C 
ATOM     41  C   UNL A   1      39.211  34.157  30.156  1.00  0.00     0.029 A 
ATOM     42  N   UNL A   1      40.434  32.325  30.100  1.00  0.00    -0.354 N 
ATOM     43  C   UNL A   1      38.211  28.480  28.794  1.00  0.00     0.074 A 
ATOM     44  C   UNL A   1      37.878  29.077  27.533  1.00  0.00     0.031 C 
ATOM     45  C   UNL A   1      40.504  34.553  30.133  1.00  0.00     0.029 A 
ATOM     46  C   UNL A   1      41.351  33.378  30.092  1.00  0.00     0.049 A 
ATOM     47  H   UNL A   1      40.707  31.384  30.198  1.00  0.00     0.167 HD
ATOM     48  C   UNL A   1      39.015  27.418  29.092  1.00  0.00     0.034 A 
ATOM     49  C   UNL A   1      42.703  33.281  30.014  1.00  0.00     0.034 A 
ATOM     50  C   UNL A   1      39.299  27.400  30.517  1.00  0.00     0.049 A 
ATOM     51  C   UNL A   1      43.054  31.901  30.420  1.00  0.00     0.074 A 
ATOM     52  C   UNL A   1      38.556  27.386  31.681  1.00  0.00     0.029 A 
ATOM     53  N   UNL A   1      40.553  27.837  30.875  1.00  0.00    -0.354 N 
ATOM     54  N   UNL A   1      42.871  31.443  31.626  1.00  0.00    -0.248 NA
ATOM     55  C   UNL A   1      43.165  30.899  29.375  1.00  0.00     0.031 C 
ATOM     56  C   UNL A   1      39.273  28.220  32.593  1.00  0.00     0.029 A 
ATOM     57  C   UNL A   1      40.461  28.627  31.983  1.00  0.00     0.049 A 
ATOM     58  H   UNL A   1      41.388  27.616  30.404  1.00  0.00     0.167 HD
ATOM     59  C   UNL A   1      42.341  30.176  31.424  1.00  0.00     0.074 A 
ATOM     60  C   UNL A   1      42.665  29.850  30.034  1.00  0.00     0.031 C 
ATOM     61  C   UNL A   1      41.422  29.662  32.297  1.00  0.00     0.034 A 
BRANCH  48  62
ATOM     62  C   UNL A   1      39.968  26.722  28.116  1.00  0.00     0.023 A 
ATOM     63  C   UNL A   1      40.112  25.323  28.290  1.00  0.00     0.012 A 
ATOM     64  C   UNL A   1      40.929  27.348  27.289  1.00  0.00     0.148 A 
ATOM     65  C   UNL A   1      41.228  24.626  27.817  1.00  0.00     0.002 A 
ATOM     66  C   UNL A   1      42.019  26.644  26.784  1.00  0.00     0.091 A 
ATOM     67  F   UNL A   1      40.854  28.647  27.016  1.00  0.00    -0.205 F 
ATOM     68  C   UNL A   1      42.194  25.293  27.080  1.00  0.00     0.022 A 
BRANCH  66  69
ATOM     69  S   UNL A   1      43.295  27.446  25.797  1.00  0.00     0.127 S 
ATOM     70  O   UNL A   1      44.210  26.334  25.552  1.00  0.00    -0.237 OA
ATOM     71  O   UNL A   1      42.528  27.890  24.634  1.00  0.00    -0.237 OA
ATOM     72  O   UNL A   1      43.824  28.526  26.620  1.00  0.00    -0.744 OA
ENDBRANCH  66  69
ENDBRANCH  48  62
BRANCH  49  73
ATOM     73  C   UNL A   1      43.711  34.174  29.386  1.00  0.00     0.023 A 
ATOM     74  C   UNL A   1      44.429  35.092  30.184  1.00  0.00     0.012 A 
ATOM     75  C   UNL A   1      44.189  33.919  28.083  1.00  0.00     0.148 A 
ATOM     76  C   UNL A   1      45.605  35.696  29.719  1.00  0.00     0.002 A 
ATOM     77  C   UNL A   1      45.356  34.524  27.622  1.00  0.00     0.091 A 
ATOM     78  F   UNL A   1      43.552  33.011  27.331  1.00  0.00    -0.205 F 
ATOM     79  C   UNL A   1      46.075  35.403  28.442  1.00  0.00     0.022 A 
BRANCH  77  80
ATOM     80  S   UNL A   1      46.046  34.170  25.999  1.00  0.00     0.127 S 
ATOM     81  O   UNL A   1      47.259  34.988  26.002  1.00  0.00    -0.237 OA
ATOM     82  O   UNL A   1      46.279  32.731  26.077  1.00  0.00    -0.237 OA
ATOM     83  O   UNL A   1      45.036  34.596  25.040  1.00  0.00    -0.744 OA
ENDBRANCH  77  80
ENDBRANCH  49  73
BRANCH  61  84
ATOM     84  C   UNL A   1      41.259  30.344  33.631  1.00  0.00     0.023 A 
ATOM     85  C   UNL A   1      42.150  30.162  34.710  1.00  0.00     0.012 A 
ATOM     86  C   UNL A   1      40.247  31.309  33.741  1.00  0.00     0.148 A 
ATOM     87  C   UNL A   1      42.013  30.915  35.881  1.00  0.00     0.002 A 
ATOM     88  C   UNL A   1      40.142  32.085  34.886  1.00  0.00     0.091 A 
ATOM     89  F   UNL A   1      39.409  31.467  32.703  1.00  0.00    -0.205 F 
ATOM     90  C   UNL A   1      41.016  31.885  35.965  1.00  0.00     0.022 A 
BRANCH  88  91
ATOM     91  S   UNL A   1      38.951  33.421  34.997  1.00  0.00     0.127 S 
ATOM     92  O   UNL A   1      37.682  32.697  35.012  1.00  0.00    -0.237 OA
ATOM     93  O   UNL A   1      39.310  34.058  36.265  1.00  0.00    -0.237 OA
ATOM     94  O   UNL A   1      39.180  34.260  33.826  1.00  0.00    -0.744 OA
ENDBRANCH  88  91
ENDBRANCH  61  84
ENDBRANCH  35  36
ENDBRANCH  27  30
ENDBRANCH  25  26
ENDBRANCH   1  25
TORSDOF 18
ENDMDL
MODEL 2
REMARK VINA RESULT:     -10.9      3.180      7.408
REMARK SMILES CC(C)n1cncc1[C@@H](NC(=O)OC(C)(C)C)C(=O)NCCCNC(=O)c1ccc(-c2c3nc(c(-c4cccc(S(=O)(=O)[O-])c4F)c4ccc([nH]4)c(-c4cccc(S(=O)(=O)[O-])c4F)c4nc(c(-c5cccc(S(=O)(=O)[O-])c5F)c5ccc2[nH]5)C=C4)C=C3)cc1
REMARK SMILES IDX 22 1 21 2 20 3 18 4 19 5 9 7 8 8 4 9 5 10 6 11 7 12 2 13
REMARK SMILES IDX 1 14 3 15 10 16 11 17 12 19 13 20 14 21 15 22 16 23 17 24
REMARK SMILES IDX 23 25 24 26 25 27 26 29 27 30 28 31 89 32 29 33 88 34 30 35
REMARK SMILES IDX 31 36 32 37 82 38 33 39 87 40 81 41 83 42 34 43 86 44 80 45
REMARK SMILES IDX 79 46 35 48 67 49 47 50 66 51 48 52 51 53 65 54 84 55 49 56
REMARK SMILES IDX 50 57 64 59 85 60 52 61 36 62 37 63 45 64 38 65 40 66 46 67
REMARK SMILES IDX 39 68 41 69 42 70 43 71 44 72 68 73 69 74 77 75 70 76 72 77
REMARK SMILES IDX 78 78 71 79 73 80 74 81 75 82 76 83 53 84 54 85 62 86 55 87
REMARK SMILES IDX 57 88 63 89 56 90 58 91 59 92 60 93 61 94
REMARK H PARENT 20 6 10 18 24 28 83 47 51 58
REMARK Flexibility Score: inf
ROOT
ATOM      1  C   UNL A   1      33.174  29.948  27.444  1.00  0.00     0.042 C 
ENDROOT
BRANCH   1   2
ATOM      2  C   UNL A   1      32.475  29.555  26.148  1.00  0.00     0.117 C 
BRANCH   2   3
ATOM      3  N   UNL A   1      33.342  29.554  24.990  1.00  0.00    -0.354 N 
ATOM      4  C   UNL A   1      33.684  28.508  24.181  1.00  0.00     0.248 C 
ATOM      5  O   UNL A   1      34.359  28.750  23.175  1.00  0.00    -0.272 OA
ATOM      6  H   UNL A   1      33.738  30.423  24.753  1.00  0.00     0.163 HD
BRANCH   4   7
ATOM      7  C   UNL A   1      33.345  27.032  24.534  1.00  0.00     0.223 C 
BRANCH   7   8
ATOM      8  C   UNL A   1      32.632  26.417  23.339  1.00  0.00     0.070 A 
ATOM      9  N   UNL A   1      31.379  26.746  22.842  1.00  0.00    -0.330 N 
ATOM     10  C   UNL A   1      31.323  26.247  21.563  1.00  0.00     0.199 A 
ATOM     11  N   UNL A   1      32.286  25.389  21.334  1.00  0.00    -0.245 NA
ATOM     12  C   UNL A   1      33.075  25.457  22.441  1.00  0.00     0.137 A 
BRANCH   9  13
ATOM     13  C   UNL A   1      30.245  27.349  23.551  1.00  0.00     0.082 C 
ATOM     14  C   UNL A   1      29.552  28.473  22.754  1.00  0.00     0.031 C 
ATOM     15  C   UNL A   1      29.172  26.292  23.854  1.00  0.00     0.031 C 
ENDBRANCH   9  13
ENDBRANCH   7   8
BRANCH   7  16
ATOM     16  N   UNL A   1      34.418  26.116  24.913  1.00  0.00    -0.304 N 
ATOM     17  C   UNL A   1      34.362  24.963  25.651  1.00  0.00     0.408 C 
ATOM     18  H   UNL A   1      35.314  26.365  24.590  1.00  0.00     0.168 HD
ATOM     19  O   UNL A   1      35.314  24.207  25.676  1.00  0.00    -0.225 OA
BRANCH  17  20
ATOM     20  O   UNL A   1      33.243  24.847  26.406  1.00  0.00    -0.444 OA
BRANCH  20  21
ATOM     21  C   UNL A   1      32.358  23.692  26.306  1.00  0.00     0.106 C 
ATOM     22  C   UNL A   1      32.538  22.969  24.970  1.00  0.00     0.056 C 
ATOM     23  C   UNL A   1      32.532  22.712  27.481  1.00  0.00     0.056 C 
ATOM     24  C   UNL A   1      30.930  24.264  26.364  1.00  0.00     0.056 C 
ENDBRANCH  20  21
ENDBRANCH  17  20
ENDBRANCH   7  16
ENDBRANCH   4   7
ENDBRANCH   2   3
ENDBRANCH   1   2
BRANCH   1  25
ATOM     25  C   UNL A   1      33.811  31.315  27.315  1.00  0.00     0.118 C 
BRANCH  25  26
ATOM     26  N   UNL A   1      33.801  32.052  28.594  1.00  0.00    -0.352 N 
ATOM     27  C   UNL A   1      34.729  32.002  29.619  1.00  0.00     0.251 C 
ATOM     28  H   UNL A   1      33.037  32.655  28.736  1.00  0.00     0.163 HD
ATOM     29  O   UNL A   1      34.453  32.380  30.750  1.00  0.00    -0.269 OA
BRANCH  27  30
ATOM     30  C   UNL A   1      36.074  31.513  29.289  1.00  0.00     0.039 A 
ATOM     31  C   UNL A   1      37.166  32.366  29.115  1.00  0.00     0.014 A 
ATOM     32  C   UNL A   1      36.224  30.132  29.287  1.00  0.00     0.014 A 
ATOM     33  C   UNL A   1      38.432  31.797  29.011  1.00  0.00     0.010 A 
ATOM     34  C   UNL A   1      37.470  29.611  29.461  1.00  0.00     0.010 A 
ATOM     35  C   UNL A   1      38.570  30.413  29.209  1.00  0.00    -0.014 A 
BRANCH  35  36
ATOM     36  C   UNL A   1      39.867  29.763  29.321  1.00  0.00     0.031 A 
ATOM     37  C   UNL A   1      40.284  29.586  30.733  1.00  0.00     0.074 A 
ATOM     38  C   UNL A   1      40.464  29.156  28.271  1.00  0.00     0.049 A 
ATOM     39  N   UNL A   1      41.080  30.351  31.406  1.00  0.00    -0.248 NA
ATOM     40  C   UNL A   1      39.533  28.634  31.569  1.00  0.00     0.031 C 
ATOM     41  C   UNL A   1      39.933  28.970  26.912  1.00  0.00     0.029 A 
ATOM     42  N   UNL A   1      41.623  28.447  28.226  1.00  0.00    -0.354 N 
ATOM     43  C   UNL A   1      41.186  29.737  32.650  1.00  0.00     0.074 A 
ATOM     44  C   UNL A   1      39.993  28.951  32.782  1.00  0.00     0.031 C 
ATOM     45  C   UNL A   1      40.636  28.006  26.276  1.00  0.00     0.029 A 
ATOM     46  C   UNL A   1      41.761  27.625  27.106  1.00  0.00     0.049 A 
ATOM     47  H   UNL A   1      42.311  28.509  28.927  1.00  0.00     0.167 HD
ATOM     48  C   UNL A   1      42.410  29.605  33.241  1.00  0.00     0.034 A 
ATOM     49  C   UNL A   1      42.709  26.673  26.904  1.00  0.00     0.034 A 
ATOM     50  C   UNL A   1      43.383  30.433  32.547  1.00  0.00     0.049 A 
ATOM     51  C   UNL A   1      43.825  26.984  27.827  1.00  0.00     0.074 A 
ATOM     52  C   UNL A   1      43.497  31.767  32.212  1.00  0.00     0.029 A 
ATOM     53  N   UNL A   1      44.244  29.759  31.713  1.00  0.00    -0.354 N 
ATOM     54  N   UNL A   1      44.563  28.053  27.722  1.00  0.00    -0.248 NA
ATOM     55  C   UNL A   1      43.814  26.352  29.134  1.00  0.00     0.031 C 
ATOM     56  C   UNL A   1      44.093  31.777  30.913  1.00  0.00     0.029 A 
ATOM     57  C   UNL A   1      44.402  30.464  30.556  1.00  0.00     0.049 A 
ATOM     58  H   UNL A   1      44.679  28.900  31.919  1.00  0.00     0.167 HD
ATOM     59  C   UNL A   1      44.683  28.505  29.030  1.00  0.00     0.074 A 
ATOM     60  C   UNL A   1      44.316  27.355  29.859  1.00  0.00     0.031 C 
ATOM     61  C   UNL A   1      44.753  29.844  29.296  1.00  0.00     0.034 A 
BRANCH  48  62
ATOM     62  C   UNL A   1      42.880  28.396  34.053  1.00  0.00     0.023 A 
ATOM     63  C   UNL A   1      43.750  27.503  33.381  1.00  0.00     0.012 A 
ATOM     64  C   UNL A   1      42.311  27.920  35.257  1.00  0.00     0.148 A 
ATOM     65  C   UNL A   1      43.910  26.174  33.784  1.00  0.00     0.002 A 
ATOM     66  C   UNL A   1      42.503  26.607  35.681  1.00  0.00     0.091 A 
ATOM     67  F   UNL A   1      41.523  28.696  35.995  1.00  0.00    -0.205 F 
ATOM     68  C   UNL A   1      43.267  25.719  34.925  1.00  0.00     0.022 A 
BRANCH  66  69
ATOM     69  S   UNL A   1      41.718  25.962  37.169  1.00  0.00     0.127 S 
ATOM     70  O   UNL A   1      41.396  24.600  36.756  1.00  0.00    -0.237 OA
ATOM     71  O   UNL A   1      42.802  26.079  38.143  1.00  0.00    -0.237 OA
ATOM     72  O   UNL A   1      40.574  26.827  37.430  1.00  0.00    -0.744 OA
ENDBRANCH  66  69
ENDBRANCH  48  62
BRANCH  49  73
ATOM     73  C   UNL A   1      42.653  25.378  26.179  1.00  0.00     0.023 A 
ATOM     74  C   UNL A   1      43.685  25.032  25.280  1.00  0.00     0.012 A 
ATOM     75  C   UNL A   1      41.770  24.358  26.593  1.00  0.00     0.148 A 
ATOM     76  C   UNL A   1      43.860  23.711  24.846  1.00  0.00     0.002 A 
ATOM     77  C   UNL A   1      41.944  23.046  26.156  1.00  0.00     0.091 A 
ATOM     78  F   UNL A   1      40.818  24.655  27.488  1.00  0.00    -0.205 F 
ATOM     79  C   UNL A   1      42.996  22.716  25.293  1.00  0.00     0.022 A 
BRANCH  77  80
ATOM     80  S   UNL A   1      40.892  21.699  26.717  1.00  0.00     0.127 S 
ATOM     81  O   UNL A   1      39.584  22.103  26.202  1.00  0.00    -0.237 OA
ATOM     82  O   UNL A   1      41.487  20.549  26.043  1.00  0.00    -0.237 OA
ATOM     83  O   UNL A   1      40.992  21.700  28.170  1.00  0.00    -0.744 OA
ENDBRANCH  77  80
ENDBRANCH  49  73
BRANCH  61  84
ATOM     84  C   UNL A   1      45.034  30.778  28.148  1.00  0.00     0.023 A 
ATOM     85  C   UNL A   1      44.021  31.357  27.352  1.00  0.00     0.012 A 
ATOM     86  C   UNL A   1      46.362  31.191  27.962  1.00  0.00     0.148 A 
ATOM     87  C   UNL A   1      44.338  32.309  26.378  1.00  0.00     0.002 A 
ATOM     88  C   UNL A   1      46.666  32.168  27.026  1.00  0.00     0.091 A 
ATOM     89  F   UNL A   1      47.310  30.629  28.729  1.00  0.00    -0.205 F 
ATOM     90  C   UNL A   1      45.659  32.724  26.223  1.00  0.00     0.022 A 
BRANCH  88  91
ATOM     91  S   UNL A   1      48.330  32.816  26.868  1.00  0.00     0.127 S 
ATOM     92  O   UNL A   1      49.091  31.620  26.514  1.00  0.00    -0.237 OA
ATOM     93  O   UNL A   1      48.186  33.794  25.788  1.00  0.00    -0.237 OA
ATOM     94  O   UNL A   1      48.655  33.406  28.162  1.00  0.00    -0.744 OA
ENDBRANCH  88  91
ENDBRANCH  61  84
ENDBRANCH  35  36
ENDBRANCH  27  30
ENDBRANCH  25  26
ENDBRANCH   1  25
TORSDOF 18
ENDMDL
MODEL 3
REMARK VINA RESULT:     -10.7      1.754      2.380
REMARK SMILES CC(C)n1cncc1[C@@H](NC(=O)OC(C)(C)C)C(=O)NCCCNC(=O)c1ccc(-c2c3nc(c(-c4cccc(S(=O)(=O)[O-])c4F)c4ccc([nH]4)c(-c4cccc(S(=O)(=O)[O-])c4F)c4nc(c(-c5cccc(S(=O)(=O)[O-])c5F)c5ccc2[nH]5)C=C4)C=C3)cc1
REMARK SMILES IDX 22 1 21 2 20 3 18 4 19 5 9 7 8 8 4 9 5 10 6 11 7 12 2 13
REMARK SMILES IDX 1 14 3 15 10 16 11 17 12 19 13 20 14 21 15 22 16 23 17 24
REMARK SMILES IDX 23 25 24 26 25 27 26 29 27 30 28 31 89 32 29 33 88 34 30 35
REMARK SMILES IDX 31 36 32 37 82 38 33 39 87 40 81 41 83 42 34 43 86 44 80 45
REMARK SMILES IDX 79 46 35 48 67 49 47 50 66 51 48 52 51 53 65 54 84 55 49 56
REMARK SMILES IDX 50 57 64 59 85 60 52 61 36 62 37 63 45 64 38 65 40 66 46 67
REMARK SMILES IDX 39 68 41 69 42 70 43 71 44 72 68 73 69 74 77 75 70 76 72 77
REMARK SMILES IDX 78 78 71 79 73 80 74 81 75 82 76 83 53 84 54 85 62 86 55 87
REMARK SMILES IDX 57 88 63 89 56 90 58 91 59 92 60 93 61 94
REMARK H PARENT 20 6 10 18 24 28 83 47 51 58
REMARK Flexibility Score: inf
ROOT
ATOM      1  C   UNL A   1      31.560  31.799  26.867  1.00  0.00     0.042 C 
ENDROOT
BRANCH   1   2
ATOM      2  C   UNL A   1      31.813  30.316  26.625  1.00  0.00     0.117 C 
BRANCH   2   3
ATOM      3  N   UNL A   1      33.102  29.855  27.093  1.00  0.00    -0.354 N 
ATOM      4  C   UNL A   1      33.765  28.706  26.772  1.00  0.00     0.248 C 
ATOM      5  O   UNL A   1      34.912  28.558  27.208  1.00  0.00    -0.272 OA
ATOM      6  H   UNL A   1      33.561  30.450  27.729  1.00  0.00     0.163 HD
BRANCH   4   7
ATOM      7  C   UNL A   1      33.099  27.550  25.974  1.00  0.00     0.223 C 
BRANCH   7   8
ATOM      8  C   UNL A   1      33.135  27.919  24.498  1.00  0.00     0.070 A 
ATOM      9  N   UNL A   1      32.104  28.446  23.734  1.00  0.00    -0.330 N 
ATOM     10  C   UNL A   1      32.687  28.985  22.612  1.00  0.00     0.199 A 
ATOM     11  N   UNL A   1      33.922  28.576  22.462  1.00  0.00    -0.245 NA
ATOM     12  C   UNL A   1      34.193  27.883  23.602  1.00  0.00     0.137 A 
BRANCH   9  13
ATOM     13  C   UNL A   1      30.658  28.330  23.947  1.00  0.00     0.082 C 
ATOM     14  C   UNL A   1      29.887  29.631  23.647  1.00  0.00     0.031 C 
ATOM     15  C   UNL A   1      30.063  27.242  23.039  1.00  0.00     0.031 C 
ENDBRANCH   9  13
ENDBRANCH   7   8
BRANCH   7  16
ATOM     16  N   UNL A   1      33.628  26.194  26.092  1.00  0.00    -0.304 N 
ATOM     17  C   UNL A   1      32.961  25.007  26.251  1.00  0.00     0.408 C 
ATOM     18  H   UNL A   1      34.609  26.122  26.052  1.00  0.00     0.168 HD
ATOM     19  O   UNL A   1      33.547  23.952  26.101  1.00  0.00    -0.225 OA
BRANCH  17  20
ATOM     20  O   UNL A   1      31.689  25.146  26.697  1.00  0.00    -0.444 OA
BRANCH  20  21
ATOM     21  C   UNL A   1      30.557  24.536  26.010  1.00  0.00     0.106 C 
ATOM     22  C   UNL A   1      29.330  25.448  26.045  1.00  0.00     0.056 C 
ATOM     23  C   UNL A   1      30.892  24.132  24.563  1.00  0.00     0.056 C 
ATOM     24  C   UNL A   1      30.237  23.256  26.805  1.00  0.00     0.056 C 
ENDBRANCH  20  21
ENDBRANCH  17  20
ENDBRANCH   7  16
ENDBRANCH   4   7
ENDBRANCH   2   3
ENDBRANCH   1   2
BRANCH   1  25
ATOM     25  C   UNL A   1      32.828  32.491  27.323  1.00  0.00     0.118 C 
BRANCH  25  26
ATOM     26  N   UNL A   1      32.570  33.868  27.787  1.00  0.00    -0.352 N 
ATOM     27  C   UNL A   1      33.140  34.531  28.860  1.00  0.00     0.251 C 
ATOM     28  H   UNL A   1      31.909  34.379  27.268  1.00  0.00     0.163 HD
ATOM     29  O   UNL A   1      32.614  35.521  29.351  1.00  0.00    -0.269 OA
BRANCH  27  30
ATOM     30  C   UNL A   1      34.421  34.022  29.365  1.00  0.00     0.039 A 
ATOM     31  C   UNL A   1      34.508  32.985  30.297  1.00  0.00     0.014 A 
ATOM     32  C   UNL A   1      35.555  34.551  28.760  1.00  0.00     0.014 A 
ATOM     33  C   UNL A   1      35.762  32.439  30.554  1.00  0.00     0.010 A 
ATOM     34  C   UNL A   1      36.714  33.838  28.810  1.00  0.00     0.010 A 
ATOM     35  C   UNL A   1      36.857  32.864  29.783  1.00  0.00    -0.014 A 
BRANCH  35  36
ATOM     36  C   UNL A   1      38.155  32.210  29.838  1.00  0.00     0.031 A 
ATOM     37  C   UNL A   1      38.109  30.827  29.306  1.00  0.00     0.074 A 
ATOM     38  C   UNL A   1      39.297  32.891  30.086  1.00  0.00     0.049 A 
ATOM     39  N   UNL A   1      38.002  29.738  29.993  1.00  0.00    -0.248 NA
ATOM     40  C   UNL A   1      37.876  30.641  27.864  1.00  0.00     0.031 C 
ATOM     41  C   UNL A   1      39.465  34.343  30.261  1.00  0.00     0.029 A 
ATOM     42  N   UNL A   1      40.583  32.451  30.097  1.00  0.00    -0.354 N 
ATOM     43  C   UNL A   1      38.051  28.720  29.045  1.00  0.00     0.074 A 
ATOM     44  C   UNL A   1      37.624  29.330  27.819  1.00  0.00     0.031 C 
ATOM     45  C   UNL A   1      40.767  34.673  30.107  1.00  0.00     0.029 A 
ATOM     46  C   UNL A   1      41.545  33.456  29.990  1.00  0.00     0.049 A 
ATOM     47  H   UNL A   1      40.816  31.498  30.174  1.00  0.00     0.167 HD
ATOM     48  C   UNL A   1      38.827  27.619  29.270  1.00  0.00     0.034 A 
ATOM     49  C   UNL A   1      42.877  33.291  29.779  1.00  0.00     0.034 A 
ATOM     50  C   UNL A   1      39.250  27.590  30.660  1.00  0.00     0.049 A 
ATOM     51  C   UNL A   1      43.197  31.896  30.159  1.00  0.00     0.074 A 
ATOM     52  C   UNL A   1      38.627  27.616  31.892  1.00  0.00     0.029 A 
ATOM     53  N   UNL A   1      40.554  27.965  30.889  1.00  0.00    -0.354 N 
ATOM     54  N   UNL A   1      43.112  31.450  31.380  1.00  0.00    -0.248 NA
ATOM     55  C   UNL A   1      43.153  30.887  29.115  1.00  0.00     0.031 C 
ATOM     56  C   UNL A   1      39.471  28.415  32.722  1.00  0.00     0.029 A 
ATOM     57  C   UNL A   1      40.611  28.760  31.995  1.00  0.00     0.049 A 
ATOM     58  H   UNL A   1      41.325  27.700  30.338  1.00  0.00     0.167 HD
ATOM     59  C   UNL A   1      42.502  30.211  31.241  1.00  0.00     0.074 A 
ATOM     60  C   UNL A   1      42.670  29.866  29.828  1.00  0.00     0.031 C 
ATOM     61  C   UNL A   1      41.650  29.746  32.204  1.00  0.00     0.034 A 
BRANCH  48  62
ATOM     62  C   UNL A   1      39.642  26.874  28.209  1.00  0.00     0.023 A 
ATOM     63  C   UNL A   1      39.608  25.460  28.289  1.00  0.00     0.012 A 
ATOM     64  C   UNL A   1      40.644  27.426  27.378  1.00  0.00     0.148 A 
ATOM     65  C   UNL A   1      40.604  24.659  27.722  1.00  0.00     0.002 A 
ATOM     66  C   UNL A   1      41.612  26.623  26.780  1.00  0.00     0.091 A 
ATOM     67  F   UNL A   1      40.730  28.739  27.190  1.00  0.00    -0.205 F 
ATOM     68  C   UNL A   1      41.620  25.244  26.984  1.00  0.00     0.022 A 
BRANCH  66  69
ATOM     69  S   UNL A   1      42.944  27.319  25.786  1.00  0.00     0.127 S 
ATOM     70  O   UNL A   1      43.622  28.164  26.765  1.00  0.00    -0.237 OA
ATOM     71  O   UNL A   1      43.672  26.114  25.391  1.00  0.00    -0.237 OA
ATOM     72  O   UNL A   1      42.301  28.025  24.685  1.00  0.00    -0.744 OA
ENDBRANCH  66  69
ENDBRANCH  48  62
BRANCH  49  73
ATOM     73  C   UNL A   1      43.860  34.131  29.048  1.00  0.00     0.023 A 
ATOM     74  C   UNL A   1      43.467  34.810  27.874  1.00  0.00     0.012 A 
ATOM     75  C   UNL A   1      45.074  34.515  29.657  1.00  0.00     0.148 A 
ATOM     76  C   UNL A   1      44.230  35.864  27.353  1.00  0.00     0.002 A 
ATOM     77  C   UNL A   1      45.832  35.561  29.134  1.00  0.00     0.091 A 
ATOM     78  F   UNL A   1      45.436  33.920  30.801  1.00  0.00    -0.205 F 
ATOM     79  C   UNL A   1      45.407  36.247  27.989  1.00  0.00     0.022 A 
BRANCH  77  80
ATOM     80  S   UNL A   1      47.344  36.138  29.919  1.00  0.00     0.127 S 
ATOM     81  O   UNL A   1      46.859  36.562  31.232  1.00  0.00    -0.237 OA
ATOM     82  O   UNL A   1      48.160  34.927  29.931  1.00  0.00    -0.237 OA
ATOM     83  O   UNL A   1      47.835  37.222  29.080  1.00  0.00    -0.744 OA
ENDBRANCH  77  80
ENDBRANCH  49  73
BRANCH  61  84
ATOM     84  C   UNL A   1      41.654  30.438  33.543  1.00  0.00     0.023 A 
ATOM     85  C   UNL A   1      42.627  30.200  34.537  1.00  0.00     0.012 A 
ATOM     86  C   UNL A   1      40.721  31.467  33.739  1.00  0.00     0.148 A 
ATOM     87  C   UNL A   1      42.647  30.961  35.711  1.00  0.00     0.002 A 
ATOM     88  C   UNL A   1      40.772  32.249  34.883  1.00  0.00     0.091 A 
ATOM     89  F   UNL A   1      39.804  31.679  32.781  1.00  0.00    -0.205 F 
ATOM     90  C   UNL A   1      41.727  31.994  35.879  1.00  0.00     0.022 A 
BRANCH  88  91
ATOM     91  S   UNL A   1      39.685  33.659  35.094  1.00  0.00     0.127 S 
ATOM     92  O   UNL A   1      40.187  34.247  36.334  1.00  0.00    -0.237 OA
ATOM     93  O   UNL A   1      39.953  34.447  33.889  1.00  0.00    -0.237 OA
ATOM     94  O   UNL A   1      38.333  33.117  35.159  1.00  0.00    -0.744 OA
ENDBRANCH  88  91
ENDBRANCH  61  84
ENDBRANCH  35  36
ENDBRANCH  27  30
ENDBRANCH  25  26
ENDBRANCH   1  25
TORSDOF 18
ENDMDL
