MODEL 1
REMARK VINA RESULT:     -12.0      0.000      0.000
REMARK SMILES O=C(NCCCNC(=O)[C@H]1C[C@@H]2CCCC[C@H]2N1C(=O)CN1CSCC1=O)c1ccc(-c2c3nc(c(-c4cccc(S(=O)(=O)[O-])c4F)c4ccc([nH]4)c(-c4cccc(S(=O)(=O)[O-])c4F)c4nc(c(-c5cccc(S(=O)(=O)[O-])c5F)c5ccc2[nH]5)C=C4)C=C3)cc1
REMARK SMILES IDX 5 1 4 2 3 3 1 4 2 5 28 7 29 8 90 9 30 10 89 11 31 12 32 13
REMARK SMILES IDX 33 14 83 15 34 16 88 17 82 18 84 19 35 20 87 21 81 22 80 23
REMARK SMILES IDX 36 25 68 26 48 27 67 28 49 29 52 30 66 31 85 32 50 33 51 34
REMARK SMILES IDX 65 36 86 37 53 38 37 39 38 40 46 41 39 42 41 43 47 44 40 45
REMARK SMILES IDX 42 46 43 47 44 48 45 49 69 50 70 51 78 52 71 53 73 54 79 55
REMARK SMILES IDX 72 56 74 57 75 58 76 59 77 60 54 61 55 62 63 63 56 64 58 65
REMARK SMILES IDX 64 66 57 67 59 68 60 69 61 70 62 71 6 72 7 73 8 74 9 76
REMARK SMILES IDX 10 77 11 78 18 79 12 80 17 81 13 82 16 83 14 84 15 85 19 86
REMARK SMILES IDX 20 87 21 88 22 89 23 90 26 91 24 92 25 93 27 94
REMARK H PARENT 3 6 84 24 52 35 7 75
REMARK Flexibility Score: inf
ROOT
ATOM      1  C   UNL A   1      31.744  28.208  26.659  1.00  0.00     0.042 C 
ENDROOT
BRANCH   1   2
ATOM      2  C   UNL A   1      32.701  29.131  25.905  1.00  0.00     0.118 C 
BRANCH   2   3
ATOM      3  N   UNL A   1      32.420  30.539  26.140  1.00  0.00    -0.352 N 
ATOM      4  O   UNL A   1      32.464  32.516  27.202  1.00  0.00    -0.269 OA
ATOM      5  C   UNL A   1      33.003  31.427  27.012  1.00  0.00     0.251 C 
ATOM      6  H   UNL A   1      31.699  30.916  25.586  1.00  0.00     0.163 HD
BRANCH   5   7
ATOM      7  C   UNL A   1      34.249  31.078  27.733  1.00  0.00     0.039 A 
ATOM      8  C   UNL A   1      34.406  29.829  28.336  1.00  0.00     0.014 A 
ATOM      9  C   UNL A   1      35.301  32.000  27.767  1.00  0.00     0.014 A 
ATOM     10  C   UNL A   1      35.542  29.560  29.095  1.00  0.00     0.010 A 
ATOM     11  C   UNL A   1      36.482  31.691  28.451  1.00  0.00     0.010 A 
ATOM     12  C   UNL A   1      36.601  30.480  29.149  1.00  0.00    -0.014 A 
BRANCH  12  13
ATOM     13  C   UNL A   1      37.848  30.115  29.873  1.00  0.00     0.031 A 
ATOM     14  C   UNL A   1      38.121  30.610  31.268  1.00  0.00     0.074 A 
ATOM     15  C   UNL A   1      38.743  29.317  29.257  1.00  0.00     0.049 A 
ATOM     16  N   UNL A   1      39.138  30.349  32.048  1.00  0.00    -0.248 NA
ATOM     17  C   UNL A   1      37.131  31.521  31.865  1.00  0.00     0.031 C 
ATOM     18  C   UNL A   1      38.615  28.811  27.887  1.00  0.00     0.029 A 
ATOM     19  N   UNL A   1      39.932  28.789  29.692  1.00  0.00    -0.354 N 
ATOM     20  C   UNL A   1      38.936  31.087  33.209  1.00  0.00     0.074 A 
ATOM     21  C   UNL A   1      37.699  31.818  33.027  1.00  0.00     0.031 C 
ATOM     22  C   UNL A   1      39.663  28.026  27.605  1.00  0.00     0.029 A 
ATOM     23  C   UNL A   1      40.567  28.015  28.750  1.00  0.00     0.049 A 
ATOM     24  H   UNL A   1      40.296  28.950  30.593  1.00  0.00     0.167 HD
ATOM     25  C   UNL A   1      39.700  31.140  34.326  1.00  0.00     0.034 A 
ATOM     26  C   UNL A   1      41.753  27.379  28.790  1.00  0.00     0.034 A 
ATOM     27  C   UNL A   1      40.917  30.392  34.509  1.00  0.00     0.049 A 
ATOM     28  C   UNL A   1      42.570  27.444  30.048  1.00  0.00     0.074 A 
ATOM     29  C   UNL A   1      41.728  30.330  35.630  1.00  0.00     0.029 A 
ATOM     30  N   UNL A   1      41.509  29.588  33.547  1.00  0.00    -0.354 N 
ATOM     31  N   UNL A   1      42.292  28.041  31.181  1.00  0.00    -0.248 NA
ATOM     32  C   UNL A   1      43.851  26.725  30.042  1.00  0.00     0.031 C 
ATOM     33  C   UNL A   1      42.825  29.512  35.334  1.00  0.00     0.029 A 
ATOM     34  C   UNL A   1      42.680  29.037  34.041  1.00  0.00     0.049 A 
ATOM     35  H   UNL A   1      41.149  29.432  32.643  1.00  0.00     0.167 HD
ATOM     36  C   UNL A   1      43.348  27.745  32.034  1.00  0.00     0.074 A 
ATOM     37  C   UNL A   1      44.257  26.894  31.293  1.00  0.00     0.031 C 
ATOM     38  C   UNL A   1      43.554  28.155  33.310  1.00  0.00     0.034 A 
BRANCH  25  39
ATOM     39  C   UNL A   1      39.231  32.017  35.461  1.00  0.00     0.023 A 
ATOM     40  C   UNL A   1      38.336  31.500  36.419  1.00  0.00     0.012 A 
ATOM     41  C   UNL A   1      39.729  33.326  35.620  1.00  0.00     0.148 A 
ATOM     42  C   UNL A   1      37.919  32.280  37.498  1.00  0.00     0.002 A 
ATOM     43  C   UNL A   1      39.343  34.083  36.721  1.00  0.00     0.091 A 
ATOM     44  F   UNL A   1      40.566  33.808  34.690  1.00  0.00    -0.205 F 
ATOM     45  C   UNL A   1      38.429  33.565  37.654  1.00  0.00     0.022 A 
BRANCH  43  46
ATOM     46  S   UNL A   1      40.004  35.719  37.055  1.00  0.00     0.127 S 
ATOM     47  O   UNL A   1      41.430  35.435  37.205  1.00  0.00    -0.237 OA
ATOM     48  O   UNL A   1      39.653  36.448  35.835  1.00  0.00    -0.237 OA
ATOM     49  O   UNL A   1      39.329  36.188  38.257  1.00  0.00    -0.744 OA
ENDBRANCH  43  46
ENDBRANCH  25  39
BRANCH  26  50
ATOM     50  C   UNL A   1      42.211  26.592  27.610  1.00  0.00     0.023 A 
ATOM     51  C   UNL A   1      42.968  27.225  26.604  1.00  0.00     0.012 A 
ATOM     52  C   UNL A   1      41.933  25.217  27.499  1.00  0.00     0.148 A 
ATOM     53  C   UNL A   1      43.416  26.505  25.495  1.00  0.00     0.002 A 
ATOM     54  C   UNL A   1      42.434  24.494  26.424  1.00  0.00     0.091 A 
ATOM     55  F   UNL A   1      41.200  24.637  28.460  1.00  0.00    -0.205 F 
ATOM     56  C   UNL A   1      43.159  25.139  25.411  1.00  0.00     0.022 A 
BRANCH  54  57
ATOM     57  S   UNL A   1      42.272  22.708  26.308  1.00  0.00     0.127 S 
ATOM     58  O   UNL A   1      43.047  22.264  27.464  1.00  0.00    -0.237 OA
ATOM     59  O   UNL A   1      40.824  22.528  26.429  1.00  0.00    -0.237 OA
ATOM     60  O   UNL A   1      42.814  22.349  25.005  1.00  0.00    -0.744 OA
ENDBRANCH  54  57
ENDBRANCH  26  50
BRANCH  38  61
ATOM     61  C   UNL A   1      44.794  27.658  34.005  1.00  0.00     0.023 A 
ATOM     62  C   UNL A   1      45.975  28.425  33.970  1.00  0.00     0.012 A 
ATOM     63  C   UNL A   1      44.772  26.455  34.738  1.00  0.00     0.148 A 
ATOM     64  C   UNL A   1      47.126  27.984  34.622  1.00  0.00     0.002 A 
ATOM     65  C   UNL A   1      45.907  26.047  35.428  1.00  0.00     0.091 A 
ATOM     66  F   UNL A   1      43.645  25.728  34.742  1.00  0.00    -0.205 F 
ATOM     67  C   UNL A   1      47.088  26.803  35.360  1.00  0.00     0.022 A 
BRANCH  65  68
ATOM     68  S   UNL A   1      45.921  24.592  36.481  1.00  0.00     0.127 S 
ATOM     69  O   UNL A   1      45.067  25.019  37.589  1.00  0.00    -0.237 OA
ATOM     70  O   UNL A   1      45.331  23.574  35.612  1.00  0.00    -0.237 OA
ATOM     71  O   UNL A   1      47.318  24.358  36.822  1.00  0.00    -0.744 OA
ENDBRANCH  65  68
ENDBRANCH  38  61
ENDBRANCH  12  13
ENDBRANCH   5   7
ENDBRANCH   2   3
ENDBRANCH   1   2
BRANCH   1  72
ATOM     72  C   UNL A   1      31.424  26.907  25.925  1.00  0.00     0.117 C 
BRANCH  72  73
ATOM     73  N   UNL A   1      31.456  25.764  26.808  1.00  0.00    -0.354 N 
ATOM     74  C   UNL A   1      32.059  24.552  26.733  1.00  0.00     0.242 C 
ATOM     75  H   UNL A   1      30.935  25.891  27.634  1.00  0.00     0.163 HD
ATOM     76  O   UNL A   1      31.710  23.737  27.598  1.00  0.00    -0.273 OA
BRANCH  74  77
ATOM     77  C   UNL A   1      33.092  24.129  25.655  1.00  0.00     0.175 C 
ATOM     78  C   UNL A   1      34.520  24.677  25.823  1.00  0.00     0.041 C 
ATOM     79  N   UNL A   1      33.251  22.698  25.299  1.00  0.00    -0.326 N 
ATOM     80  C   UNL A   1      35.374  23.425  25.958  1.00  0.00     0.014 C 
ATOM     81  C   UNL A   1      34.665  22.420  25.043  1.00  0.00     0.089 C 
ATOM     82  C   UNL A   1      36.853  23.548  25.623  1.00  0.00     0.006 C 
ATOM     83  C   UNL A   1      35.273  21.045  25.311  1.00  0.00     0.025 C 
ATOM     84  C   UNL A   1      37.521  22.173  25.748  1.00  0.00     0.000 C 
ATOM     85  C   UNL A   1      36.772  21.084  24.975  1.00  0.00     0.002 C 
BRANCH  79  86
ATOM     86  C   UNL A   1      32.150  22.080  24.721  1.00  0.00     0.243 C 
ATOM     87  O   UNL A   1      31.357  21.420  25.398  1.00  0.00    -0.273 OA
BRANCH  86  88
ATOM     88  C   UNL A   1      31.815  22.311  23.248  1.00  0.00     0.220 C 
BRANCH  88  89
ATOM     89  N   UNL A   1      32.011  23.696  22.830  1.00  0.00    -0.323 N 
ATOM     90  C   UNL A   1      30.987  24.677  23.100  1.00  0.00     0.190 C 
ATOM     91  C   UNL A   1      33.088  24.092  22.064  1.00  0.00     0.233 C 
ATOM     92  S   UNL A   1      31.396  26.150  22.155  1.00  0.00    -0.130 SA
ATOM     93  C   UNL A   1      33.047  25.563  21.727  1.00  0.00     0.171 C 
ATOM     94  O   UNL A   1      34.002  23.353  21.713  1.00  0.00    -0.274 OA
ENDBRANCH  88  89
ENDBRANCH  86  88
ENDBRANCH  79  86
ENDBRANCH  74  77
ENDBRANCH  72  73
ENDBRANCH   1  72
TORSDOF 16
ENDMDL
MODEL 2
REMARK VINA RESULT:     -11.9      1.966      2.623
REMARK SMILES O=C(NCCCNC(=O)[C@H]1C[C@@H]2CCCC[C@H]2N1C(=O)CN1CSCC1=O)c1ccc(-c2c3nc(c(-c4cccc(S(=O)(=O)[O-])c4F)c4ccc([nH]4)c(-c4cccc(S(=O)(=O)[O-])c4F)c4nc(c(-c5cccc(S(=O)(=O)[O-])c5F)c5ccc2[nH]5)C=C4)C=C3)cc1
REMARK SMILES IDX 5 1 4 2 3 3 1 4 2 5 28 7 29 8 90 9 30 10 89 11 31 12 32 13
REMARK SMILES IDX 33 14 83 15 34 16 88 17 82 18 84 19 35 20 87 21 81 22 80 23
REMARK SMILES IDX 36 25 68 26 48 27 67 28 49 29 52 30 66 31 85 32 50 33 51 34
REMARK SMILES IDX 65 36 86 37 53 38 37 39 38 40 46 41 39 42 41 43 47 44 40 45
REMARK SMILES IDX 42 46 43 47 44 48 45 49 69 50 70 51 78 52 71 53 73 54 79 55
REMARK SMILES IDX 72 56 74 57 75 58 76 59 77 60 54 61 55 62 63 63 56 64 58 65
REMARK SMILES IDX 64 66 57 67 59 68 60 69 61 70 62 71 6 72 7 73 8 74 9 76
REMARK SMILES IDX 10 77 11 78 18 79 12 80 17 81 13 82 16 83 14 84 15 85 19 86
REMARK SMILES IDX 20 87 21 88 22 89 23 90 26 91 24 92 25 93 27 94
REMARK H PARENT 3 6 84 24 52 35 7 75
REMARK Flexibility Score: inf
ROOT
ATOM      1  C   UNL A   1      32.400  27.882  27.431  1.00  0.00     0.042 C 
ENDROOT
BRANCH   1   2
ATOM      2  C   UNL A   1      33.618  28.514  26.758  1.00  0.00     0.118 C 
BRANCH   2   3
ATOM      3  N   UNL A   1      33.637  29.963  26.886  1.00  0.00    -0.352 N 
ATOM      4  O   UNL A   1      34.221  31.967  27.712  1.00  0.00    -0.269 OA
ATOM      5  C   UNL A   1      34.516  30.783  27.552  1.00  0.00     0.251 C 
ATOM      6  H   UNL A   1      32.906  30.430  26.422  1.00  0.00     0.163 HD
BRANCH   5   7
ATOM      7  C   UNL A   1      35.791  30.255  28.091  1.00  0.00     0.039 A 
ATOM      8  C   UNL A   1      35.823  29.538  29.288  1.00  0.00     0.014 A 
ATOM      9  C   UNL A   1      36.970  30.440  27.362  1.00  0.00     0.014 A 
ATOM     10  C   UNL A   1      37.044  29.140  29.828  1.00  0.00     0.010 A 
ATOM     11  C   UNL A   1      38.184  29.955  27.861  1.00  0.00     0.010 A 
ATOM     12  C   UNL A   1      38.238  29.329  29.114  1.00  0.00    -0.014 A 
BRANCH  12  13
ATOM     13  C   UNL A   1      39.509  28.790  29.667  1.00  0.00     0.031 A 
ATOM     14  C   UNL A   1      40.134  29.367  30.908  1.00  0.00     0.074 A 
ATOM     15  C   UNL A   1      40.102  27.759  29.033  1.00  0.00     0.049 A 
ATOM     16  N   UNL A   1      41.216  28.984  31.537  1.00  0.00    -0.248 NA
ATOM     17  C   UNL A   1      39.467  30.526  31.522  1.00  0.00     0.031 C 
ATOM     18  C   UNL A   1      39.620  27.144  27.793  1.00  0.00     0.029 A 
ATOM     19  N   UNL A   1      41.233  27.043  29.336  1.00  0.00    -0.354 N 
ATOM     20  C   UNL A   1      41.383  29.871  32.595  1.00  0.00     0.074 A 
ATOM     21  C   UNL A   1      40.294  30.822  32.517  1.00  0.00     0.031 C 
ATOM     22  C   UNL A   1      40.428  26.129  27.458  1.00  0.00     0.029 A 
ATOM     23  C   UNL A   1      41.517  26.053  28.425  1.00  0.00     0.049 A 
ATOM     24  H   UNL A   1      41.787  27.221  30.130  1.00  0.00     0.167 HD
ATOM     25  C   UNL A   1      42.345  29.884  33.549  1.00  0.00     0.034 A 
ATOM     26  C   UNL A   1      42.548  25.189  28.359  1.00  0.00     0.034 A 
ATOM     27  C   UNL A   1      43.412  28.920  33.634  1.00  0.00     0.049 A 
ATOM     28  C   UNL A   1      43.590  25.218  29.439  1.00  0.00     0.074 A 
ATOM     29  C   UNL A   1      44.398  28.811  34.600  1.00  0.00     0.029 A 
ATOM     30  N   UNL A   1      43.646  27.909  32.714  1.00  0.00    -0.354 N 
ATOM     31  N   UNL A   1      43.653  25.981  30.503  1.00  0.00    -0.248 NA
ATOM     32  C   UNL A   1      44.688  24.249  29.326  1.00  0.00     0.031 C 
ATOM     33  C   UNL A   1      45.244  27.754  34.249  1.00  0.00     0.029 A 
ATOM     34  C   UNL A   1      44.765  27.180  33.082  1.00  0.00     0.049 A 
ATOM     35  H   UNL A   1      43.095  27.734  31.916  1.00  0.00     0.167 HD
ATOM     36  C   UNL A   1      44.779  25.564  31.202  1.00  0.00     0.074 A 
ATOM     37  C   UNL A   1      45.352  24.464  30.453  1.00  0.00     0.031 C 
ATOM     38  C   UNL A   1      45.300  26.059  32.352  1.00  0.00     0.034 A 
BRANCH  25  39
ATOM     39  C   UNL A   1      42.277  30.959  34.605  1.00  0.00     0.023 A 
ATOM     40  C   UNL A   1      41.625  30.697  35.827  1.00  0.00     0.012 A 
ATOM     41  C   UNL A   1      42.918  32.201  34.418  1.00  0.00     0.148 A 
ATOM     42  C   UNL A   1      41.582  31.663  36.833  1.00  0.00     0.002 A 
ATOM     43  C   UNL A   1      42.909  33.142  35.442  1.00  0.00     0.091 A 
ATOM     44  F   UNL A   1      43.519  32.440  33.244  1.00  0.00    -0.205 F 
ATOM     45  C   UNL A   1      42.232  32.879  36.644  1.00  0.00     0.022 A 
BRANCH  43  46
ATOM     46  S   UNL A   1      43.783  34.708  35.328  1.00  0.00     0.127 S 
ATOM     47  O   UNL A   1      45.157  34.262  35.105  1.00  0.00    -0.237 OA
ATOM     48  O   UNL A   1      43.148  35.331  34.166  1.00  0.00    -0.237 OA
ATOM     49  O   UNL A   1      43.544  35.393  36.590  1.00  0.00    -0.744 OA
ENDBRANCH  43  46
ENDBRANCH  25  39
BRANCH  26  50
ATOM     50  C   UNL A   1      42.614  24.199  27.247  1.00  0.00     0.023 A 
ATOM     51  C   UNL A   1      43.301  24.529  26.062  1.00  0.00     0.012 A 
ATOM     52  C   UNL A   1      42.033  22.923  27.373  1.00  0.00     0.148 A 
ATOM     53  C   UNL A   1      43.383  23.613  25.012  1.00  0.00     0.002 A 
ATOM     54  C   UNL A   1      42.172  21.995  26.349  1.00  0.00     0.091 A 
ATOM     55  F   UNL A   1      41.372  22.634  28.503  1.00  0.00    -0.205 F 
ATOM     56  C   UNL A   1      42.830  22.344  25.160  1.00  0.00     0.022 A 
BRANCH  54  57
ATOM     57  S   UNL A   1      41.614  20.295  26.511  1.00  0.00     0.127 S 
ATOM     58  O   UNL A   1      42.244  19.663  25.354  1.00  0.00    -0.237 OA
ATOM     59  O   UNL A   1      42.180  19.914  27.806  1.00  0.00    -0.237 OA
ATOM     60  O   UNL A   1      40.160  20.355  26.486  1.00  0.00    -0.744 OA
ENDBRANCH  54  57
ENDBRANCH  26  50
BRANCH  38  61
ATOM     61  C   UNL A   1      46.536  25.390  32.896  1.00  0.00     0.023 A 
ATOM     62  C   UNL A   1      47.811  25.840  32.500  1.00  0.00     0.012 A 
ATOM     63  C   UNL A   1      46.432  24.351  33.841  1.00  0.00     0.148 A 
ATOM     64  C   UNL A   1      48.963  25.240  33.007  1.00  0.00     0.002 A 
ATOM     65  C   UNL A   1      47.584  23.792  34.381  1.00  0.00     0.091 A 
ATOM     66  F   UNL A   1      45.210  23.922  34.189  1.00  0.00    -0.205 F 
ATOM     67  C   UNL A   1      48.849  24.226  33.955  1.00  0.00     0.022 A 
BRANCH  65  68
ATOM     68  S   UNL A   1      47.533  22.550  35.677  1.00  0.00     0.127 S 
ATOM     69  O   UNL A   1      46.904  21.425  34.987  1.00  0.00    -0.237 OA
ATOM     70  O   UNL A   1      48.952  22.362  35.983  1.00  0.00    -0.237 OA
ATOM     71  O   UNL A   1      46.755  23.134  36.762  1.00  0.00    -0.744 OA
ENDBRANCH  65  68
ENDBRANCH  38  61
ENDBRANCH  12  13
ENDBRANCH   5   7
ENDBRANCH   2   3
ENDBRANCH   1   2
BRANCH   1  72
ATOM     72  C   UNL A   1      31.519  27.066  26.485  1.00  0.00     0.117 C 
BRANCH  72  73
ATOM     73  N   UNL A   1      31.458  25.673  26.867  1.00  0.00    -0.354 N 
ATOM     74  C   UNL A   1      32.118  24.569  26.444  1.00  0.00     0.242 C 
ATOM     75  H   UNL A   1      30.805  25.491  27.581  1.00  0.00     0.163 HD
ATOM     76  O   UNL A   1      31.670  23.494  26.868  1.00  0.00    -0.273 OA
BRANCH  74  77
ATOM     77  C   UNL A   1      33.329  24.562  25.473  1.00  0.00     0.175 C 
ATOM     78  C   UNL A   1      34.691  24.947  26.077  1.00  0.00     0.041 C 
ATOM     79  N   UNL A   1      33.589  23.380  24.617  1.00  0.00    -0.326 N 
ATOM     80  C   UNL A   1      35.550  23.711  25.850  1.00  0.00     0.014 C 
ATOM     81  C   UNL A   1      35.034  23.171  24.510  1.00  0.00     0.089 C 
ATOM     82  C   UNL A   1      37.059  23.899  25.840  1.00  0.00     0.006 C 
ATOM     83  C   UNL A   1      35.631  21.780  24.315  1.00  0.00     0.025 C 
ATOM     84  C   UNL A   1      37.739  22.561  25.525  1.00  0.00     0.000 C 
ATOM     85  C   UNL A   1      37.164  21.891  24.275  1.00  0.00     0.002 C 
BRANCH  79  86
ATOM     86  C   UNL A   1      32.621  23.080  23.669  1.00  0.00     0.243 C 
ATOM     87  O   UNL A   1      31.755  22.227  23.885  1.00  0.00    -0.273 OA
BRANCH  86  88
ATOM     88  C   UNL A   1      32.518  23.893  22.379  1.00  0.00     0.220 C 
BRANCH  88  89
ATOM     89  N   UNL A   1      32.081  25.268  22.607  1.00  0.00    -0.323 N 
ATOM     90  C   UNL A   1      30.748  25.523  23.095  1.00  0.00     0.190 C 
ATOM     91  C   UNL A   1      32.851  26.356  22.249  1.00  0.00     0.233 C 
ATOM     92  S   UNL A   1      30.444  27.287  22.919  1.00  0.00    -0.130 SA
ATOM     93  C   UNL A   1      32.168  27.669  22.548  1.00  0.00     0.171 C 
ATOM     94  O   UNL A   1      33.978  26.285  21.771  1.00  0.00    -0.274 OA
ENDBRANCH  88  89
ENDBRANCH  86  88
ENDBRANCH  79  86
ENDBRANCH  74  77
ENDBRANCH  72  73
ENDBRANCH   1  72
TORSDOF 16
ENDMDL
MODEL 3
REMARK VINA RESULT:     -11.9      2.826      3.717
REMARK SMILES O=C(NCCCNC(=O)[C@H]1C[C@@H]2CCCC[C@H]2N1C(=O)CN1CSCC1=O)c1ccc(-c2c3nc(c(-c4cccc(S(=O)(=O)[O-])c4F)c4ccc([nH]4)c(-c4cccc(S(=O)(=O)[O-])c4F)c4nc(c(-c5cccc(S(=O)(=O)[O-])c5F)c5ccc2[nH]5)C=C4)C=C3)cc1
REMARK SMILES IDX 5 1 4 2 3 3 1 4 2 5 28 7 29 8 90 9 30 10 89 11 31 12 32 13
REMARK SMILES IDX 33 14 83 15 34 16 88 17 82 18 84 19 35 20 87 21 81 22 80 23
REMARK SMILES IDX 36 25 68 26 48 27 67 28 49 29 52 30 66 31 85 32 50 33 51 34
REMARK SMILES IDX 65 36 86 37 53 38 37 39 38 40 46 41 39 42 41 43 47 44 40 45
REMARK SMILES IDX 42 46 43 47 44 48 45 49 69 50 70 51 78 52 71 53 73 54 79 55
REMARK SMILES IDX 72 56 74 57 75 58 76 59 77 60 54 61 55 62 63 63 56 64 58 65
REMARK SMILES IDX 64 66 57 67 59 68 60 69 61 70 62 71 6 72 7 73 8 74 9 76
REMARK SMILES IDX 10 77 11 78 18 79 12 80 17 81 13 82 16 83 14 84 15 85 19 86
REMARK SMILES IDX 20 87 21 88 22 89 23 90 26 91 24 92 25 93 27 94
REMARK H PARENT 3 6 84 24 52 35 7 75
REMARK Flexibility Score: inf
ROOT
ATOM      1  C   UNL A   1      33.457  27.876  25.198  1.00  0.00     0.042 C 
ENDROOT
BRANCH   1   2
ATOM      2  C   UNL A   1      33.694  28.267  26.657  1.00  0.00     0.118 C 
BRANCH   2   3
ATOM      3  N   UNL A   1      33.600  29.702  26.872  1.00  0.00    -0.352 N 
ATOM      4  O   UNL A   1      34.036  31.695  27.811  1.00  0.00    -0.269 OA
ATOM      5  C   UNL A   1      34.421  30.550  27.577  1.00  0.00     0.251 C 
ATOM      6  H   UNL A   1      32.826  30.137  26.445  1.00  0.00     0.163 HD
BRANCH   5   7
ATOM      7  C   UNL A   1      35.742  30.095  28.069  1.00  0.00     0.039 A 
ATOM      8  C   UNL A   1      36.880  30.190  27.267  1.00  0.00     0.014 A 
ATOM      9  C   UNL A   1      35.854  29.606  29.375  1.00  0.00     0.014 A 
ATOM     10  C   UNL A   1      38.090  29.663  27.711  1.00  0.00     0.010 A 
ATOM     11  C   UNL A   1      37.093  29.164  29.853  1.00  0.00     0.010 A 
ATOM     12  C   UNL A   1      38.216  29.158  29.014  1.00  0.00    -0.014 A 
BRANCH  12  13
ATOM     13  C   UNL A   1      39.550  28.708  29.496  1.00  0.00     0.031 A 
ATOM     14  C   UNL A   1      40.269  29.426  30.606  1.00  0.00     0.074 A 
ATOM     15  C   UNL A   1      40.113  27.628  28.918  1.00  0.00     0.049 A 
ATOM     16  N   UNL A   1      41.416  29.135  31.165  1.00  0.00    -0.248 NA
ATOM     17  C   UNL A   1      39.626  30.629  31.157  1.00  0.00     0.031 C 
ATOM     18  C   UNL A   1      39.537  26.876  27.800  1.00  0.00     0.029 A 
ATOM     19  N   UNL A   1      41.289  26.972  29.184  1.00  0.00    -0.354 N 
ATOM     20  C   UNL A   1      41.653  30.132  32.104  1.00  0.00     0.074 A 
ATOM     21  C   UNL A   1      40.532  31.046  32.033  1.00  0.00     0.031 C 
ATOM     22  C   UNL A   1      40.341  25.849  27.496  1.00  0.00     0.029 A 
ATOM     23  C   UNL A   1      41.517  25.898  28.357  1.00  0.00     0.049 A 
ATOM     24  H   UNL A   1      41.908  27.245  29.899  1.00  0.00     0.167 HD
ATOM     25  C   UNL A   1      42.698  30.265  32.956  1.00  0.00     0.034 A 
ATOM     26  C   UNL A   1      42.564  25.054  28.283  1.00  0.00     0.034 A 
ATOM     27  C   UNL A   1      43.798  29.339  33.038  1.00  0.00     0.049 A 
ATOM     28  C   UNL A   1      43.700  25.219  29.250  1.00  0.00     0.074 A 
ATOM     29  C   UNL A   1      44.872  29.354  33.912  1.00  0.00     0.029 A 
ATOM     30  N   UNL A   1      43.976  28.241  32.210  1.00  0.00    -0.354 N 
ATOM     31  N   UNL A   1      43.838  26.091  30.219  1.00  0.00    -0.248 NA
ATOM     32  C   UNL A   1      44.813  24.266  29.133  1.00  0.00     0.031 C 
ATOM     33  C   UNL A   1      45.713  28.282  33.592  1.00  0.00     0.029 A 
ATOM     34  C   UNL A   1      45.147  27.579  32.542  1.00  0.00     0.049 A 
ATOM     35  H   UNL A   1      43.359  27.971  31.490  1.00  0.00     0.167 HD
ATOM     36  C   UNL A   1      45.036  25.774  30.846  1.00  0.00     0.074 A 
ATOM     37  C   UNL A   1      45.571  24.613  30.163  1.00  0.00     0.031 C 
ATOM     38  C   UNL A   1      45.646  26.398  31.884  1.00  0.00     0.034 A 
BRANCH  25  39
ATOM     39  C   UNL A   1      42.694  31.444  33.897  1.00  0.00     0.023 A 
ATOM     40  C   UNL A   1      43.226  32.679  33.473  1.00  0.00     0.012 A 
ATOM     41  C   UNL A   1      42.101  31.352  35.172  1.00  0.00     0.148 A 
ATOM     42  C   UNL A   1      43.198  33.793  34.312  1.00  0.00     0.002 A 
ATOM     43  C   UNL A   1      42.037  32.478  35.987  1.00  0.00     0.091 A 
ATOM     44  F   UNL A   1      41.615  30.166  35.567  1.00  0.00    -0.205 F 
ATOM     45  C   UNL A   1      42.595  33.694  35.563  1.00  0.00     0.022 A 
BRANCH  43  46
ATOM     46  S   UNL A   1      41.213  32.476  37.583  1.00  0.00     0.127 S 
ATOM     47  O   UNL A   1      42.062  31.567  38.351  1.00  0.00    -0.237 OA
ATOM     48  O   UNL A   1      41.308  33.881  37.980  1.00  0.00    -0.237 OA
ATOM     49  O   UNL A   1      39.857  32.006  37.334  1.00  0.00    -0.744 OA
ENDBRANCH  43  46
ENDBRANCH  25  39
BRANCH  26  50
ATOM     50  C   UNL A   1      42.557  23.954  27.278  1.00  0.00     0.023 A 
ATOM     51  C   UNL A   1      43.176  24.150  26.028  1.00  0.00     0.012 A 
ATOM     52  C   UNL A   1      41.975  22.706  27.568  1.00  0.00     0.148 A 
ATOM     53  C   UNL A   1      43.190  23.129  25.076  1.00  0.00     0.002 A 
ATOM     54  C   UNL A   1      42.046  21.675  26.640  1.00  0.00     0.091 A 
ATOM     55  F   UNL A   1      41.379  22.544  28.759  1.00  0.00    -0.205 F 
ATOM     56  C   UNL A   1      42.637  21.890  25.386  1.00  0.00     0.022 A 
BRANCH  54  57
ATOM     57  S   UNL A   1      41.485  20.008  27.009  1.00  0.00     0.127 S 
ATOM     58  O   UNL A   1      40.755  19.663  25.792  1.00  0.00    -0.237 OA
ATOM     59  O   UNL A   1      42.752  19.298  27.191  1.00  0.00    -0.237 OA
ATOM     60  O   UNL A   1      40.684  20.124  28.219  1.00  0.00    -0.744 OA
ENDBRANCH  54  57
ENDBRANCH  26  50
BRANCH  38  61
ATOM     61  C   UNL A   1      46.947  25.817  32.373  1.00  0.00     0.023 A 
ATOM     62  C   UNL A   1      46.959  24.966  33.496  1.00  0.00     0.012 A 
ATOM     63  C   UNL A   1      48.150  26.073  31.686  1.00  0.00     0.148 A 
ATOM     64  C   UNL A   1      48.154  24.410  33.951  1.00  0.00     0.002 A 
ATOM     65  C   UNL A   1      49.329  25.474  32.114  1.00  0.00     0.091 A 
ATOM     66  F   UNL A   1      48.122  26.902  30.632  1.00  0.00    -0.205 F 
ATOM     67  C   UNL A   1      49.335  24.654  33.253  1.00  0.00     0.022 A 
BRANCH  65  68
ATOM     68  S   UNL A   1      50.877  25.653  31.221  1.00  0.00     0.127 S 
ATOM     69  O   UNL A   1      51.134  27.086  31.355  1.00  0.00    -0.237 OA
ATOM     70  O   UNL A   1      51.780  24.796  31.990  1.00  0.00    -0.237 OA
ATOM     71  O   UNL A   1      50.614  25.188  29.866  1.00  0.00    -0.744 OA
ENDBRANCH  65  68
ENDBRANCH  38  61
ENDBRANCH  12  13
ENDBRANCH   5   7
ENDBRANCH   2   3
ENDBRANCH   1   2
BRANCH   1  72
ATOM     72  C   UNL A   1      32.183  27.065  24.970  1.00  0.00     0.117 C 
BRANCH  72  73
ATOM     73  N   UNL A   1      32.108  25.915  25.843  1.00  0.00    -0.354 N 
ATOM     74  C   UNL A   1      32.770  24.733  25.874  1.00  0.00     0.242 C 
ATOM     75  H   UNL A   1      31.442  26.011  26.561  1.00  0.00     0.163 HD
ATOM     76  O   UNL A   1      32.309  23.894  26.660  1.00  0.00    -0.273 OA
BRANCH  74  77
ATOM     77  C   UNL A   1      33.998  24.367  24.998  1.00  0.00     0.175 C 
ATOM     78  C   UNL A   1      35.374  24.795  25.537  1.00  0.00     0.041 C 
ATOM     79  N   UNL A   1      34.173  22.979  24.507  1.00  0.00    -0.326 N 
ATOM     80  C   UNL A   1      36.126  23.481  25.692  1.00  0.00     0.014 C 
ATOM     81  C   UNL A   1      35.596  22.637  24.527  1.00  0.00     0.089 C 
ATOM     82  C   UNL A   1      37.646  23.542  25.701  1.00  0.00     0.006 C 
ATOM     83  C   UNL A   1      36.073  21.203  24.743  1.00  0.00     0.025 C 
ATOM     84  C   UNL A   1      38.213  22.120  25.791  1.00  0.00     0.000 C 
ATOM     85  C   UNL A   1      37.611  21.180  24.744  1.00  0.00     0.002 C 
BRANCH  79  86
ATOM     86  C   UNL A   1      33.204  22.507  23.632  1.00  0.00     0.243 C 
ATOM     87  O   UNL A   1      33.239  22.780  22.428  1.00  0.00    -0.273 OA
BRANCH  86  88
ATOM     88  C   UNL A   1      32.137  21.524  24.112  1.00  0.00     0.220 C 
BRANCH  88  89
ATOM     89  N   UNL A   1      32.583  20.134  24.064  1.00  0.00    -0.323 N 
ATOM     90  C   UNL A   1      32.422  19.371  22.850  1.00  0.00     0.190 C 
ATOM     91  C   UNL A   1      33.039  19.466  25.182  1.00  0.00     0.233 C 
ATOM     92  S   UNL A   1      32.739  17.649  23.255  1.00  0.00    -0.130 SA
ATOM     93  C   UNL A   1      33.402  18.030  24.889  1.00  0.00     0.171 C 
ATOM     94  O   UNL A   1      33.172  19.974  26.290  1.00  0.00    -0.274 OA
ENDBRANCH  88  89
ENDBRANCH  86  88
ENDBRANCH  79  86
ENDBRANCH  74  77
ENDBRANCH  72  73
ENDBRANCH   1  72
TORSDOF 16
ENDMDL
