MODEL 1
REMARK VINA RESULT:     -10.2      0.000      0.000
REMARK SMILES COc1ccc(NS(=O)(=O)c2ccc(NC(=O)[C@H]3CCCC[C@@H]3C(=O)NCCCNC(=O)c3ccc(-c4c5nc(c(-c6cccc(S(=O)(=O)[O-])c6F)c6ccc([nH]6)c(-c6cccc(S(=O)(=O)[O-])c6F)c6nc(c(-c7cccc(S(=O)(=O)[O-])c7F)c7ccc4[nH]7)C=C6)C=C5)cc3)cc2)cc1
REMARK SMILES IDX 24 1 25 2 26 3 23 5 18 6 19 7 20 8 22 9 21 10 16 11 15 12
REMARK SMILES IDX 17 14 14 15 11 16 12 17 97 18 13 19 96 20 8 21 9 22 10 23
REMARK SMILES IDX 7 24 6 26 3 27 4 28 99 29 5 30 98 31 2 32 1 33 27 34 28 35
REMARK SMILES IDX 29 36 30 37 31 38 32 40 33 41 34 42 95 43 35 44 94 45 36 46
REMARK SMILES IDX 37 47 38 48 88 49 39 50 93 51 87 52 89 53 40 54 92 55 86 56
REMARK SMILES IDX 85 57 41 59 73 60 53 61 72 62 54 63 57 64 71 65 90 66 55 67
REMARK SMILES IDX 56 68 70 70 91 71 58 72 42 73 43 74 51 75 44 76 46 77 52 78
REMARK SMILES IDX 45 79 47 80 48 81 49 82 50 83 74 84 75 85 83 86 76 87 78 88
REMARK SMILES IDX 84 89 77 90 79 91 80 92 81 93 82 94 59 95 60 96 68 97 61 98
REMARK SMILES IDX 63 99 69 100 62 101 64 102 65 103 66 104 67 105
REMARK H PARENT 26 4 15 13 7 25 30 39 89 58 57 69
REMARK Flexibility Score: inf
ROOT
ATOM      1  C   UNL A   1      35.829  32.717  31.969  1.00  0.00     0.223 C 
ATOM      2  O   UNL A   1      34.732  32.562  31.418  1.00  0.00    -0.275 OA
ATOM      3  N   UNL A   1      36.001  32.100  33.173  1.00  0.00    -0.356 N 
ATOM      4  H   UNL A   1      35.326  32.299  33.861  1.00  0.00     0.163 HD
ENDROOT
BRANCH   1   5
ATOM      5  C   UNL A   1      36.795  33.791  31.444  1.00  0.00     0.091 C 
ATOM      6  C   UNL A   1      38.021  33.311  30.656  1.00  0.00     0.091 C 
ATOM      7  C   UNL A   1      39.381  33.407  31.365  1.00  0.00     0.014 C 
ATOM      8  C   UNL A   1      39.527  34.561  32.341  1.00  0.00     0.001 C 
ATOM      9  C   UNL A   1      37.039  34.767  32.615  1.00  0.00     0.014 C 
ATOM     10  C   UNL A   1      38.374  34.625  33.321  1.00  0.00     0.001 C 
BRANCH   6  11
ATOM     11  C   UNL A   1      38.116  33.721  29.160  1.00  0.00     0.228 C 
ATOM     12  N   UNL A   1      37.110  33.549  28.252  1.00  0.00    -0.326 N 
ATOM     13  H   UNL A   1      37.060  34.257  27.568  1.00  0.00     0.169 HD
ATOM     14  O   UNL A   1      39.084  34.399  28.790  1.00  0.00    -0.274 OA
BRANCH  12  15
ATOM     15  C   UNL A   1      36.141  32.554  28.114  1.00  0.00     0.041 A 
ATOM     16  C   UNL A   1      34.281  30.569  27.512  1.00  0.00     0.087 A 
ATOM     17  C   UNL A   1      33.854  31.874  27.757  1.00  0.00     0.024 A 
ATOM     18  C   UNL A   1      35.606  30.213  27.764  1.00  0.00     0.024 A 
ATOM     19  C   UNL A   1      34.787  32.856  28.087  1.00  0.00     0.027 A 
ATOM     20  C   UNL A   1      36.539  31.214  28.066  1.00  0.00     0.027 A 
BRANCH  16  21
ATOM     21  S   UNL A   1      33.141  29.513  26.637  1.00  0.00     0.261 S 
ATOM     22  O   UNL A   1      31.810  29.876  27.082  1.00  0.00    -0.201 OA
ATOM     23  O   UNL A   1      33.638  28.163  26.788  1.00  0.00    -0.201 OA
BRANCH  21  24
ATOM     24  N   UNL A   1      33.263  29.867  25.013  1.00  0.00    -0.280 N 
ATOM     25  H   UNL A   1      33.590  30.767  24.785  1.00  0.00     0.180 HD
BRANCH  24  26
ATOM     26  C   UNL A   1      32.948  29.013  23.920  1.00  0.00     0.049 A 
ATOM     27  C   UNL A   1      32.353  26.862  22.232  1.00  0.00     0.119 A 
ATOM     28  C   UNL A   1      33.590  27.493  22.150  1.00  0.00     0.048 A 
ATOM     29  C   UNL A   1      31.377  27.351  23.094  1.00  0.00     0.048 A 
ATOM     30  C   UNL A   1      33.872  28.597  22.962  1.00  0.00     0.030 A 
ATOM     31  C   UNL A   1      31.676  28.427  23.934  1.00  0.00     0.030 A 
BRANCH  27  32
ATOM     32  O   UNL A   1      32.211  25.679  21.565  1.00  0.00    -0.497 OA
ATOM     33  C   UNL A   1      32.952  24.614  22.153  1.00  0.00     0.278 C 
ENDBRANCH  27  32
ENDBRANCH  24  26
ENDBRANCH  21  24
ENDBRANCH  16  21
ENDBRANCH  12  15
ENDBRANCH   6  11
ENDBRANCH   1   5
BRANCH   3  34
ATOM     34  C   UNL A   1      37.064  31.188  33.563  1.00  0.00     0.117 C 
BRANCH  34  35
ATOM     35  C   UNL A   1      38.052  31.749  34.577  1.00  0.00     0.042 C 
BRANCH  35  36
ATOM     36  C   UNL A   1      39.464  31.178  34.502  1.00  0.00     0.118 C 
BRANCH  36  37
ATOM     37  N   UNL A   1      39.495  29.764  34.160  1.00  0.00    -0.352 N 
ATOM     38  C   UNL A   1      40.163  29.080  33.175  1.00  0.00     0.251 C 
ATOM     39  H   UNL A   1      38.937  29.197  34.740  1.00  0.00     0.163 HD
ATOM     40  O   UNL A   1      39.888  27.894  32.997  1.00  0.00    -0.269 OA
BRANCH  38  41
ATOM     41  C   UNL A   1      41.183  29.728  32.312  1.00  0.00     0.039 A 
ATOM     42  C   UNL A   1      42.297  30.312  32.928  1.00  0.00     0.014 A 
ATOM     43  C   UNL A   1      41.028  29.847  30.929  1.00  0.00     0.014 A 
ATOM     44  C   UNL A   1      43.266  30.964  32.160  1.00  0.00     0.010 A 
ATOM     45  C   UNL A   1      42.034  30.430  30.155  1.00  0.00     0.010 A 
ATOM     46  C   UNL A   1      43.155  31.012  30.761  1.00  0.00    -0.014 A 
BRANCH  46  47
ATOM     47  C   UNL A   1      44.191  31.692  29.936  1.00  0.00     0.031 A 
ATOM     48  C   UNL A   1      43.983  33.107  29.459  1.00  0.00     0.074 A 
ATOM     49  C   UNL A   1      45.305  31.024  29.576  1.00  0.00     0.049 A 
ATOM     50  N   UNL A   1      44.780  33.861  28.745  1.00  0.00    -0.248 NA
ATOM     51  C   UNL A   1      42.705  33.751  29.806  1.00  0.00     0.031 C 
ATOM     52  C   UNL A   1      45.593  29.624  29.892  1.00  0.00     0.029 A 
ATOM     53  N   UNL A   1      46.402  31.432  28.858  1.00  0.00    -0.354 N 
ATOM     54  C   UNL A   1      44.091  35.050  28.530  1.00  0.00     0.074 A 
ATOM     55  C   UNL A   1      42.796  34.906  29.159  1.00  0.00     0.031 C 
ATOM     56  C   UNL A   1      46.794  29.296  29.389  1.00  0.00     0.029 A 
ATOM     57  C   UNL A   1      47.362  30.459  28.713  1.00  0.00     0.049 A 
ATOM     58  H   UNL A   1      46.492  32.338  28.481  1.00  0.00     0.167 HD
ATOM     59  C   UNL A   1      44.507  36.176  27.905  1.00  0.00     0.034 A 
ATOM     60  C   UNL A   1      48.574  30.504  28.125  1.00  0.00     0.034 A 
ATOM     61  C   UNL A   1      45.819  36.352  27.342  1.00  0.00     0.049 A 
ATOM     62  C   UNL A   1      49.057  31.803  27.537  1.00  0.00     0.074 A 
ATOM     63  C   UNL A   1      46.357  37.476  26.739  1.00  0.00     0.029 A 
ATOM     64  N   UNL A   1      46.808  35.382  27.333  1.00  0.00    -0.354 N 
ATOM     65  N   UNL A   1      48.444  32.960  27.479  1.00  0.00    -0.248 NA
ATOM     66  C   UNL A   1      50.418  31.816  26.979  1.00  0.00     0.031 C 
ATOM     67  C   UNL A   1      47.680  37.191  26.383  1.00  0.00     0.029 A 
ATOM     68  C   UNL A   1      47.960  35.887  26.754  1.00  0.00     0.049 A 
ATOM     69  H   UNL A   1      46.707  34.469  27.685  1.00  0.00     0.167 HD
ATOM     70  C   UNL A   1      49.351  33.843  26.906  1.00  0.00     0.074 A 
ATOM     71  C   UNL A   1      50.567  33.095  26.661  1.00  0.00     0.031 C 
ATOM     72  C   UNL A   1      49.185  35.150  26.586  1.00  0.00     0.034 A 
BRANCH  59  73
ATOM     73  C   UNL A   1      43.562  37.348  27.881  1.00  0.00     0.023 A 
ATOM     74  C   UNL A   1      42.563  37.395  26.887  1.00  0.00     0.012 A 
ATOM     75  C   UNL A   1      43.621  38.365  28.852  1.00  0.00     0.148 A 
ATOM     76  C   UNL A   1      41.653  38.450  26.843  1.00  0.00     0.002 A 
ATOM     77  C   UNL A   1      42.689  39.397  28.822  1.00  0.00     0.091 A 
ATOM     78  F   UNL A   1      44.593  38.316  29.774  1.00  0.00    -0.205 F 
ATOM     79  C   UNL A   1      41.710  39.444  27.815  1.00  0.00     0.022 A 
BRANCH  77  80
ATOM     80  S   UNL A   1      42.641  40.693  30.066  1.00  0.00     0.127 S 
ATOM     81  O   UNL A   1      41.245  41.123  29.991  1.00  0.00    -0.237 OA
ATOM     82  O   UNL A   1      42.990  39.967  31.287  1.00  0.00    -0.237 OA
ATOM     83  O   UNL A   1      43.626  41.681  29.649  1.00  0.00    -0.744 OA
ENDBRANCH  77  80
ENDBRANCH  59  73
BRANCH  60  84
ATOM     84  C   UNL A   1      49.470  29.315  28.180  1.00  0.00     0.023 A 
ATOM     85  C   UNL A   1      50.321  29.151  29.290  1.00  0.00     0.012 A 
ATOM     86  C   UNL A   1      49.467  28.336  27.170  1.00  0.00     0.148 A 
ATOM     87  C   UNL A   1      51.172  28.050  29.380  1.00  0.00     0.002 A 
ATOM     88  C   UNL A   1      50.284  27.216  27.288  1.00  0.00     0.091 A 
ATOM     89  F   UNL A   1      48.667  28.510  26.108  1.00  0.00    -0.205 F 
ATOM     90  C   UNL A   1      51.148  27.077  28.385  1.00  0.00     0.022 A 
BRANCH  88  91
ATOM     91  S   UNL A   1      50.188  25.875  26.096  1.00  0.00     0.127 S 
ATOM     92  O   UNL A   1      50.638  26.524  24.870  1.00  0.00    -0.237 OA
ATOM     93  O   UNL A   1      51.118  24.886  26.646  1.00  0.00    -0.237 OA
ATOM     94  O   UNL A   1      48.791  25.455  26.135  1.00  0.00    -0.744 OA
ENDBRANCH  88  91
ENDBRANCH  60  84
BRANCH  72  95
ATOM     95  C   UNL A   1      50.347  35.862  25.950  1.00  0.00     0.023 A 
ATOM     96  C   UNL A   1      50.589  35.691  24.574  1.00  0.00     0.012 A 
ATOM     97  C   UNL A   1      51.157  36.742  26.693  1.00  0.00     0.148 A 
ATOM     98  C   UNL A   1      51.638  36.366  23.950  1.00  0.00     0.002 A 
ATOM     99  C   UNL A   1      52.180  37.437  26.056  1.00  0.00     0.091 A 
ATOM    100  F   UNL A   1      50.931  36.876  28.008  1.00  0.00    -0.205 F 
ATOM    101  C   UNL A   1      52.427  37.246  24.688  1.00  0.00     0.022 A 
BRANCH  99 102
ATOM    102  S   UNL A   1      53.175  38.640  26.946  1.00  0.00     0.127 S 
ATOM    103  O   UNL A   1      53.965  37.786  27.830  1.00  0.00    -0.237 OA
ATOM    104  O   UNL A   1      53.943  39.283  25.878  1.00  0.00    -0.237 OA
ATOM    105  O   UNL A   1      52.211  39.518  27.595  1.00  0.00    -0.744 OA
ENDBRANCH  99 102
ENDBRANCH  72  95
ENDBRANCH  46  47
ENDBRANCH  38  41
ENDBRANCH  36  37
ENDBRANCH  35  36
ENDBRANCH  34  35
ENDBRANCH   3  34
TORSDOF 19
ENDMDL
MODEL 2
REMARK VINA RESULT:     -10.2      5.022     11.550
REMARK SMILES COc1ccc(NS(=O)(=O)c2ccc(NC(=O)[C@H]3CCCC[C@@H]3C(=O)NCCCNC(=O)c3ccc(-c4c5nc(c(-c6cccc(S(=O)(=O)[O-])c6F)c6ccc([nH]6)c(-c6cccc(S(=O)(=O)[O-])c6F)c6nc(c(-c7cccc(S(=O)(=O)[O-])c7F)c7ccc4[nH]7)C=C6)C=C5)cc3)cc2)cc1
REMARK SMILES IDX 24 1 25 2 26 3 23 5 18 6 19 7 20 8 22 9 21 10 16 11 15 12
REMARK SMILES IDX 17 14 14 15 11 16 12 17 97 18 13 19 96 20 8 21 9 22 10 23
REMARK SMILES IDX 7 24 6 26 3 27 4 28 99 29 5 30 98 31 2 32 1 33 27 34 28 35
REMARK SMILES IDX 29 36 30 37 31 38 32 40 33 41 34 42 95 43 35 44 94 45 36 46
REMARK SMILES IDX 37 47 38 48 88 49 39 50 93 51 87 52 89 53 40 54 92 55 86 56
REMARK SMILES IDX 85 57 41 59 73 60 53 61 72 62 54 63 57 64 71 65 90 66 55 67
REMARK SMILES IDX 56 68 70 70 91 71 58 72 42 73 43 74 51 75 44 76 46 77 52 78
REMARK SMILES IDX 45 79 47 80 48 81 49 82 50 83 74 84 75 85 83 86 76 87 78 88
REMARK SMILES IDX 84 89 77 90 79 91 80 92 81 93 82 94 59 95 60 96 68 97 61 98
REMARK SMILES IDX 63 99 69 100 62 101 64 102 65 103 66 104 67 105
REMARK H PARENT 26 4 15 13 7 25 30 39 89 58 57 69
REMARK Flexibility Score: inf
ROOT
ATOM      1  C   UNL A   1      42.998  23.312  25.367  1.00  0.00     0.223 C 
ATOM      2  O   UNL A   1      43.014  24.373  24.733  1.00  0.00    -0.275 OA
ATOM      3  N   UNL A   1      43.593  22.236  24.778  1.00  0.00    -0.356 N 
ATOM      4  H   UNL A   1      43.279  22.011  23.872  1.00  0.00     0.163 HD
ENDROOT
BRANCH   1   5
ATOM      5  C   UNL A   1      42.089  23.180  26.600  1.00  0.00     0.091 C 
ATOM      6  C   UNL A   1      41.543  24.476  27.215  1.00  0.00     0.091 C 
ATOM      7  C   UNL A   1      42.150  24.915  28.557  1.00  0.00     0.014 C 
ATOM      8  C   UNL A   1      42.595  23.787  29.470  1.00  0.00     0.001 C 
ATOM      9  C   UNL A   1      42.782  22.180  27.549  1.00  0.00     0.014 C 
ATOM     10  C   UNL A   1      43.480  22.790  28.750  1.00  0.00     0.001 C 
BRANCH   6  11
ATOM     11  C   UNL A   1      40.006  24.697  27.172  1.00  0.00     0.228 C 
ATOM     12  N   UNL A   1      39.393  25.888  27.441  1.00  0.00    -0.326 N 
ATOM     13  H   UNL A   1      38.581  26.053  26.908  1.00  0.00     0.169 HD
ATOM     14  O   UNL A   1      39.290  23.802  26.703  1.00  0.00    -0.274 OA
BRANCH  12  15
ATOM     15  C   UNL A   1      39.707  26.916  28.332  1.00  0.00     0.041 A 
ATOM     16  C   UNL A   1      40.033  29.099  30.033  1.00  0.00     0.087 A 
ATOM     17  C   UNL A   1      40.708  29.056  28.814  1.00  0.00     0.024 A 
ATOM     18  C   UNL A   1      39.357  27.967  30.492  1.00  0.00     0.024 A 
ATOM     19  C   UNL A   1      40.564  27.948  27.981  1.00  0.00     0.027 A 
ATOM     20  C   UNL A   1      39.194  26.871  29.633  1.00  0.00     0.027 A 
BRANCH  16  21
ATOM     21  S   UNL A   1      39.870  30.703  30.794  1.00  0.00     0.261 S 
ATOM     22  O   UNL A   1      40.515  31.653  29.909  1.00  0.00    -0.201 OA
ATOM     23  O   UNL A   1      40.300  30.549  32.166  1.00  0.00    -0.201 OA
BRANCH  21  24
ATOM     24  N   UNL A   1      38.246  31.071  30.862  1.00  0.00    -0.280 N 
ATOM     25  H   UNL A   1      37.623  30.348  30.621  1.00  0.00     0.180 HD
BRANCH  24  26
ATOM     26  C   UNL A   1      37.661  32.315  31.230  1.00  0.00     0.049 A 
ATOM     27  C   UNL A   1      36.547  34.509  32.562  1.00  0.00     0.119 A 
ATOM     28  C   UNL A   1      35.745  33.689  31.776  1.00  0.00     0.048 A 
ATOM     29  C   UNL A   1      37.920  34.291  32.622  1.00  0.00     0.048 A 
ATOM     30  C   UNL A   1      36.308  32.618  31.073  1.00  0.00     0.030 A 
ATOM     31  C   UNL A   1      38.474  33.196  31.953  1.00  0.00     0.030 A 
BRANCH  27  32
ATOM     32  O   UNL A   1      35.915  35.407  33.375  1.00  0.00    -0.497 OA
ATOM     33  C   UNL A   1      34.631  35.790  32.890  1.00  0.00     0.278 C 
ENDBRANCH  27  32
ENDBRANCH  24  26
ENDBRANCH  21  24
ENDBRANCH  16  21
ENDBRANCH  12  15
ENDBRANCH   6  11
ENDBRANCH   1   5
BRANCH   3  34
ATOM     34  C   UNL A   1      44.633  21.381  25.325  1.00  0.00     0.117 C 
BRANCH  34  35
ATOM     35  C   UNL A   1      46.019  22.009  25.377  1.00  0.00     0.042 C 
BRANCH  35  36
ATOM     36  C   UNL A   1      46.070  23.446  25.886  1.00  0.00     0.118 C 
BRANCH  36  37
ATOM     37  N   UNL A   1      46.684  24.369  24.943  1.00  0.00    -0.352 N 
ATOM     38  C   UNL A   1      46.697  25.741  24.888  1.00  0.00     0.251 C 
ATOM     39  H   UNL A   1      47.179  23.930  24.215  1.00  0.00     0.163 HD
ATOM     40  O   UNL A   1      47.159  26.281  23.884  1.00  0.00    -0.269 OA
BRANCH  38  41
ATOM     41  C   UNL A   1      46.157  26.582  25.985  1.00  0.00     0.039 A 
ATOM     42  C   UNL A   1      44.773  26.793  26.038  1.00  0.00     0.014 A 
ATOM     43  C   UNL A   1      46.981  27.233  26.906  1.00  0.00     0.014 A 
ATOM     44  C   UNL A   1      44.221  27.606  27.033  1.00  0.00     0.010 A 
ATOM     45  C   UNL A   1      46.423  27.981  27.946  1.00  0.00     0.010 A 
ATOM     46  C   UNL A   1      45.040  28.193  28.011  1.00  0.00    -0.014 A 
BRANCH  46  47
ATOM     47  C   UNL A   1      44.457  29.049  29.081  1.00  0.00     0.031 A 
ATOM     48  C   UNL A   1      44.123  28.467  30.431  1.00  0.00     0.074 A 
ATOM     49  C   UNL A   1      44.186  30.344  28.827  1.00  0.00     0.049 A 
ATOM     50  N   UNL A   1      43.625  29.063  31.484  1.00  0.00    -0.248 NA
ATOM     51  C   UNL A   1      44.357  27.025  30.617  1.00  0.00     0.031 C 
ATOM     52  C   UNL A   1      44.374  31.014  27.538  1.00  0.00     0.029 A 
ATOM     53  N   UNL A   1      43.684  31.331  29.640  1.00  0.00    -0.354 N 
ATOM     54  C   UNL A   1      43.453  28.069  32.441  1.00  0.00     0.074 A 
ATOM     55  C   UNL A   1      43.869  26.824  31.833  1.00  0.00     0.031 C 
ATOM     56  C   UNL A   1      44.014  32.302  27.654  1.00  0.00     0.029 A 
ATOM     57  C   UNL A   1      43.566  32.553  29.021  1.00  0.00     0.049 A 
ATOM     58  H   UNL A   1      43.432  31.177  30.580  1.00  0.00     0.167 HD
ATOM     59  C   UNL A   1      43.029  28.182  33.722  1.00  0.00     0.034 A 
ATOM     60  C   UNL A   1      43.167  33.746  29.504  1.00  0.00     0.034 A 
ATOM     61  C   UNL A   1      42.685  29.427  34.354  1.00  0.00     0.049 A 
ATOM     62  C   UNL A   1      42.810  33.865  30.962  1.00  0.00     0.074 A 
ATOM     63  C   UNL A   1      42.300  29.653  35.664  1.00  0.00     0.029 A 
ATOM     64  N   UNL A   1      42.704  30.661  33.725  1.00  0.00    -0.354 N 
ATOM     65  N   UNL A   1      42.799  32.936  31.887  1.00  0.00    -0.248 NA
ATOM     66  C   UNL A   1      42.458  35.206  31.453  1.00  0.00     0.031 C 
ATOM     67  C   UNL A   1      42.106  31.029  35.833  1.00  0.00     0.029 A 
ATOM     68  C   UNL A   1      42.359  31.656  34.624  1.00  0.00     0.049 A 
ATOM     69  H   UNL A   1      42.930  30.810  32.779  1.00  0.00     0.167 HD
ATOM     70  C   UNL A   1      42.470  33.582  33.072  1.00  0.00     0.074 A 
ATOM     71  C   UNL A   1      42.316  34.988  32.755  1.00  0.00     0.031 C 
ATOM     72  C   UNL A   1      42.283  33.058  34.308  1.00  0.00     0.034 A 
BRANCH  59  73
ATOM     73  C   UNL A   1      43.006  26.931  34.560  1.00  0.00     0.023 A 
ATOM     74  C   UNL A   1      41.774  26.281  34.777  1.00  0.00     0.012 A 
ATOM     75  C   UNL A   1      44.187  26.372  35.084  1.00  0.00     0.148 A 
ATOM     76  C   UNL A   1      41.713  25.108  35.527  1.00  0.00     0.002 A 
ATOM     77  C   UNL A   1      44.122  25.183  35.803  1.00  0.00     0.091 A 
ATOM     78  F   UNL A   1      45.345  27.017  34.887  1.00  0.00    -0.205 F 
ATOM     79  C   UNL A   1      42.885  24.554  36.031  1.00  0.00     0.022 A 
BRANCH  77  80
ATOM     80  S   UNL A   1      45.585  24.358  36.442  1.00  0.00     0.127 S 
ATOM     81  O   UNL A   1      46.385  24.195  35.229  1.00  0.00    -0.237 OA
ATOM     82  O   UNL A   1      46.109  25.341  37.390  1.00  0.00    -0.237 OA
ATOM     83  O   UNL A   1      45.110  23.123  37.052  1.00  0.00    -0.744 OA
ENDBRANCH  77  80
ENDBRANCH  59  73
BRANCH  60  84
ATOM     84  C   UNL A   1      43.210  34.952  28.631  1.00  0.00     0.023 A 
ATOM     85  C   UNL A   1      42.013  35.423  28.058  1.00  0.00     0.012 A 
ATOM     86  C   UNL A   1      44.407  35.652  28.390  1.00  0.00     0.148 A 
ATOM     87  C   UNL A   1      42.011  36.551  27.237  1.00  0.00     0.002 A 
ATOM     88  C   UNL A   1      44.390  36.804  27.610  1.00  0.00     0.091 A 
ATOM     89  F   UNL A   1      45.544  35.186  28.926  1.00  0.00    -0.205 F 
ATOM     90  C   UNL A   1      43.196  37.248  27.020  1.00  0.00     0.022 A 
BRANCH  88  91
ATOM     91  S   UNL A   1      45.869  37.804  27.412  1.00  0.00     0.127 S 
ATOM     92  O   UNL A   1      46.344  37.922  28.786  1.00  0.00    -0.237 OA
ATOM     93  O   UNL A   1      46.706  36.975  26.542  1.00  0.00    -0.237 OA
ATOM     94  O   UNL A   1      45.395  39.030  26.780  1.00  0.00    -0.744 OA
ENDBRANCH  88  91
ENDBRANCH  60  84
BRANCH  72  95
ATOM     95  C   UNL A   1      41.908  34.004  35.414  1.00  0.00     0.023 A 
ATOM     96  C   UNL A   1      40.549  34.289  35.645  1.00  0.00     0.012 A 
ATOM     97  C   UNL A   1      42.886  34.560  36.261  1.00  0.00     0.148 A 
ATOM     98  C   UNL A   1      40.169  35.135  36.686  1.00  0.00     0.002 A 
ATOM     99  C   UNL A   1      42.497  35.377  37.318  1.00  0.00     0.091 A 
ATOM    100  F   UNL A   1      44.179  34.301  36.015  1.00  0.00    -0.205 F 
ATOM    101  C   UNL A   1      41.141  35.671  37.528  1.00  0.00     0.022 A 
BRANCH  99 102
ATOM    102  S   UNL A   1      43.705  36.029  38.477  1.00  0.00     0.127 S 
ATOM    103  O   UNL A   1      42.859  36.747  39.426  1.00  0.00    -0.237 OA
ATOM    104  O   UNL A   1      44.329  34.818  39.015  1.00  0.00    -0.237 OA
ATOM    105  O   UNL A   1      44.598  36.847  37.667  1.00  0.00    -0.744 OA
ENDBRANCH  99 102
ENDBRANCH  72  95
ENDBRANCH  46  47
ENDBRANCH  38  41
ENDBRANCH  36  37
ENDBRANCH  35  36
ENDBRANCH  34  35
ENDBRANCH   3  34
TORSDOF 19
ENDMDL
MODEL 3
REMARK VINA RESULT:     -10.2      5.815     10.759
REMARK SMILES COc1ccc(NS(=O)(=O)c2ccc(NC(=O)[C@H]3CCCC[C@@H]3C(=O)NCCCNC(=O)c3ccc(-c4c5nc(c(-c6cccc(S(=O)(=O)[O-])c6F)c6ccc([nH]6)c(-c6cccc(S(=O)(=O)[O-])c6F)c6nc(c(-c7cccc(S(=O)(=O)[O-])c7F)c7ccc4[nH]7)C=C6)C=C5)cc3)cc2)cc1
REMARK SMILES IDX 24 1 25 2 26 3 23 5 18 6 19 7 20 8 22 9 21 10 16 11 15 12
REMARK SMILES IDX 17 14 14 15 11 16 12 17 97 18 13 19 96 20 8 21 9 22 10 23
REMARK SMILES IDX 7 24 6 26 3 27 4 28 99 29 5 30 98 31 2 32 1 33 27 34 28 35
REMARK SMILES IDX 29 36 30 37 31 38 32 40 33 41 34 42 95 43 35 44 94 45 36 46
REMARK SMILES IDX 37 47 38 48 88 49 39 50 93 51 87 52 89 53 40 54 92 55 86 56
REMARK SMILES IDX 85 57 41 59 73 60 53 61 72 62 54 63 57 64 71 65 90 66 55 67
REMARK SMILES IDX 56 68 70 70 91 71 58 72 42 73 43 74 51 75 44 76 46 77 52 78
REMARK SMILES IDX 45 79 47 80 48 81 49 82 50 83 74 84 75 85 83 86 76 87 78 88
REMARK SMILES IDX 84 89 77 90 79 91 80 92 81 93 82 94 59 95 60 96 68 97 61 98
REMARK SMILES IDX 63 99 69 100 62 101 64 102 65 103 66 104 67 105
REMARK H PARENT 26 4 15 13 7 25 30 39 89 58 57 69
REMARK Flexibility Score: inf
ROOT
ATOM      1  C   UNL A   1      42.273  25.074  25.631  1.00  0.00     0.223 C 
ATOM      2  O   UNL A   1      41.828  26.033  24.990  1.00  0.00    -0.275 OA
ATOM      3  N   UNL A   1      43.287  24.369  25.055  1.00  0.00    -0.356 N 
ATOM      4  H   UNL A   1      43.115  24.027  24.148  1.00  0.00     0.163 HD
ENDROOT
BRANCH   1   5
ATOM      5  C   UNL A   1      41.500  24.558  26.856  1.00  0.00     0.091 C 
ATOM      6  C   UNL A   1      39.983  24.379  26.707  1.00  0.00     0.091 C 
ATOM      7  C   UNL A   1      39.091  25.402  27.427  1.00  0.00     0.014 C 
ATOM      8  C   UNL A   1      39.652  25.955  28.725  1.00  0.00     0.001 C 
ATOM      9  C   UNL A   1      42.004  25.373  28.065  1.00  0.00     0.014 C 
ATOM     10  C   UNL A   1      41.070  26.461  28.560  1.00  0.00     0.001 C 
BRANCH   6  11
ATOM     11  C   UNL A   1      39.418  22.935  26.817  1.00  0.00     0.228 C 
ATOM     12  N   UNL A   1      38.497  22.403  25.961  1.00  0.00    -0.326 N 
ATOM     13  H   UNL A   1      38.612  21.439  25.793  1.00  0.00     0.169 HD
ATOM     14  O   UNL A   1      39.947  22.150  27.616  1.00  0.00    -0.274 OA
BRANCH  12  15
ATOM     15  C   UNL A   1      37.422  22.975  25.278  1.00  0.00     0.041 A 
ATOM     16  C   UNL A   1      35.090  23.863  24.038  1.00  0.00     0.087 A 
ATOM     17  C   UNL A   1      36.076  23.221  23.291  1.00  0.00     0.024 A 
ATOM     18  C   UNL A   1      35.352  24.240  25.357  1.00  0.00     0.024 A 
ATOM     19  C   UNL A   1      37.254  22.806  23.912  1.00  0.00     0.027 A 
ATOM     20  C   UNL A   1      36.526  23.791  25.977  1.00  0.00     0.027 A 
BRANCH  16  21
ATOM     21  S   UNL A   1      33.460  23.918  23.319  1.00  0.00     0.261 S 
ATOM     22  O   UNL A   1      33.572  23.358  21.986  1.00  0.00    -0.201 OA
ATOM     23  O   UNL A   1      32.968  25.263  23.525  1.00  0.00    -0.201 OA
BRANCH  21  24
ATOM     24  N   UNL A   1      32.471  22.926  24.221  1.00  0.00    -0.280 N 
ATOM     25  H   UNL A   1      31.727  23.362  24.694  1.00  0.00     0.180 HD
BRANCH  24  26
ATOM     26  C   UNL A   1      32.583  21.516  24.383  1.00  0.00     0.049 A 
ATOM     27  C   UNL A   1      33.445  18.863  24.603  1.00  0.00     0.119 A 
ATOM     28  C   UNL A   1      32.727  19.274  23.484  1.00  0.00     0.048 A 
ATOM     29  C   UNL A   1      33.664  19.748  25.654  1.00  0.00     0.048 A 
ATOM     30  C   UNL A   1      32.257  20.588  23.394  1.00  0.00     0.030 A 
ATOM     31  C   UNL A   1      33.230  21.072  25.542  1.00  0.00     0.030 A 
BRANCH  27  32
ATOM     32  O   UNL A   1      34.044  17.637  24.545  1.00  0.00    -0.497 OA
ATOM     33  C   UNL A   1      33.479  16.787  23.552  1.00  0.00     0.278 C 
ENDBRANCH  27  32
ENDBRANCH  24  26
ENDBRANCH  21  24
ENDBRANCH  16  21
ENDBRANCH  12  15
ENDBRANCH   6  11
ENDBRANCH   1   5
BRANCH   3  34
ATOM     34  C   UNL A   1      44.591  24.059  25.618  1.00  0.00     0.117 C 
BRANCH  34  35
ATOM     35  C   UNL A   1      45.401  25.269  26.065  1.00  0.00     0.042 C 
BRANCH  35  36
ATOM     36  C   UNL A   1      45.568  26.369  25.022  1.00  0.00     0.118 C 
BRANCH  36  37
ATOM     37  N   UNL A   1      46.903  26.947  25.005  1.00  0.00    -0.352 N 
ATOM     38  C   UNL A   1      47.448  28.002  25.696  1.00  0.00     0.251 C 
ATOM     39  H   UNL A   1      47.528  26.501  24.389  1.00  0.00     0.163 HD
ATOM     40  O   UNL A   1      48.569  28.394  25.376  1.00  0.00    -0.269 OA
BRANCH  38  41
ATOM     41  C   UNL A   1      46.721  28.690  26.792  1.00  0.00     0.039 A 
ATOM     42  C   UNL A   1      46.208  29.970  26.547  1.00  0.00     0.014 A 
ATOM     43  C   UNL A   1      46.607  28.143  28.073  1.00  0.00     0.014 A 
ATOM     44  C   UNL A   1      45.546  30.670  27.561  1.00  0.00     0.010 A 
ATOM     45  C   UNL A   1      45.878  28.810  29.061  1.00  0.00     0.010 A 
ATOM     46  C   UNL A   1      45.356  30.088  28.824  1.00  0.00    -0.014 A 
BRANCH  46  47
ATOM     47  C   UNL A   1      44.640  30.823  29.903  1.00  0.00     0.031 A 
ATOM     48  C   UNL A   1      43.136  30.786  29.988  1.00  0.00     0.074 A 
ATOM     49  C   UNL A   1      45.340  31.563  30.785  1.00  0.00     0.049 A 
ATOM     50  N   UNL A   1      42.346  31.352  30.864  1.00  0.00    -0.248 NA
ATOM     51  C   UNL A   1      42.423  30.036  28.940  1.00  0.00     0.031 C 
ATOM     52  C   UNL A   1      46.790  31.761  30.764  1.00  0.00     0.029 A 
ATOM     53  N   UNL A   1      44.923  32.297  31.869  1.00  0.00    -0.354 N 
ATOM     54  C   UNL A   1      41.049  31.058  30.458  1.00  0.00     0.074 A 
ATOM     55  C   UNL A   1      41.155  30.291  29.236  1.00  0.00     0.031 C 
ATOM     56  C   UNL A   1      47.144  32.543  31.797  1.00  0.00     0.029 A 
ATOM     57  C   UNL A   1      45.949  32.906  32.553  1.00  0.00     0.049 A 
ATOM     58  H   UNL A   1      43.977  32.378  32.133  1.00  0.00     0.167 HD
ATOM     59  C   UNL A   1      39.876  31.359  31.063  1.00  0.00     0.034 A 
ATOM     60  C   UNL A   1      45.933  33.651  33.676  1.00  0.00     0.034 A 
ATOM     61  C   UNL A   1      39.767  32.057  32.316  1.00  0.00     0.049 A 
ATOM     62  C   UNL A   1      44.626  33.874  34.390  1.00  0.00     0.074 A 
ATOM     63  C   UNL A   1      38.627  32.359  33.040  1.00  0.00     0.029 A 
ATOM     64  N   UNL A   1      40.842  32.544  33.042  1.00  0.00    -0.354 N 
ATOM     65  N   UNL A   1      43.427  33.457  34.065  1.00  0.00    -0.248 NA
ATOM     66  C   UNL A   1      44.678  34.628  35.653  1.00  0.00     0.031 C 
ATOM     67  C   UNL A   1      39.015  33.012  34.216  1.00  0.00     0.029 A 
ATOM     68  C   UNL A   1      40.395  33.126  34.216  1.00  0.00     0.049 A 
ATOM     69  H   UNL A   1      41.784  32.486  32.764  1.00  0.00     0.167 HD
ATOM     70  C   UNL A   1      42.588  33.871  35.093  1.00  0.00     0.074 A 
ATOM     71  C   UNL A   1      43.420  34.547  36.067  1.00  0.00     0.031 C 
ATOM     72  C   UNL A   1      41.245  33.729  35.208  1.00  0.00     0.034 A 
BRANCH  59  73
ATOM     73  C   UNL A   1      38.612  30.847  30.424  1.00  0.00     0.023 A 
ATOM     74  C   UNL A   1      38.327  29.468  30.492  1.00  0.00     0.012 A 
ATOM     75  C   UNL A   1      37.691  31.716  29.809  1.00  0.00     0.148 A 
ATOM     76  C   UNL A   1      37.157  28.956  29.934  1.00  0.00     0.002 A 
ATOM     77  C   UNL A   1      36.510  31.202  29.284  1.00  0.00     0.091 A 
ATOM     78  F   UNL A   1      37.991  33.020  29.733  1.00  0.00    -0.205 F 
ATOM     79  C   UNL A   1      36.245  29.823  29.339  1.00  0.00     0.022 A 
BRANCH  77  80
ATOM     80  S   UNL A   1      35.243  32.246  28.552  1.00  0.00     0.127 S 
ATOM     81  O   UNL A   1      34.761  32.986  29.717  1.00  0.00    -0.237 OA
ATOM     82  O   UNL A   1      36.011  33.046  27.597  1.00  0.00    -0.237 OA
ATOM     83  O   UNL A   1      34.282  31.337  27.943  1.00  0.00    -0.744 OA
ENDBRANCH  77  80
ENDBRANCH  59  73
BRANCH  60  84
ATOM     84  C   UNL A   1      47.214  34.132  34.266  1.00  0.00     0.023 A 
ATOM     85  C   UNL A   1      47.694  35.407  33.908  1.00  0.00     0.012 A 
ATOM     86  C   UNL A   1      47.938  33.362  35.194  1.00  0.00     0.148 A 
ATOM     87  C   UNL A   1      48.888  35.894  34.441  1.00  0.00     0.002 A 
ATOM     88  C   UNL A   1      49.103  33.874  35.758  1.00  0.00     0.091 A 
ATOM     89  F   UNL A   1      47.482  32.143  35.515  1.00  0.00    -0.205 F 
ATOM     90  C   UNL A   1      49.588  35.134  35.374  1.00  0.00     0.022 A 
BRANCH  88  91
ATOM     91  S   UNL A   1      49.964  32.983  37.059  1.00  0.00     0.127 S 
ATOM     92  O   UNL A   1      50.406  31.779  36.365  1.00  0.00    -0.237 OA
ATOM     93  O   UNL A   1      51.038  33.909  37.428  1.00  0.00    -0.237 OA
ATOM     94  O   UNL A   1      48.960  32.802  38.101  1.00  0.00    -0.744 OA
ENDBRANCH  88  91
ENDBRANCH  60  84
BRANCH  72  95
ATOM     95  C   UNL A   1      40.590  34.299  36.436  1.00  0.00     0.023 A 
ATOM     96  C   UNL A   1      40.318  35.680  36.491  1.00  0.00     0.012 A 
ATOM     97  C   UNL A   1      40.190  33.471  37.501  1.00  0.00     0.148 A 
ATOM     98  C   UNL A   1      39.679  36.232  37.601  1.00  0.00     0.002 A 
ATOM     99  C   UNL A   1      39.524  34.024  38.590  1.00  0.00     0.091 A 
ATOM    100  F   UNL A   1      40.478  32.162  37.446  1.00  0.00    -0.205 F 
ATOM    101  C   UNL A   1      39.274  35.403  38.646  1.00  0.00     0.022 A 
BRANCH  99 102
ATOM    102  S   UNL A   1      38.913  32.987  39.925  1.00  0.00     0.127 S 
ATOM    103  O   UNL A   1      40.151  32.447  40.481  1.00  0.00    -0.237 OA
ATOM    104  O   UNL A   1      38.225  33.945  40.793  1.00  0.00    -0.237 OA
ATOM    105  O   UNL A   1      38.027  32.028  39.280  1.00  0.00    -0.744 OA
ENDBRANCH  99 102
ENDBRANCH  72  95
ENDBRANCH  46  47
ENDBRANCH  38  41
ENDBRANCH  36  37
ENDBRANCH  35  36
ENDBRANCH  34  35
ENDBRANCH   3  34
TORSDOF 19
ENDMDL
