MODEL 1
REMARK VINA RESULT:     -12.6      0.000      0.000
REMARK SMILES COc1cc(/C=C2/N=C(c3ccccc3)OC2=O)ccc1OCC(=O)NCCCNC(=O)c1ccc(-c2c3nc(c(-c4cccc(S(=O)(=O)[O-])c4F)c4ccc([nH]4)c(-c4cccc(S(=O)(=O)[O-])c4F)c4nc(c(-c5cccc(S(=O)(=O)[O-])c5F)c5ccc2[nH]5)C=C4)C=C3)cc1
REMARK SMILES IDX 27 1 26 2 24 3 25 4 23 6 22 7 21 8 3 9 4 10 5 11 20 12 19 13
REMARK SMILES IDX 2 14 1 15 6 16 7 17 8 18 17 19 9 20 16 21 18 22 10 23 11 24
REMARK SMILES IDX 15 25 12 26 14 27 13 28 28 29 29 30 30 31 31 32 32 34 33 35
REMARK SMILES IDX 34 36 95 37 35 38 94 39 36 40 37 41 38 42 88 43 39 44 93 45
REMARK SMILES IDX 87 46 89 47 40 48 92 49 86 50 85 51 41 53 73 54 53 55 72 56
REMARK SMILES IDX 54 57 57 58 71 59 90 60 55 61 56 62 70 64 91 65 58 66 42 67
REMARK SMILES IDX 43 68 51 69 44 70 46 71 52 72 45 73 47 74 48 75 49 76 50 77
REMARK SMILES IDX 74 78 75 79 83 80 76 81 78 82 84 83 77 84 79 85 80 86 81 87
REMARK SMILES IDX 82 88 59 89 60 90 68 91 61 92 63 93 69 94 62 95 64 96 65 97
REMARK SMILES IDX 66 98 67 99
REMARK H PARENT 26 5 30 33 89 52 57 63
REMARK Flexibility Score: inf
ROOT
ATOM      1  C   UNL A   1      31.586  31.009  26.107  1.00  0.00     0.117 C 
ENDROOT
BRANCH   1   2
ATOM      2  N   UNL A   1      31.517  29.963  27.108  1.00  0.00    -0.353 N 
ATOM      3  C   UNL A   1      31.618  28.614  26.927  1.00  0.00     0.257 C 
ATOM      4  O   UNL A   1      31.824  27.918  27.925  1.00  0.00    -0.271 OA
ATOM      5  H   UNL A   1      31.381  30.264  28.035  1.00  0.00     0.163 HD
BRANCH   3   6
ATOM      6  C   UNL A   1      31.564  28.020  25.515  1.00  0.00     0.329 C 
BRANCH   6   7
ATOM      7  O   UNL A   1      32.775  27.966  24.790  1.00  0.00    -0.480 OA
BRANCH   7   8
ATOM      8  C   UNL A   1      33.387  26.776  24.518  1.00  0.00     0.161 A 
ATOM      9  C   UNL A   1      33.540  26.120  23.291  1.00  0.00     0.161 A 
ATOM     10  C   UNL A   1      34.151  24.853  23.239  1.00  0.00     0.058 A 
ATOM     11  C   UNL A   1      34.598  24.230  24.412  1.00  0.00    -0.019 A 
ATOM     12  C   UNL A   1      33.866  26.149  25.677  1.00  0.00     0.051 A 
ATOM     13  C   UNL A   1      34.471  24.894  25.631  1.00  0.00     0.012 A 
BRANCH   9  14
ATOM     14  O   UNL A   1      32.930  26.598  22.162  1.00  0.00    -0.493 OA
ATOM     15  C   UNL A   1      31.795  25.826  21.771  1.00  0.00     0.278 C 
ENDBRANCH   9  14
BRANCH  11  16
ATOM     16  C   UNL A   1      35.088  22.849  24.399  1.00  0.00     0.044 C 
ATOM     17  C   UNL A   1      34.315  21.777  24.625  1.00  0.00     0.153 C 
ATOM     18  N   UNL A   1      34.777  20.481  24.608  1.00  0.00    -0.205 NA
ATOM     19  C   UNL A   1      32.837  21.786  24.870  1.00  0.00     0.363 C 
ATOM     20  C   UNL A   1      33.691  19.795  24.756  1.00  0.00     0.231 C 
ATOM     21  O   UNL A   1      32.527  20.461  24.913  1.00  0.00    -0.402 OA
ATOM     22  O   UNL A   1      32.051  22.708  24.978  1.00  0.00    -0.244 OA
BRANCH  20  23
ATOM     23  C   UNL A   1      33.547  18.341  24.783  1.00  0.00     0.037 A 
ATOM     24  C   UNL A   1      34.230  17.558  23.850  1.00  0.00     0.014 A 
ATOM     25  C   UNL A   1      32.693  17.747  25.721  1.00  0.00     0.014 A 
ATOM     26  C   UNL A   1      34.062  16.172  23.861  1.00  0.00     0.001 A 
ATOM     27  C   UNL A   1      32.515  16.363  25.714  1.00  0.00     0.001 A 
ATOM     28  C   UNL A   1      33.201  15.578  24.786  1.00  0.00     0.000 A 
ENDBRANCH  20  23
ENDBRANCH  11  16
ENDBRANCH   7   8
ENDBRANCH   6   7
ENDBRANCH   3   6
ENDBRANCH   1   2
BRANCH   1  29
ATOM     29  C   UNL A   1      31.451  32.411  26.684  1.00  0.00     0.042 C 
BRANCH  29  30
ATOM     30  C   UNL A   1      32.764  33.061  27.104  1.00  0.00     0.118 C 
BRANCH  30  31
ATOM     31  N   UNL A   1      32.584  34.380  27.693  1.00  0.00    -0.352 N 
ATOM     32  C   UNL A   1      33.130  34.950  28.814  1.00  0.00     0.251 C 
ATOM     33  H   UNL A   1      31.964  34.965  27.200  1.00  0.00     0.163 HD
ATOM     34  O   UNL A   1      32.672  36.015  29.221  1.00  0.00    -0.269 OA
BRANCH  32  35
ATOM     35  C   UNL A   1      34.245  34.302  29.540  1.00  0.00     0.039 A 
ATOM     36  C   UNL A   1      35.544  34.454  29.045  1.00  0.00     0.014 A 
ATOM     37  C   UNL A   1      34.023  33.506  30.666  1.00  0.00     0.014 A 
ATOM     38  C   UNL A   1      36.614  33.842  29.701  1.00  0.00     0.010 A 
ATOM     39  C   UNL A   1      35.101  32.984  31.378  1.00  0.00     0.010 A 
ATOM     40  C   UNL A   1      36.406  33.121  30.889  1.00  0.00    -0.014 A 
BRANCH  40  41
ATOM     41  C   UNL A   1      37.547  32.491  31.606  1.00  0.00     0.031 A 
ATOM     42  C   UNL A   1      38.321  31.364  30.973  1.00  0.00     0.074 A 
ATOM     43  C   UNL A   1      37.863  32.908  32.849  1.00  0.00     0.049 A 
ATOM     44  N   UNL A   1      39.356  30.713  31.438  1.00  0.00    -0.248 NA
ATOM     45  C   UNL A   1      37.860  30.886  29.658  1.00  0.00     0.031 C 
ATOM     46  C   UNL A   1      37.141  33.931  33.608  1.00  0.00     0.029 A 
ATOM     47  N   UNL A   1      38.867  32.515  33.697  1.00  0.00    -0.354 N 
ATOM     48  C   UNL A   1      39.649  29.736  30.493  1.00  0.00     0.074 A 
ATOM     49  C   UNL A   1      38.654  29.847  29.450  1.00  0.00     0.031 C 
ATOM     50  C   UNL A   1      37.738  34.101  34.797  1.00  0.00     0.029 A 
ATOM     51  C   UNL A   1      38.864  33.179  34.901  1.00  0.00     0.049 A 
ATOM     52  H   UNL A   1      39.528  31.822  33.466  1.00  0.00     0.167 HD
ATOM     53  C   UNL A   1      40.669  28.845  30.475  1.00  0.00     0.034 A 
ATOM     54  C   UNL A   1      39.675  33.058  35.971  1.00  0.00     0.034 A 
ATOM     55  C   UNL A   1      41.676  28.756  31.499  1.00  0.00     0.049 A 
ATOM     56  C   UNL A   1      40.823  32.088  35.909  1.00  0.00     0.074 A 
ATOM     57  C   UNL A   1      42.797  27.947  31.534  1.00  0.00     0.029 A 
ATOM     58  N   UNL A   1      41.678  29.491  32.674  1.00  0.00    -0.354 N 
ATOM     59  N   UNL A   1      41.176  31.284  34.935  1.00  0.00    -0.248 NA
ATOM     60  C   UNL A   1      41.710  32.038  37.081  1.00  0.00     0.031 C 
ATOM     61  C   UNL A   1      43.455  28.162  32.750  1.00  0.00     0.029 A 
ATOM     62  C   UNL A   1      42.769  29.142  33.450  1.00  0.00     0.049 A 
ATOM     63  H   UNL A   1      41.000  30.161  32.922  1.00  0.00     0.167 HD
ATOM     64  C   UNL A   1      42.344  30.661  35.360  1.00  0.00     0.074 A 
ATOM     65  C   UNL A   1      42.653  31.204  36.667  1.00  0.00     0.031 C 
ATOM     66  C   UNL A   1      43.088  29.716  34.733  1.00  0.00     0.034 A 
BRANCH  53  67
ATOM     67  C   UNL A   1      40.771  27.919  29.289  1.00  0.00     0.023 A 
ATOM     68  C   UNL A   1      39.987  26.747  29.244  1.00  0.00     0.012 A 
ATOM     69  C   UNL A   1      41.601  28.234  28.196  1.00  0.00     0.148 A 
ATOM     70  C   UNL A   1      40.059  25.884  28.151  1.00  0.00     0.002 A 
ATOM     71  C   UNL A   1      41.630  27.395  27.088  1.00  0.00     0.091 A 
ATOM     72  F   UNL A   1      42.354  29.341  28.263  1.00  0.00    -0.205 F 
ATOM     73  C   UNL A   1      40.871  26.213  27.070  1.00  0.00     0.022 A 
BRANCH  71  74
ATOM     74  S   UNL A   1      42.577  27.771  25.609  1.00  0.00     0.127 S 
ATOM     75  O   UNL A   1      42.299  26.601  24.776  1.00  0.00    -0.237 OA
ATOM     76  O   UNL A   1      41.948  29.010  25.150  1.00  0.00    -0.237 OA
ATOM     77  O   UNL A   1      43.960  27.913  26.041  1.00  0.00    -0.744 OA
ENDBRANCH  71  74
ENDBRANCH  53  67
BRANCH  54  78
ATOM     78  C   UNL A   1      39.466  33.919  37.170  1.00  0.00     0.023 A 
ATOM     79  C   UNL A   1      39.893  35.261  37.150  1.00  0.00     0.012 A 
ATOM     80  C   UNL A   1      38.839  33.415  38.325  1.00  0.00     0.148 A 
ATOM     81  C   UNL A   1      39.738  36.074  38.273  1.00  0.00     0.002 A 
ATOM     82  C   UNL A   1      38.634  34.247  39.419  1.00  0.00     0.091 A 
ATOM     83  F   UNL A   1      38.446  32.134  38.327  1.00  0.00    -0.205 F 
ATOM     84  C   UNL A   1      39.101  35.570  39.403  1.00  0.00     0.022 A 
BRANCH  82  85
ATOM     85  S   UNL A   1      37.709  33.724  40.868  1.00  0.00     0.127 S 
ATOM     86  O   UNL A   1      36.524  33.120  40.264  1.00  0.00    -0.237 OA
ATOM     87  O   UNL A   1      38.637  32.778  41.488  1.00  0.00    -0.237 OA
ATOM     88  O   UNL A   1      37.474  34.934  41.644  1.00  0.00    -0.744 OA
ENDBRANCH  82  85
ENDBRANCH  54  78
BRANCH  66  89
ATOM     89  C   UNL A   1      44.333  29.236  35.433  1.00  0.00     0.023 A 
ATOM     90  C   UNL A   1      45.575  29.852  35.173  1.00  0.00     0.012 A 
ATOM     91  C   UNL A   1      44.266  28.195  36.381  1.00  0.00     0.148 A 
ATOM     92  C   UNL A   1      46.735  29.404  35.804  1.00  0.00     0.002 A 
ATOM     93  C   UNL A   1      45.416  27.794  37.049  1.00  0.00     0.091 A 
ATOM     94  F   UNL A   1      43.080  27.609  36.606  1.00  0.00    -0.205 F 
ATOM     95  C   UNL A   1      46.654  28.384  36.748  1.00  0.00     0.022 A 
BRANCH  93  96
ATOM     96  S   UNL A   1      45.389  26.560  38.353  1.00  0.00     0.127 S 
ATOM     97  O   UNL A   1      44.585  27.224  39.376  1.00  0.00    -0.237 OA
ATOM     98  O   UNL A   1      44.730  25.430  37.696  1.00  0.00    -0.237 OA
ATOM     99  O   UNL A   1      46.782  26.322  38.709  1.00  0.00    -0.744 OA
ENDBRANCH  93  96
ENDBRANCH  66  89
ENDBRANCH  40  41
ENDBRANCH  32  35
ENDBRANCH  30  31
ENDBRANCH  29  30
ENDBRANCH   1  29
TORSDOF 18
ENDMDL
MODEL 2
REMARK VINA RESULT:     -12.4      1.691      2.104
REMARK SMILES COc1cc(/C=C2/N=C(c3ccccc3)OC2=O)ccc1OCC(=O)NCCCNC(=O)c1ccc(-c2c3nc(c(-c4cccc(S(=O)(=O)[O-])c4F)c4ccc([nH]4)c(-c4cccc(S(=O)(=O)[O-])c4F)c4nc(c(-c5cccc(S(=O)(=O)[O-])c5F)c5ccc2[nH]5)C=C4)C=C3)cc1
REMARK SMILES IDX 27 1 26 2 24 3 25 4 23 6 22 7 21 8 3 9 4 10 5 11 20 12 19 13
REMARK SMILES IDX 2 14 1 15 6 16 7 17 8 18 17 19 9 20 16 21 18 22 10 23 11 24
REMARK SMILES IDX 15 25 12 26 14 27 13 28 28 29 29 30 30 31 31 32 32 34 33 35
REMARK SMILES IDX 34 36 95 37 35 38 94 39 36 40 37 41 38 42 88 43 39 44 93 45
REMARK SMILES IDX 87 46 89 47 40 48 92 49 86 50 85 51 41 53 73 54 53 55 72 56
REMARK SMILES IDX 54 57 57 58 71 59 90 60 55 61 56 62 70 64 91 65 58 66 42 67
REMARK SMILES IDX 43 68 51 69 44 70 46 71 52 72 45 73 47 74 48 75 49 76 50 77
REMARK SMILES IDX 74 78 75 79 83 80 76 81 78 82 84 83 77 84 79 85 80 86 81 87
REMARK SMILES IDX 82 88 59 89 60 90 68 91 61 92 63 93 69 94 62 95 64 96 65 97
REMARK SMILES IDX 66 98 67 99
REMARK H PARENT 26 5 30 33 89 52 57 63
REMARK Flexibility Score: inf
ROOT
ATOM      1  C   UNL A   1      31.158  30.732  25.825  1.00  0.00     0.117 C 
ENDROOT
BRANCH   1   2
ATOM      2  N   UNL A   1      30.555  30.580  24.516  1.00  0.00    -0.353 N 
ATOM      3  C   UNL A   1      30.452  29.448  23.759  1.00  0.00     0.257 C 
ATOM      4  O   UNL A   1      29.658  29.461  22.816  1.00  0.00    -0.271 OA
ATOM      5  H   UNL A   1      30.170  31.396  24.122  1.00  0.00     0.163 HD
BRANCH   3   6
ATOM      6  C   UNL A   1      31.241  28.191  24.145  1.00  0.00     0.329 C 
BRANCH   6   7
ATOM      7  O   UNL A   1      32.445  27.945  23.447  1.00  0.00    -0.480 OA
BRANCH   7   8
ATOM      8  C   UNL A   1      33.139  26.781  23.617  1.00  0.00     0.161 A 
ATOM      9  C   UNL A   1      33.746  25.966  22.655  1.00  0.00     0.161 A 
ATOM     10  C   UNL A   1      34.359  24.758  23.038  1.00  0.00     0.058 A 
ATOM     11  C   UNL A   1      34.357  24.354  24.381  1.00  0.00    -0.019 A 
ATOM     12  C   UNL A   1      33.171  26.374  24.958  1.00  0.00     0.051 A 
ATOM     13  C   UNL A   1      33.776  25.178  25.342  1.00  0.00     0.012 A 
BRANCH   9  14
ATOM     14  O   UNL A   1      33.585  26.220  21.319  1.00  0.00    -0.493 OA
ATOM     15  C   UNL A   1      32.406  25.629  20.776  1.00  0.00     0.278 C 
ENDBRANCH   9  14
BRANCH  11  16
ATOM     16  C   UNL A   1      34.846  23.030  24.776  1.00  0.00     0.044 C 
ATOM     17  C   UNL A   1      34.122  21.905  24.684  1.00  0.00     0.153 C 
ATOM     18  N   UNL A   1      34.585  20.663  25.051  1.00  0.00    -0.205 NA
ATOM     19  C   UNL A   1      32.737  21.785  24.124  1.00  0.00     0.363 C 
ATOM     20  C   UNL A   1      33.618  19.886  24.689  1.00  0.00     0.231 C 
ATOM     21  O   UNL A   1      32.515  20.443  24.144  1.00  0.00    -0.402 OA
ATOM     22  O   UNL A   1      31.969  22.631  23.706  1.00  0.00    -0.244 OA
BRANCH  20  23
ATOM     23  C   UNL A   1      33.550  18.430  24.797  1.00  0.00     0.037 A 
ATOM     24  C   UNL A   1      34.398  17.636  24.021  1.00  0.00     0.014 A 
ATOM     25  C   UNL A   1      32.608  17.840  25.649  1.00  0.00     0.014 A 
ATOM     26  C   UNL A   1      34.306  16.245  24.105  1.00  0.00     0.001 A 
ATOM     27  C   UNL A   1      32.509  16.450  25.714  1.00  0.00     0.001 A 
ATOM     28  C   UNL A   1      33.358  15.655  24.944  1.00  0.00     0.000 A 
ENDBRANCH  20  23
ENDBRANCH  11  16
ENDBRANCH   7   8
ENDBRANCH   6   7
ENDBRANCH   3   6
ENDBRANCH   1   2
BRANCH   1  29
ATOM     29  C   UNL A   1      31.261  32.180  26.280  1.00  0.00     0.042 C 
BRANCH  29  30
ATOM     30  C   UNL A   1      32.486  32.501  27.129  1.00  0.00     0.118 C 
BRANCH  30  31
ATOM     31  N   UNL A   1      32.580  33.909  27.485  1.00  0.00    -0.352 N 
ATOM     32  C   UNL A   1      33.387  34.560  28.383  1.00  0.00     0.251 C 
ATOM     33  H   UNL A   1      31.957  34.495  26.997  1.00  0.00     0.163 HD
ATOM     34  O   UNL A   1      33.145  35.734  28.654  1.00  0.00    -0.269 OA
BRANCH  32  35
ATOM     35  C   UNL A   1      34.527  33.874  29.031  1.00  0.00     0.039 A 
ATOM     36  C   UNL A   1      34.261  32.829  29.920  1.00  0.00     0.014 A 
ATOM     37  C   UNL A   1      35.845  34.280  28.815  1.00  0.00     0.014 A 
ATOM     38  C   UNL A   1      35.316  32.172  30.558  1.00  0.00     0.010 A 
ATOM     39  C   UNL A   1      36.899  33.557  29.369  1.00  0.00     0.010 A 
ATOM     40  C   UNL A   1      36.648  32.513  30.269  1.00  0.00    -0.014 A 
BRANCH  40  41
ATOM     41  C   UNL A   1      37.776  31.798  30.924  1.00  0.00     0.031 A 
ATOM     42  C   UNL A   1      38.541  30.733  30.182  1.00  0.00     0.074 A 
ATOM     43  C   UNL A   1      38.089  32.081  32.204  1.00  0.00     0.049 A 
ATOM     44  N   UNL A   1      39.565  30.025  30.583  1.00  0.00    -0.248 NA
ATOM     45  C   UNL A   1      38.084  30.399  28.822  1.00  0.00     0.031 C 
ATOM     46  C   UNL A   1      37.373  33.029  33.061  1.00  0.00     0.029 A 
ATOM     47  N   UNL A   1      39.082  31.590  33.013  1.00  0.00    -0.354 N 
ATOM     48  C   UNL A   1      39.854  29.147  29.544  1.00  0.00     0.074 A 
ATOM     49  C   UNL A   1      38.868  29.378  28.512  1.00  0.00     0.031 C 
ATOM     50  C   UNL A   1      37.964  33.069  34.265  1.00  0.00     0.029 A 
ATOM     51  C   UNL A   1      39.078  32.127  34.279  1.00  0.00     0.049 A 
ATOM     52  H   UNL A   1      39.737  30.918  32.715  1.00  0.00     0.167 HD
ATOM     53  C   UNL A   1      40.864  28.251  29.440  1.00  0.00     0.034 A 
ATOM     54  C   UNL A   1      39.881  31.886  35.335  1.00  0.00     0.034 A 
ATOM     55  C   UNL A   1      41.863  28.044  30.454  1.00  0.00     0.049 A 
ATOM     56  C   UNL A   1      41.018  30.914  35.180  1.00  0.00     0.074 A 
ATOM     57  C   UNL A   1      42.974  27.222  30.413  1.00  0.00     0.029 A 
ATOM     58  N   UNL A   1      41.865  28.654  31.699  1.00  0.00    -0.354 N 
ATOM     59  N   UNL A   1      41.368  30.211  34.131  1.00  0.00    -0.248 NA
ATOM     60  C   UNL A   1      41.896  30.733  36.345  1.00  0.00     0.031 C 
ATOM     61  C   UNL A   1      43.626  27.303  31.648  1.00  0.00     0.029 A 
ATOM     62  C   UNL A   1      42.947  28.214  32.441  1.00  0.00     0.049 A 
ATOM     63  H   UNL A   1      41.194  29.303  32.011  1.00  0.00     0.167 HD
ATOM     64  C   UNL A   1      42.526  29.533  34.495  1.00  0.00     0.074 A 
ATOM     65  C   UNL A   1      42.832  29.935  35.853  1.00  0.00     0.031 C 
ATOM     66  C   UNL A   1      43.263  28.648  33.778  1.00  0.00     0.034 A 
BRANCH  53  67
ATOM     67  C   UNL A   1      40.963  27.451  28.165  1.00  0.00     0.023 A 
ATOM     68  C   UNL A   1      41.591  28.009  27.032  1.00  0.00     0.012 A 
ATOM     69  C   UNL A   1      40.483  26.128  28.104  1.00  0.00     0.148 A 
ATOM     70  C   UNL A   1      41.702  27.282  25.848  1.00  0.00     0.002 A 
ATOM     71  C   UNL A   1      40.642  25.391  26.936  1.00  0.00     0.091 A 
ATOM     72  F   UNL A   1      39.871  25.619  29.182  1.00  0.00    -0.205 F 
ATOM     73  C   UNL A   1      41.238  25.971  25.804  1.00  0.00     0.022 A 
BRANCH  71  74
ATOM     74  S   UNL A   1      40.156  23.667  26.801  1.00  0.00     0.127 S 
ATOM     75  O   UNL A   1      40.316  23.208  28.181  1.00  0.00    -0.237 OA
ATOM     76  O   UNL A   1      38.768  23.775  26.352  1.00  0.00    -0.237 OA
ATOM     77  O   UNL A   1      41.065  23.066  25.836  1.00  0.00    -0.744 OA
ENDBRANCH  71  74
ENDBRANCH  53  67
BRANCH  54  78
ATOM     78  C   UNL A   1      39.673  32.622  36.615  1.00  0.00     0.023 A 
ATOM     79  C   UNL A   1      40.441  33.768  36.895  1.00  0.00     0.012 A 
ATOM     80  C   UNL A   1      38.713  32.194  37.552  1.00  0.00     0.148 A 
ATOM     81  C   UNL A   1      40.287  34.452  38.102  1.00  0.00     0.002 A 
ATOM     82  C   UNL A   1      38.523  32.913  38.725  1.00  0.00     0.091 A 
ATOM     83  F   UNL A   1      37.998  31.096  37.270  1.00  0.00    -0.205 F 
ATOM     84  C   UNL A   1      39.323  34.029  39.012  1.00  0.00     0.022 A 
BRANCH  82  85
ATOM     85  S   UNL A   1      37.218  32.519  39.896  1.00  0.00     0.127 S 
ATOM     86  O   UNL A   1      37.649  31.215  40.396  1.00  0.00    -0.237 OA
ATOM     87  O   UNL A   1      37.335  33.618  40.854  1.00  0.00    -0.237 OA
ATOM     88  O   UNL A   1      35.982  32.521  39.124  1.00  0.00    -0.744 OA
ENDBRANCH  82  85
ENDBRANCH  54  78
BRANCH  66  89
ATOM     89  C   UNL A   1      44.498  28.084  34.432  1.00  0.00     0.023 A 
ATOM     90  C   UNL A   1      45.702  28.819  34.429  1.00  0.00     0.012 A 
ATOM     91  C   UNL A   1      44.456  26.836  35.085  1.00  0.00     0.148 A 
ATOM     92  C   UNL A   1      46.854  28.298  35.018  1.00  0.00     0.002 A 
ATOM     93  C   UNL A   1      45.591  26.350  35.720  1.00  0.00     0.091 A 
ATOM     94  F   UNL A   1      43.308  26.142  35.067  1.00  0.00    -0.205 F 
ATOM     95  C   UNL A   1      46.796  27.070  35.671  1.00  0.00     0.022 A 
BRANCH  93  96
ATOM     96  S   UNL A   1      45.583  24.828  36.673  1.00  0.00     0.127 S 
ATOM     97  O   UNL A   1      46.653  24.067  36.028  1.00  0.00    -0.237 OA
ATOM     98  O   UNL A   1      45.899  25.304  38.020  1.00  0.00    -0.237 OA
ATOM     99  O   UNL A   1      44.245  24.270  36.528  1.00  0.00    -0.744 OA
ENDBRANCH  93  96
ENDBRANCH  66  89
ENDBRANCH  40  41
ENDBRANCH  32  35
ENDBRANCH  30  31
ENDBRANCH  29  30
ENDBRANCH   1  29
TORSDOF 18
ENDMDL
MODEL 3
REMARK VINA RESULT:     -12.3      0.818      7.571
REMARK SMILES COc1cc(/C=C2/N=C(c3ccccc3)OC2=O)ccc1OCC(=O)NCCCNC(=O)c1ccc(-c2c3nc(c(-c4cccc(S(=O)(=O)[O-])c4F)c4ccc([nH]4)c(-c4cccc(S(=O)(=O)[O-])c4F)c4nc(c(-c5cccc(S(=O)(=O)[O-])c5F)c5ccc2[nH]5)C=C4)C=C3)cc1
REMARK SMILES IDX 27 1 26 2 24 3 25 4 23 6 22 7 21 8 3 9 4 10 5 11 20 12 19 13
REMARK SMILES IDX 2 14 1 15 6 16 7 17 8 18 17 19 9 20 16 21 18 22 10 23 11 24
REMARK SMILES IDX 15 25 12 26 14 27 13 28 28 29 29 30 30 31 31 32 32 34 33 35
REMARK SMILES IDX 34 36 95 37 35 38 94 39 36 40 37 41 38 42 88 43 39 44 93 45
REMARK SMILES IDX 87 46 89 47 40 48 92 49 86 50 85 51 41 53 73 54 53 55 72 56
REMARK SMILES IDX 54 57 57 58 71 59 90 60 55 61 56 62 70 64 91 65 58 66 42 67
REMARK SMILES IDX 43 68 51 69 44 70 46 71 52 72 45 73 47 74 48 75 49 76 50 77
REMARK SMILES IDX 74 78 75 79 83 80 76 81 78 82 84 83 77 84 79 85 80 86 81 87
REMARK SMILES IDX 82 88 59 89 60 90 68 91 61 92 63 93 69 94 62 95 64 96 65 97
REMARK SMILES IDX 66 98 67 99
REMARK H PARENT 26 5 30 33 89 52 57 63
REMARK Flexibility Score: inf
ROOT
ATOM      1  C   UNL A   1      31.909  30.856  26.327  1.00  0.00     0.117 C 
ENDROOT
BRANCH   1   2
ATOM      2  N   UNL A   1      31.638  29.779  27.258  1.00  0.00    -0.353 N 
ATOM      3  C   UNL A   1      31.551  28.441  26.999  1.00  0.00     0.257 C 
ATOM      4  O   UNL A   1      31.602  27.669  27.960  1.00  0.00    -0.271 OA
ATOM      5  H   UNL A   1      31.498  30.046  28.195  1.00  0.00     0.163 HD
BRANCH   3   6
ATOM      6  C   UNL A   1      31.486  27.940  25.552  1.00  0.00     0.329 C 
BRANCH   6   7
ATOM      7  O   UNL A   1      32.697  27.904  24.826  1.00  0.00    -0.480 OA
BRANCH   7   8
ATOM      8  C   UNL A   1      33.322  26.722  24.544  1.00  0.00     0.161 A 
ATOM      9  C   UNL A   1      33.452  26.062  23.317  1.00  0.00     0.161 A 
ATOM     10  C   UNL A   1      34.082  24.804  23.256  1.00  0.00     0.058 A 
ATOM     11  C   UNL A   1      34.572  24.196  24.421  1.00  0.00    -0.019 A 
ATOM     12  C   UNL A   1      33.841  26.111  25.694  1.00  0.00     0.051 A 
ATOM     13  C   UNL A   1      34.465  24.866  25.639  1.00  0.00     0.012 A 
BRANCH   9  14
ATOM     14  O   UNL A   1      32.805  26.522  22.202  1.00  0.00    -0.493 OA
ATOM     15  C   UNL A   1      31.394  26.313  22.248  1.00  0.00     0.278 C 
ENDBRANCH   9  14
BRANCH  11  16
ATOM     16  C   UNL A   1      35.084  22.824  24.403  1.00  0.00     0.044 C 
ATOM     17  C   UNL A   1      34.336  21.740  24.661  1.00  0.00     0.153 C 
ATOM     18  N   UNL A   1      34.819  20.453  24.639  1.00  0.00    -0.205 NA
ATOM     19  C   UNL A   1      32.867  21.727  24.952  1.00  0.00     0.363 C 
ATOM     20  C   UNL A   1      33.750  19.750  24.826  1.00  0.00     0.231 C 
ATOM     21  O   UNL A   1      32.580  20.398  25.014  1.00  0.00    -0.402 OA
ATOM     22  O   UNL A   1      32.069  22.637  25.077  1.00  0.00    -0.244 OA
BRANCH  20  23
ATOM     23  C   UNL A   1      33.631  18.294  24.869  1.00  0.00     0.037 A 
ATOM     24  C   UNL A   1      32.613  17.703  25.621  1.00  0.00     0.014 A 
ATOM     25  C   UNL A   1      34.561  17.502  24.185  1.00  0.00     0.014 A 
ATOM     26  C   UNL A   1      32.525  16.311  25.682  1.00  0.00     0.001 A 
ATOM     27  C   UNL A   1      34.478  16.112  24.266  1.00  0.00     0.001 A 
ATOM     28  C   UNL A   1      33.459  15.518  25.013  1.00  0.00     0.000 A 
ENDBRANCH  20  23
ENDBRANCH  11  16
ENDBRANCH   7   8
ENDBRANCH   6   7
ENDBRANCH   3   6
ENDBRANCH   1   2
BRANCH   1  29
ATOM     29  C   UNL A   1      31.641  32.239  26.904  1.00  0.00     0.042 C 
BRANCH  29  30
ATOM     30  C   UNL A   1      32.881  33.103  27.103  1.00  0.00     0.118 C 
BRANCH  30  31
ATOM     31  N   UNL A   1      32.618  34.309  27.874  1.00  0.00    -0.352 N 
ATOM     32  C   UNL A   1      33.182  34.781  29.032  1.00  0.00     0.251 C 
ATOM     33  H   UNL A   1      31.913  34.886  27.500  1.00  0.00     0.163 HD
ATOM     34  O   UNL A   1      32.654  35.732  29.604  1.00  0.00    -0.269 OA
BRANCH  32  35
ATOM     35  C   UNL A   1      34.399  34.161  29.601  1.00  0.00     0.039 A 
ATOM     36  C   UNL A   1      34.258  33.255  30.656  1.00  0.00     0.014 A 
ATOM     37  C   UNL A   1      35.675  34.501  29.147  1.00  0.00     0.014 A 
ATOM     38  C   UNL A   1      35.390  32.666  31.224  1.00  0.00     0.010 A 
ATOM     39  C   UNL A   1      36.794  33.835  29.642  1.00  0.00     0.010 A 
ATOM     40  C   UNL A   1      36.669  32.931  30.705  1.00  0.00    -0.014 A 
BRANCH  40  41
ATOM     41  C   UNL A   1      37.875  32.285  31.288  1.00  0.00     0.031 A 
ATOM     42  C   UNL A   1      38.484  32.808  32.563  1.00  0.00     0.074 A 
ATOM     43  C   UNL A   1      38.450  31.248  30.646  1.00  0.00     0.049 A 
ATOM     44  N   UNL A   1      39.516  32.358  33.228  1.00  0.00    -0.248 NA
ATOM     45  C   UNL A   1      37.870  34.007  33.159  1.00  0.00     0.031 C 
ATOM     46  C   UNL A   1      38.011  30.699  29.361  1.00  0.00     0.029 A 
ATOM     47  N   UNL A   1      39.533  30.476  30.981  1.00  0.00    -0.354 N 
ATOM     48  C   UNL A   1      39.694  33.231  34.296  1.00  0.00     0.074 A 
ATOM     49  C   UNL A   1      38.692  34.264  34.166  1.00  0.00     0.031 C 
ATOM     50  C   UNL A   1      38.801  29.667  29.029  1.00  0.00     0.029 A 
ATOM     51  C   UNL A   1      39.823  29.500  30.057  1.00  0.00     0.049 A 
ATOM     52  H   UNL A   1      40.055  30.608  31.806  1.00  0.00     0.167 HD
ATOM     53  C   UNL A   1      40.588  33.165  35.312  1.00  0.00     0.034 A 
ATOM     54  C   UNL A   1      40.802  28.574  30.038  1.00  0.00     0.034 A 
ATOM     55  C   UNL A   1      41.564  32.119  35.457  1.00  0.00     0.049 A 
ATOM     56  C   UNL A   1      41.758  28.499  31.197  1.00  0.00     0.074 A 
ATOM     57  C   UNL A   1      42.459  31.914  36.492  1.00  0.00     0.029 A 
ATOM     58  N   UNL A   1      41.785  31.108  34.534  1.00  0.00    -0.354 N 
ATOM     59  N   UNL A   1      41.806  29.239  32.279  1.00  0.00    -0.248 NA
ATOM     60  C   UNL A   1      42.770  27.434  31.152  1.00  0.00     0.031 C 
ATOM     61  C   UNL A   1      43.249  30.804  36.175  1.00  0.00     0.029 A 
ATOM     62  C   UNL A   1      42.813  30.288  34.966  1.00  0.00     0.049 A 
ATOM     63  H   UNL A   1      41.285  30.992  33.694  1.00  0.00     0.167 HD
ATOM     64  C   UNL A   1      42.827  28.707  33.058  1.00  0.00     0.074 A 
ATOM     65  C   UNL A   1      43.349  27.565  32.336  1.00  0.00     0.031 C 
ATOM     66  C   UNL A   1      43.300  29.132  34.257  1.00  0.00     0.034 A 
BRANCH  53  67
ATOM     67  C   UNL A   1      40.525  34.237  36.371  1.00  0.00     0.023 A 
ATOM     68  C   UNL A   1      40.946  35.549  36.069  1.00  0.00     0.012 A 
ATOM     69  C   UNL A   1      40.000  33.960  37.649  1.00  0.00     0.148 A 
ATOM     70  C   UNL A   1      40.885  36.556  37.031  1.00  0.00     0.002 A 
ATOM     71  C   UNL A   1      39.896  34.980  38.587  1.00  0.00     0.091 A 
ATOM     72  F   UNL A   1      39.623  32.704  37.926  1.00  0.00    -0.205 F 
ATOM     73  C   UNL A   1      40.351  36.274  38.284  1.00  0.00     0.022 A 
BRANCH  71  74
ATOM     74  S   UNL A   1      39.145  34.743  40.201  1.00  0.00     0.127 S 
ATOM     75  O   UNL A   1      37.846  34.175  39.840  1.00  0.00    -0.237 OA
ATOM     76  O   UNL A   1      40.069  33.800  40.832  1.00  0.00    -0.237 OA
ATOM     77  O   UNL A   1      39.097  36.059  40.821  1.00  0.00    -0.744 OA
ENDBRANCH  71  74
ENDBRANCH  53  67
BRANCH  54  78
ATOM     78  C   UNL A   1      40.892  27.604  28.909  1.00  0.00     0.023 A 
ATOM     79  C   UNL A   1      40.028  26.493  28.871  1.00  0.00     0.012 A 
ATOM     80  C   UNL A   1      41.826  27.782  27.871  1.00  0.00     0.148 A 
ATOM     81  C   UNL A   1      40.119  25.555  27.842  1.00  0.00     0.002 A 
ATOM     82  C   UNL A   1      41.872  26.877  26.818  1.00  0.00     0.091 A 
ATOM     83  F   UNL A   1      42.646  28.842  27.930  1.00  0.00    -0.205 F 
ATOM     84  C   UNL A   1      41.034  25.751  26.812  1.00  0.00     0.022 A 
BRANCH  82  85
ATOM     85  S   UNL A   1      42.928  27.118  25.386  1.00  0.00     0.127 S 
ATOM     86  O   UNL A   1      44.233  27.329  26.008  1.00  0.00    -0.237 OA
ATOM     87  O   UNL A   1      42.777  25.842  24.685  1.00  0.00    -0.237 OA
ATOM     88  O   UNL A   1      42.375  28.263  24.675  1.00  0.00    -0.744 OA
ENDBRANCH  82  85
ENDBRANCH  54  78
BRANCH  66  89
ATOM     89  C   UNL A   1      44.413  28.333  34.886  1.00  0.00     0.023 A 
ATOM     90  C   UNL A   1      45.748  28.535  34.479  1.00  0.00     0.012 A 
ATOM     91  C   UNL A   1      44.138  27.407  35.912  1.00  0.00     0.148 A 
ATOM     92  C   UNL A   1      46.782  27.790  35.044  1.00  0.00     0.002 A 
ATOM     93  C   UNL A   1      45.180  26.712  36.511  1.00  0.00     0.091 A 
ATOM     94  F   UNL A   1      42.861  27.216  36.277  1.00  0.00    -0.205 F 
ATOM     95  C   UNL A   1      46.500  26.887  36.066  1.00  0.00     0.022 A 
BRANCH  93  96
ATOM     96  S   UNL A   1      44.923  25.605  37.902  1.00  0.00     0.127 S 
ATOM     97  O   UNL A   1      44.121  24.544  37.295  1.00  0.00    -0.237 OA
ATOM     98  O   UNL A   1      46.292  25.216  38.245  1.00  0.00    -0.237 OA
ATOM     99  O   UNL A   1      44.246  26.394  38.923  1.00  0.00    -0.744 OA
ENDBRANCH  93  96
ENDBRANCH  66  89
ENDBRANCH  40  41
ENDBRANCH  32  35
ENDBRANCH  30  31
ENDBRANCH  29  30
ENDBRANCH   1  29
TORSDOF 18
ENDMDL
