MODEL 1
REMARK VINA RESULT:     -11.8      0.000      0.000
REMARK SMILES O=Cc1ccc2c(c1)C=C(C(=O)NCCCNC(=O)c1ccc(-c3c4nc(c(-c5cccc(S(=O)(=O)[O-])c5F)c5ccc([nH]5)c(-c5cccc(S(=O)(=O)[O-])c5F)c5nc(c(-c6cccc(S(=O)(=O)[O-])c6F)c6ccc3[nH]6)C=C5)C=C4)cc1)[C@H](C(F)(F)F)O2
REMARK SMILES IDX 16 1 15 2 14 3 13 4 11 5 12 6 10 8 3 9 4 10 8 11 5 12 7 13
REMARK SMILES IDX 6 14 9 15 88 16 83 17 2 18 1 19 84 20 85 21 86 22 87 23
REMARK SMILES IDX 17 24 18 25 19 27 20 28 21 29 82 30 22 31 81 32 23 33 24 34
REMARK SMILES IDX 25 35 75 36 26 37 80 38 74 39 76 40 27 41 79 42 73 43 72 44
REMARK SMILES IDX 28 46 60 47 40 48 59 49 41 50 44 51 58 52 77 53 42 54 43 55
REMARK SMILES IDX 57 57 78 58 45 59 29 60 30 61 38 62 31 63 33 64 39 65 32 66
REMARK SMILES IDX 34 67 35 68 36 69 37 70 61 71 62 72 70 73 63 74 65 75 71 76
REMARK SMILES IDX 64 77 66 78 67 79 68 80 69 81 46 82 47 83 55 84 48 85 50 86
REMARK SMILES IDX 56 87 49 88 51 89 52 90 53 91 54 92
REMARK H PARENT 13 7 17 26 76 45 44 56
REMARK Flexibility Score: inf
ROOT
ATOM      1  C   UNL A   1      34.044  28.763  26.163  1.00  0.00     0.118 C 
ENDROOT
BRANCH   1   2
ATOM      2  C   UNL A   1      33.173  27.790  26.955  1.00  0.00     0.042 C 
BRANCH   2   3
ATOM      3  C   UNL A   1      31.710  27.771  26.499  1.00  0.00     0.118 C 
BRANCH   3   4
ATOM      4  N   UNL A   1      31.073  26.514  26.857  1.00  0.00    -0.352 N 
ATOM      5  C   UNL A   1      31.278  25.226  26.478  1.00  0.00     0.251 C 
ATOM      6  O   UNL A   1      30.486  24.377  26.880  1.00  0.00    -0.270 OA
ATOM      7  H   UNL A   1      30.341  26.618  27.508  1.00  0.00     0.163 HD
BRANCH   5   8
ATOM      8  C   UNL A   1      32.450  24.792  25.673  1.00  0.00     0.067 C 
ATOM      9  C   UNL A   1      36.850  22.891  25.085  1.00  0.00     0.015 A 
ATOM     10  C   UNL A   1      36.672  22.885  23.700  1.00  0.00     0.015 A 
ATOM     11  C   UNL A   1      35.859  23.404  25.925  1.00  0.00     0.023 A 
ATOM     12  C   UNL A   1      35.487  23.381  23.154  1.00  0.00     0.048 A 
ATOM     13  C   UNL A   1      34.671  23.899  25.372  1.00  0.00     0.018 A 
ATOM     14  C   UNL A   1      34.489  23.881  23.991  1.00  0.00     0.128 A 
ATOM     15  C   UNL A   1      33.586  24.349  26.231  1.00  0.00     0.025 C 
ATOM     16  O   UNL A   1      33.332  24.270  23.387  1.00  0.00    -0.475 OA
ATOM     17  C   UNL A   1      32.365  25.036  24.167  1.00  0.00     0.314 C 
BRANCH   9  18
ATOM     18  C   UNL A   1      38.076  22.316  25.675  1.00  0.00     0.260 C 
ATOM     19  O   UNL A   1      38.871  23.000  26.309  1.00  0.00    -0.298 OA
ENDBRANCH   9  18
BRANCH  17  20
ATOM     20  C   UNL A   1      30.985  24.814  23.502  1.00  0.00     0.429 C 
ATOM     21  F   UNL A   1      30.062  25.726  23.875  1.00  0.00    -0.167 F 
ATOM     22  F   UNL A   1      31.076  24.931  22.147  1.00  0.00    -0.167 F 
ATOM     23  F   UNL A   1      30.487  23.580  23.747  1.00  0.00    -0.167 F 
ENDBRANCH  17  20
ENDBRANCH   5   8
ENDBRANCH   3   4
ENDBRANCH   2   3
ENDBRANCH   1   2
BRANCH   1  24
ATOM     24  N   UNL A   1      33.881  30.133  26.627  1.00  0.00    -0.352 N 
ATOM     25  C   UNL A   1      34.586  30.833  27.574  1.00  0.00     0.251 C 
ATOM     26  H   UNL A   1      33.152  30.635  26.194  1.00  0.00     0.163 HD
ATOM     27  O   UNL A   1      34.133  31.897  27.991  1.00  0.00    -0.269 OA
BRANCH  25  28
ATOM     28  C   UNL A   1      35.873  30.320  28.097  1.00  0.00     0.039 A 
ATOM     29  C   UNL A   1      35.888  29.687  29.344  1.00  0.00     0.014 A 
ATOM     30  C   UNL A   1      37.069  30.512  27.398  1.00  0.00     0.014 A 
ATOM     31  C   UNL A   1      37.092  29.208  29.869  1.00  0.00     0.010 A 
ATOM     32  C   UNL A   1      38.257  29.976  27.892  1.00  0.00     0.010 A 
ATOM     33  C   UNL A   1      38.284  29.329  29.137  1.00  0.00    -0.014 A 
BRANCH  33  34
ATOM     34  C   UNL A   1      39.564  28.777  29.651  1.00  0.00     0.031 A 
ATOM     35  C   UNL A   1      40.301  29.471  30.765  1.00  0.00     0.074 A 
ATOM     36  C   UNL A   1      40.109  27.699  29.053  1.00  0.00     0.049 A 
ATOM     37  N   UNL A   1      41.459  29.177  31.297  1.00  0.00    -0.248 NA
ATOM     38  C   UNL A   1      39.666  30.670  31.340  1.00  0.00     0.031 C 
ATOM     39  C   UNL A   1      39.532  26.986  27.912  1.00  0.00     0.029 A 
ATOM     40  N   UNL A   1      41.285  27.036  29.298  1.00  0.00    -0.354 N 
ATOM     41  C   UNL A   1      41.711  30.171  32.236  1.00  0.00     0.074 A 
ATOM     42  C   UNL A   1      40.598  31.093  32.184  1.00  0.00     0.031 C 
ATOM     43  C   UNL A   1      40.356  25.989  27.553  1.00  0.00     0.029 A 
ATOM     44  C   UNL A   1      41.532  26.007  28.418  1.00  0.00     0.049 A 
ATOM     45  H   UNL A   1      41.895  27.274  30.033  1.00  0.00     0.167 HD
ATOM     46  C   UNL A   1      42.761  30.290  33.084  1.00  0.00     0.034 A 
ATOM     47  C   UNL A   1      42.590  25.179  28.313  1.00  0.00     0.034 A 
ATOM     48  C   UNL A   1      43.840  29.344  33.168  1.00  0.00     0.049 A 
ATOM     49  C   UNL A   1      43.716  25.302  29.303  1.00  0.00     0.074 A 
ATOM     50  C   UNL A   1      44.898  29.323  34.060  1.00  0.00     0.029 A 
ATOM     51  N   UNL A   1      44.006  28.255  32.327  1.00  0.00    -0.354 N 
ATOM     52  N   UNL A   1      43.854  26.149  30.293  1.00  0.00    -0.248 NA
ATOM     53  C   UNL A   1      44.813  24.330  29.185  1.00  0.00     0.031 C 
ATOM     54  C   UNL A   1      45.715  28.232  33.744  1.00  0.00     0.029 A 
ATOM     55  C   UNL A   1      45.152  27.559  32.671  1.00  0.00     0.049 A 
ATOM     56  H   UNL A   1      43.397  28.012  31.592  1.00  0.00     0.167 HD
ATOM     57  C   UNL A   1      45.033  25.794  30.937  1.00  0.00     0.074 A 
ATOM     58  C   UNL A   1      45.559  24.639  30.239  1.00  0.00     0.031 C 
ATOM     59  C   UNL A   1      45.634  26.379  32.002  1.00  0.00     0.034 A 
BRANCH  46  60
ATOM     60  C   UNL A   1      42.768  31.461  34.033  1.00  0.00     0.023 A 
ATOM     61  C   UNL A   1      43.314  32.692  33.613  1.00  0.00     0.012 A 
ATOM     62  C   UNL A   1      42.179  31.367  35.309  1.00  0.00     0.148 A 
ATOM     63  C   UNL A   1      43.303  33.800  34.460  1.00  0.00     0.002 A 
ATOM     64  C   UNL A   1      42.133  32.488  36.131  1.00  0.00     0.091 A 
ATOM     65  F   UNL A   1      41.682  30.184  35.699  1.00  0.00    -0.205 F 
ATOM     66  C   UNL A   1      42.704  33.701  35.712  1.00  0.00     0.022 A 
BRANCH  64  67
ATOM     67  S   UNL A   1      41.314  32.486  37.730  1.00  0.00     0.127 S 
ATOM     68  O   UNL A   1      39.972  32.028  37.371  1.00  0.00    -0.237 OA
ATOM     69  O   UNL A   1      42.108  31.517  38.483  1.00  0.00    -0.237 OA
ATOM     70  O   UNL A   1      41.396  33.854  38.224  1.00  0.00    -0.744 OA
ENDBRANCH  64  67
ENDBRANCH  46  60
BRANCH  47  71
ATOM     71  C   UNL A   1      42.598  24.117  27.267  1.00  0.00     0.023 A 
ATOM     72  C   UNL A   1      43.156  24.395  26.004  1.00  0.00     0.012 A 
ATOM     73  C   UNL A   1      42.092  22.829  27.525  1.00  0.00     0.148 A 
ATOM     74  C   UNL A   1      43.180  23.420  25.007  1.00  0.00     0.002 A 
ATOM     75  C   UNL A   1      42.172  21.844  26.546  1.00  0.00     0.091 A 
ATOM     76  F   UNL A   1      41.553  22.587  28.728  1.00  0.00    -0.205 F 
ATOM     77  C   UNL A   1      42.699  22.143  25.281  1.00  0.00     0.022 A 
BRANCH  75  78
ATOM     78  S   UNL A   1      41.706  20.138  26.862  1.00  0.00     0.127 S 
ATOM     79  O   UNL A   1      40.302  20.274  27.232  1.00  0.00    -0.237 OA
ATOM     80  O   UNL A   1      41.944  19.514  25.560  1.00  0.00    -0.237 OA
ATOM     81  O   UNL A   1      42.602  19.677  27.915  1.00  0.00    -0.744 OA
ENDBRANCH  75  78
ENDBRANCH  47  71
BRANCH  59  82
ATOM     82  C   UNL A   1      46.914  25.766  32.507  1.00  0.00     0.023 A 
ATOM     83  C   UNL A   1      46.884  24.895  33.614  1.00  0.00     0.012 A 
ATOM     84  C   UNL A   1      48.134  25.995  31.839  1.00  0.00     0.148 A 
ATOM     85  C   UNL A   1      48.053  24.284  34.066  1.00  0.00     0.002 A 
ATOM     86  C   UNL A   1      49.285  25.344  32.265  1.00  0.00     0.091 A 
ATOM     87  F   UNL A   1      48.144  26.843  30.801  1.00  0.00    -0.205 F 
ATOM     88  C   UNL A   1      49.249  24.498  33.385  1.00  0.00     0.022 A 
BRANCH  86  89
ATOM     89  S   UNL A   1      50.848  25.485  31.391  1.00  0.00     0.127 S 
ATOM     90  O   UNL A   1      51.703  24.585  32.161  1.00  0.00    -0.237 OA
ATOM     91  O   UNL A   1      50.501  25.002  30.053  1.00  0.00    -0.237 OA
ATOM     92  O   UNL A   1      51.212  26.895  31.448  1.00  0.00    -0.744 OA
ENDBRANCH  86  89
ENDBRANCH  59  82
ENDBRANCH  33  34
ENDBRANCH  25  28
ENDBRANCH   1  24
TORSDOF 15
ENDMDL
MODEL 2
REMARK VINA RESULT:     -11.8      1.332      1.647
REMARK SMILES O=Cc1ccc2c(c1)C=C(C(=O)NCCCNC(=O)c1ccc(-c3c4nc(c(-c5cccc(S(=O)(=O)[O-])c5F)c5ccc([nH]5)c(-c5cccc(S(=O)(=O)[O-])c5F)c5nc(c(-c6cccc(S(=O)(=O)[O-])c6F)c6ccc3[nH]6)C=C5)C=C4)cc1)[C@H](C(F)(F)F)O2
REMARK SMILES IDX 16 1 15 2 14 3 13 4 11 5 12 6 10 8 3 9 4 10 8 11 5 12 7 13
REMARK SMILES IDX 6 14 9 15 88 16 83 17 2 18 1 19 84 20 85 21 86 22 87 23
REMARK SMILES IDX 17 24 18 25 19 27 20 28 21 29 82 30 22 31 81 32 23 33 24 34
REMARK SMILES IDX 25 35 75 36 26 37 80 38 74 39 76 40 27 41 79 42 73 43 72 44
REMARK SMILES IDX 28 46 60 47 40 48 59 49 41 50 44 51 58 52 77 53 42 54 43 55
REMARK SMILES IDX 57 57 78 58 45 59 29 60 30 61 38 62 31 63 33 64 39 65 32 66
REMARK SMILES IDX 34 67 35 68 36 69 37 70 61 71 62 72 70 73 63 74 65 75 71 76
REMARK SMILES IDX 64 77 66 78 67 79 68 80 69 81 46 82 47 83 55 84 48 85 50 86
REMARK SMILES IDX 56 87 49 88 51 89 52 90 53 91 54 92
REMARK H PARENT 13 7 17 26 76 45 44 56
REMARK Flexibility Score: inf
ROOT
ATOM      1  C   UNL A   1      34.066  28.801  26.068  1.00  0.00     0.118 C 
ENDROOT
BRANCH   1   2
ATOM      2  C   UNL A   1      33.229  27.777  26.832  1.00  0.00     0.042 C 
BRANCH   2   3
ATOM      3  C   UNL A   1      31.780  27.687  26.344  1.00  0.00     0.118 C 
BRANCH   3   4
ATOM      4  N   UNL A   1      31.170  26.433  26.759  1.00  0.00    -0.352 N 
ATOM      5  C   UNL A   1      31.383  25.137  26.416  1.00  0.00     0.251 C 
ATOM      6  O   UNL A   1      30.614  24.291  26.867  1.00  0.00    -0.270 OA
ATOM      7  H   UNL A   1      30.455  26.548  27.426  1.00  0.00     0.163 HD
BRANCH   5   8
ATOM      8  C   UNL A   1      32.539  24.692  25.594  1.00  0.00     0.067 C 
ATOM      9  C   UNL A   1      36.807  22.538  24.908  1.00  0.00     0.015 A 
ATOM     10  C   UNL A   1      36.660  22.669  23.525  1.00  0.00     0.015 A 
ATOM     11  C   UNL A   1      35.835  23.046  25.775  1.00  0.00     0.023 A 
ATOM     12  C   UNL A   1      35.525  23.295  23.007  1.00  0.00     0.048 A 
ATOM     13  C   UNL A   1      34.698  23.672  25.250  1.00  0.00     0.018 A 
ATOM     14  C   UNL A   1      34.547  23.790  23.869  1.00  0.00     0.128 A 
ATOM     15  C   UNL A   1      33.629  24.121  26.128  1.00  0.00     0.025 C 
ATOM     16  O   UNL A   1      33.433  24.313  23.285  1.00  0.00    -0.475 OA
ATOM     17  C   UNL A   1      32.506  25.074  24.115  1.00  0.00     0.314 C 
BRANCH   9  18
ATOM     18  C   UNL A   1      37.976  21.826  25.463  1.00  0.00     0.260 C 
ATOM     19  O   UNL A   1      38.222  20.662  25.171  1.00  0.00    -0.298 OA
ENDBRANCH   9  18
BRANCH  17  20
ATOM     20  C   UNL A   1      31.129  25.012  23.411  1.00  0.00     0.429 C 
ATOM     21  F   UNL A   1      30.419  23.907  23.725  1.00  0.00    -0.167 F 
ATOM     22  F   UNL A   1      30.344  26.061  23.791  1.00  0.00    -0.167 F 
ATOM     23  F   UNL A   1      31.234  25.081  22.064  1.00  0.00    -0.167 F 
ENDBRANCH  17  20
ENDBRANCH   5   8
ENDBRANCH   3   4
ENDBRANCH   2   3
ENDBRANCH   1   2
BRANCH   1  24
ATOM     24  N   UNL A   1      33.872  30.148  26.585  1.00  0.00    -0.352 N 
ATOM     25  C   UNL A   1      34.548  30.818  27.574  1.00  0.00     0.251 C 
ATOM     26  H   UNL A   1      33.144  30.656  26.159  1.00  0.00     0.163 HD
ATOM     27  O   UNL A   1      34.071  31.857  28.025  1.00  0.00    -0.269 OA
BRANCH  25  28
ATOM     28  C   UNL A   1      35.832  30.304  28.101  1.00  0.00     0.039 A 
ATOM     29  C   UNL A   1      35.855  29.728  29.376  1.00  0.00     0.014 A 
ATOM     30  C   UNL A   1      37.020  30.438  27.377  1.00  0.00     0.014 A 
ATOM     31  C   UNL A   1      37.056  29.250  29.905  1.00  0.00     0.010 A 
ATOM     32  C   UNL A   1      38.206  29.901  27.877  1.00  0.00     0.010 A 
ATOM     33  C   UNL A   1      38.239  29.311  29.150  1.00  0.00    -0.014 A 
BRANCH  33  34
ATOM     34  C   UNL A   1      39.516  28.758  29.670  1.00  0.00     0.031 A 
ATOM     35  C   UNL A   1      40.250  29.451  30.787  1.00  0.00     0.074 A 
ATOM     36  C   UNL A   1      40.061  27.678  29.075  1.00  0.00     0.049 A 
ATOM     37  N   UNL A   1      41.405  29.155  31.324  1.00  0.00    -0.248 NA
ATOM     38  C   UNL A   1      39.615  30.653  31.357  1.00  0.00     0.031 C 
ATOM     39  C   UNL A   1      39.487  26.964  27.933  1.00  0.00     0.029 A 
ATOM     40  N   UNL A   1      41.235  27.013  29.326  1.00  0.00    -0.354 N 
ATOM     41  C   UNL A   1      41.655  30.149  32.262  1.00  0.00     0.074 A 
ATOM     42  C   UNL A   1      40.544  31.074  32.204  1.00  0.00     0.031 C 
ATOM     43  C   UNL A   1      40.311  25.965  27.579  1.00  0.00     0.029 A 
ATOM     44  C   UNL A   1      41.482  25.982  28.449  1.00  0.00     0.049 A 
ATOM     45  H   UNL A   1      41.842  27.250  30.064  1.00  0.00     0.167 HD
ATOM     46  C   UNL A   1      42.702  30.268  33.114  1.00  0.00     0.034 A 
ATOM     47  C   UNL A   1      42.539  25.151  28.349  1.00  0.00     0.034 A 
ATOM     48  C   UNL A   1      43.779  29.319  33.204  1.00  0.00     0.049 A 
ATOM     49  C   UNL A   1      43.662  25.272  29.343  1.00  0.00     0.074 A 
ATOM     50  C   UNL A   1      44.833  29.297  34.101  1.00  0.00     0.029 A 
ATOM     51  N   UNL A   1      43.946  28.229  32.365  1.00  0.00    -0.354 N 
ATOM     52  N   UNL A   1      43.797  26.121  30.333  1.00  0.00    -0.248 NA
ATOM     53  C   UNL A   1      44.757  24.299  29.232  1.00  0.00     0.031 C 
ATOM     54  C   UNL A   1      45.648  28.204  33.789  1.00  0.00     0.029 A 
ATOM     55  C   UNL A   1      45.089  27.531  32.715  1.00  0.00     0.049 A 
ATOM     56  H   UNL A   1      43.339  27.986  31.627  1.00  0.00     0.167 HD
ATOM     57  C   UNL A   1      44.973  25.764  30.983  1.00  0.00     0.074 A 
ATOM     58  C   UNL A   1      45.499  24.607  30.288  1.00  0.00     0.031 C 
ATOM     59  C   UNL A   1      45.571  26.349  32.049  1.00  0.00     0.034 A 
BRANCH  46  60
ATOM     60  C   UNL A   1      42.708  31.440  34.062  1.00  0.00     0.023 A 
ATOM     61  C   UNL A   1      43.313  32.651  33.666  1.00  0.00     0.012 A 
ATOM     62  C   UNL A   1      42.061  31.368  35.312  1.00  0.00     0.148 A 
ATOM     63  C   UNL A   1      43.303  33.760  34.510  1.00  0.00     0.002 A 
ATOM     64  C   UNL A   1      42.018  32.493  36.130  1.00  0.00     0.091 A 
ATOM     65  F   UNL A   1      41.507  30.204  35.680  1.00  0.00    -0.205 F 
ATOM     66  C   UNL A   1      42.647  33.684  35.735  1.00  0.00     0.022 A 
BRANCH  64  67
ATOM     67  S   UNL A   1      41.130  32.522  37.691  1.00  0.00     0.127 S 
ATOM     68  O   UNL A   1      41.917  31.588  38.494  1.00  0.00    -0.237 OA
ATOM     69  O   UNL A   1      41.254  33.924  38.090  1.00  0.00    -0.237 OA
ATOM     70  O   UNL A   1      39.771  32.095  37.388  1.00  0.00    -0.744 OA
ENDBRANCH  64  67
ENDBRANCH  46  60
BRANCH  47  71
ATOM     71  C   UNL A   1      42.549  24.088  27.305  1.00  0.00     0.023 A 
ATOM     72  C   UNL A   1      43.124  24.359  26.048  1.00  0.00     0.012 A 
ATOM     73  C   UNL A   1      42.029  22.804  27.559  1.00  0.00     0.148 A 
ATOM     74  C   UNL A   1      43.150  23.383  25.051  1.00  0.00     0.002 A 
ATOM     75  C   UNL A   1      42.111  21.818  26.582  1.00  0.00     0.091 A 
ATOM     76  F   UNL A   1      41.475  22.569  28.756  1.00  0.00    -0.205 F 
ATOM     77  C   UNL A   1      42.654  22.110  25.322  1.00  0.00     0.022 A 
BRANCH  75  78
ATOM     78  S   UNL A   1      41.626  20.117  26.894  1.00  0.00     0.127 S 
ATOM     79  O   UNL A   1      40.356  20.289  27.590  1.00  0.00    -0.237 OA
ATOM     80  O   UNL A   1      41.520  19.578  25.537  1.00  0.00    -0.237 OA
ATOM     81  O   UNL A   1      42.711  19.540  27.679  1.00  0.00    -0.744 OA
ENDBRANCH  75  78
ENDBRANCH  47  71
BRANCH  59  82
ATOM     82  C   UNL A   1      46.847  25.734  32.560  1.00  0.00     0.023 A 
ATOM     83  C   UNL A   1      48.087  26.164  32.046  1.00  0.00     0.012 A 
ATOM     84  C   UNL A   1      46.822  24.786  33.602  1.00  0.00     0.148 A 
ATOM     85  C   UNL A   1      49.279  25.637  32.541  1.00  0.00     0.002 A 
ATOM     86  C   UNL A   1      48.015  24.303  34.124  1.00  0.00     0.091 A 
ATOM     87  F   UNL A   1      45.631  24.375  34.064  1.00  0.00    -0.205 F 
ATOM     88  C   UNL A   1      49.245  24.718  33.586  1.00  0.00     0.022 A 
BRANCH  86  89
ATOM     89  S   UNL A   1      48.068  23.189  35.533  1.00  0.00     0.127 S 
ATOM     90  O   UNL A   1      47.234  22.082  35.069  1.00  0.00    -0.237 OA
ATOM     91  O   UNL A   1      49.495  22.879  35.631  1.00  0.00    -0.237 OA
ATOM     92  O   UNL A   1      47.536  23.945  36.659  1.00  0.00    -0.744 OA
ENDBRANCH  86  89
ENDBRANCH  59  82
ENDBRANCH  33  34
ENDBRANCH  25  28
ENDBRANCH   1  24
TORSDOF 15
ENDMDL
MODEL 3
REMARK VINA RESULT:     -11.8      2.273      3.890
REMARK SMILES O=Cc1ccc2c(c1)C=C(C(=O)NCCCNC(=O)c1ccc(-c3c4nc(c(-c5cccc(S(=O)(=O)[O-])c5F)c5ccc([nH]5)c(-c5cccc(S(=O)(=O)[O-])c5F)c5nc(c(-c6cccc(S(=O)(=O)[O-])c6F)c6ccc3[nH]6)C=C5)C=C4)cc1)[C@H](C(F)(F)F)O2
REMARK SMILES IDX 16 1 15 2 14 3 13 4 11 5 12 6 10 8 3 9 4 10 8 11 5 12 7 13
REMARK SMILES IDX 6 14 9 15 88 16 83 17 2 18 1 19 84 20 85 21 86 22 87 23
REMARK SMILES IDX 17 24 18 25 19 27 20 28 21 29 82 30 22 31 81 32 23 33 24 34
REMARK SMILES IDX 25 35 75 36 26 37 80 38 74 39 76 40 27 41 79 42 73 43 72 44
REMARK SMILES IDX 28 46 60 47 40 48 59 49 41 50 44 51 58 52 77 53 42 54 43 55
REMARK SMILES IDX 57 57 78 58 45 59 29 60 30 61 38 62 31 63 33 64 39 65 32 66
REMARK SMILES IDX 34 67 35 68 36 69 37 70 61 71 62 72 70 73 63 74 65 75 71 76
REMARK SMILES IDX 64 77 66 78 67 79 68 80 69 81 46 82 47 83 55 84 48 85 50 86
REMARK SMILES IDX 56 87 49 88 51 89 52 90 53 91 54 92
REMARK H PARENT 13 7 17 26 76 45 44 56
REMARK Flexibility Score: inf
ROOT
ATOM      1  C   UNL A   1      34.293  28.870  25.940  1.00  0.00     0.118 C 
ENDROOT
BRANCH   1   2
ATOM      2  C   UNL A   1      33.465  27.702  26.473  1.00  0.00     0.042 C 
BRANCH   2   3
ATOM      3  C   UNL A   1      33.705  26.389  25.722  1.00  0.00     0.118 C 
BRANCH   3   4
ATOM      4  N   UNL A   1      34.025  26.642  24.326  1.00  0.00    -0.352 N 
ATOM      5  C   UNL A   1      33.273  26.966  23.243  1.00  0.00     0.251 C 
ATOM      6  O   UNL A   1      33.831  27.008  22.149  1.00  0.00    -0.270 OA
ATOM      7  H   UNL A   1      34.986  26.562  24.125  1.00  0.00     0.163 HD
BRANCH   5   8
ATOM      8  C   UNL A   1      31.839  27.347  23.333  1.00  0.00     0.067 C 
ATOM      9  C   UNL A   1      28.157  30.470  23.193  1.00  0.00     0.015 A 
ATOM     10  C   UNL A   1      27.247  29.412  23.253  1.00  0.00     0.015 A 
ATOM     11  C   UNL A   1      29.532  30.224  23.237  1.00  0.00     0.023 A 
ATOM     12  C   UNL A   1      27.717  28.101  23.342  1.00  0.00     0.048 A 
ATOM     13  C   UNL A   1      29.998  28.907  23.325  1.00  0.00     0.018 A 
ATOM     14  C   UNL A   1      29.089  27.851  23.373  1.00  0.00     0.128 A 
ATOM     15  C   UNL A   1      31.424  28.621  23.275  1.00  0.00     0.025 C 
ATOM     16  O   UNL A   1      29.467  26.543  23.377  1.00  0.00    -0.475 OA
ATOM     17  C   UNL A   1      30.860  26.223  23.670  1.00  0.00     0.314 C 
BRANCH   9  18
ATOM     18  C   UNL A   1      27.671  31.856  23.041  1.00  0.00     0.260 C 
ATOM     19  O   UNL A   1      27.961  32.539  22.065  1.00  0.00    -0.298 OA
ENDBRANCH   9  18
BRANCH  17  20
ATOM     20  C   UNL A   1      31.141  24.841  23.034  1.00  0.00     0.429 C 
ATOM     21  F   UNL A   1      32.038  24.108  23.726  1.00  0.00    -0.167 F 
ATOM     22  F   UNL A   1      30.008  24.084  23.002  1.00  0.00    -0.167 F 
ATOM     23  F   UNL A   1      31.570  24.940  21.754  1.00  0.00    -0.167 F 
ENDBRANCH  17  20
ENDBRANCH   5   8
ENDBRANCH   3   4
ENDBRANCH   2   3
ENDBRANCH   1   2
BRANCH   1  24
ATOM     24  N   UNL A   1      33.983  30.111  26.635  1.00  0.00    -0.352 N 
ATOM     25  C   UNL A   1      34.584  30.682  27.729  1.00  0.00     0.251 C 
ATOM     26  H   UNL A   1      33.226  30.619  26.262  1.00  0.00     0.163 HD
ATOM     27  O   UNL A   1      34.017  31.607  28.306  1.00  0.00    -0.269 OA
BRANCH  25  28
ATOM     28  C   UNL A   1      35.893  30.196  28.219  1.00  0.00     0.039 A 
ATOM     29  C   UNL A   1      35.964  29.617  29.491  1.00  0.00     0.014 A 
ATOM     30  C   UNL A   1      37.058  30.360  27.463  1.00  0.00     0.014 A 
ATOM     31  C   UNL A   1      37.190  29.164  29.984  1.00  0.00     0.010 A 
ATOM     32  C   UNL A   1      38.268  29.848  27.929  1.00  0.00     0.010 A 
ATOM     33  C   UNL A   1      38.350  29.255  29.198  1.00  0.00    -0.014 A 
BRANCH  33  34
ATOM     34  C   UNL A   1      39.653  28.729  29.681  1.00  0.00     0.031 A 
ATOM     35  C   UNL A   1      40.399  29.435  30.782  1.00  0.00     0.074 A 
ATOM     36  C   UNL A   1      40.207  27.665  29.066  1.00  0.00     0.049 A 
ATOM     37  N   UNL A   1      41.575  29.163  31.286  1.00  0.00    -0.248 NA
ATOM     38  C   UNL A   1      39.753  30.618  31.375  1.00  0.00     0.031 C 
ATOM     39  C   UNL A   1      39.619  26.944  27.935  1.00  0.00     0.029 A 
ATOM     40  N   UNL A   1      41.402  27.027  29.282  1.00  0.00    -0.354 N 
ATOM     41  C   UNL A   1      41.827  30.158  32.223  1.00  0.00     0.074 A 
ATOM     42  C   UNL A   1      40.694  31.057  32.200  1.00  0.00     0.031 C 
ATOM     43  C   UNL A   1      40.457  25.966  27.554  1.00  0.00     0.029 A 
ATOM     44  C   UNL A   1      41.651  26.006  28.393  1.00  0.00     0.049 A 
ATOM     45  H   UNL A   1      42.023  27.275  30.005  1.00  0.00     0.167 HD
ATOM     46  C   UNL A   1      42.893  30.297  33.048  1.00  0.00     0.034 A 
ATOM     47  C   UNL A   1      42.723  25.201  28.260  1.00  0.00     0.034 A 
ATOM     48  C   UNL A   1      43.994  29.374  33.104  1.00  0.00     0.049 A 
ATOM     49  C   UNL A   1      43.869  25.344  29.225  1.00  0.00     0.074 A 
ATOM     50  C   UNL A   1      45.072  29.372  33.972  1.00  0.00     0.029 A 
ATOM     51  N   UNL A   1      44.164  28.292  32.254  1.00  0.00    -0.354 N 
ATOM     52  N   UNL A   1      44.011  26.191  30.216  1.00  0.00    -0.248 NA
ATOM     53  C   UNL A   1      44.984  24.397  29.079  1.00  0.00     0.031 C 
ATOM     54  C   UNL A   1      45.904  28.300  33.633  1.00  0.00     0.029 A 
ATOM     55  C   UNL A   1      45.332  27.620  32.570  1.00  0.00     0.049 A 
ATOM     56  H   UNL A   1      43.544  28.039  31.532  1.00  0.00     0.167 HD
ATOM     57  C   UNL A   1      45.211  25.858  30.832  1.00  0.00     0.074 A 
ATOM     58  C   UNL A   1      45.746  24.717  30.117  1.00  0.00     0.031 C 
ATOM     59  C   UNL A   1      45.824  26.452  31.885  1.00  0.00     0.034 A 
BRANCH  46  60
ATOM     60  C   UNL A   1      42.897  31.465  34.002  1.00  0.00     0.023 A 
ATOM     61  C   UNL A   1      43.475  32.687  33.601  1.00  0.00     0.012 A 
ATOM     62  C   UNL A   1      42.273  31.376  35.262  1.00  0.00     0.148 A 
ATOM     63  C   UNL A   1      43.463  33.792  34.451  1.00  0.00     0.002 A 
ATOM     64  C   UNL A   1      42.227  32.495  36.086  1.00  0.00     0.091 A 
ATOM     65  F   UNL A   1      41.745  30.201  35.634  1.00  0.00    -0.205 F 
ATOM     66  C   UNL A   1      42.829  33.699  35.687  1.00  0.00     0.022 A 
BRANCH  64  67
ATOM     67  S   UNL A   1      41.366  32.503  37.663  1.00  0.00     0.127 S 
ATOM     68  O   UNL A   1      41.392  33.924  38.005  1.00  0.00    -0.237 OA
ATOM     69  O   UNL A   1      40.047  31.989  37.298  1.00  0.00    -0.237 OA
ATOM     70  O   UNL A   1      42.134  31.633  38.544  1.00  0.00    -0.744 OA
ENDBRANCH  64  67
ENDBRANCH  46  60
BRANCH  47  71
ATOM     71  C   UNL A   1      42.731  24.144  27.210  1.00  0.00     0.023 A 
ATOM     72  C   UNL A   1      43.403  24.380  25.996  1.00  0.00     0.012 A 
ATOM     73  C   UNL A   1      42.109  22.898  27.419  1.00  0.00     0.148 A 
ATOM     74  C   UNL A   1      43.429  23.408  24.995  1.00  0.00     0.002 A 
ATOM     75  C   UNL A   1      42.189  21.912  26.442  1.00  0.00     0.091 A 
ATOM     76  F   UNL A   1      41.464  22.695  28.576  1.00  0.00    -0.205 F 
ATOM     77  C   UNL A   1      42.833  22.171  25.222  1.00  0.00     0.022 A 
BRANCH  75  78
ATOM     78  S   UNL A   1      41.572  20.246  26.708  1.00  0.00     0.127 S 
ATOM     79  O   UNL A   1      40.153  20.485  26.945  1.00  0.00    -0.237 OA
ATOM     80  O   UNL A   1      41.886  19.599  25.432  1.00  0.00    -0.237 OA
ATOM     81  O   UNL A   1      42.329  19.725  27.840  1.00  0.00    -0.744 OA
ENDBRANCH  75  78
ENDBRANCH  47  71
BRANCH  59  82
ATOM     82  C   UNL A   1      47.128  25.865  32.359  1.00  0.00     0.023 A 
ATOM     83  C   UNL A   1      48.342  26.325  31.812  1.00  0.00     0.012 A 
ATOM     84  C   UNL A   1      47.152  24.913  33.398  1.00  0.00     0.148 A 
ATOM     85  C   UNL A   1      49.560  25.824  32.273  1.00  0.00     0.002 A 
ATOM     86  C   UNL A   1      48.370  24.456  33.884  1.00  0.00     0.091 A 
ATOM     87  F   UNL A   1      45.985  24.474  33.890  1.00  0.00    -0.205 F 
ATOM     88  C   UNL A   1      49.575  24.901  33.315  1.00  0.00     0.022 A 
BRANCH  86  89
ATOM     89  S   UNL A   1      48.487  23.340  35.288  1.00  0.00     0.127 S 
ATOM     90  O   UNL A   1      47.724  24.060  36.305  1.00  0.00    -0.237 OA
ATOM     91  O   UNL A   1      47.838  22.132  34.779  1.00  0.00    -0.237 OA
ATOM     92  O   UNL A   1      49.910  23.191  35.562  1.00  0.00    -0.744 OA
ENDBRANCH  86  89
ENDBRANCH  59  82
ENDBRANCH  33  34
ENDBRANCH  25  28
ENDBRANCH   1  24
TORSDOF 15
ENDMDL
