MODEL 1
REMARK VINA RESULT:     -12.9      0.000      0.000
REMARK SMILES CCc1sc(NC(=O)[C@H]2CC(C)=C(C)C[C@H]2C(=O)NCCCNC(=O)c2ccc(-c3c4nc(c(-c5cccc(S(=O)(=O)[O-])c5F)c5ccc([nH]5)c(-c5cccc(S(=O)(=O)[O-])c5F)c5nc(c(-c6cccc(S(=O)(=O)[O-])c6F)c6ccc3[nH]6)C=C5)C=C4)cc2)nc1-c1ccccc1
REMARK SMILES IDX 21 1 20 2 19 3 17 4 18 5 16 7 9 8 10 9 11 10 15 11 12 12
REMARK SMILES IDX 13 13 14 14 7 15 6 16 8 18 5 19 3 20 4 21 90 22 89 23 2 24
REMARK SMILES IDX 1 25 91 26 92 27 96 28 93 29 95 30 94 31 22 32 23 33 24 34
REMARK SMILES IDX 25 36 26 37 27 38 88 39 28 40 87 41 29 42 30 43 31 44 81 45
REMARK SMILES IDX 32 46 86 47 80 48 82 49 33 50 85 51 79 52 78 53 34 55 66 56
REMARK SMILES IDX 46 57 65 58 47 59 50 60 64 61 83 62 48 63 49 64 63 66 84 67
REMARK SMILES IDX 51 68 35 69 36 70 44 71 37 72 39 73 45 74 38 75 40 76 41 77
REMARK SMILES IDX 42 78 43 79 67 80 68 81 76 82 69 83 71 84 77 85 70 86 72 87
REMARK SMILES IDX 73 88 74 89 75 90 52 91 53 92 61 93 54 94 56 95 62 96 55 97
REMARK SMILES IDX 57 98 58 99 59 100 60 101
REMARK H PARENT 19 6 6 17 23 35 82 54 50 65
REMARK Flexibility Score: inf
ROOT
ATOM      1  C   UNL A   1      37.832  19.659  24.937  1.00  0.00     0.042 C 
ENDROOT
BRANCH   1   2
ATOM      2  C   UNL A   1      36.473  20.342  24.972  1.00  0.00     0.117 C 
BRANCH   2   3
ATOM      3  N   UNL A   1      36.528  21.710  25.451  1.00  0.00    -0.356 N 
ATOM      4  C   UNL A   1      35.578  22.619  25.759  1.00  0.00     0.224 C 
ATOM      5  O   UNL A   1      35.981  23.714  26.168  1.00  0.00    -0.275 OA
ATOM      6  H   UNL A   1      37.445  22.044  25.576  1.00  0.00     0.163 HD
BRANCH   4   7
ATOM      7  C   UNL A   1      34.071  22.387  25.629  1.00  0.00     0.095 C 
ATOM      8  C   UNL A   1      33.455  22.697  24.254  1.00  0.00     0.095 C 
ATOM      9  C   UNL A   1      33.182  21.457  23.381  1.00  0.00     0.045 C 
ATOM     10  C   UNL A   1      32.922  20.152  24.096  1.00  0.00    -0.074 C 
ATOM     11  C   UNL A   1      33.563  21.118  26.316  1.00  0.00     0.045 C 
ATOM     12  C   UNL A   1      32.529  19.032  23.161  1.00  0.00     0.039 C 
ATOM     13  C   UNL A   1      33.086  19.999  25.426  1.00  0.00    -0.074 C 
ATOM     14  C   UNL A   1      32.885  18.682  26.131  1.00  0.00     0.039 C 
BRANCH   8  15
ATOM     15  C   UNL A   1      34.300  23.721  23.488  1.00  0.00     0.230 C 
ATOM     16  N   UNL A   1      34.208  25.064  23.625  1.00  0.00    -0.302 N 
ATOM     17  H   UNL A   1      34.934  25.531  23.152  1.00  0.00     0.172 HD
ATOM     18  O   UNL A   1      35.197  23.329  22.730  1.00  0.00    -0.274 OA
BRANCH  16  19
ATOM     19  C   UNL A   1      33.365  25.936  24.252  1.00  0.00     0.190 A 
ATOM     20  C   UNL A   1      32.013  27.274  25.755  1.00  0.00     0.034 A 
ATOM     21  S   UNL A   1      33.412  26.292  25.906  1.00  0.00    -0.101 S 
ATOM     22  C   UNL A   1      31.631  27.298  24.423  1.00  0.00     0.087 A 
ATOM     23  N   UNL A   1      32.395  26.510  23.582  1.00  0.00    -0.220 NA
BRANCH  20  24
ATOM     24  C   UNL A   1      31.403  27.899  26.971  1.00  0.00     0.046 C 
ATOM     25  C   UNL A   1      31.835  29.348  27.147  1.00  0.00     0.010 C 
ENDBRANCH  20  24
BRANCH  22  26
ATOM     26  C   UNL A   1      30.458  27.996  23.925  1.00  0.00     0.001 A 
ATOM     27  C   UNL A   1      29.252  27.320  23.701  1.00  0.00     0.010 A 
ATOM     28  C   UNL A   1      30.546  29.361  23.629  1.00  0.00     0.010 A 
ATOM     29  C   UNL A   1      28.162  27.992  23.145  1.00  0.00     0.001 A 
ATOM     30  C   UNL A   1      29.456  30.032  23.071  1.00  0.00     0.001 A 
ATOM     31  C   UNL A   1      28.268  29.345  22.821  1.00  0.00     0.000 A 
ENDBRANCH  22  26
ENDBRANCH  16  19
ENDBRANCH   8  15
ENDBRANCH   4   7
ENDBRANCH   2   3
ENDBRANCH   1   2
BRANCH   1  32
ATOM     32  C   UNL A   1      38.912  20.399  25.710  1.00  0.00     0.118 C 
BRANCH  32  33
ATOM     33  N   UNL A   1      40.019  19.516  26.055  1.00  0.00    -0.352 N 
ATOM     34  C   UNL A   1      41.318  19.843  26.354  1.00  0.00     0.251 C 
ATOM     35  H   UNL A   1      39.805  18.555  26.076  1.00  0.00     0.163 HD
ATOM     36  O   UNL A   1      42.182  18.972  26.347  1.00  0.00    -0.269 OA
BRANCH  34  37
ATOM     37  C   UNL A   1      41.670  21.241  26.688  1.00  0.00     0.039 A 
ATOM     38  C   UNL A   1      41.758  21.621  28.030  1.00  0.00     0.014 A 
ATOM     39  C   UNL A   1      41.872  22.184  25.677  1.00  0.00     0.014 A 
ATOM     40  C   UNL A   1      42.081  22.941  28.356  1.00  0.00     0.010 A 
ATOM     41  C   UNL A   1      42.265  23.477  26.002  1.00  0.00     0.010 A 
ATOM     42  C   UNL A   1      42.349  23.876  27.344  1.00  0.00    -0.014 A 
BRANCH  42  43
ATOM     43  C   UNL A   1      42.678  25.287  27.659  1.00  0.00     0.031 A 
ATOM     44  C   UNL A   1      44.094  25.777  27.501  1.00  0.00     0.074 A 
ATOM     45  C   UNL A   1      41.732  26.102  28.162  1.00  0.00     0.049 A 
ATOM     46  N   UNL A   1      44.597  26.951  27.780  1.00  0.00    -0.248 NA
ATOM     47  C   UNL A   1      45.079  24.809  26.989  1.00  0.00     0.031 C 
ATOM     48  C   UNL A   1      40.343  25.720  28.431  1.00  0.00     0.029 A 
ATOM     49  N   UNL A   1      41.800  27.411  28.562  1.00  0.00    -0.354 N 
ATOM     50  C   UNL A   1      45.958  26.851  27.516  1.00  0.00     0.074 A 
ATOM     51  C   UNL A   1      46.209  25.492  27.091  1.00  0.00     0.031 C 
ATOM     52  C   UNL A   1      39.689  26.776  28.942  1.00  0.00     0.029 A 
ATOM     53  C   UNL A   1      40.614  27.900  29.058  1.00  0.00     0.049 A 
ATOM     54  H   UNL A   1      42.621  27.951  28.500  1.00  0.00     0.167 HD
ATOM     55  C   UNL A   1      46.909  27.813  27.584  1.00  0.00     0.034 A 
ATOM     56  C   UNL A   1      40.308  29.118  29.545  1.00  0.00     0.034 A 
ATOM     57  C   UNL A   1      46.644  29.177  27.949  1.00  0.00     0.049 A 
ATOM     58  C   UNL A   1      41.369  30.184  29.562  1.00  0.00     0.074 A 
ATOM     59  C   UNL A   1      47.517  30.250  27.965  1.00  0.00     0.029 A 
ATOM     60  N   UNL A   1      45.410  29.658  28.359  1.00  0.00    -0.354 N 
ATOM     61  N   UNL A   1      42.617  30.115  29.160  1.00  0.00    -0.248 NA
ATOM     62  C   UNL A   1      40.974  31.508  30.063  1.00  0.00     0.031 C 
ATOM     63  C   UNL A   1      46.809  31.382  28.389  1.00  0.00     0.029 A 
ATOM     64  C   UNL A   1      45.495  31.012  28.630  1.00  0.00     0.049 A 
ATOM     65  H   UNL A   1      44.593  29.115  28.444  1.00  0.00     0.167 HD
ATOM     66  C   UNL A   1      43.144  31.390  29.329  1.00  0.00     0.074 A 
ATOM     67  C   UNL A   1      42.075  32.218  29.851  1.00  0.00     0.031 C 
ATOM     68  C   UNL A   1      44.403  31.832  29.092  1.00  0.00     0.034 A 
BRANCH  55  69
ATOM     69  C   UNL A   1      48.310  27.433  27.179  1.00  0.00     0.023 A 
ATOM     70  C   UNL A   1      49.171  26.859  28.137  1.00  0.00     0.012 A 
ATOM     71  C   UNL A   1      48.767  27.612  25.859  1.00  0.00     0.148 A 
ATOM     72  C   UNL A   1      50.475  26.502  27.799  1.00  0.00     0.002 A 
ATOM     73  C   UNL A   1      50.057  27.216  25.519  1.00  0.00     0.091 A 
ATOM     74  F   UNL A   1      47.947  28.183  24.966  1.00  0.00    -0.205 F 
ATOM     75  C   UNL A   1      50.915  26.672  26.490  1.00  0.00     0.022 A 
BRANCH  73  76
ATOM     76  S   UNL A   1      50.685  27.328  23.839  1.00  0.00     0.127 S 
ATOM     77  O   UNL A   1      50.920  28.765  23.706  1.00  0.00    -0.237 OA
ATOM     78  O   UNL A   1      51.902  26.517  23.905  1.00  0.00    -0.237 OA
ATOM     79  O   UNL A   1      49.639  26.775  22.991  1.00  0.00    -0.744 OA
ENDBRANCH  73  76
ENDBRANCH  55  69
BRANCH  56  80
ATOM     80  C   UNL A   1      38.908  29.421  29.956  1.00  0.00     0.023 A 
ATOM     81  C   UNL A   1      38.482  29.048  31.246  1.00  0.00     0.012 A 
ATOM     82  C   UNL A   1      38.017  30.108  29.110  1.00  0.00     0.148 A 
ATOM     83  C   UNL A   1      37.187  29.332  31.678  1.00  0.00     0.002 A 
ATOM     84  C   UNL A   1      36.742  30.431  29.565  1.00  0.00     0.091 A 
ATOM     85  F   UNL A   1      38.435  30.443  27.881  1.00  0.00    -0.205 F 
ATOM     86  C   UNL A   1      36.321  30.033  30.843  1.00  0.00     0.022 A 
BRANCH  84  87
ATOM     87  S   UNL A   1      35.604  31.440  28.608  1.00  0.00     0.127 S 
ATOM     88  O   UNL A   1      34.642  31.854  29.625  1.00  0.00    -0.237 OA
ATOM     89  O   UNL A   1      36.478  32.505  28.116  1.00  0.00    -0.237 OA
ATOM     90  O   UNL A   1      35.087  30.562  27.565  1.00  0.00    -0.744 OA
ENDBRANCH  84  87
ENDBRANCH  56  80
BRANCH  68  91
ATOM     91  C   UNL A   1      44.696  33.282  29.370  1.00  0.00     0.023 A 
ATOM     92  C   UNL A   1      45.181  33.660  30.638  1.00  0.00     0.012 A 
ATOM     93  C   UNL A   1      44.570  34.253  28.357  1.00  0.00     0.148 A 
ATOM     94  C   UNL A   1      45.511  34.988  30.901  1.00  0.00     0.002 A 
ATOM     95  C   UNL A   1      44.942  35.567  28.614  1.00  0.00     0.091 A 
ATOM     96  F   UNL A   1      44.087  33.877  27.165  1.00  0.00    -0.205 F 
ATOM     97  C   UNL A   1      45.404  35.939  29.887  1.00  0.00     0.022 A 
BRANCH  95  98
ATOM     98  S   UNL A   1      44.919  36.835  27.341  1.00  0.00     0.127 S 
ATOM     99  O   UNL A   1      45.394  38.006  28.076  1.00  0.00    -0.237 OA
ATOM    100  O   UNL A   1      45.865  36.308  26.355  1.00  0.00    -0.237 OA
ATOM    101  O   UNL A   1      43.541  36.901  26.873  1.00  0.00    -0.744 OA
ENDBRANCH  95  98
ENDBRANCH  68  91
ENDBRANCH  42  43
ENDBRANCH  34  37
ENDBRANCH  32  33
ENDBRANCH   1  32
TORSDOF 17
ENDMDL
MODEL 2
REMARK VINA RESULT:     -12.8      0.804      7.299
REMARK SMILES CCc1sc(NC(=O)[C@H]2CC(C)=C(C)C[C@H]2C(=O)NCCCNC(=O)c2ccc(-c3c4nc(c(-c5cccc(S(=O)(=O)[O-])c5F)c5ccc([nH]5)c(-c5cccc(S(=O)(=O)[O-])c5F)c5nc(c(-c6cccc(S(=O)(=O)[O-])c6F)c6ccc3[nH]6)C=C5)C=C4)cc2)nc1-c1ccccc1
REMARK SMILES IDX 21 1 20 2 19 3 17 4 18 5 16 7 9 8 10 9 11 10 15 11 12 12
REMARK SMILES IDX 13 13 14 14 7 15 6 16 8 18 5 19 3 20 4 21 90 22 89 23 2 24
REMARK SMILES IDX 1 25 91 26 92 27 96 28 93 29 95 30 94 31 22 32 23 33 24 34
REMARK SMILES IDX 25 36 26 37 27 38 88 39 28 40 87 41 29 42 30 43 31 44 81 45
REMARK SMILES IDX 32 46 86 47 80 48 82 49 33 50 85 51 79 52 78 53 34 55 66 56
REMARK SMILES IDX 46 57 65 58 47 59 50 60 64 61 83 62 48 63 49 64 63 66 84 67
REMARK SMILES IDX 51 68 35 69 36 70 44 71 37 72 39 73 45 74 38 75 40 76 41 77
REMARK SMILES IDX 42 78 43 79 67 80 68 81 76 82 69 83 71 84 77 85 70 86 72 87
REMARK SMILES IDX 73 88 74 89 75 90 52 91 53 92 61 93 54 94 56 95 62 96 55 97
REMARK SMILES IDX 57 98 58 99 59 100 60 101
REMARK H PARENT 19 6 6 17 23 35 82 54 50 65
REMARK Flexibility Score: inf
ROOT
ATOM      1  C   UNL A   1      37.819  19.534  24.836  1.00  0.00     0.042 C 
ENDROOT
BRANCH   1   2
ATOM      2  C   UNL A   1      36.450  20.183  24.963  1.00  0.00     0.117 C 
BRANCH   2   3
ATOM      3  N   UNL A   1      36.499  21.533  25.491  1.00  0.00    -0.356 N 
ATOM      4  C   UNL A   1      35.546  22.436  25.807  1.00  0.00     0.224 C 
ATOM      5  O   UNL A   1      35.943  23.514  26.265  1.00  0.00    -0.275 OA
ATOM      6  H   UNL A   1      37.414  21.857  25.651  1.00  0.00     0.163 HD
BRANCH   4   7
ATOM      7  C   UNL A   1      34.042  22.218  25.631  1.00  0.00     0.095 C 
ATOM      8  C   UNL A   1      33.468  22.546  24.243  1.00  0.00     0.095 C 
ATOM      9  C   UNL A   1      33.211  21.318  23.349  1.00  0.00     0.045 C 
ATOM     10  C   UNL A   1      32.920  20.007  24.043  1.00  0.00    -0.074 C 
ATOM     11  C   UNL A   1      33.504  20.946  26.290  1.00  0.00     0.045 C 
ATOM     12  C   UNL A   1      32.546  18.900  23.086  1.00  0.00     0.039 C 
ATOM     13  C   UNL A   1      33.045  19.840  25.375  1.00  0.00    -0.074 C 
ATOM     14  C   UNL A   1      32.813  18.517  26.060  1.00  0.00     0.039 C 
BRANCH   8  15
ATOM     15  C   UNL A   1      34.342  23.571  23.512  1.00  0.00     0.230 C 
ATOM     16  N   UNL A   1      34.248  24.914  23.650  1.00  0.00    -0.302 N 
ATOM     17  H   UNL A   1      34.992  25.381  23.205  1.00  0.00     0.172 HD
ATOM     18  O   UNL A   1      35.267  23.180  22.786  1.00  0.00    -0.274 OA
BRANCH  16  19
ATOM     19  C   UNL A   1      33.384  25.785  24.248  1.00  0.00     0.190 A 
ATOM     20  C   UNL A   1      32.005  27.145  25.707  1.00  0.00     0.034 A 
ATOM     21  S   UNL A   1      33.436  26.215  25.884  1.00  0.00    -0.101 S 
ATOM     22  C   UNL A   1      31.609  27.098  24.379  1.00  0.00     0.087 A 
ATOM     23  N   UNL A   1      32.389  26.299  23.564  1.00  0.00    -0.220 NA
BRANCH  20  24
ATOM     24  C   UNL A   1      31.387  27.802  26.901  1.00  0.00     0.046 C 
ATOM     25  C   UNL A   1      31.845  29.246  27.059  1.00  0.00     0.010 C 
ENDBRANCH  20  24
BRANCH  22  26
ATOM     26  C   UNL A   1      30.409  27.736  23.865  1.00  0.00     0.001 A 
ATOM     27  C   UNL A   1      30.416  29.077  23.460  1.00  0.00     0.010 A 
ATOM     28  C   UNL A   1      29.216  27.006  23.807  1.00  0.00     0.010 A 
ATOM     29  C   UNL A   1      29.232  29.691  23.046  1.00  0.00     0.001 A 
ATOM     30  C   UNL A   1      28.033  27.623  23.396  1.00  0.00     0.001 A 
ATOM     31  C   UNL A   1      28.040  28.967  23.025  1.00  0.00     0.000 A 
ENDBRANCH  22  26
ENDBRANCH  16  19
ENDBRANCH   8  15
ENDBRANCH   4   7
ENDBRANCH   2   3
ENDBRANCH   1   2
BRANCH   1  32
ATOM     32  C   UNL A   1      38.880  20.154  25.732  1.00  0.00     0.118 C 
BRANCH  32  33
ATOM     33  N   UNL A   1      39.984  19.233  25.964  1.00  0.00    -0.352 N 
ATOM     34  C   UNL A   1      41.318  19.514  26.127  1.00  0.00     0.251 C 
ATOM     35  H   UNL A   1      39.740  18.281  26.012  1.00  0.00     0.163 HD
ATOM     36  O   UNL A   1      42.145  18.613  26.035  1.00  0.00    -0.269 OA
BRANCH  34  37
ATOM     37  C   UNL A   1      41.751  20.899  26.416  1.00  0.00     0.039 A 
ATOM     38  C   UNL A   1      42.027  21.764  25.354  1.00  0.00     0.014 A 
ATOM     39  C   UNL A   1      41.923  21.329  27.735  1.00  0.00     0.014 A 
ATOM     40  C   UNL A   1      42.445  23.072  25.616  1.00  0.00     0.010 A 
ATOM     41  C   UNL A   1      42.268  22.650  27.995  1.00  0.00     0.010 A 
ATOM     42  C   UNL A   1      42.558  23.528  26.940  1.00  0.00    -0.014 A 
BRANCH  42  43
ATOM     43  C   UNL A   1      43.015  24.905  27.249  1.00  0.00     0.031 A 
ATOM     44  C   UNL A   1      42.068  25.876  27.902  1.00  0.00     0.074 A 
ATOM     45  C   UNL A   1      44.243  25.305  26.871  1.00  0.00     0.049 A 
ATOM     46  N   UNL A   1      42.253  27.136  28.198  1.00  0.00    -0.248 NA
ATOM     47  C   UNL A   1      40.726  25.372  28.240  1.00  0.00     0.031 C 
ATOM     48  C   UNL A   1      45.223  24.477  26.164  1.00  0.00     0.029 A 
ATOM     49  N   UNL A   1      44.869  26.518  27.006  1.00  0.00    -0.354 N 
ATOM     50  C   UNL A   1      41.044  27.584  28.719  1.00  0.00     0.074 A 
ATOM     51  C   UNL A   1      40.121  26.472  28.664  1.00  0.00     0.031 C 
ATOM     52  C   UNL A   1      46.329  25.204  25.936  1.00  0.00     0.029 A 
ATOM     53  C   UNL A   1      46.130  26.552  26.459  1.00  0.00     0.049 A 
ATOM     54  H   UNL A   1      44.454  27.291  27.452  1.00  0.00     0.167 HD
ATOM     55  C   UNL A   1      40.739  28.800  29.233  1.00  0.00     0.034 A 
ATOM     56  C   UNL A   1      47.026  27.557  26.395  1.00  0.00     0.034 A 
ATOM     57  C   UNL A   1      41.676  29.882  29.341  1.00  0.00     0.049 A 
ATOM     58  C   UNL A   1      46.681  28.882  27.018  1.00  0.00     0.074 A 
ATOM     59  C   UNL A   1      41.496  31.124  29.923  1.00  0.00     0.029 A 
ATOM     60  N   UNL A   1      42.976  29.851  28.857  1.00  0.00    -0.354 N 
ATOM     61  N   UNL A   1      45.586  29.239  27.647  1.00  0.00    -0.248 NA
ATOM     62  C   UNL A   1      47.707  29.933  26.958  1.00  0.00     0.031 C 
ATOM     63  C   UNL A   1      42.689  31.846  29.789  1.00  0.00     0.029 A 
ATOM     64  C   UNL A   1      43.611  31.050  29.129  1.00  0.00     0.049 A 
ATOM     65  H   UNL A   1      43.386  29.087  28.391  1.00  0.00     0.167 HD
ATOM     66  C   UNL A   1      45.805  30.541  28.085  1.00  0.00     0.074 A 
ATOM     67  C   UNL A   1      47.145  30.902  27.667  1.00  0.00     0.031 C 
ATOM     68  C   UNL A   1      44.967  31.368  28.756  1.00  0.00     0.034 A 
BRANCH  55  69
ATOM     69  C   UNL A   1      39.351  28.989  29.788  1.00  0.00     0.023 A 
ATOM     70  C   UNL A   1      39.049  28.490  31.072  1.00  0.00     0.012 A 
ATOM     71  C   UNL A   1      38.358  29.678  29.065  1.00  0.00     0.148 A 
ATOM     72  C   UNL A   1      37.774  28.640  31.613  1.00  0.00     0.002 A 
ATOM     73  C   UNL A   1      37.099  29.859  29.628  1.00  0.00     0.091 A 
ATOM     74  F   UNL A   1      38.651  30.123  27.835  1.00  0.00    -0.205 F 
ATOM     75  C   UNL A   1      36.802  29.332  30.896  1.00  0.00     0.022 A 
BRANCH  73  76
ATOM     76  S   UNL A   1      35.807  30.802  28.809  1.00  0.00     0.127 S 
ATOM     77  O   UNL A   1      35.148  31.449  29.943  1.00  0.00    -0.237 OA
ATOM     78  O   UNL A   1      36.575  31.710  27.955  1.00  0.00    -0.237 OA
ATOM     79  O   UNL A   1      35.007  29.826  28.083  1.00  0.00    -0.744 OA
ENDBRANCH  73  76
ENDBRANCH  55  69
BRANCH  56  80
ATOM     80  C   UNL A   1      48.373  27.311  25.807  1.00  0.00     0.023 A 
ATOM     81  C   UNL A   1      49.395  26.807  26.635  1.00  0.00     0.012 A 
ATOM     82  C   UNL A   1      48.638  27.523  24.441  1.00  0.00     0.148 A 
ATOM     83  C   UNL A   1      50.663  26.542  26.121  1.00  0.00     0.002 A 
ATOM     84  C   UNL A   1      49.891  27.211  23.924  1.00  0.00     0.091 A 
ATOM     85  F   UNL A   1      47.657  28.017  23.671  1.00  0.00    -0.205 F 
ATOM     86  C   UNL A   1      50.908  26.733  24.763  1.00  0.00     0.022 A 
BRANCH  84  87
ATOM     87  S   UNL A   1      50.260  27.306  22.167  1.00  0.00     0.127 S 
ATOM     88  O   UNL A   1      50.085  28.730  21.901  1.00  0.00    -0.237 OA
ATOM     89  O   UNL A   1      51.644  26.834  22.119  1.00  0.00    -0.237 OA
ATOM     90  O   UNL A   1      49.304  26.416  21.519  1.00  0.00    -0.744 OA
ENDBRANCH  84  87
ENDBRANCH  56  80
BRANCH  68  91
ATOM     91  C   UNL A   1      45.476  32.742  29.105  1.00  0.00     0.023 A 
ATOM     92  C   UNL A   1      46.143  32.943  30.329  1.00  0.00     0.012 A 
ATOM     93  C   UNL A   1      45.365  33.807  28.191  1.00  0.00     0.148 A 
ATOM     94  C   UNL A   1      46.671  34.193  30.649  1.00  0.00     0.002 A 
ATOM     95  C   UNL A   1      45.931  35.039  28.499  1.00  0.00     0.091 A 
ATOM     96  F   UNL A   1      44.707  33.601  27.041  1.00  0.00    -0.205 F 
ATOM     97  C   UNL A   1      46.577  35.236  29.730  1.00  0.00     0.022 A 
BRANCH  95  98
ATOM     98  S   UNL A   1      45.933  36.409  27.337  1.00  0.00     0.127 S 
ATOM     99  O   UNL A   1      46.494  35.785  26.139  1.00  0.00    -0.237 OA
ATOM    100  O   UNL A   1      44.511  36.743  27.240  1.00  0.00    -0.237 OA
ATOM    101  O   UNL A   1      46.751  37.446  27.949  1.00  0.00    -0.744 OA
ENDBRANCH  95  98
ENDBRANCH  68  91
ENDBRANCH  42  43
ENDBRANCH  34  37
ENDBRANCH  32  33
ENDBRANCH   1  32
TORSDOF 17
ENDMDL
MODEL 3
REMARK VINA RESULT:     -12.3      1.998      7.601
REMARK SMILES CCc1sc(NC(=O)[C@H]2CC(C)=C(C)C[C@H]2C(=O)NCCCNC(=O)c2ccc(-c3c4nc(c(-c5cccc(S(=O)(=O)[O-])c5F)c5ccc([nH]5)c(-c5cccc(S(=O)(=O)[O-])c5F)c5nc(c(-c6cccc(S(=O)(=O)[O-])c6F)c6ccc3[nH]6)C=C5)C=C4)cc2)nc1-c1ccccc1
REMARK SMILES IDX 21 1 20 2 19 3 17 4 18 5 16 7 9 8 10 9 11 10 15 11 12 12
REMARK SMILES IDX 13 13 14 14 7 15 6 16 8 18 5 19 3 20 4 21 90 22 89 23 2 24
REMARK SMILES IDX 1 25 91 26 92 27 96 28 93 29 95 30 94 31 22 32 23 33 24 34
REMARK SMILES IDX 25 36 26 37 27 38 88 39 28 40 87 41 29 42 30 43 31 44 81 45
REMARK SMILES IDX 32 46 86 47 80 48 82 49 33 50 85 51 79 52 78 53 34 55 66 56
REMARK SMILES IDX 46 57 65 58 47 59 50 60 64 61 83 62 48 63 49 64 63 66 84 67
REMARK SMILES IDX 51 68 35 69 36 70 44 71 37 72 39 73 45 74 38 75 40 76 41 77
REMARK SMILES IDX 42 78 43 79 67 80 68 81 76 82 69 83 71 84 77 85 70 86 72 87
REMARK SMILES IDX 73 88 74 89 75 90 52 91 53 92 61 93 54 94 56 95 62 96 55 97
REMARK SMILES IDX 57 98 58 99 59 100 60 101
REMARK H PARENT 19 6 6 17 23 35 82 54 50 65
REMARK Flexibility Score: inf
ROOT
ATOM      1  C   UNL A   1      37.863  19.829  24.731  1.00  0.00     0.042 C 
ENDROOT
BRANCH   1   2
ATOM      2  C   UNL A   1      36.478  20.388  25.016  1.00  0.00     0.117 C 
BRANCH   2   3
ATOM      3  N   UNL A   1      36.499  21.736  25.551  1.00  0.00    -0.356 N 
ATOM      4  C   UNL A   1      35.528  22.618  25.870  1.00  0.00     0.224 C 
ATOM      5  O   UNL A   1      35.903  23.701  26.334  1.00  0.00    -0.275 OA
ATOM      6  H   UNL A   1      37.407  22.077  25.715  1.00  0.00     0.163 HD
BRANCH   4   7
ATOM      7  C   UNL A   1      34.029  22.372  25.689  1.00  0.00     0.095 C 
ATOM      8  C   UNL A   1      33.461  22.651  24.287  1.00  0.00     0.095 C 
ATOM      9  C   UNL A   1      33.230  21.393  23.428  1.00  0.00     0.045 C 
ATOM     10  C   UNL A   1      32.954  20.099  24.157  1.00  0.00    -0.074 C 
ATOM     11  C   UNL A   1      33.506  21.111  26.381  1.00  0.00     0.045 C 
ATOM     12  C   UNL A   1      32.604  18.958  23.230  1.00  0.00     0.039 C 
ATOM     13  C   UNL A   1      33.071  19.972  25.495  1.00  0.00    -0.074 C 
ATOM     14  C   UNL A   1      32.854  18.666  26.216  1.00  0.00     0.039 C 
BRANCH   8  15
ATOM     15  C   UNL A   1      34.325  23.667  23.533  1.00  0.00     0.230 C 
ATOM     16  N   UNL A   1      34.240  25.012  23.667  1.00  0.00    -0.302 N 
ATOM     17  H   UNL A   1      34.978  25.473  23.205  1.00  0.00     0.172 HD
ATOM     18  O   UNL A   1      35.233  23.269  22.791  1.00  0.00    -0.274 OA
BRANCH  16  19
ATOM     19  C   UNL A   1      33.393  25.890  24.277  1.00  0.00     0.190 A 
ATOM     20  C   UNL A   1      32.019  27.235  25.755  1.00  0.00     0.034 A 
ATOM     21  S   UNL A   1      33.399  26.232  25.935  1.00  0.00    -0.101 S 
ATOM     22  C   UNL A   1      31.675  27.276  24.413  1.00  0.00     0.087 A 
ATOM     23  N   UNL A   1      32.450  26.484  23.586  1.00  0.00    -0.220 NA
BRANCH  20  24
ATOM     24  C   UNL A   1      31.384  27.859  26.958  1.00  0.00     0.046 C 
ATOM     25  C   UNL A   1      31.936  29.250  27.239  1.00  0.00     0.010 C 
ENDBRANCH  20  24
BRANCH  22  26
ATOM     26  C   UNL A   1      30.525  27.994  23.889  1.00  0.00     0.001 A 
ATOM     27  C   UNL A   1      30.566  29.379  23.684  1.00  0.00     0.010 A 
ATOM     28  C   UNL A   1      29.344  27.293  23.619  1.00  0.00     0.010 A 
ATOM     29  C   UNL A   1      29.425  30.060  23.257  1.00  0.00     0.001 A 
ATOM     30  C   UNL A   1      28.202  27.977  23.195  1.00  0.00     0.001 A 
ATOM     31  C   UNL A   1      28.241  29.360  23.023  1.00  0.00     0.000 A 
ENDBRANCH  22  26
ENDBRANCH  16  19
ENDBRANCH   8  15
ENDBRANCH   4   7
ENDBRANCH   2   3
ENDBRANCH   1   2
BRANCH   1  32
ATOM     32  C   UNL A   1      38.935  20.323  25.690  1.00  0.00     0.118 C 
BRANCH  32  33
ATOM     33  N   UNL A   1      39.945  19.301  25.930  1.00  0.00    -0.352 N 
ATOM     34  C   UNL A   1      41.296  19.454  26.115  1.00  0.00     0.251 C 
ATOM     35  H   UNL A   1      39.612  18.375  25.966  1.00  0.00     0.163 HD
ATOM     36  O   UNL A   1      42.037  18.480  26.027  1.00  0.00    -0.269 OA
BRANCH  34  37
ATOM     37  C   UNL A   1      41.853  20.790  26.423  1.00  0.00     0.039 A 
ATOM     38  C   UNL A   1      42.099  21.137  27.754  1.00  0.00     0.014 A 
ATOM     39  C   UNL A   1      42.093  21.713  25.401  1.00  0.00     0.014 A 
ATOM     40  C   UNL A   1      42.616  22.399  28.057  1.00  0.00     0.010 A 
ATOM     41  C   UNL A   1      42.675  22.940  25.697  1.00  0.00     0.010 A 
ATOM     42  C   UNL A   1      42.919  23.306  27.029  1.00  0.00    -0.014 A 
BRANCH  42  43
ATOM     43  C   UNL A   1      43.454  24.659  27.320  1.00  0.00     0.031 A 
ATOM     44  C   UNL A   1      42.528  25.735  27.822  1.00  0.00     0.074 A 
ATOM     45  C   UNL A   1      44.744  24.942  27.057  1.00  0.00     0.049 A 
ATOM     46  N   UNL A   1      42.785  26.992  28.076  1.00  0.00    -0.248 NA
ATOM     47  C   UNL A   1      41.122  25.356  28.039  1.00  0.00     0.031 C 
ATOM     48  C   UNL A   1      45.719  24.003  26.497  1.00  0.00     0.029 A 
ATOM     49  N   UNL A   1      45.450  26.108  27.200  1.00  0.00    -0.354 N 
ATOM     50  C   UNL A   1      41.571  27.559  28.444  1.00  0.00     0.074 A 
ATOM     51  C   UNL A   1      40.569  26.520  28.343  1.00  0.00     0.031 C 
ATOM     52  C   UNL A   1      46.898  24.629  26.355  1.00  0.00     0.029 A 
ATOM     53  C   UNL A   1      46.759  26.015  26.790  1.00  0.00     0.049 A 
ATOM     54  H   UNL A   1      45.056  26.935  27.562  1.00  0.00     0.167 HD
ATOM     55  C   UNL A   1      41.315  28.821  28.864  1.00  0.00     0.034 A 
ATOM     56  C   UNL A   1      47.736  26.943  26.773  1.00  0.00     0.034 A 
ATOM     57  C   UNL A   1      42.323  29.833  29.020  1.00  0.00     0.049 A 
ATOM     58  C   UNL A   1      47.440  28.323  27.294  1.00  0.00     0.074 A 
ATOM     59  C   UNL A   1      42.187  31.115  29.521  1.00  0.00     0.029 A 
ATOM     60  N   UNL A   1      43.658  29.675  28.680  1.00  0.00    -0.354 N 
ATOM     61  N   UNL A   1      46.320  28.798  27.785  1.00  0.00    -0.248 NA
ATOM     62  C   UNL A   1      48.550  29.286  27.294  1.00  0.00     0.031 C 
ATOM     63  C   UNL A   1      43.443  31.734  29.481  1.00  0.00     0.029 A 
ATOM     64  C   UNL A   1      44.359  30.834  28.961  1.00  0.00     0.049 A 
ATOM     65  H   UNL A   1      44.049  28.857  28.296  1.00  0.00     0.167 HD
ATOM     66  C   UNL A   1      46.598  30.101  28.182  1.00  0.00     0.074 A 
ATOM     67  C   UNL A   1      47.999  30.334  27.892  1.00  0.00     0.031 C 
ATOM     68  C   UNL A   1      45.767  31.026  28.720  1.00  0.00     0.034 A 
BRANCH  55  69
ATOM     69  C   UNL A   1      39.898  29.147  29.258  1.00  0.00     0.023 A 
ATOM     70  C   UNL A   1      38.938  29.372  28.250  1.00  0.00     0.012 A 
ATOM     71  C   UNL A   1      39.505  29.203  30.610  1.00  0.00     0.148 A 
ATOM     72  C   UNL A   1      37.620  29.684  28.578  1.00  0.00     0.002 A 
ATOM     73  C   UNL A   1      38.178  29.474  30.929  1.00  0.00     0.091 A 
ATOM     74  F   UNL A   1      40.434  29.013  31.557  1.00  0.00    -0.205 F 
ATOM     75  C   UNL A   1      37.238  29.726  29.916  1.00  0.00     0.022 A 
BRANCH  73  76
ATOM     76  S   UNL A   1      37.579  29.475  32.623  1.00  0.00     0.127 S 
ATOM     77  O   UNL A   1      38.575  30.313  33.289  1.00  0.00    -0.237 OA
ATOM     78  O   UNL A   1      36.258  30.093  32.488  1.00  0.00    -0.237 OA
ATOM     79  O   UNL A   1      37.550  28.078  33.031  1.00  0.00    -0.744 OA
ENDBRANCH  73  76
ENDBRANCH  55  69
BRANCH  56  80
ATOM     80  C   UNL A   1      49.111  26.562  26.345  1.00  0.00     0.023 A 
ATOM     81  C   UNL A   1      49.844  25.656  27.137  1.00  0.00     0.012 A 
ATOM     82  C   UNL A   1      49.678  27.044  25.149  1.00  0.00     0.148 A 
ATOM     83  C   UNL A   1      51.125  25.255  26.760  1.00  0.00     0.002 A 
ATOM     84  C   UNL A   1      50.937  26.603  24.755  1.00  0.00     0.091 A 
ATOM     85  F   UNL A   1      48.971  27.916  24.416  1.00  0.00    -0.205 F 
ATOM     86  C   UNL A   1      51.668  25.719  25.564  1.00  0.00     0.022 A 
BRANCH  84  87
ATOM     87  S   UNL A   1      51.662  27.048  23.172  1.00  0.00     0.127 S 
ATOM     88  O   UNL A   1      51.857  28.486  23.326  1.00  0.00    -0.237 OA
ATOM     89  O   UNL A   1      52.892  26.256  23.165  1.00  0.00    -0.237 OA
ATOM     90  O   UNL A   1      50.686  26.643  22.168  1.00  0.00    -0.744 OA
ENDBRANCH  84  87
ENDBRANCH  56  80
BRANCH  68  91
ATOM     91  C   UNL A   1      46.349  32.374  29.056  1.00  0.00     0.023 A 
ATOM     92  C   UNL A   1      46.430  33.362  28.055  1.00  0.00     0.012 A 
ATOM     93  C   UNL A   1      46.739  32.686  30.373  1.00  0.00     0.148 A 
ATOM     94  C   UNL A   1      46.913  34.635  28.356  1.00  0.00     0.002 A 
ATOM     95  C   UNL A   1      47.180  33.969  30.674  1.00  0.00     0.091 A 
ATOM     96  F   UNL A   1      46.675  31.725  31.305  1.00  0.00    -0.205 F 
ATOM     97  C   UNL A   1      47.276  34.942  29.666  1.00  0.00     0.022 A 
BRANCH  95  98
ATOM     98  S   UNL A   1      47.583  34.474  32.350  1.00  0.00     0.127 S 
ATOM     99  O   UNL A   1      46.805  33.524  33.144  1.00  0.00    -0.237 OA
ATOM    100  O   UNL A   1      49.032  34.268  32.402  1.00  0.00    -0.237 OA
ATOM    101  O   UNL A   1      47.172  35.867  32.453  1.00  0.00    -0.744 OA
ENDBRANCH  95  98
ENDBRANCH  68  91
ENDBRANCH  42  43
ENDBRANCH  34  37
ENDBRANCH  32  33
ENDBRANCH   1  32
TORSDOF 17
ENDMDL
