MODEL 1
REMARK VINA RESULT:     -13.0      0.000      0.000
REMARK SMILES O=C1CCCC2=C1[C@H](c1ccc([N+](=O)[O-])cc1)CC(=O)N2c1ccccc1C(=O)NCCCNC(=O)c1ccc(-c2c3nc(c(-c4cccc(S(=O)(=O)[O-])c4F)c4ccc([nH]4)c(-c4cccc(S(=O)(=O)[O-])c4F)c4nc(c(-c5cccc(S(=O)(=O)[O-])c5F)c5ccc2[nH]5)C=C4)C=C3)cc1
REMARK SMILES IDX 32 1 31 2 30 3 28 4 29 5 27 7 22 8 23 9 24 10 26 11 25 12
REMARK SMILES IDX 21 13 1 14 2 15 3 16 7 17 4 18 6 19 8 20 5 21 18 22 19 23
REMARK SMILES IDX 20 24 9 25 10 26 17 27 11 28 16 29 12 30 13 31 14 32 15 33
REMARK SMILES IDX 33 34 34 35 35 36 36 38 37 39 38 40 99 41 39 42 98 43 40 44
REMARK SMILES IDX 41 45 42 46 92 47 43 48 97 49 91 50 93 51 44 52 96 53 90 54
REMARK SMILES IDX 89 55 45 57 77 58 57 59 76 60 58 61 61 62 75 63 94 64 59 65
REMARK SMILES IDX 60 66 74 68 95 69 62 70 46 71 47 72 55 73 48 74 50 75 56 76
REMARK SMILES IDX 49 77 51 78 52 79 53 80 54 81 78 82 79 83 87 84 80 85 82 86
REMARK SMILES IDX 88 87 81 88 83 89 84 90 85 91 86 92 63 93 64 94 72 95 65 96
REMARK SMILES IDX 67 97 73 98 66 99 68 100 69 101 70 102 71 103
REMARK H PARENT 30 6 34 37 93 56 61 67
REMARK Flexibility Score: inf
ROOT
ATOM      1  C   UNL A   1      33.469  31.478  27.708  1.00  0.00     0.042 C 
ENDROOT
BRANCH   1   2
ATOM      2  C   UNL A   1      34.184  30.369  26.923  1.00  0.00     0.118 C 
BRANCH   2   3
ATOM      3  N   UNL A   1      33.700  29.025  27.163  1.00  0.00    -0.352 N 
ATOM      4  C   UNL A   1      32.857  28.128  26.552  1.00  0.00     0.253 C 
ATOM      5  O   UNL A   1      32.951  27.009  27.087  1.00  0.00    -0.269 OA
ATOM      6  H   UNL A   1      34.080  28.651  27.991  1.00  0.00     0.163 HD
BRANCH   4   7
ATOM      7  C   UNL A   1      31.879  28.245  25.383  1.00  0.00     0.063 A 
ATOM      8  C   UNL A   1      31.339  27.351  24.428  1.00  0.00     0.061 A 
ATOM      9  C   UNL A   1      30.397  27.833  23.462  1.00  0.00     0.027 A 
ATOM     10  C   UNL A   1      30.014  29.160  23.359  1.00  0.00     0.002 A 
ATOM     11  C   UNL A   1      31.453  29.606  25.225  1.00  0.00     0.016 A 
ATOM     12  C   UNL A   1      30.558  30.059  24.243  1.00  0.00     0.001 A 
BRANCH   8  13
ATOM     13  N   UNL A   1      31.609  25.953  24.255  1.00  0.00    -0.284 N 
ATOM     14  O   UNL A   1      31.179  21.443  25.575  1.00  0.00    -0.294 OA
ATOM     15  C   UNL A   1      30.949  22.626  25.806  1.00  0.00     0.161 C 
ATOM     16  C   UNL A   1      30.117  23.059  26.997  1.00  0.00     0.081 C 
ATOM     17  C   UNL A   1      31.532  23.687  24.931  1.00  0.00     0.023 C 
ATOM     18  C   UNL A   1      29.158  24.163  26.613  1.00  0.00     0.015 C 
ATOM     19  C   UNL A   1      31.034  24.942  25.033  1.00  0.00     0.033 C 
ATOM     20  C   UNL A   1      32.582  23.302  23.882  1.00  0.00     0.064 C 
ATOM     21  C   UNL A   1      29.867  25.327  25.929  1.00  0.00     0.055 C 
ATOM     22  C   UNL A   1      32.309  24.177  22.672  1.00  0.00     0.114 C 
ATOM     23  C   UNL A   1      32.359  25.628  23.091  1.00  0.00     0.232 C 
ATOM     24  O   UNL A   1      32.959  26.445  22.389  1.00  0.00    -0.274 OA
BRANCH  20  25
ATOM     25  C   UNL A   1      34.050  23.373  24.335  1.00  0.00    -0.039 A 
ATOM     26  C   UNL A   1      34.496  23.788  25.618  1.00  0.00     0.011 A 
ATOM     27  C   UNL A   1      35.031  23.029  23.417  1.00  0.00     0.011 A 
ATOM     28  C   UNL A   1      35.836  23.687  26.027  1.00  0.00     0.086 A 
ATOM     29  C   UNL A   1      36.365  22.963  23.819  1.00  0.00     0.086 A 
ATOM     30  C   UNL A   1      36.762  23.208  25.126  1.00  0.00     0.269 A 
BRANCH  30  31
ATOM     31  N   UNL A   1      38.086  22.761  25.565  1.00  0.00     0.062 N 
ATOM     32  O   UNL A   1      38.753  23.526  26.268  1.00  0.00    -0.258 OA
ATOM     33  O   UNL A   1      38.408  21.594  25.275  1.00  0.00    -0.258 OA
ENDBRANCH  30  31
ENDBRANCH  20  25
ENDBRANCH   8  13
ENDBRANCH   4   7
ENDBRANCH   2   3
ENDBRANCH   1   2
BRANCH   1  34
ATOM     34  C   UNL A   1      32.572  32.524  26.998  1.00  0.00     0.118 C 
BRANCH  34  35
ATOM     35  N   UNL A   1      32.338  33.847  27.595  1.00  0.00    -0.352 N 
ATOM     36  C   UNL A   1      33.016  34.719  28.436  1.00  0.00     0.251 C 
ATOM     37  H   UNL A   1      31.464  34.211  27.328  1.00  0.00     0.163 HD
ATOM     38  O   UNL A   1      32.581  35.873  28.490  1.00  0.00    -0.269 OA
BRANCH  36  39
ATOM     39  C   UNL A   1      34.161  34.365  29.326  1.00  0.00     0.039 A 
ATOM     40  C   UNL A   1      33.896  33.857  30.620  1.00  0.00     0.014 A 
ATOM     41  C   UNL A   1      35.483  34.430  28.921  1.00  0.00     0.014 A 
ATOM     42  C   UNL A   1      34.925  33.326  31.443  1.00  0.00     0.010 A 
ATOM     43  C   UNL A   1      36.480  33.801  29.696  1.00  0.00     0.010 A 
ATOM     44  C   UNL A   1      36.245  33.251  30.982  1.00  0.00    -0.014 A 
BRANCH  44  45
ATOM     45  C   UNL A   1      37.416  32.727  31.798  1.00  0.00     0.031 A 
ATOM     46  C   UNL A   1      38.271  31.618  31.195  1.00  0.00     0.074 A 
ATOM     47  C   UNL A   1      37.708  33.081  33.076  1.00  0.00     0.049 A 
ATOM     48  N   UNL A   1      39.131  30.812  31.767  1.00  0.00    -0.248 NA
ATOM     49  C   UNL A   1      38.030  31.306  29.776  1.00  0.00     0.031 C 
ATOM     50  C   UNL A   1      36.979  34.036  33.913  1.00  0.00     0.029 A 
ATOM     51  N   UNL A   1      38.712  32.627  33.918  1.00  0.00    -0.354 N 
ATOM     52  C   UNL A   1      39.408  29.836  30.814  1.00  0.00     0.074 A 
ATOM     53  C   UNL A   1      38.518  30.080  29.703  1.00  0.00     0.031 C 
ATOM     54  C   UNL A   1      37.559  34.100  35.130  1.00  0.00     0.029 A 
ATOM     55  C   UNL A   1      38.701  33.185  35.182  1.00  0.00     0.049 A 
ATOM     56  H   UNL A   1      39.380  31.960  33.638  1.00  0.00     0.167 HD
ATOM     57  C   UNL A   1      40.376  28.889  30.780  1.00  0.00     0.034 A 
ATOM     58  C   UNL A   1      39.513  32.996  36.249  1.00  0.00     0.034 A 
ATOM     59  C   UNL A   1      41.406  28.755  31.768  1.00  0.00     0.049 A 
ATOM     60  C   UNL A   1      40.697  32.050  36.149  1.00  0.00     0.074 A 
ATOM     61  C   UNL A   1      42.522  27.938  31.744  1.00  0.00     0.029 A 
ATOM     62  N   UNL A   1      41.471  29.492  32.935  1.00  0.00    -0.354 N 
ATOM     63  N   UNL A   1      41.046  31.258  35.165  1.00  0.00    -0.248 NA
ATOM     64  C   UNL A   1      41.634  32.017  37.289  1.00  0.00     0.031 C 
ATOM     65  C   UNL A   1      43.272  28.191  32.898  1.00  0.00     0.029 A 
ATOM     66  C   UNL A   1      42.627  29.177  33.626  1.00  0.00     0.049 A 
ATOM     67  H   UNL A   1      40.796  30.144  33.231  1.00  0.00     0.167 HD
ATOM     68  C   UNL A   1      42.263  30.688  35.539  1.00  0.00     0.074 A 
ATOM     69  C   UNL A   1      42.600  31.228  36.836  1.00  0.00     0.031 C 
ATOM     70  C   UNL A   1      43.024  29.788  34.866  1.00  0.00     0.034 A 
BRANCH  57  71
ATOM     71  C   UNL A   1      40.439  28.018  29.547  1.00  0.00     0.023 A 
ATOM     72  C   UNL A   1      39.614  26.874  29.463  1.00  0.00     0.012 A 
ATOM     73  C   UNL A   1      41.311  28.315  28.483  1.00  0.00     0.148 A 
ATOM     74  C   UNL A   1      39.729  25.987  28.398  1.00  0.00     0.002 A 
ATOM     75  C   UNL A   1      41.364  27.463  27.385  1.00  0.00     0.091 A 
ATOM     76  F   UNL A   1      42.086  29.405  28.572  1.00  0.00    -0.205 F 
ATOM     77  C   UNL A   1      40.599  26.285  27.356  1.00  0.00     0.022 A 
BRANCH  75  78
ATOM     78  S   UNL A   1      42.360  27.813  25.933  1.00  0.00     0.127 S 
ATOM     79  O   UNL A   1      43.716  27.718  26.473  1.00  0.00    -0.237 OA
ATOM     80  O   UNL A   1      41.985  26.716  25.037  1.00  0.00    -0.237 OA
ATOM     81  O   UNL A   1      41.956  29.133  25.476  1.00  0.00    -0.744 OA
ENDBRANCH  75  78
ENDBRANCH  57  71
BRANCH  58  82
ATOM     82  C   UNL A   1      39.340  33.805  37.500  1.00  0.00     0.023 A 
ATOM     83  C   UNL A   1      39.963  35.069  37.586  1.00  0.00     0.012 A 
ATOM     84  C   UNL A   1      38.614  33.330  38.609  1.00  0.00     0.148 A 
ATOM     85  C   UNL A   1      39.910  35.820  38.762  1.00  0.00     0.002 A 
ATOM     86  C   UNL A   1      38.520  34.109  39.762  1.00  0.00     0.091 A 
ATOM     87  F   UNL A   1      38.040  32.123  38.521  1.00  0.00    -0.205 F 
ATOM     88  C   UNL A   1      39.184  35.344  39.847  1.00  0.00     0.022 A 
BRANCH  86  89
ATOM     89  S   UNL A   1      37.522  33.639  41.181  1.00  0.00     0.127 S 
ATOM     90  O   UNL A   1      38.385  32.665  41.849  1.00  0.00    -0.237 OA
ATOM     91  O   UNL A   1      37.382  34.917  41.882  1.00  0.00    -0.237 OA
ATOM     92  O   UNL A   1      36.282  33.111  40.635  1.00  0.00    -0.744 OA
ENDBRANCH  86  89
ENDBRANCH  58  82
BRANCH  70  93
ATOM     93  C   UNL A   1      44.358  29.383  35.442  1.00  0.00     0.023 A 
ATOM     94  C   UNL A   1      45.526  30.093  35.106  1.00  0.00     0.012 A 
ATOM     95  C   UNL A   1      44.429  28.360  36.411  1.00  0.00     0.148 A 
ATOM     96  C   UNL A   1      46.747  29.774  35.702  1.00  0.00     0.002 A 
ATOM     97  C   UNL A   1      45.639  28.080  37.038  1.00  0.00     0.091 A 
ATOM     98  F   UNL A   1      43.312  27.681  36.709  1.00  0.00    -0.205 F 
ATOM     99  C   UNL A   1      46.802  28.778  36.676  1.00  0.00     0.022 A 
BRANCH  97 100
ATOM    100  S   UNL A   1      45.772  26.888  38.376  1.00  0.00     0.127 S 
ATOM    101  O   UNL A   1      44.778  27.390  39.323  1.00  0.00    -0.237 OA
ATOM    102  O   UNL A   1      45.405  25.633  37.717  1.00  0.00    -0.237 OA
ATOM    103  O   UNL A   1      47.156  26.946  38.826  1.00  0.00    -0.744 OA
ENDBRANCH  97 100
ENDBRANCH  70  93
ENDBRANCH  44  45
ENDBRANCH  36  39
ENDBRANCH  34  35
ENDBRANCH   1  34
TORSDOF 16
ENDMDL
MODEL 2
REMARK VINA RESULT:     -12.8      5.482     11.537
REMARK SMILES O=C1CCCC2=C1[C@H](c1ccc([N+](=O)[O-])cc1)CC(=O)N2c1ccccc1C(=O)NCCCNC(=O)c1ccc(-c2c3nc(c(-c4cccc(S(=O)(=O)[O-])c4F)c4ccc([nH]4)c(-c4cccc(S(=O)(=O)[O-])c4F)c4nc(c(-c5cccc(S(=O)(=O)[O-])c5F)c5ccc2[nH]5)C=C4)C=C3)cc1
REMARK SMILES IDX 32 1 31 2 30 3 28 4 29 5 27 7 22 8 23 9 24 10 26 11 25 12
REMARK SMILES IDX 21 13 1 14 2 15 3 16 7 17 4 18 6 19 8 20 5 21 18 22 19 23
REMARK SMILES IDX 20 24 9 25 10 26 17 27 11 28 16 29 12 30 13 31 14 32 15 33
REMARK SMILES IDX 33 34 34 35 35 36 36 38 37 39 38 40 99 41 39 42 98 43 40 44
REMARK SMILES IDX 41 45 42 46 92 47 43 48 97 49 91 50 93 51 44 52 96 53 90 54
REMARK SMILES IDX 89 55 45 57 77 58 57 59 76 60 58 61 61 62 75 63 94 64 59 65
REMARK SMILES IDX 60 66 74 68 95 69 62 70 46 71 47 72 55 73 48 74 50 75 56 76
REMARK SMILES IDX 49 77 51 78 52 79 53 80 54 81 78 82 79 83 87 84 80 85 82 86
REMARK SMILES IDX 88 87 81 88 83 89 84 90 85 91 86 92 63 93 64 94 72 95 65 96
REMARK SMILES IDX 67 97 73 98 66 99 68 100 69 101 70 102 71 103
REMARK H PARENT 30 6 34 37 93 56 61 67
REMARK Flexibility Score: inf
ROOT
ATOM      1  C   UNL A   1      38.505  21.059  25.164  1.00  0.00     0.042 C 
ENDROOT
BRANCH   1   2
ATOM      2  C   UNL A   1      38.077  22.209  26.086  1.00  0.00     0.118 C 
BRANCH   2   3
ATOM      3  N   UNL A   1      37.234  23.217  25.475  1.00  0.00    -0.352 N 
ATOM      4  C   UNL A   1      35.941  23.314  25.021  1.00  0.00     0.253 C 
ATOM      5  O   UNL A   1      35.659  24.498  24.764  1.00  0.00    -0.269 OA
ATOM      6  H   UNL A   1      37.721  24.063  25.353  1.00  0.00     0.163 HD
BRANCH   4   7
ATOM      7  C   UNL A   1      34.834  22.286  24.793  1.00  0.00     0.063 A 
ATOM      8  C   UNL A   1      33.454  22.342  24.486  1.00  0.00     0.061 A 
ATOM      9  C   UNL A   1      32.717  21.125  24.317  1.00  0.00     0.027 A 
ATOM     10  C   UNL A   1      33.263  19.865  24.499  1.00  0.00     0.002 A 
ATOM     11  C   UNL A   1      35.344  20.957  24.975  1.00  0.00     0.016 A 
ATOM     12  C   UNL A   1      34.590  19.781  24.844  1.00  0.00     0.001 A 
BRANCH   8  13
ATOM     13  N   UNL A   1      32.620  23.496  24.314  1.00  0.00    -0.284 N 
ATOM     14  O   UNL A   1      30.992  27.101  21.742  1.00  0.00    -0.294 OA
ATOM     15  C   UNL A   1      31.762  26.151  21.840  1.00  0.00     0.161 C 
ATOM     16  C   UNL A   1      32.676  25.745  20.701  1.00  0.00     0.081 C 
ATOM     17  C   UNL A   1      31.854  25.390  23.122  1.00  0.00     0.023 C 
ATOM     18  C   UNL A   1      32.709  24.242  20.544  1.00  0.00     0.015 C 
ATOM     19  C   UNL A   1      32.484  24.192  23.107  1.00  0.00     0.033 C 
ATOM     20  C   UNL A   1      31.141  25.930  24.368  1.00  0.00     0.064 C 
ATOM     21  C   UNL A   1      33.043  23.536  21.855  1.00  0.00     0.055 C 
ATOM     22  C   UNL A   1      30.613  24.715  25.109  1.00  0.00     0.114 C 
ATOM     23  C   UNL A   1      31.763  23.783  25.412  1.00  0.00     0.232 C 
ATOM     24  O   UNL A   1      31.855  23.273  26.530  1.00  0.00    -0.274 OA
BRANCH  20  25
ATOM     25  C   UNL A   1      31.971  26.854  25.274  1.00  0.00    -0.039 A 
ATOM     26  C   UNL A   1      33.307  27.267  25.027  1.00  0.00     0.011 A 
ATOM     27  C   UNL A   1      31.387  27.309  26.447  1.00  0.00     0.011 A 
ATOM     28  C   UNL A   1      33.962  28.232  25.810  1.00  0.00     0.086 A 
ATOM     29  C   UNL A   1      32.055  28.243  27.239  1.00  0.00     0.086 A 
ATOM     30  C   UNL A   1      33.292  28.765  26.891  1.00  0.00     0.269 A 
BRANCH  30  31
ATOM     31  N   UNL A   1      33.758  29.991  27.541  1.00  0.00     0.062 N 
ATOM     32  O   UNL A   1      34.866  29.974  28.087  1.00  0.00    -0.258 OA
ATOM     33  O   UNL A   1      33.041  31.000  27.416  1.00  0.00    -0.258 OA
ENDBRANCH  30  31
ENDBRANCH  20  25
ENDBRANCH   8  13
ENDBRANCH   4   7
ENDBRANCH   2   3
ENDBRANCH   1   2
BRANCH   1  34
ATOM     34  C   UNL A   1      38.730  19.625  25.709  1.00  0.00     0.118 C 
BRANCH  34  35
ATOM     35  N   UNL A   1      40.064  19.009  25.682  1.00  0.00    -0.352 N 
ATOM     36  C   UNL A   1      41.351  19.350  26.075  1.00  0.00     0.251 C 
ATOM     37  H   UNL A   1      40.038  18.113  25.275  1.00  0.00     0.163 HD
ATOM     38  O   UNL A   1      42.170  18.427  26.119  1.00  0.00    -0.269 OA
BRANCH  36  39
ATOM     39  C   UNL A   1      41.841  20.729  26.370  1.00  0.00     0.039 A 
ATOM     40  C   UNL A   1      42.274  21.040  27.681  1.00  0.00     0.014 A 
ATOM     41  C   UNL A   1      41.973  21.709  25.402  1.00  0.00     0.014 A 
ATOM     42  C   UNL A   1      42.924  22.265  27.986  1.00  0.00     0.010 A 
ATOM     43  C   UNL A   1      42.717  22.873  25.687  1.00  0.00     0.010 A 
ATOM     44  C   UNL A   1      43.196  23.202  26.981  1.00  0.00    -0.014 A 
BRANCH  44  45
ATOM     45  C   UNL A   1      43.860  24.550  27.214  1.00  0.00     0.031 A 
ATOM     46  C   UNL A   1      43.026  25.660  27.844  1.00  0.00     0.074 A 
ATOM     47  C   UNL A   1      45.108  24.895  26.807  1.00  0.00     0.049 A 
ATOM     48  N   UNL A   1      43.243  26.951  27.896  1.00  0.00    -0.248 NA
ATOM     49  C   UNL A   1      41.714  25.265  28.385  1.00  0.00     0.031 C 
ATOM     50  C   UNL A   1      46.063  24.052  26.086  1.00  0.00     0.029 A 
ATOM     51  N   UNL A   1      45.780  26.103  26.923  1.00  0.00    -0.354 N 
ATOM     52  C   UNL A   1      42.047  27.506  28.339  1.00  0.00     0.074 A 
ATOM     53  C   UNL A   1      41.088  26.428  28.396  1.00  0.00     0.031 C 
ATOM     54  C   UNL A   1      47.186  24.759  25.835  1.00  0.00     0.029 A 
ATOM     55  C   UNL A   1      47.042  26.117  26.363  1.00  0.00     0.049 A 
ATOM     56  H   UNL A   1      45.389  26.888  27.369  1.00  0.00     0.167 HD
ATOM     57  C   UNL A   1      41.766  28.758  28.776  1.00  0.00     0.034 A 
ATOM     58  C   UNL A   1      47.977  27.094  26.292  1.00  0.00     0.034 A 
ATOM     59  C   UNL A   1      42.744  29.794  28.930  1.00  0.00     0.049 A 
ATOM     60  C   UNL A   1      47.717  28.448  26.929  1.00  0.00     0.074 A 
ATOM     61  C   UNL A   1      42.594  31.039  29.514  1.00  0.00     0.029 A 
ATOM     62  N   UNL A   1      44.066  29.688  28.541  1.00  0.00    -0.354 N 
ATOM     63  N   UNL A   1      46.629  28.899  27.504  1.00  0.00    -0.248 NA
ATOM     64  C   UNL A   1      48.837  29.408  26.958  1.00  0.00     0.031 C 
ATOM     65  C   UNL A   1      43.836  31.684  29.489  1.00  0.00     0.029 A 
ATOM     66  C   UNL A   1      44.755  30.830  28.904  1.00  0.00     0.049 A 
ATOM     67  H   UNL A   1      44.458  28.914  28.076  1.00  0.00     0.167 HD
ATOM     68  C   UNL A   1      46.952  30.157  28.012  1.00  0.00     0.074 A 
ATOM     69  C   UNL A   1      48.340  30.398  27.688  1.00  0.00     0.031 C 
ATOM     70  C   UNL A   1      46.162  31.034  28.680  1.00  0.00     0.034 A 
BRANCH  57  71
ATOM     71  C   UNL A   1      40.356  29.015  29.255  1.00  0.00     0.023 A 
ATOM     72  C   UNL A   1      39.386  29.479  28.339  1.00  0.00     0.012 A 
ATOM     73  C   UNL A   1      39.991  28.814  30.600  1.00  0.00     0.148 A 
ATOM     74  C   UNL A   1      38.112  29.837  28.768  1.00  0.00     0.002 A 
ATOM     75  C   UNL A   1      38.692  29.103  31.005  1.00  0.00     0.091 A 
ATOM     76  F   UNL A   1      40.919  28.371  31.459  1.00  0.00    -0.205 F 
ATOM     77  C   UNL A   1      37.764  29.642  30.099  1.00  0.00     0.022 A 
BRANCH  75  78
ATOM     78  S   UNL A   1      38.099  28.777  32.667  1.00  0.00     0.127 S 
ATOM     79  O   UNL A   1      36.734  29.298  32.603  1.00  0.00    -0.237 OA
ATOM     80  O   UNL A   1      38.190  27.317  32.741  1.00  0.00    -0.237 OA
ATOM     81  O   UNL A   1      39.001  29.485  33.562  1.00  0.00    -0.744 OA
ENDBRANCH  75  78
ENDBRANCH  57  71
BRANCH  58  82
ATOM     82  C   UNL A   1      49.328  26.824  25.699  1.00  0.00     0.023 A 
ATOM     83  C   UNL A   1      50.295  26.154  26.481  1.00  0.00     0.012 A 
ATOM     84  C   UNL A   1      49.683  27.252  24.405  1.00  0.00     0.148 A 
ATOM     85  C   UNL A   1      51.595  25.961  26.011  1.00  0.00     0.002 A 
ATOM     86  C   UNL A   1      50.968  27.009  23.921  1.00  0.00     0.091 A 
ATOM     87  F   UNL A   1      48.763  27.899  23.678  1.00  0.00    -0.205 F 
ATOM     88  C   UNL A   1      51.930  26.382  24.730  1.00  0.00     0.022 A 
BRANCH  86  89
ATOM     89  S   UNL A   1      51.474  27.414  22.245  1.00  0.00     0.127 S 
ATOM     90  O   UNL A   1      52.848  26.915  22.215  1.00  0.00    -0.237 OA
ATOM     91  O   UNL A   1      50.522  26.634  21.451  1.00  0.00    -0.237 OA
ATOM     92  O   UNL A   1      51.324  28.855  22.123  1.00  0.00    -0.744 OA
ENDBRANCH  86  89
ENDBRANCH  58  82
BRANCH  70  93
ATOM     93  C   UNL A   1      46.770  32.308  29.213  1.00  0.00     0.023 A 
ATOM     94  C   UNL A   1      47.404  32.325  30.470  1.00  0.00     0.012 A 
ATOM     95  C   UNL A   1      46.808  33.465  28.407  1.00  0.00     0.148 A 
ATOM     96  C   UNL A   1      48.041  33.479  30.928  1.00  0.00     0.002 A 
ATOM     97  C   UNL A   1      47.487  34.597  28.849  1.00  0.00     0.091 A 
ATOM     98  F   UNL A   1      46.185  33.440  27.220  1.00  0.00    -0.205 F 
ATOM     99  C   UNL A   1      48.093  34.609  30.114  1.00  0.00     0.022 A 
BRANCH  97 100
ATOM    100  S   UNL A   1      47.692  36.054  27.817  1.00  0.00     0.127 S 
ATOM    101  O   UNL A   1      46.446  36.775  28.066  1.00  0.00    -0.237 OA
ATOM    102  O   UNL A   1      48.883  36.681  28.394  1.00  0.00    -0.237 OA
ATOM    103  O   UNL A   1      47.873  35.558  26.460  1.00  0.00    -0.744 OA
ENDBRANCH  97 100
ENDBRANCH  70  93
ENDBRANCH  44  45
ENDBRANCH  36  39
ENDBRANCH  34  35
ENDBRANCH   1  34
TORSDOF 16
ENDMDL
MODEL 3
REMARK VINA RESULT:     -12.8      2.936      8.070
REMARK SMILES O=C1CCCC2=C1[C@H](c1ccc([N+](=O)[O-])cc1)CC(=O)N2c1ccccc1C(=O)NCCCNC(=O)c1ccc(-c2c3nc(c(-c4cccc(S(=O)(=O)[O-])c4F)c4ccc([nH]4)c(-c4cccc(S(=O)(=O)[O-])c4F)c4nc(c(-c5cccc(S(=O)(=O)[O-])c5F)c5ccc2[nH]5)C=C4)C=C3)cc1
REMARK SMILES IDX 32 1 31 2 30 3 28 4 29 5 27 7 22 8 23 9 24 10 26 11 25 12
REMARK SMILES IDX 21 13 1 14 2 15 3 16 7 17 4 18 6 19 8 20 5 21 18 22 19 23
REMARK SMILES IDX 20 24 9 25 10 26 17 27 11 28 16 29 12 30 13 31 14 32 15 33
REMARK SMILES IDX 33 34 34 35 35 36 36 38 37 39 38 40 99 41 39 42 98 43 40 44
REMARK SMILES IDX 41 45 42 46 92 47 43 48 97 49 91 50 93 51 44 52 96 53 90 54
REMARK SMILES IDX 89 55 45 57 77 58 57 59 76 60 58 61 61 62 75 63 94 64 59 65
REMARK SMILES IDX 60 66 74 68 95 69 62 70 46 71 47 72 55 73 48 74 50 75 56 76
REMARK SMILES IDX 49 77 51 78 52 79 53 80 54 81 78 82 79 83 87 84 80 85 82 86
REMARK SMILES IDX 88 87 81 88 83 89 84 90 85 91 86 92 63 93 64 94 72 95 65 96
REMARK SMILES IDX 67 97 73 98 66 99 68 100 69 101 70 102 71 103
REMARK H PARENT 30 6 34 37 93 56 61 67
REMARK Flexibility Score: inf
ROOT
ATOM      1  C   UNL A   1      35.279  30.367  27.640  1.00  0.00     0.042 C 
ENDROOT
BRANCH   1   2
ATOM      2  C   UNL A   1      34.788  29.115  26.898  1.00  0.00     0.118 C 
BRANCH   2   3
ATOM      3  N   UNL A   1      33.588  28.505  27.431  1.00  0.00    -0.352 N 
ATOM      4  C   UNL A   1      32.362  28.103  26.959  1.00  0.00     0.253 C 
ATOM      5  O   UNL A   1      31.761  27.438  27.823  1.00  0.00    -0.269 OA
ATOM      6  H   UNL A   1      33.674  28.330  28.396  1.00  0.00     0.163 HD
BRANCH   4   7
ATOM      7  C   UNL A   1      31.638  28.303  25.628  1.00  0.00     0.063 A 
ATOM      8  C   UNL A   1      31.286  27.472  24.538  1.00  0.00     0.061 A 
ATOM      9  C   UNL A   1      30.563  28.026  23.432  1.00  0.00     0.027 A 
ATOM     10  C   UNL A   1      30.229  29.366  23.327  1.00  0.00     0.002 A 
ATOM     11  C   UNL A   1      31.273  29.680  25.463  1.00  0.00     0.016 A 
ATOM     12  C   UNL A   1      30.599  30.205  24.349  1.00  0.00     0.001 A 
BRANCH   8  13
ATOM     13  N   UNL A   1      31.564  26.078  24.346  1.00  0.00    -0.284 N 
ATOM     14  O   UNL A   1      31.130  21.546  25.586  1.00  0.00    -0.294 OA
ATOM     15  C   UNL A   1      30.893  22.724  25.832  1.00  0.00     0.161 C 
ATOM     16  C   UNL A   1      30.041  23.135  27.018  1.00  0.00     0.081 C 
ATOM     17  C   UNL A   1      31.485  23.801  24.984  1.00  0.00     0.023 C 
ATOM     18  C   UNL A   1      29.084  24.241  26.638  1.00  0.00     0.015 C 
ATOM     19  C   UNL A   1      30.981  25.052  25.099  1.00  0.00     0.033 C 
ATOM     20  C   UNL A   1      32.552  23.437  23.945  1.00  0.00     0.064 C 
ATOM     21  C   UNL A   1      29.800  25.419  25.983  1.00  0.00     0.055 C 
ATOM     22  C   UNL A   1      32.293  24.331  22.746  1.00  0.00     0.114 C 
ATOM     23  C   UNL A   1      32.332  25.775  23.189  1.00  0.00     0.232 C 
ATOM     24  O   UNL A   1      32.939  26.605  22.509  1.00  0.00    -0.274 OA
BRANCH  20  25
ATOM     25  C   UNL A   1      34.012  23.505  24.421  1.00  0.00    -0.039 A 
ATOM     26  C   UNL A   1      34.434  23.819  25.740  1.00  0.00     0.011 A 
ATOM     27  C   UNL A   1      35.012  23.267  23.489  1.00  0.00     0.011 A 
ATOM     28  C   UNL A   1      35.772  23.717  26.155  1.00  0.00     0.086 A 
ATOM     29  C   UNL A   1      36.343  23.200  23.901  1.00  0.00     0.086 A 
ATOM     30  C   UNL A   1      36.720  23.341  25.228  1.00  0.00     0.269 A 
BRANCH  30  31
ATOM     31  N   UNL A   1      38.050  22.891  25.644  1.00  0.00     0.062 N 
ATOM     32  O   UNL A   1      38.398  21.746  25.336  1.00  0.00    -0.258 OA
ATOM     33  O   UNL A   1      38.779  23.733  26.199  1.00  0.00    -0.258 OA
ENDBRANCH  30  31
ENDBRANCH  20  25
ENDBRANCH   8  13
ENDBRANCH   4   7
ENDBRANCH   2   3
ENDBRANCH   1   2
BRANCH   1  34
ATOM     34  C   UNL A   1      34.348  31.583  27.881  1.00  0.00     0.118 C 
BRANCH  34  35
ATOM     35  N   UNL A   1      34.135  32.112  29.235  1.00  0.00    -0.352 N 
ATOM     36  C   UNL A   1      34.894  32.320  30.379  1.00  0.00     0.251 C 
ATOM     37  H   UNL A   1      33.201  32.396  29.367  1.00  0.00     0.163 HD
ATOM     38  O   UNL A   1      34.394  33.048  31.240  1.00  0.00    -0.269 OA
BRANCH  36  39
ATOM     39  C   UNL A   1      36.210  31.684  30.684  1.00  0.00     0.039 A 
ATOM     40  C   UNL A   1      36.237  30.478  31.425  1.00  0.00     0.014 A 
ATOM     41  C   UNL A   1      37.415  32.171  30.207  1.00  0.00     0.014 A 
ATOM     42  C   UNL A   1      37.430  29.724  31.587  1.00  0.00     0.010 A 
ATOM     43  C   UNL A   1      38.568  31.363  30.278  1.00  0.00     0.010 A 
ATOM     44  C   UNL A   1      38.624  30.133  30.982  1.00  0.00    -0.014 A 
BRANCH  44  45
ATOM     45  C   UNL A   1      39.955  29.409  31.122  1.00  0.00     0.031 A 
ATOM     46  C   UNL A   1      40.912  29.874  32.213  1.00  0.00     0.074 A 
ATOM     47  C   UNL A   1      40.421  28.448  30.284  1.00  0.00     0.049 A 
ATOM     48  N   UNL A   1      42.190  29.633  32.371  1.00  0.00    -0.248 NA
ATOM     49  C   UNL A   1      40.373  30.837  33.189  1.00  0.00     0.031 C 
ATOM     50  C   UNL A   1      39.747  27.907  29.103  1.00  0.00     0.029 A 
ATOM     51  N   UNL A   1      41.631  27.769  30.295  1.00  0.00    -0.354 N 
ATOM     52  C   UNL A   1      42.610  30.516  33.362  1.00  0.00     0.074 A 
ATOM     53  C   UNL A   1      41.487  31.378  33.648  1.00  0.00     0.031 C 
ATOM     54  C   UNL A   1      40.541  26.986  28.515  1.00  0.00     0.029 A 
ATOM     55  C   UNL A   1      41.794  26.866  29.262  1.00  0.00     0.049 A 
ATOM     56  H   UNL A   1      42.319  27.919  30.982  1.00  0.00     0.167 HD
ATOM     57  C   UNL A   1      43.765  30.561  34.069  1.00  0.00     0.034 A 
ATOM     58  C   UNL A   1      42.818  26.034  28.957  1.00  0.00     0.034 A 
ATOM     59  C   UNL A   1      44.816  29.593  33.956  1.00  0.00     0.049 A 
ATOM     60  C   UNL A   1      44.045  25.973  29.850  1.00  0.00     0.074 A 
ATOM     61  C   UNL A   1      45.949  29.456  34.737  1.00  0.00     0.029 A 
ATOM     62  N   UNL A   1      44.837  28.565  33.032  1.00  0.00    -0.354 N 
ATOM     63  N   UNL A   1      44.348  26.704  30.895  1.00  0.00    -0.248 NA
ATOM     64  C   UNL A   1      45.046  24.931  29.553  1.00  0.00     0.031 C 
ATOM     65  C   UNL A   1      46.653  28.333  34.291  1.00  0.00     0.029 A 
ATOM     66  C   UNL A   1      45.946  27.767  33.244  1.00  0.00     0.049 A 
ATOM     67  H   UNL A   1      44.164  28.422  32.329  1.00  0.00     0.167 HD
ATOM     68  C   UNL A   1      45.529  26.172  31.411  1.00  0.00     0.074 A 
ATOM     69  C   UNL A   1      45.888  25.052  30.572  1.00  0.00     0.031 C 
ATOM     70  C   UNL A   1      46.254  26.586  32.481  1.00  0.00     0.034 A 
BRANCH  57  71
ATOM     71  C   UNL A   1      43.874  31.626  35.135  1.00  0.00     0.023 A 
ATOM     72  C   UNL A   1      44.427  32.884  34.804  1.00  0.00     0.012 A 
ATOM     73  C   UNL A   1      43.446  31.390  36.454  1.00  0.00     0.148 A 
ATOM     74  C   UNL A   1      44.650  33.846  35.784  1.00  0.00     0.002 A 
ATOM     75  C   UNL A   1      43.603  32.385  37.412  1.00  0.00     0.091 A 
ATOM     76  F   UNL A   1      42.920  30.194  36.756  1.00  0.00    -0.205 F 
ATOM     77  C   UNL A   1      44.232  33.599  37.086  1.00  0.00     0.022 A 
BRANCH  75  78
ATOM     78  S   UNL A   1      42.992  32.222  39.092  1.00  0.00     0.127 S 
ATOM     79  O   UNL A   1      41.590  31.871  38.864  1.00  0.00    -0.237 OA
ATOM     80  O   UNL A   1      43.816  31.127  39.610  1.00  0.00    -0.237 OA
ATOM     81  O   UNL A   1      43.222  33.508  39.731  1.00  0.00    -0.744 OA
ENDBRANCH  75  78
ENDBRANCH  57  71
BRANCH  58  82
ATOM     82  C   UNL A   1      42.710  25.070  27.813  1.00  0.00     0.023 A 
ATOM     83  C   UNL A   1      43.020  25.519  26.510  1.00  0.00     0.012 A 
ATOM     84  C   UNL A   1      42.268  23.744  27.984  1.00  0.00     0.148 A 
ATOM     85  C   UNL A   1      42.847  24.690  25.401  1.00  0.00     0.002 A 
ATOM     86  C   UNL A   1      42.147  22.904  26.878  1.00  0.00     0.091 A 
ATOM     87  F   UNL A   1      41.962  23.333  29.222  1.00  0.00    -0.205 F 
ATOM     88  C   UNL A   1      42.417  23.382  25.585  1.00  0.00     0.022 A 
BRANCH  86  89
ATOM     89  S   UNL A   1      41.703  21.168  27.013  1.00  0.00     0.127 S 
ATOM     90  O   UNL A   1      42.780  20.645  27.853  1.00  0.00    -0.237 OA
ATOM     91  O   UNL A   1      40.396  21.245  27.670  1.00  0.00    -0.237 OA
ATOM     92  O   UNL A   1      41.664  20.662  25.650  1.00  0.00    -0.744 OA
ENDBRANCH  86  89
ENDBRANCH  58  82
BRANCH  70  93
ATOM     93  C   UNL A   1      47.462  25.787  32.900  1.00  0.00     0.023 A 
ATOM     94  C   UNL A   1      48.746  26.140  32.442  1.00  0.00     0.012 A 
ATOM     95  C   UNL A   1      47.330  24.747  33.844  1.00  0.00     0.148 A 
ATOM     96  C   UNL A   1      49.875  25.454  32.895  1.00  0.00     0.002 A 
ATOM     97  C   UNL A   1      48.463  24.100  34.328  1.00  0.00     0.091 A 
ATOM     98  F   UNL A   1      46.100  24.410  34.258  1.00  0.00    -0.205 F 
ATOM     99  C   UNL A   1      49.735  24.445  33.846  1.00  0.00     0.022 A 
BRANCH  97 100
ATOM    100  S   UNL A   1      48.377  22.865  35.631  1.00  0.00     0.127 S 
ATOM    101  O   UNL A   1      47.616  21.799  34.984  1.00  0.00    -0.237 OA
ATOM    102  O   UNL A   1      49.789  22.552  35.859  1.00  0.00    -0.237 OA
ATOM    103  O   UNL A   1      47.719  23.517  36.755  1.00  0.00    -0.744 OA
ENDBRANCH  97 100
ENDBRANCH  70  93
ENDBRANCH  44  45
ENDBRANCH  36  39
ENDBRANCH  34  35
ENDBRANCH   1  34
TORSDOF 16
ENDMDL
