MODEL 1
REMARK VINA RESULT:     -12.4      0.000      0.000
REMARK SMILES O=C(NCCCNC(=O)[C@@]1([C@@H]2CCC[C@@H]2O)CCCc2ccccc21)c1ccc(-c2c3nc(c(-c4cccc(S(=O)(=O)[O-])c4F)c4ccc([nH]4)c(-c4cccc(S(=O)(=O)[O-])c4F)c4nc(c(-c5cccc(S(=O)(=O)[O-])c5F)c5ccc2[nH]5)C=C4)C=C3)cc1
REMARK SMILES IDX 4 1 3 2 1 3 2 4 26 6 27 7 88 8 28 9 87 10 29 11 30 12 31 13
REMARK SMILES IDX 81 14 32 15 86 16 80 17 82 18 33 19 85 20 79 21 78 22 34 24
REMARK SMILES IDX 66 25 46 26 65 27 47 28 50 29 64 30 83 31 48 32 49 33 63 35
REMARK SMILES IDX 84 36 51 37 35 38 36 39 44 40 37 41 39 42 45 43 38 44 40 45
REMARK SMILES IDX 41 46 42 47 43 48 67 49 68 50 76 51 69 52 71 53 77 54 70 55
REMARK SMILES IDX 72 56 73 57 74 58 75 59 52 60 53 61 61 62 54 63 56 64 62 65
REMARK SMILES IDX 55 66 57 67 58 68 59 69 60 70 5 71 6 72 7 73 8 74 9 76 10 77
REMARK SMILES IDX 17 78 25 79 18 80 20 81 24 82 19 83 21 84 23 85 22 86 11 87
REMARK SMILES IDX 12 88 15 89 13 90 14 91 16 92
REMARK H PARENT 3 5 82 23 50 34 7 75 16 93
REMARK Flexibility Score: inf
ROOT
ATOM      1  C   UNL A   1      32.408  29.418  25.912  1.00  0.00     0.118 C 
ENDROOT
BRANCH   1   2
ATOM      2  N   UNL A   1      32.261  30.842  26.151  1.00  0.00    -0.352 N 
ATOM      3  O   UNL A   1      32.466  32.729  27.347  1.00  0.00    -0.269 OA
ATOM      4  C   UNL A   1      32.947  31.642  27.034  1.00  0.00     0.251 C 
ATOM      5  H   UNL A   1      31.580  31.296  25.606  1.00  0.00     0.163 HD
BRANCH   4   6
ATOM      6  C   UNL A   1      34.241  31.202  27.611  1.00  0.00     0.039 A 
ATOM      7  C   UNL A   1      35.216  32.130  27.985  1.00  0.00     0.014 A 
ATOM      8  C   UNL A   1      34.451  29.843  27.868  1.00  0.00     0.014 A 
ATOM      9  C   UNL A   1      36.432  31.701  28.509  1.00  0.00     0.010 A 
ATOM     10  C   UNL A   1      35.631  29.420  28.491  1.00  0.00     0.010 A 
ATOM     11  C   UNL A   1      36.635  30.346  28.816  1.00  0.00    -0.014 A 
BRANCH  11  12
ATOM     12  C   UNL A   1      37.824  29.957  29.620  1.00  0.00     0.031 A 
ATOM     13  C   UNL A   1      38.048  30.473  31.013  1.00  0.00     0.074 A 
ATOM     14  C   UNL A   1      38.730  29.134  29.051  1.00  0.00     0.049 A 
ATOM     15  N   UNL A   1      39.034  30.211  31.833  1.00  0.00    -0.248 NA
ATOM     16  C   UNL A   1      37.051  31.409  31.556  1.00  0.00     0.031 C 
ATOM     17  C   UNL A   1      38.655  28.621  27.678  1.00  0.00     0.029 A 
ATOM     18  N   UNL A   1      39.889  28.587  29.540  1.00  0.00    -0.354 N 
ATOM     19  C   UNL A   1      38.803  30.975  32.970  1.00  0.00     0.074 A 
ATOM     20  C   UNL A   1      37.581  31.714  32.736  1.00  0.00     0.031 C 
ATOM     21  C   UNL A   1      39.700  27.815  27.447  1.00  0.00     0.029 A 
ATOM     22  C   UNL A   1      40.553  27.798  28.628  1.00  0.00     0.049 A 
ATOM     23  H   UNL A   1      40.215  28.744  30.455  1.00  0.00     0.167 HD
ATOM     24  C   UNL A   1      39.539  31.043  34.106  1.00  0.00     0.034 A 
ATOM     25  C   UNL A   1      41.728  27.147  28.718  1.00  0.00     0.034 A 
ATOM     26  C   UNL A   1      40.732  30.272  34.347  1.00  0.00     0.049 A 
ATOM     27  C   UNL A   1      42.496  27.215  30.005  1.00  0.00     0.074 A 
ATOM     28  C   UNL A   1      41.496  30.212  35.500  1.00  0.00     0.029 A 
ATOM     29  N   UNL A   1      41.341  29.440  33.421  1.00  0.00    -0.354 N 
ATOM     30  N   UNL A   1      42.177  27.823  31.121  1.00  0.00    -0.248 NA
ATOM     31  C   UNL A   1      43.771  26.488  30.055  1.00  0.00     0.031 C 
ATOM     32  C   UNL A   1      42.579  29.358  35.265  1.00  0.00     0.029 A 
ATOM     33  C   UNL A   1      42.480  28.872  33.972  1.00  0.00     0.049 A 
ATOM     34  H   UNL A   1      41.014  29.275  32.508  1.00  0.00     0.167 HD
ATOM     35  C   UNL A   1      43.203  27.539  32.013  1.00  0.00     0.074 A 
ATOM     36  C   UNL A   1      44.134  26.673  31.317  1.00  0.00     0.031 C 
ATOM     37  C   UNL A   1      43.372  27.975  33.284  1.00  0.00     0.034 A 
BRANCH  24  38
ATOM     38  C   UNL A   1      39.063  31.949  35.211  1.00  0.00     0.023 A 
ATOM     39  C   UNL A   1      38.150  31.458  36.165  1.00  0.00     0.012 A 
ATOM     40  C   UNL A   1      39.604  33.241  35.371  1.00  0.00     0.148 A 
ATOM     41  C   UNL A   1      37.771  32.243  37.254  1.00  0.00     0.002 A 
ATOM     42  C   UNL A   1      39.248  34.004  36.477  1.00  0.00     0.091 A 
ATOM     43  F   UNL A   1      40.459  33.695  34.443  1.00  0.00    -0.205 F 
ATOM     44  C   UNL A   1      38.328  33.509  37.416  1.00  0.00     0.022 A 
BRANCH  42  45
ATOM     45  S   UNL A   1      39.964  35.617  36.820  1.00  0.00     0.127 S 
ATOM     46  O   UNL A   1      39.280  35.985  38.058  1.00  0.00    -0.237 OA
ATOM     47  O   UNL A   1      41.383  35.297  36.979  1.00  0.00    -0.237 OA
ATOM     48  O   UNL A   1      39.652  36.448  35.665  1.00  0.00    -0.744 OA
ENDBRANCH  42  45
ENDBRANCH  24  38
BRANCH  25  49
ATOM     49  C   UNL A   1      42.225  26.350  27.562  1.00  0.00     0.023 A 
ATOM     50  C   UNL A   1      43.074  26.953  26.615  1.00  0.00     0.012 A 
ATOM     51  C   UNL A   1      41.892  24.989  27.415  1.00  0.00     0.148 A 
ATOM     52  C   UNL A   1      43.560  26.223  25.528  1.00  0.00     0.002 A 
ATOM     53  C   UNL A   1      42.429  24.253  26.366  1.00  0.00     0.091 A 
ATOM     54  F   UNL A   1      41.064  24.434  28.312  1.00  0.00    -0.205 F 
ATOM     55  C   UNL A   1      43.249  24.871  25.411  1.00  0.00     0.022 A 
BRANCH  53  56
ATOM     56  S   UNL A   1      42.192  22.476  26.244  1.00  0.00     0.127 S 
ATOM     57  O   UNL A   1      40.741  22.374  26.123  1.00  0.00    -0.237 OA
ATOM     58  O   UNL A   1      42.936  22.147  25.027  1.00  0.00    -0.237 OA
ATOM     59  O   UNL A   1      42.777  21.929  27.462  1.00  0.00    -0.744 OA
ENDBRANCH  53  56
ENDBRANCH  25  49
BRANCH  37  60
ATOM     60  C   UNL A   1      44.604  27.512  34.014  1.00  0.00     0.023 A 
ATOM     61  C   UNL A   1      45.773  28.297  33.970  1.00  0.00     0.012 A 
ATOM     62  C   UNL A   1      44.588  26.333  34.785  1.00  0.00     0.148 A 
ATOM     63  C   UNL A   1      46.919  27.899  34.657  1.00  0.00     0.002 A 
ATOM     64  C   UNL A   1      45.721  25.967  35.503  1.00  0.00     0.091 A 
ATOM     65  F   UNL A   1      43.473  25.589  34.795  1.00  0.00    -0.205 F 
ATOM     66  C   UNL A   1      46.889  26.743  35.431  1.00  0.00     0.022 A 
BRANCH  64  67
ATOM     67  S   UNL A   1      45.740  24.542  36.597  1.00  0.00     0.127 S 
ATOM     68  O   UNL A   1      44.645  24.856  37.514  1.00  0.00    -0.237 OA
ATOM     69  O   UNL A   1      45.464  23.438  35.674  1.00  0.00    -0.237 OA
ATOM     70  O   UNL A   1      47.067  24.512  37.190  1.00  0.00    -0.744 OA
ENDBRANCH  64  67
ENDBRANCH  37  60
ENDBRANCH  11  12
ENDBRANCH   4   6
ENDBRANCH   1   2
BRANCH   1  71
ATOM     71  C   UNL A   1      32.617  29.132  24.432  1.00  0.00     0.042 C 
BRANCH  71  72
ATOM     72  C   UNL A   1      33.952  28.455  24.113  1.00  0.00     0.117 C 
BRANCH  72  73
ATOM     73  N   UNL A   1      33.907  27.592  22.937  1.00  0.00    -0.355 N 
ATOM     74  C   UNL A   1      33.498  26.340  22.597  1.00  0.00     0.231 C 
ATOM     75  H   UNL A   1      34.287  28.054  22.155  1.00  0.00     0.163 HD
ATOM     76  O   UNL A   1      33.654  26.117  21.383  1.00  0.00    -0.274 OA
BRANCH  74  77
ATOM     77  C   UNL A   1      32.952  25.196  23.560  1.00  0.00     0.080 C 
ATOM     78  C   UNL A   1      33.937  25.222  24.781  1.00  0.00     0.022 C 
ATOM     79  C   UNL A   1      31.547  25.587  24.102  1.00  0.00    -0.029 A 
ATOM     80  C   UNL A   1      33.483  24.458  26.014  1.00  0.00     0.006 C 
ATOM     81  C   UNL A   1      31.171  25.394  25.447  1.00  0.00    -0.044 A 
ATOM     82  C   UNL A   1      30.589  26.155  23.250  1.00  0.00     0.005 A 
ATOM     83  C   UNL A   1      32.133  24.945  26.514  1.00  0.00     0.036 C 
ATOM     84  C   UNL A   1      29.864  25.724  25.867  1.00  0.00     0.004 A 
ATOM     85  C   UNL A   1      29.306  26.504  23.675  1.00  0.00     0.000 A 
ATOM     86  C   UNL A   1      28.936  26.272  24.987  1.00  0.00     0.000 A 
BRANCH  77  87
ATOM     87  C   UNL A   1      32.892  23.794  22.842  1.00  0.00     0.038 C 
ATOM     88  C   UNL A   1      31.871  22.734  23.314  1.00  0.00     0.008 C 
ATOM     89  C   UNL A   1      34.199  22.977  22.753  1.00  0.00     0.119 C 
ATOM     90  C   UNL A   1      32.651  21.563  23.917  1.00  0.00     0.003 C 
ATOM     91  C   UNL A   1      34.113  21.960  23.879  1.00  0.00     0.032 C 
BRANCH  89  92
ATOM     92  O   UNL A   1      35.382  23.735  22.855  1.00  0.00    -0.393 OA
ATOM     93  H   UNL A   1      35.944  23.563  22.083  1.00  0.00     0.210 HD
ENDBRANCH  89  92
ENDBRANCH  77  87
ENDBRANCH  74  77
ENDBRANCH  72  73
ENDBRANCH  71  72
ENDBRANCH   1  71
TORSDOF 15
ENDMDL
MODEL 2
REMARK VINA RESULT:     -12.4      4.764      9.830
REMARK SMILES O=C(NCCCNC(=O)[C@@]1([C@@H]2CCC[C@@H]2O)CCCc2ccccc21)c1ccc(-c2c3nc(c(-c4cccc(S(=O)(=O)[O-])c4F)c4ccc([nH]4)c(-c4cccc(S(=O)(=O)[O-])c4F)c4nc(c(-c5cccc(S(=O)(=O)[O-])c5F)c5ccc2[nH]5)C=C4)C=C3)cc1
REMARK SMILES IDX 4 1 3 2 1 3 2 4 26 6 27 7 88 8 28 9 87 10 29 11 30 12 31 13
REMARK SMILES IDX 81 14 32 15 86 16 80 17 82 18 33 19 85 20 79 21 78 22 34 24
REMARK SMILES IDX 66 25 46 26 65 27 47 28 50 29 64 30 83 31 48 32 49 33 63 35
REMARK SMILES IDX 84 36 51 37 35 38 36 39 44 40 37 41 39 42 45 43 38 44 40 45
REMARK SMILES IDX 41 46 42 47 43 48 67 49 68 50 76 51 69 52 71 53 77 54 70 55
REMARK SMILES IDX 72 56 73 57 74 58 75 59 52 60 53 61 61 62 54 63 56 64 62 65
REMARK SMILES IDX 55 66 57 67 58 68 59 69 60 70 5 71 6 72 7 73 8 74 9 76 10 77
REMARK SMILES IDX 17 78 25 79 18 80 20 81 24 82 19 83 21 84 23 85 22 86 11 87
REMARK SMILES IDX 12 88 15 89 13 90 14 91 16 92
REMARK H PARENT 3 5 82 23 50 34 7 75 16 93
REMARK Flexibility Score: inf
ROOT
ATOM      1  C   UNL A   1      36.298  21.834  25.094  1.00  0.00     0.118 C 
ENDROOT
BRANCH   1   2
ATOM      2  N   UNL A   1      37.254  20.784  25.394  1.00  0.00    -0.352 N 
ATOM      3  O   UNL A   1      39.311  19.922  25.631  1.00  0.00    -0.269 OA
ATOM      4  C   UNL A   1      38.576  20.899  25.751  1.00  0.00     0.251 C 
ATOM      5  H   UNL A   1      36.907  19.865  25.336  1.00  0.00     0.163 HD
BRANCH   4   6
ATOM      6  C   UNL A   1      39.116  22.183  26.264  1.00  0.00     0.039 A 
ATOM      7  C   UNL A   1      40.215  22.209  27.126  1.00  0.00     0.014 A 
ATOM      8  C   UNL A   1      38.573  23.388  25.804  1.00  0.00     0.014 A 
ATOM      9  C   UNL A   1      40.699  23.421  27.612  1.00  0.00     0.010 A 
ATOM     10  C   UNL A   1      39.127  24.608  26.211  1.00  0.00     0.010 A 
ATOM     11  C   UNL A   1      40.194  24.636  27.121  1.00  0.00    -0.014 A 
BRANCH  11  12
ATOM     12  C   UNL A   1      40.907  25.899  27.448  1.00  0.00     0.031 A 
ATOM     13  C   UNL A   1      42.321  26.153  27.008  1.00  0.00     0.074 A 
ATOM     14  C   UNL A   1      40.254  26.822  28.186  1.00  0.00     0.049 A 
ATOM     15  N   UNL A   1      43.063  27.212  27.212  1.00  0.00    -0.248 NA
ATOM     16  C   UNL A   1      42.997  25.086  26.252  1.00  0.00     0.031 C 
ATOM     17  C   UNL A   1      38.901  26.659  28.729  1.00  0.00     0.029 A 
ATOM     18  N   UNL A   1      40.629  28.070  28.614  1.00  0.00    -0.354 N 
ATOM     19  C   UNL A   1      44.302  26.929  26.651  1.00  0.00     0.074 A 
ATOM     20  C   UNL A   1      44.214  25.595  26.094  1.00  0.00     0.031 C 
ATOM     21  C   UNL A   1      38.550  27.771  29.390  1.00  0.00     0.029 A 
ATOM     22  C   UNL A   1      39.670  28.703  29.371  1.00  0.00     0.049 A 
ATOM     23  H   UNL A   1      41.501  28.473  28.401  1.00  0.00     0.167 HD
ATOM     24  C   UNL A   1      45.405  27.715  26.597  1.00  0.00     0.034 A 
ATOM     25  C   UNL A   1      39.689  29.892  30.001  1.00  0.00     0.034 A 
ATOM     26  C   UNL A   1      45.470  29.056  27.116  1.00  0.00     0.049 A 
ATOM     27  C   UNL A   1      40.914  30.751  29.886  1.00  0.00     0.074 A 
ATOM     28  C   UNL A   1      46.517  29.959  27.032  1.00  0.00     0.029 A 
ATOM     29  N   UNL A   1      44.459  29.686  27.825  1.00  0.00    -0.354 N 
ATOM     30  N   UNL A   1      42.018  30.524  29.218  1.00  0.00    -0.248 NA
ATOM     31  C   UNL A   1      40.888  32.040  30.589  1.00  0.00     0.031 C 
ATOM     32  C   UNL A   1      46.147  31.127  27.707  1.00  0.00     0.029 A 
ATOM     33  C   UNL A   1      44.862  30.959  28.196  1.00  0.00     0.049 A 
ATOM     34  H   UNL A   1      43.583  29.288  28.034  1.00  0.00     0.167 HD
ATOM     35  C   UNL A   1      42.812  31.648  29.406  1.00  0.00     0.074 A 
ATOM     36  C   UNL A   1      42.046  32.570  30.220  1.00  0.00     0.031 C 
ATOM     37  C   UNL A   1      44.071  31.884  28.965  1.00  0.00     0.034 A 
BRANCH  24  38
ATOM     38  C   UNL A   1      46.633  27.174  25.912  1.00  0.00     0.023 A 
ATOM     39  C   UNL A   1      46.779  27.335  24.521  1.00  0.00     0.012 A 
ATOM     40  C   UNL A   1      47.689  26.612  26.659  1.00  0.00     0.148 A 
ATOM     41  C   UNL A   1      47.950  26.934  23.879  1.00  0.00     0.002 A 
ATOM     42  C   UNL A   1      48.867  26.247  26.018  1.00  0.00     0.091 A 
ATOM     43  F   UNL A   1      47.523  26.454  27.980  1.00  0.00    -0.205 F 
ATOM     44  C   UNL A   1      48.998  26.401  24.628  1.00  0.00     0.022 A 
BRANCH  42  45
ATOM     45  S   UNL A   1      50.303  25.621  26.900  1.00  0.00     0.127 S 
ATOM     46  O   UNL A   1      50.626  26.748  27.772  1.00  0.00    -0.237 OA
ATOM     47  O   UNL A   1      49.756  24.453  27.590  1.00  0.00    -0.237 OA
ATOM     48  O   UNL A   1      51.299  25.317  25.882  1.00  0.00    -0.744 OA
ENDBRANCH  42  45
ENDBRANCH  24  38
BRANCH  25  49
ATOM     49  C   UNL A   1      38.494  30.348  30.765  1.00  0.00     0.023 A 
ATOM     50  C   UNL A   1      38.397  30.062  32.140  1.00  0.00     0.012 A 
ATOM     51  C   UNL A   1      37.471  31.093  30.146  1.00  0.00     0.148 A 
ATOM     52  C   UNL A   1      37.291  30.486  32.879  1.00  0.00     0.002 A 
ATOM     53  C   UNL A   1      36.404  31.565  30.900  1.00  0.00     0.091 A 
ATOM     54  F   UNL A   1      37.566  31.338  28.832  1.00  0.00    -0.205 F 
ATOM     55  C   UNL A   1      36.302  31.249  32.263  1.00  0.00     0.022 A 
BRANCH  53  56
ATOM     56  S   UNL A   1      35.178  32.679  30.204  1.00  0.00     0.127 S 
ATOM     57  O   UNL A   1      34.302  32.914  31.348  1.00  0.00    -0.237 OA
ATOM     58  O   UNL A   1      35.993  33.828  29.806  1.00  0.00    -0.237 OA
ATOM     59  O   UNL A   1      34.594  31.950  29.085  1.00  0.00    -0.744 OA
ENDBRANCH  53  56
ENDBRANCH  25  49
BRANCH  37  60
ATOM     60  C   UNL A   1      44.697  33.200  29.342  1.00  0.00     0.023 A 
ATOM     61  C   UNL A   1      45.473  33.289  30.514  1.00  0.00     0.012 A 
ATOM     62  C   UNL A   1      44.564  34.329  28.510  1.00  0.00     0.148 A 
ATOM     63  C   UNL A   1      46.081  34.492  30.871  1.00  0.00     0.002 A 
ATOM     64  C   UNL A   1      45.210  35.512  28.849  1.00  0.00     0.091 A 
ATOM     65  F   UNL A   1      43.803  34.229  27.411  1.00  0.00    -0.205 F 
ATOM     66  C   UNL A   1      45.960  35.598  30.034  1.00  0.00     0.022 A 
BRANCH  64  67
ATOM     67  S   UNL A   1      45.181  36.958  27.783  1.00  0.00     0.127 S 
ATOM     68  O   UNL A   1      45.999  37.903  28.542  1.00  0.00    -0.237 OA
ATOM     69  O   UNL A   1      45.811  36.455  26.559  1.00  0.00    -0.237 OA
ATOM     70  O   UNL A   1      43.780  37.317  27.635  1.00  0.00    -0.744 OA
ENDBRANCH  64  67
ENDBRANCH  37  60
ENDBRANCH  11  12
ENDBRANCH   4   6
ENDBRANCH   1   2
BRANCH   1  71
ATOM     71  C   UNL A   1      35.080  21.739  26.001  1.00  0.00     0.042 C 
BRANCH  71  72
ATOM     72  C   UNL A   1      34.887  22.955  26.911  1.00  0.00     0.117 C 
BRANCH  72  73
ATOM     73  N   UNL A   1      33.499  23.178  27.306  1.00  0.00    -0.355 N 
ATOM     74  C   UNL A   1      32.372  23.759  26.814  1.00  0.00     0.231 C 
ATOM     75  H   UNL A   1      33.327  22.792  28.195  1.00  0.00     0.163 HD
ATOM     76  O   UNL A   1      31.404  23.610  27.580  1.00  0.00    -0.274 OA
BRANCH  74  77
ATOM     77  C   UNL A   1      32.218  24.617  25.483  1.00  0.00     0.080 C 
ATOM     78  C   UNL A   1      33.433  25.609  25.523  1.00  0.00     0.022 C 
ATOM     79  C   UNL A   1      32.419  23.705  24.239  1.00  0.00    -0.029 A 
ATOM     80  C   UNL A   1      33.735  26.340  24.226  1.00  0.00     0.006 C 
ATOM     81  C   UNL A   1      33.173  24.105  23.117  1.00  0.00    -0.044 A 
ATOM     82  C   UNL A   1      31.844  22.427  24.194  1.00  0.00     0.005 A 
ATOM     83  C   UNL A   1      33.981  25.375  23.078  1.00  0.00     0.036 C 
ATOM     84  C   UNL A   1      33.280  23.251  21.998  1.00  0.00     0.004 A 
ATOM     85  C   UNL A   1      31.971  21.574  23.096  1.00  0.00     0.000 A 
ATOM     86  C   UNL A   1      32.679  21.995  21.985  1.00  0.00     0.000 A 
BRANCH  77  87
ATOM     87  C   UNL A   1      30.824  25.349  25.405  1.00  0.00     0.038 C 
ATOM     88  C   UNL A   1      30.215  25.696  24.027  1.00  0.00     0.008 C 
ATOM     89  C   UNL A   1      30.665  26.675  26.179  1.00  0.00     0.119 C 
ATOM     90  C   UNL A   1      30.189  27.221  23.894  1.00  0.00     0.003 C 
ATOM     91  C   UNL A   1      30.850  27.770  25.142  1.00  0.00     0.032 C 
BRANCH  89  92
ATOM     92  O   UNL A   1      31.562  26.848  27.252  1.00  0.00    -0.393 OA
ATOM     93  H   UNL A   1      31.431  27.726  27.644  1.00  0.00     0.210 HD
ENDBRANCH  89  92
ENDBRANCH  77  87
ENDBRANCH  74  77
ENDBRANCH  72  73
ENDBRANCH  71  72
ENDBRANCH   1  71
TORSDOF 15
ENDMDL
MODEL 3
REMARK VINA RESULT:     -12.3      2.470      8.115
REMARK SMILES O=C(NCCCNC(=O)[C@@]1([C@@H]2CCC[C@@H]2O)CCCc2ccccc21)c1ccc(-c2c3nc(c(-c4cccc(S(=O)(=O)[O-])c4F)c4ccc([nH]4)c(-c4cccc(S(=O)(=O)[O-])c4F)c4nc(c(-c5cccc(S(=O)(=O)[O-])c5F)c5ccc2[nH]5)C=C4)C=C3)cc1
REMARK SMILES IDX 4 1 3 2 1 3 2 4 26 6 27 7 88 8 28 9 87 10 29 11 30 12 31 13
REMARK SMILES IDX 81 14 32 15 86 16 80 17 82 18 33 19 85 20 79 21 78 22 34 24
REMARK SMILES IDX 66 25 46 26 65 27 47 28 50 29 64 30 83 31 48 32 49 33 63 35
REMARK SMILES IDX 84 36 51 37 35 38 36 39 44 40 37 41 39 42 45 43 38 44 40 45
REMARK SMILES IDX 41 46 42 47 43 48 67 49 68 50 76 51 69 52 71 53 77 54 70 55
REMARK SMILES IDX 72 56 73 57 74 58 75 59 52 60 53 61 61 62 54 63 56 64 62 65
REMARK SMILES IDX 55 66 57 67 58 68 59 69 60 70 5 71 6 72 7 73 8 74 9 76 10 77
REMARK SMILES IDX 17 78 25 79 18 80 20 81 24 82 19 83 21 84 23 85 22 86 11 87
REMARK SMILES IDX 12 88 15 89 13 90 14 91 16 92
REMARK H PARENT 3 5 82 23 50 34 7 75 16 93
REMARK Flexibility Score: inf
ROOT
ATOM      1  C   UNL A   1      32.754  32.301  27.264  1.00  0.00     0.118 C 
ENDROOT
BRANCH   1   2
ATOM      2  N   UNL A   1      32.586  33.726  27.484  1.00  0.00    -0.352 N 
ATOM      3  O   UNL A   1      32.588  35.603  28.714  1.00  0.00    -0.269 OA
ATOM      4  C   UNL A   1      33.103  34.509  28.487  1.00  0.00     0.251 C 
ATOM      5  H   UNL A   1      32.027  34.194  26.823  1.00  0.00     0.163 HD
BRANCH   4   6
ATOM      6  C   UNL A   1      34.258  34.045  29.295  1.00  0.00     0.039 A 
ATOM      7  C   UNL A   1      34.075  33.214  30.404  1.00  0.00     0.014 A 
ATOM      8  C   UNL A   1      35.556  34.370  28.886  1.00  0.00     0.014 A 
ATOM      9  C   UNL A   1      35.168  32.802  31.161  1.00  0.00     0.010 A 
ATOM     10  C   UNL A   1      36.660  33.870  29.587  1.00  0.00     0.010 A 
ATOM     11  C   UNL A   1      36.476  33.081  30.734  1.00  0.00    -0.014 A 
BRANCH  11  12
ATOM     12  C   UNL A   1      37.616  32.403  31.405  1.00  0.00     0.031 A 
ATOM     13  C   UNL A   1      38.358  31.267  30.761  1.00  0.00     0.074 A 
ATOM     14  C   UNL A   1      37.962  32.821  32.641  1.00  0.00     0.049 A 
ATOM     15  N   UNL A   1      39.378  30.589  31.225  1.00  0.00    -0.248 NA
ATOM     16  C   UNL A   1      37.899  30.822  29.435  1.00  0.00     0.031 C 
ATOM     17  C   UNL A   1      37.271  33.872  33.397  1.00  0.00     0.029 A 
ATOM     18  N   UNL A   1      38.967  32.420  33.484  1.00  0.00    -0.354 N 
ATOM     19  C   UNL A   1      39.658  29.615  30.274  1.00  0.00     0.074 A 
ATOM     20  C   UNL A   1      38.700  29.789  29.203  1.00  0.00     0.031 C 
ATOM     21  C   UNL A   1      37.887  34.051  34.573  1.00  0.00     0.029 A 
ATOM     22  C   UNL A   1      38.978  33.092  34.685  1.00  0.00     0.049 A 
ATOM     23  H   UNL A   1      39.616  31.718  33.253  1.00  0.00     0.167 HD
ATOM     24  C   UNL A   1      40.631  28.672  30.292  1.00  0.00     0.034 A 
ATOM     25  C   UNL A   1      39.763  32.944  35.769  1.00  0.00     0.034 A 
ATOM     26  C   UNL A   1      41.606  28.534  31.343  1.00  0.00     0.049 A 
ATOM     27  C   UNL A   1      40.855  31.916  35.737  1.00  0.00     0.074 A 
ATOM     28  C   UNL A   1      42.682  27.663  31.406  1.00  0.00     0.029 A 
ATOM     29  N   UNL A   1      41.622  29.271  32.516  1.00  0.00    -0.354 N 
ATOM     30  N   UNL A   1      41.197  31.110  34.762  1.00  0.00    -0.248 NA
ATOM     31  C   UNL A   1      41.685  31.792  36.941  1.00  0.00     0.031 C 
ATOM     32  C   UNL A   1      43.336  27.860  32.626  1.00  0.00     0.029 A 
ATOM     33  C   UNL A   1      42.679  28.866  33.316  1.00  0.00     0.049 A 
ATOM     34  H   UNL A   1      40.978  29.979  32.748  1.00  0.00     0.167 HD
ATOM     35  C   UNL A   1      42.292  30.395  35.228  1.00  0.00     0.074 A 
ATOM     36  C   UNL A   1      42.579  30.890  36.559  1.00  0.00     0.031 C 
ATOM     37  C   UNL A   1      42.982  29.401  34.619  1.00  0.00     0.034 A 
BRANCH  24  38
ATOM     38  C   UNL A   1      40.735  27.731  29.120  1.00  0.00     0.023 A 
ATOM     39  C   UNL A   1      39.849  26.640  29.026  1.00  0.00     0.012 A 
ATOM     40  C   UNL A   1      41.628  27.992  28.061  1.00  0.00     0.148 A 
ATOM     41  C   UNL A   1      39.858  25.813  27.904  1.00  0.00     0.002 A 
ATOM     42  C   UNL A   1      41.606  27.184  26.929  1.00  0.00     0.091 A 
ATOM     43  F   UNL A   1      42.473  29.025  28.177  1.00  0.00    -0.205 F 
ATOM     44  C   UNL A   1      40.727  26.092  26.851  1.00  0.00     0.022 A 
BRANCH  42  45
ATOM     45  S   UNL A   1      42.632  27.500  25.487  1.00  0.00     0.127 S 
ATOM     46  O   UNL A   1      42.363  26.319  24.671  1.00  0.00    -0.237 OA
ATOM     47  O   UNL A   1      42.061  28.743  24.969  1.00  0.00    -0.237 OA
ATOM     48  O   UNL A   1      43.997  27.617  25.982  1.00  0.00    -0.744 OA
ENDBRANCH  42  45
ENDBRANCH  24  38
BRANCH  25  49
ATOM     49  C   UNL A   1      39.559  33.819  36.958  1.00  0.00     0.023 A 
ATOM     50  C   UNL A   1      39.964  35.166  36.907  1.00  0.00     0.012 A 
ATOM     51  C   UNL A   1      38.934  33.334  38.124  1.00  0.00     0.148 A 
ATOM     52  C   UNL A   1      39.775  36.007  38.005  1.00  0.00     0.002 A 
ATOM     53  C   UNL A   1      38.693  34.192  39.189  1.00  0.00     0.091 A 
ATOM     54  F   UNL A   1      38.575  32.043  38.166  1.00  0.00    -0.205 F 
ATOM     55  C   UNL A   1      39.128  35.525  39.140  1.00  0.00     0.022 A 
BRANCH  53  56
ATOM     56  S   UNL A   1      37.731  33.677  40.616  1.00  0.00     0.127 S 
ATOM     57  O   UNL A   1      38.621  32.706  41.244  1.00  0.00    -0.237 OA
ATOM     58  O   UNL A   1      37.570  34.932  41.352  1.00  0.00    -0.237 OA
ATOM     59  O   UNL A   1      36.488  33.149  40.066  1.00  0.00    -0.744 OA
ENDBRANCH  53  56
ENDBRANCH  25  49
BRANCH  37  60
ATOM     60  C   UNL A   1      44.127  28.790  35.380  1.00  0.00     0.023 A 
ATOM     61  C   UNL A   1      45.429  29.295  35.199  1.00  0.00     0.012 A 
ATOM     62  C   UNL A   1      43.907  27.757  36.312  1.00  0.00     0.148 A 
ATOM     63  C   UNL A   1      46.502  28.759  35.911  1.00  0.00     0.002 A 
ATOM     64  C   UNL A   1      44.974  27.259  37.051  1.00  0.00     0.091 A 
ATOM     65  F   UNL A   1      42.664  27.275  36.453  1.00  0.00    -0.205 F 
ATOM     66  C   UNL A   1      46.273  27.752  36.843  1.00  0.00     0.022 A 
BRANCH  64  67
ATOM     67  S   UNL A   1      44.754  26.024  38.337  1.00  0.00     0.127 S 
ATOM     68  O   UNL A   1      44.225  24.893  37.575  1.00  0.00    -0.237 OA
ATOM     69  O   UNL A   1      46.122  25.839  38.829  1.00  0.00    -0.237 OA
ATOM     70  O   UNL A   1      43.841  26.612  39.303  1.00  0.00    -0.744 OA
ENDBRANCH  64  67
ENDBRANCH  37  60
ENDBRANCH  11  12
ENDBRANCH   4   6
ENDBRANCH   1   2
BRANCH   1  71
ATOM     71  C   UNL A   1      31.565  31.722  26.510  1.00  0.00     0.042 C 
BRANCH  71  72
ATOM     72  C   UNL A   1      31.681  30.222  26.227  1.00  0.00     0.117 C 
BRANCH  72  73
ATOM     73  N   UNL A   1      32.717  29.886  25.256  1.00  0.00    -0.355 N 
ATOM     74  C   UNL A   1      32.914  29.028  24.220  1.00  0.00     0.231 C 
ATOM     75  H   UNL A   1      33.513  30.449  25.393  1.00  0.00     0.163 HD
ATOM     76  O   UNL A   1      34.017  29.207  23.675  1.00  0.00    -0.274 OA
BRANCH  74  77
ATOM     77  C   UNL A   1      31.959  27.852  23.731  1.00  0.00     0.080 C 
ATOM     78  C   UNL A   1      31.610  27.071  25.047  1.00  0.00     0.022 C 
ATOM     79  C   UNL A   1      30.627  28.443  23.188  1.00  0.00    -0.029 A 
ATOM     80  C   UNL A   1      30.458  26.086  24.946  1.00  0.00     0.006 C 
ATOM     81  C   UNL A   1      29.369  27.878  23.482  1.00  0.00    -0.044 A 
ATOM     82  C   UNL A   1      30.635  29.582  22.369  1.00  0.00     0.005 A 
ATOM     83  C   UNL A   1      29.181  26.757  24.470  1.00  0.00     0.036 C 
ATOM     84  C   UNL A   1      28.199  28.432  22.920  1.00  0.00     0.004 A 
ATOM     85  C   UNL A   1      29.474  30.142  21.835  1.00  0.00     0.000 A 
ATOM     86  C   UNL A   1      28.250  29.554  22.098  1.00  0.00     0.000 A 
BRANCH  77  87
ATOM     87  C   UNL A   1      32.643  26.946  22.637  1.00  0.00     0.038 C 
ATOM     88  C   UNL A   1      31.767  26.144  21.648  1.00  0.00     0.008 C 
ATOM     89  C   UNL A   1      33.658  25.886  23.115  1.00  0.00     0.119 C 
ATOM     90  C   UNL A   1      31.967  24.655  21.942  1.00  0.00     0.003 C 
ATOM     91  C   UNL A   1      32.886  24.577  23.145  1.00  0.00     0.032 C 
BRANCH  89  92
ATOM     92  O   UNL A   1      34.245  26.147  24.368  1.00  0.00    -0.393 OA
ATOM     93  H   UNL A   1      34.793  25.391  24.633  1.00  0.00     0.210 HD
ENDBRANCH  89  92
ENDBRANCH  77  87
ENDBRANCH  74  77
ENDBRANCH  72  73
ENDBRANCH  71  72
ENDBRANCH   1  71
TORSDOF 15
ENDMDL
