MODEL 1
REMARK VINA RESULT:     -11.6      0.000      0.000
REMARK SMILES C=C[C@@H](C)Oc1cnc2ccccc2c1C(=O)NCCCNC(=O)c1ccc(-c2c3nc(c(-c4cccc(S(=O)(=O)[O-])c4F)c4ccc([nH]4)c(-c4cccc(S(=O)(=O)[O-])c4F)c4nc(c(-c5cccc(S(=O)(=O)[O-])c5F)c5ccc2[nH]5)C=C4)C=C3)cc1
REMARK SMILES IDX 20 1 19 2 18 3 16 4 17 5 15 7 6 8 7 9 8 10 14 11 9 12 13 13
REMARK SMILES IDX 10 14 12 15 11 16 5 17 3 18 4 19 2 20 1 21 21 22 22 23 23 24
REMARK SMILES IDX 24 26 25 27 26 28 87 29 27 30 86 31 28 32 29 33 30 34 80 35
REMARK SMILES IDX 31 36 85 37 79 38 81 39 32 40 84 41 78 42 77 43 33 45 65 46
REMARK SMILES IDX 45 47 64 48 46 49 49 50 63 51 82 52 47 53 48 54 62 56 83 57
REMARK SMILES IDX 50 58 34 59 35 60 43 61 36 62 38 63 44 64 37 65 39 66 40 67
REMARK SMILES IDX 41 68 42 69 66 70 67 71 75 72 68 73 70 74 76 75 69 76 71 77
REMARK SMILES IDX 72 78 73 79 74 80 51 81 52 82 60 83 53 84 55 85 61 86 54 87
REMARK SMILES IDX 56 88 57 89 58 90 59 91
REMARK H PARENT 18 6 22 25 81 44 49 55
REMARK Flexibility Score: inf
ROOT
ATOM      1  C   UNL A   1      31.746  28.979  26.612  1.00  0.00     0.042 C 
ENDROOT
BRANCH   1   2
ATOM      2  C   UNL A   1      32.465  27.801  27.291  1.00  0.00     0.118 C 
BRANCH   2   3
ATOM      3  N   UNL A   1      31.665  26.591  27.158  1.00  0.00    -0.352 N 
ATOM      4  C   UNL A   1      31.586  25.530  26.286  1.00  0.00     0.255 C 
ATOM      5  O   UNL A   1      30.587  24.826  26.472  1.00  0.00    -0.269 OA
ATOM      6  H   UNL A   1      31.008  26.512  27.886  1.00  0.00     0.163 HD
BRANCH   4   7
ATOM      7  C   UNL A   1      32.596  25.120  25.241  1.00  0.00     0.092 A 
ATOM      8  C   UNL A   1      32.618  25.897  24.060  1.00  0.00     0.151 A 
ATOM      9  C   UNL A   1      33.554  25.587  23.090  1.00  0.00     0.159 A 
ATOM     10  N   UNL A   1      34.342  24.501  23.109  1.00  0.00    -0.252 NA
ATOM     11  C   UNL A   1      33.555  24.061  25.354  1.00  0.00     0.017 A 
ATOM     12  C   UNL A   1      34.337  23.757  24.213  1.00  0.00     0.071 A 
ATOM     13  C   UNL A   1      33.866  23.318  26.511  1.00  0.00     0.011 A 
ATOM     14  C   UNL A   1      35.195  22.665  24.214  1.00  0.00     0.029 A 
ATOM     15  C   UNL A   1      34.714  22.208  26.504  1.00  0.00     0.001 A 
ATOM     16  C   UNL A   1      35.362  21.861  25.336  1.00  0.00     0.002 A 
BRANCH   8  17
ATOM     17  O   UNL A   1      31.843  27.015  23.906  1.00  0.00    -0.484 OA
BRANCH  17  18
ATOM     18  C   UNL A   1      30.754  26.989  22.966  1.00  0.00     0.192 C 
ATOM     19  C   UNL A   1      30.318  28.370  22.476  1.00  0.00     0.057 C 
BRANCH  18  20
ATOM     20  C   UNL A   1      29.587  26.166  23.466  1.00  0.00     0.009 C 
ATOM     21  C   UNL A   1      28.422  26.672  23.894  1.00  0.00     0.008 C 
ENDBRANCH  18  20
ENDBRANCH  17  18
ENDBRANCH   8  17
ENDBRANCH   4   7
ENDBRANCH   2   3
ENDBRANCH   1   2
BRANCH   1  22
ATOM     22  C   UNL A   1      32.647  29.938  25.844  1.00  0.00     0.118 C 
BRANCH  22  23
ATOM     23  N   UNL A   1      32.490  31.307  26.296  1.00  0.00    -0.352 N 
ATOM     24  C   UNL A   1      33.183  32.029  27.240  1.00  0.00     0.251 C 
ATOM     25  H   UNL A   1      31.764  31.804  25.853  1.00  0.00     0.163 HD
ATOM     26  O   UNL A   1      32.689  33.086  27.631  1.00  0.00    -0.269 OA
BRANCH  24  27
ATOM     27  C   UNL A   1      34.492  31.584  27.793  1.00  0.00     0.039 A 
ATOM     28  C   UNL A   1      34.614  30.254  28.216  1.00  0.00     0.014 A 
ATOM     29  C   UNL A   1      35.559  32.460  28.006  1.00  0.00     0.014 A 
ATOM     30  C   UNL A   1      35.788  29.812  28.837  1.00  0.00     0.010 A 
ATOM     31  C   UNL A   1      36.766  31.993  28.534  1.00  0.00     0.010 A 
ATOM     32  C   UNL A   1      36.881  30.677  28.998  1.00  0.00    -0.014 A 
BRANCH  32  33
ATOM     33  C   UNL A   1      38.112  30.235  29.710  1.00  0.00     0.031 A 
ATOM     34  C   UNL A   1      38.395  30.712  31.115  1.00  0.00     0.074 A 
ATOM     35  C   UNL A   1      39.001  29.433  29.087  1.00  0.00     0.049 A 
ATOM     36  N   UNL A   1      39.403  30.426  31.899  1.00  0.00    -0.248 NA
ATOM     37  C   UNL A   1      37.434  31.657  31.708  1.00  0.00     0.031 C 
ATOM     38  C   UNL A   1      38.892  28.967  27.704  1.00  0.00     0.029 A 
ATOM     39  N   UNL A   1      40.175  28.879  29.532  1.00  0.00    -0.354 N 
ATOM     40  C   UNL A   1      39.218  31.181  33.054  1.00  0.00     0.074 A 
ATOM     41  C   UNL A   1      38.025  31.972  32.851  1.00  0.00     0.031 C 
ATOM     42  C   UNL A   1      39.944  28.183  27.420  1.00  0.00     0.029 A 
ATOM     43  C   UNL A   1      40.810  28.101  28.592  1.00  0.00     0.049 A 
ATOM     44  H   UNL A   1      40.529  29.024  30.440  1.00  0.00     0.167 HD
ATOM     45  C   UNL A   1      39.946  31.189  34.197  1.00  0.00     0.034 A 
ATOM     46  C   UNL A   1      41.953  27.390  28.671  1.00  0.00     0.034 A 
ATOM     47  C   UNL A   1      41.098  30.358  34.421  1.00  0.00     0.049 A 
ATOM     48  C   UNL A   1      42.699  27.350  29.978  1.00  0.00     0.074 A 
ATOM     49  C   UNL A   1      41.862  30.232  35.567  1.00  0.00     0.029 A 
ATOM     50  N   UNL A   1      41.647  29.503  33.478  1.00  0.00    -0.354 N 
ATOM     51  N   UNL A   1      42.418  27.953  31.108  1.00  0.00    -0.248 NA
ATOM     52  C   UNL A   1      43.890  26.491  30.036  1.00  0.00     0.031 C 
ATOM     53  C   UNL A   1      42.880  29.305  35.314  1.00  0.00     0.029 A 
ATOM     54  C   UNL A   1      42.736  28.839  34.018  1.00  0.00     0.049 A 
ATOM     55  H   UNL A   1      41.312  29.384  32.560  1.00  0.00     0.167 HD
ATOM     56  C   UNL A   1      43.370  27.514  32.022  1.00  0.00     0.074 A 
ATOM     57  C   UNL A   1      44.222  26.577  31.317  1.00  0.00     0.031 C 
ATOM     58  C   UNL A   1      43.535  27.863  33.322  1.00  0.00     0.034 A 
BRANCH  45  59
ATOM     59  C   UNL A   1      39.474  32.079  35.320  1.00  0.00     0.023 A 
ATOM     60  C   UNL A   1      38.559  31.573  36.268  1.00  0.00     0.012 A 
ATOM     61  C   UNL A   1      39.959  33.394  35.467  1.00  0.00     0.148 A 
ATOM     62  C   UNL A   1      38.102  32.371  37.315  1.00  0.00     0.002 A 
ATOM     63  C   UNL A   1      39.533  34.169  36.541  1.00  0.00     0.091 A 
ATOM     64  F   UNL A   1      40.812  33.869  34.548  1.00  0.00    -0.205 F 
ATOM     65  C   UNL A   1      38.596  33.664  37.458  1.00  0.00     0.022 A 
BRANCH  63  66
ATOM     66  S   UNL A   1      40.170  35.819  36.859  1.00  0.00     0.127 S 
ATOM     67  O   UNL A   1      39.682  36.553  35.693  1.00  0.00    -0.237 OA
ATOM     68  O   UNL A   1      39.512  36.168  38.118  1.00  0.00    -0.237 OA
ATOM     69  O   UNL A   1      41.617  35.678  36.952  1.00  0.00    -0.744 OA
ENDBRANCH  63  66
ENDBRANCH  45  59
BRANCH  46  70
ATOM     70  C   UNL A   1      42.401  26.571  27.509  1.00  0.00     0.023 A 
ATOM     71  C   UNL A   1      43.221  27.158  26.525  1.00  0.00     0.012 A 
ATOM     72  C   UNL A   1      42.052  25.212  27.388  1.00  0.00     0.148 A 
ATOM     73  C   UNL A   1      43.656  26.420  25.425  1.00  0.00     0.002 A 
ATOM     74  C   UNL A   1      42.534  24.467  26.317  1.00  0.00     0.091 A 
ATOM     75  F   UNL A   1      41.262  24.672  28.326  1.00  0.00    -0.205 F 
ATOM     76  C   UNL A   1      43.322  25.073  25.325  1.00  0.00     0.022 A 
BRANCH  74  77
ATOM     77  S   UNL A   1      42.265  22.695  26.181  1.00  0.00     0.127 S 
ATOM     78  O   UNL A   1      42.958  22.196  27.368  1.00  0.00    -0.237 OA
ATOM     79  O   UNL A   1      40.804  22.606  26.241  1.00  0.00    -0.237 OA
ATOM     80  O   UNL A   1      42.836  22.310  24.902  1.00  0.00    -0.744 OA
ENDBRANCH  74  77
ENDBRANCH  46  70
BRANCH  58  81
ATOM     81  C   UNL A   1      44.649  27.198  34.085  1.00  0.00     0.023 A 
ATOM     82  C   UNL A   1      45.936  27.773  34.094  1.00  0.00     0.012 A 
ATOM     83  C   UNL A   1      44.409  26.032  34.837  1.00  0.00     0.148 A 
ATOM     84  C   UNL A   1      46.975  27.173  34.805  1.00  0.00     0.002 A 
ATOM     85  C   UNL A   1      45.437  25.467  35.582  1.00  0.00     0.091 A 
ATOM     86  F   UNL A   1      43.185  25.485  34.800  1.00  0.00    -0.205 F 
ATOM     87  C   UNL A   1      46.723  26.027  35.557  1.00  0.00     0.022 A 
BRANCH  85  88
ATOM     88  S   UNL A   1      45.165  24.050  36.652  1.00  0.00     0.127 S 
ATOM     89  O   UNL A   1      46.527  23.724  37.069  1.00  0.00    -0.237 OA
ATOM     90  O   UNL A   1      44.321  24.610  37.710  1.00  0.00    -0.237 OA
ATOM     91  O   UNL A   1      44.501  23.052  35.823  1.00  0.00    -0.744 OA
ENDBRANCH  85  88
ENDBRANCH  58  81
ENDBRANCH  32  33
ENDBRANCH  24  27
ENDBRANCH  22  23
ENDBRANCH   1  22
TORSDOF 16
ENDMDL
MODEL 2
REMARK VINA RESULT:     -11.5      4.867     10.003
REMARK SMILES C=C[C@@H](C)Oc1cnc2ccccc2c1C(=O)NCCCNC(=O)c1ccc(-c2c3nc(c(-c4cccc(S(=O)(=O)[O-])c4F)c4ccc([nH]4)c(-c4cccc(S(=O)(=O)[O-])c4F)c4nc(c(-c5cccc(S(=O)(=O)[O-])c5F)c5ccc2[nH]5)C=C4)C=C3)cc1
REMARK SMILES IDX 20 1 19 2 18 3 16 4 17 5 15 7 6 8 7 9 8 10 14 11 9 12 13 13
REMARK SMILES IDX 10 14 12 15 11 16 5 17 3 18 4 19 2 20 1 21 21 22 22 23 23 24
REMARK SMILES IDX 24 26 25 27 26 28 87 29 27 30 86 31 28 32 29 33 30 34 80 35
REMARK SMILES IDX 31 36 85 37 79 38 81 39 32 40 84 41 78 42 77 43 33 45 65 46
REMARK SMILES IDX 45 47 64 48 46 49 49 50 63 51 82 52 47 53 48 54 62 56 83 57
REMARK SMILES IDX 50 58 34 59 35 60 43 61 36 62 38 63 44 64 37 65 39 66 40 67
REMARK SMILES IDX 41 68 42 69 66 70 67 71 75 72 68 73 70 74 76 75 69 76 71 77
REMARK SMILES IDX 72 78 73 79 74 80 51 81 52 82 60 83 53 84 55 85 61 86 54 87
REMARK SMILES IDX 56 88 57 89 58 90 59 91
REMARK H PARENT 18 6 22 25 81 44 49 55
REMARK Flexibility Score: inf
ROOT
ATOM      1  C   UNL A   1      35.433  22.539  26.698  1.00  0.00     0.042 C 
ENDROOT
BRANCH   1   2
ATOM      2  C   UNL A   1      34.491  21.472  27.282  1.00  0.00     0.118 C 
BRANCH   2   3
ATOM      3  N   UNL A   1      33.142  22.009  27.391  1.00  0.00    -0.352 N 
ATOM      4  C   UNL A   1      32.315  22.808  26.636  1.00  0.00     0.255 C 
ATOM      5  O   UNL A   1      31.303  23.170  27.246  1.00  0.00    -0.269 OA
ATOM      6  H   UNL A   1      32.707  21.725  28.226  1.00  0.00     0.163 HD
BRANCH   4   7
ATOM      7  C   UNL A   1      32.477  23.188  25.183  1.00  0.00     0.092 A 
ATOM      8  C   UNL A   1      32.269  22.151  24.244  1.00  0.00     0.151 A 
ATOM      9  C   UNL A   1      32.365  22.459  22.898  1.00  0.00     0.159 A 
ATOM     10  N   UNL A   1      32.798  23.632  22.412  1.00  0.00    -0.252 NA
ATOM     11  C   UNL A   1      32.767  24.495  24.672  1.00  0.00     0.017 A 
ATOM     12  C   UNL A   1      32.997  24.621  23.280  1.00  0.00     0.071 A 
ATOM     13  C   UNL A   1      32.783  25.705  25.395  1.00  0.00     0.011 A 
ATOM     14  C   UNL A   1      33.405  25.833  22.738  1.00  0.00     0.029 A 
ATOM     15  C   UNL A   1      33.213  26.918  24.852  1.00  0.00     0.001 A 
ATOM     16  C   UNL A   1      33.555  26.975  23.516  1.00  0.00     0.002 A 
BRANCH   8  17
ATOM     17  O   UNL A   1      31.852  20.902  24.614  1.00  0.00    -0.484 OA
BRANCH  17  18
ATOM     18  C   UNL A   1      32.700  19.771  24.346  1.00  0.00     0.192 C 
ATOM     19  C   UNL A   1      32.315  18.984  23.092  1.00  0.00     0.057 C 
BRANCH  18  20
ATOM     20  C   UNL A   1      32.858  18.876  25.555  1.00  0.00     0.009 C 
ATOM     21  C   UNL A   1      32.714  17.544  25.544  1.00  0.00     0.008 C 
ENDBRANCH  18  20
ENDBRANCH  17  18
ENDBRANCH   8  17
ENDBRANCH   4   7
ENDBRANCH   2   3
ENDBRANCH   1   2
BRANCH   1  22
ATOM     22  C   UNL A   1      36.074  22.184  25.363  1.00  0.00     0.118 C 
BRANCH  22  23
ATOM     23  N   UNL A   1      37.091  21.160  25.507  1.00  0.00    -0.352 N 
ATOM     24  C   UNL A   1      38.428  21.256  25.814  1.00  0.00     0.251 C 
ATOM     25  H   UNL A   1      36.770  20.240  25.359  1.00  0.00     0.163 HD
ATOM     26  O   UNL A   1      39.135  20.268  25.615  1.00  0.00    -0.269 OA
BRANCH  24  27
ATOM     27  C   UNL A   1      39.039  22.493  26.372  1.00  0.00     0.039 A 
ATOM     28  C   UNL A   1      38.589  23.730  25.891  1.00  0.00     0.014 A 
ATOM     29  C   UNL A   1      40.109  22.468  27.270  1.00  0.00     0.014 A 
ATOM     30  C   UNL A   1      39.201  24.918  26.307  1.00  0.00     0.010 A 
ATOM     31  C   UNL A   1      40.652  23.659  27.761  1.00  0.00     0.010 A 
ATOM     32  C   UNL A   1      40.237  24.897  27.252  1.00  0.00    -0.014 A 
BRANCH  32  33
ATOM     33  C   UNL A   1      40.934  26.148  27.658  1.00  0.00     0.031 A 
ATOM     34  C   UNL A   1      42.361  26.399  27.233  1.00  0.00     0.074 A 
ATOM     35  C   UNL A   1      40.303  27.049  28.439  1.00  0.00     0.049 A 
ATOM     36  N   UNL A   1      43.128  27.433  27.475  1.00  0.00    -0.248 NA
ATOM     37  C   UNL A   1      43.026  25.338  26.458  1.00  0.00     0.031 C 
ATOM     38  C   UNL A   1      38.955  26.893  28.988  1.00  0.00     0.029 A 
ATOM     39  N   UNL A   1      40.716  28.269  28.916  1.00  0.00    -0.354 N 
ATOM     40  C   UNL A   1      44.367  27.130  26.920  1.00  0.00     0.074 A 
ATOM     41  C   UNL A   1      44.265  25.798  26.366  1.00  0.00     0.031 C 
ATOM     42  C   UNL A   1      38.645  27.982  29.710  1.00  0.00     0.029 A 
ATOM     43  C   UNL A   1      39.774  28.907  29.688  1.00  0.00     0.049 A 
ATOM     44  H   UNL A   1      41.602  28.650  28.721  1.00  0.00     0.167 HD
ATOM     45  C   UNL A   1      45.479  27.901  26.837  1.00  0.00     0.034 A 
ATOM     46  C   UNL A   1      39.810  30.109  30.298  1.00  0.00     0.034 A 
ATOM     47  C   UNL A   1      45.562  29.247  27.335  1.00  0.00     0.049 A 
ATOM     48  C   UNL A   1      41.025  30.981  30.122  1.00  0.00     0.074 A 
ATOM     49  C   UNL A   1      46.613  30.142  27.237  1.00  0.00     0.029 A 
ATOM     50  N   UNL A   1      44.546  29.897  28.019  1.00  0.00    -0.354 N 
ATOM     51  N   UNL A   1      42.130  30.734  29.459  1.00  0.00    -0.248 NA
ATOM     52  C   UNL A   1      40.979  32.316  30.734  1.00  0.00     0.031 C 
ATOM     53  C   UNL A   1      46.234  31.331  27.870  1.00  0.00     0.029 A 
ATOM     54  C   UNL A   1      44.941  31.184  28.343  1.00  0.00     0.049 A 
ATOM     55  H   UNL A   1      43.672  29.502  28.241  1.00  0.00     0.167 HD
ATOM     56  C   UNL A   1      42.890  31.896  29.538  1.00  0.00     0.074 A 
ATOM     57  C   UNL A   1      42.109  32.853  30.295  1.00  0.00     0.031 C 
ATOM     58  C   UNL A   1      44.127  32.145  29.042  1.00  0.00     0.034 A 
BRANCH  45  59
ATOM     59  C   UNL A   1      46.677  27.326  26.121  1.00  0.00     0.023 A 
ATOM     60  C   UNL A   1      46.759  27.427  24.716  1.00  0.00     0.012 A 
ATOM     61  C   UNL A   1      47.736  26.725  26.830  1.00  0.00     0.148 A 
ATOM     62  C   UNL A   1      47.851  26.904  24.026  1.00  0.00     0.002 A 
ATOM     63  C   UNL A   1      48.844  26.247  26.138  1.00  0.00     0.091 A 
ATOM     64  F   UNL A   1      47.636  26.618  28.162  1.00  0.00    -0.205 F 
ATOM     65  C   UNL A   1      48.897  26.323  24.736  1.00  0.00     0.022 A 
BRANCH  63  66
ATOM     66  S   UNL A   1      50.280  25.553  26.967  1.00  0.00     0.127 S 
ATOM     67  O   UNL A   1      51.192  25.337  25.846  1.00  0.00    -0.237 OA
ATOM     68  O   UNL A   1      50.670  26.637  27.869  1.00  0.00    -0.237 OA
ATOM     69  O   UNL A   1      49.811  24.348  27.637  1.00  0.00    -0.744 OA
ENDBRANCH  63  66
ENDBRANCH  45  59
BRANCH  46  70
ATOM     70  C   UNL A   1      38.615  30.604  31.039  1.00  0.00     0.023 A 
ATOM     71  C   UNL A   1      38.533  30.399  32.431  1.00  0.00     0.012 A 
ATOM     72  C   UNL A   1      37.580  31.302  30.386  1.00  0.00     0.148 A 
ATOM     73  C   UNL A   1      37.427  30.848  33.154  1.00  0.00     0.002 A 
ATOM     74  C   UNL A   1      36.508  31.795  31.122  1.00  0.00     0.091 A 
ATOM     75  F   UNL A   1      37.670  31.479  29.061  1.00  0.00    -0.205 F 
ATOM     76  C   UNL A   1      36.421  31.554  32.503  1.00  0.00     0.022 A 
BRANCH  74  77
ATOM     77  S   UNL A   1      35.236  32.830  30.388  1.00  0.00     0.127 S 
ATOM     78  O   UNL A   1      36.020  33.960  29.891  1.00  0.00    -0.237 OA
ATOM     79  O   UNL A   1      34.695  31.953  29.347  1.00  0.00    -0.237 OA
ATOM     80  O   UNL A   1      34.304  33.126  31.463  1.00  0.00    -0.744 OA
ENDBRANCH  74  77
ENDBRANCH  46  70
BRANCH  58  81
ATOM     81  C   UNL A   1      44.700  33.521  29.260  1.00  0.00     0.023 A 
ATOM     82  C   UNL A   1      45.544  33.765  30.361  1.00  0.00     0.012 A 
ATOM     83  C   UNL A   1      44.442  34.559  28.344  1.00  0.00     0.148 A 
ATOM     84  C   UNL A   1      46.090  35.031  30.569  1.00  0.00     0.002 A 
ATOM     85  C   UNL A   1      45.029  35.805  28.530  1.00  0.00     0.091 A 
ATOM     86  F   UNL A   1      43.619  34.316  27.313  1.00  0.00    -0.205 F 
ATOM     87  C   UNL A   1      45.841  36.047  29.648  1.00  0.00     0.022 A 
BRANCH  85  88
ATOM     88  S   UNL A   1      44.835  37.133  27.336  1.00  0.00     0.127 S 
ATOM     89  O   UNL A   1      45.054  38.316  28.166  1.00  0.00    -0.237 OA
ATOM     90  O   UNL A   1      45.906  36.855  26.377  1.00  0.00    -0.237 OA
ATOM     91  O   UNL A   1      43.491  36.981  26.793  1.00  0.00    -0.744 OA
ENDBRANCH  85  88
ENDBRANCH  58  81
ENDBRANCH  32  33
ENDBRANCH  24  27
ENDBRANCH  22  23
ENDBRANCH   1  22
TORSDOF 16
ENDMDL
MODEL 3
REMARK VINA RESULT:     -11.5      2.611      3.433
REMARK SMILES C=C[C@@H](C)Oc1cnc2ccccc2c1C(=O)NCCCNC(=O)c1ccc(-c2c3nc(c(-c4cccc(S(=O)(=O)[O-])c4F)c4ccc([nH]4)c(-c4cccc(S(=O)(=O)[O-])c4F)c4nc(c(-c5cccc(S(=O)(=O)[O-])c5F)c5ccc2[nH]5)C=C4)C=C3)cc1
REMARK SMILES IDX 20 1 19 2 18 3 16 4 17 5 15 7 6 8 7 9 8 10 14 11 9 12 13 13
REMARK SMILES IDX 10 14 12 15 11 16 5 17 3 18 4 19 2 20 1 21 21 22 22 23 23 24
REMARK SMILES IDX 24 26 25 27 26 28 87 29 27 30 86 31 28 32 29 33 30 34 80 35
REMARK SMILES IDX 31 36 85 37 79 38 81 39 32 40 84 41 78 42 77 43 33 45 65 46
REMARK SMILES IDX 45 47 64 48 46 49 49 50 63 51 82 52 47 53 48 54 62 56 83 57
REMARK SMILES IDX 50 58 34 59 35 60 43 61 36 62 38 63 44 64 37 65 39 66 40 67
REMARK SMILES IDX 41 68 42 69 66 70 67 71 75 72 68 73 70 74 76 75 69 76 71 77
REMARK SMILES IDX 72 78 73 79 74 80 51 81 52 82 60 83 53 84 55 85 61 86 54 87
REMARK SMILES IDX 56 88 57 89 58 90 59 91
REMARK H PARENT 18 6 22 25 81 44 49 55
REMARK Flexibility Score: inf
ROOT
ATOM      1  C   UNL A   1      33.224  28.110  27.087  1.00  0.00     0.042 C 
ENDROOT
BRANCH   1   2
ATOM      2  C   UNL A   1      31.712  28.373  27.186  1.00  0.00     0.118 C 
BRANCH   2   3
ATOM      3  N   UNL A   1      30.985  27.113  27.118  1.00  0.00    -0.352 N 
ATOM      4  C   UNL A   1      30.766  26.129  26.181  1.00  0.00     0.255 C 
ATOM      5  O   UNL A   1      29.891  25.325  26.521  1.00  0.00    -0.269 OA
ATOM      6  H   UNL A   1      30.530  26.912  27.967  1.00  0.00     0.163 HD
BRANCH   4   7
ATOM      7  C   UNL A   1      31.518  25.903  24.891  1.00  0.00     0.092 A 
ATOM      8  C   UNL A   1      30.917  26.425  23.723  1.00  0.00     0.151 A 
ATOM      9  C   UNL A   1      31.587  26.280  22.521  1.00  0.00     0.159 A 
ATOM     10  N   UNL A   1      32.692  25.539  22.348  1.00  0.00    -0.252 NA
ATOM     11  C   UNL A   1      32.791  25.261  24.749  1.00  0.00     0.017 A 
ATOM     12  C   UNL A   1      33.274  25.040  23.436  1.00  0.00     0.071 A 
ATOM     13  C   UNL A   1      33.668  24.877  25.784  1.00  0.00     0.011 A 
ATOM     14  C   UNL A   1      34.439  24.314  23.224  1.00  0.00     0.029 A 
ATOM     15  C   UNL A   1      34.828  24.129  25.569  1.00  0.00     0.001 A 
ATOM     16  C   UNL A   1      35.201  23.820  24.276  1.00  0.00     0.002 A 
BRANCH   8  17
ATOM     17  O   UNL A   1      29.773  27.176  23.762  1.00  0.00    -0.484 OA
BRANCH  17  18
ATOM     18  C   UNL A   1      29.784  28.499  23.198  1.00  0.00     0.192 C 
ATOM     19  C   UNL A   1      30.572  29.522  24.018  1.00  0.00     0.057 C 
BRANCH  18  20
ATOM     20  C   UNL A   1      28.392  28.988  22.861  1.00  0.00     0.009 C 
ATOM     21  C   UNL A   1      28.105  29.870  21.895  1.00  0.00     0.008 C 
ENDBRANCH  18  20
ENDBRANCH  17  18
ENDBRANCH   8  17
ENDBRANCH   4   7
ENDBRANCH   2   3
ENDBRANCH   1   2
BRANCH   1  22
ATOM     22  C   UNL A   1      33.980  29.006  26.115  1.00  0.00     0.118 C 
BRANCH  22  23
ATOM     23  N   UNL A   1      34.099  30.364  26.612  1.00  0.00    -0.352 N 
ATOM     24  C   UNL A   1      34.962  30.914  27.531  1.00  0.00     0.251 C 
ATOM     25  H   UNL A   1      33.453  31.000  26.226  1.00  0.00     0.163 HD
ATOM     26  O   UNL A   1      34.689  32.027  27.979  1.00  0.00    -0.269 OA
BRANCH  24  27
ATOM     27  C   UNL A   1      36.195  30.220  27.992  1.00  0.00     0.039 A 
ATOM     28  C   UNL A   1      36.172  29.590  29.244  1.00  0.00     0.014 A 
ATOM     29  C   UNL A   1      37.398  30.266  27.283  1.00  0.00     0.014 A 
ATOM     30  C   UNL A   1      37.334  29.013  29.770  1.00  0.00     0.010 A 
ATOM     31  C   UNL A   1      38.531  29.602  27.763  1.00  0.00     0.010 A 
ATOM     32  C   UNL A   1      38.527  29.008  29.032  1.00  0.00    -0.014 A 
BRANCH  32  33
ATOM     33  C   UNL A   1      39.783  28.449  29.604  1.00  0.00     0.031 A 
ATOM     34  C   UNL A   1      40.503  29.176  30.716  1.00  0.00     0.074 A 
ATOM     35  C   UNL A   1      40.303  27.309  29.107  1.00  0.00     0.049 A 
ATOM     36  N   UNL A   1      41.598  28.840  31.351  1.00  0.00    -0.248 NA
ATOM     37  C   UNL A   1      39.936  30.462  31.155  1.00  0.00     0.031 C 
ATOM     38  C   UNL A   1      39.754  26.552  27.981  1.00  0.00     0.029 A 
ATOM     39  N   UNL A   1      41.414  26.593  29.477  1.00  0.00    -0.354 N 
ATOM     40  C   UNL A   1      41.869  29.886  32.228  1.00  0.00     0.074 A 
ATOM     41  C   UNL A   1      40.849  30.888  32.015  1.00  0.00     0.031 C 
ATOM     42  C   UNL A   1      40.518  25.469  27.764  1.00  0.00     0.029 A 
ATOM     43  C   UNL A   1      41.618  25.461  28.723  1.00  0.00     0.049 A 
ATOM     44  H   UNL A   1      42.008  26.864  30.214  1.00  0.00     0.167 HD
ATOM     45  C   UNL A   1      42.849  29.990  33.158  1.00  0.00     0.034 A 
ATOM     46  C   UNL A   1      42.576  24.515  28.806  1.00  0.00     0.034 A 
ATOM     47  C   UNL A   1      43.828  28.967  33.412  1.00  0.00     0.049 A 
ATOM     48  C   UNL A   1      43.605  24.611  29.900  1.00  0.00     0.074 A 
ATOM     49  C   UNL A   1      44.817  28.938  34.379  1.00  0.00     0.029 A 
ATOM     50  N   UNL A   1      43.935  27.785  32.695  1.00  0.00    -0.354 N 
ATOM     51  N   UNL A   1      43.748  25.535  30.820  1.00  0.00    -0.248 NA
ATOM     52  C   UNL A   1      44.573  23.509  30.000  1.00  0.00     0.031 C 
ATOM     53  C   UNL A   1      45.527  27.739  34.241  1.00  0.00     0.029 A 
ATOM     54  C   UNL A   1      44.967  27.015  33.202  1.00  0.00     0.049 A 
ATOM     55  H   UNL A   1      43.361  27.530  31.937  1.00  0.00     0.167 HD
ATOM     56  C   UNL A   1      44.792  25.105  31.633  1.00  0.00     0.074 A 
ATOM     57  C   UNL A   1      45.229  23.827  31.107  1.00  0.00     0.031 C 
ATOM     58  C   UNL A   1      45.349  25.717  32.707  1.00  0.00     0.034 A 
BRANCH  45  59
ATOM     59  C   UNL A   1      42.868  31.229  34.019  1.00  0.00     0.023 A 
ATOM     60  C   UNL A   1      43.495  32.398  33.537  1.00  0.00     0.012 A 
ATOM     61  C   UNL A   1      42.236  31.256  35.278  1.00  0.00     0.148 A 
ATOM     62  C   UNL A   1      43.531  33.558  34.310  1.00  0.00     0.002 A 
ATOM     63  C   UNL A   1      42.236  32.432  36.023  1.00  0.00     0.091 A 
ATOM     64  F   UNL A   1      41.662  30.134  35.731  1.00  0.00    -0.205 F 
ATOM     65  C   UNL A   1      42.894  33.579  35.546  1.00  0.00     0.022 A 
BRANCH  63  66
ATOM     66  S   UNL A   1      41.376  32.585  37.593  1.00  0.00     0.127 S 
ATOM     67  O   UNL A   1      42.131  31.658  38.434  1.00  0.00    -0.237 OA
ATOM     68  O   UNL A   1      41.570  33.999  37.916  1.00  0.00    -0.237 OA
ATOM     69  O   UNL A   1      39.993  32.209  37.329  1.00  0.00    -0.744 OA
ENDBRANCH  63  66
ENDBRANCH  45  59
BRANCH  46  70
ATOM     70  C   UNL A   1      42.538  23.337  27.892  1.00  0.00     0.023 A 
ATOM     71  C   UNL A   1      41.515  22.380  28.041  1.00  0.00     0.012 A 
ATOM     72  C   UNL A   1      43.483  23.175  26.860  1.00  0.00     0.148 A 
ATOM     73  C   UNL A   1      41.452  21.266  27.205  1.00  0.00     0.002 A 
ATOM     74  C   UNL A   1      43.383  22.091  25.995  1.00  0.00     0.091 A 
ATOM     75  F   UNL A   1      44.456  24.089  26.740  1.00  0.00    -0.205 F 
ATOM     76  C   UNL A   1      42.378  21.126  26.176  1.00  0.00     0.022 A 
BRANCH  74  77
ATOM     77  S   UNL A   1      44.451  21.904  24.562  1.00  0.00     0.127 S 
ATOM     78  O   UNL A   1      44.289  20.485  24.251  1.00  0.00    -0.237 OA
ATOM     79  O   UNL A   1      43.828  22.817  23.600  1.00  0.00    -0.237 OA
ATOM     80  O   UNL A   1      45.773  22.313  25.004  1.00  0.00    -0.744 OA
ENDBRANCH  74  77
ENDBRANCH  46  70
BRANCH  58  81
ATOM     81  C   UNL A   1      46.462  24.995  33.419  1.00  0.00     0.023 A 
ATOM     82  C   UNL A   1      46.163  24.087  34.454  1.00  0.00     0.012 A 
ATOM     83  C   UNL A   1      47.803  25.178  33.027  1.00  0.00     0.148 A 
ATOM     84  C   UNL A   1      47.184  23.404  35.114  1.00  0.00     0.002 A 
ATOM     85  C   UNL A   1      48.810  24.457  33.657  1.00  0.00     0.091 A 
ATOM     86  F   UNL A   1      48.072  26.063  32.055  1.00  0.00    -0.205 F 
ATOM     87  C   UNL A   1      48.505  23.581  34.708  1.00  0.00     0.022 A 
BRANCH  85  88
ATOM     88  S   UNL A   1      50.523  24.558  33.125  1.00  0.00     0.127 S 
ATOM     89  O   UNL A   1      50.429  24.130  31.731  1.00  0.00    -0.237 OA
ATOM     90  O   UNL A   1      50.827  25.979  33.307  1.00  0.00    -0.237 OA
ATOM     91  O   UNL A   1      51.263  23.670  34.012  1.00  0.00    -0.744 OA
ENDBRANCH  85  88
ENDBRANCH  58  81
ENDBRANCH  32  33
ENDBRANCH  24  27
ENDBRANCH  22  23
ENDBRANCH   1  22
TORSDOF 16
ENDMDL
