MODEL 1
REMARK VINA RESULT:     -11.1      0.000      0.000
REMARK SMILES N#C/C(=C/c1cccn1-c1ccc(C(=O)NCCCNC(=O)c2ccc(-c3c4nc(c(-c5cccc(S(=O)(=O)[O-])c5F)c5ccc([nH]5)c(-c5cccc(S(=O)(=O)[O-])c5F)c5nc(c(-c6cccc(S(=O)(=O)[O-])c6F)c6ccc3[nH]6)C=C5)C=C4)cc2)cc1)C(=O)Nc1ccc(O)cc1
REMARK SMILES IDX 17 1 16 2 14 3 15 4 13 6 10 7 11 8 87 9 12 10 86 11 9 12
REMARK SMILES IDX 5 13 6 14 7 15 8 16 4 17 3 18 2 19 1 20 88 21 89 22 90 23
REMARK SMILES IDX 91 25 92 26 97 27 93 28 96 29 94 30 95 31 18 33 19 34 20 35
REMARK SMILES IDX 21 36 22 38 23 39 24 40 85 41 25 42 84 43 26 44 27 45 28 46
REMARK SMILES IDX 78 47 29 48 83 49 77 50 79 51 30 52 82 53 76 54 75 55 31 57
REMARK SMILES IDX 63 58 43 59 62 60 44 61 47 62 61 63 80 64 45 65 46 66 60 68
REMARK SMILES IDX 81 69 48 70 32 71 33 72 41 73 34 74 36 75 42 76 35 77 37 78
REMARK SMILES IDX 38 79 39 80 40 81 64 82 65 83 73 84 66 85 68 86 74 87 67 88
REMARK SMILES IDX 69 89 70 90 71 91 72 92 49 93 50 94 58 95 51 96 53 97 59 98
REMARK SMILES IDX 52 99 54 100 55 101 56 102 57 103
REMARK H PARENT 16 5 90 24 95 32 20 37 79 56 47 67
REMARK Flexibility Score: inf
ROOT
ATOM      1  C   UNL A   1      36.311  34.150  29.740  1.00  0.00     0.118 C 
ENDROOT
BRANCH   1   2
ATOM      2  N   UNL A   1      37.556  34.596  29.136  1.00  0.00    -0.352 N 
ATOM      3  C   UNL A   1      38.878  34.394  29.430  1.00  0.00     0.251 C 
ATOM      4  O   UNL A   1      39.717  34.912  28.693  1.00  0.00    -0.269 OA
ATOM      5  H   UNL A   1      37.419  35.167  28.345  1.00  0.00     0.163 HD
BRANCH   3   6
ATOM      6  C   UNL A   1      39.364  33.545  30.551  1.00  0.00     0.039 A 
ATOM      7  C   UNL A   1      40.420  32.074  32.740  1.00  0.00     0.046 A 
ATOM      8  C   UNL A   1      40.659  33.447  32.627  1.00  0.00     0.027 A 
ATOM      9  C   UNL A   1      39.650  31.458  31.746  1.00  0.00     0.027 A 
ATOM     10  C   UNL A   1      40.154  34.165  31.532  1.00  0.00     0.016 A 
ATOM     11  C   UNL A   1      39.069  32.199  30.711  1.00  0.00     0.016 A 
BRANCH   7  12
ATOM     12  N   UNL A   1      40.861  31.350  33.905  1.00  0.00    -0.317 N 
ATOM     13  C   UNL A   1      41.273  31.836  35.157  1.00  0.00     0.047 A 
ATOM     14  C   UNL A   1      41.691  30.762  35.925  1.00  0.00     0.028 A 
ATOM     15  C   UNL A   1      41.557  29.595  35.153  1.00  0.00     0.020 A 
ATOM     16  C   UNL A   1      41.030  29.973  33.941  1.00  0.00     0.092 A 
BRANCH  13  17
ATOM     17  C   UNL A   1      41.038  33.173  35.553  1.00  0.00     0.052 C 
ATOM     18  C   UNL A   1      40.047  33.683  36.325  1.00  0.00     0.119 C 
BRANCH  18  19
ATOM     19  C   UNL A   1      39.914  35.159  35.989  1.00  0.00     0.105 C 
ATOM     20  N   UNL A   1      39.804  36.384  35.709  1.00  0.00    -0.192 NA
ENDBRANCH  18  19
BRANCH  18  21
ATOM     21  C   UNL A   1      38.975  32.985  37.107  1.00  0.00     0.266 C 
ATOM     22  O   UNL A   1      39.277  32.544  38.222  1.00  0.00    -0.268 OA
ATOM     23  N   UNL A   1      37.650  32.888  36.755  1.00  0.00    -0.321 N 
ATOM     24  H   UNL A   1      37.078  32.676  37.526  1.00  0.00     0.170 HD
BRANCH  23  25
ATOM     25  C   UNL A   1      36.907  33.018  35.565  1.00  0.00     0.041 A 
ATOM     26  C   UNL A   1      37.228  32.156  34.505  1.00  0.00     0.030 A 
ATOM     27  C   UNL A   1      35.913  33.972  35.364  1.00  0.00     0.030 A 
ATOM     28  C   UNL A   1      36.438  32.114  33.349  1.00  0.00     0.048 A 
ATOM     29  C   UNL A   1      35.137  33.955  34.187  1.00  0.00     0.048 A 
ATOM     30  C   UNL A   1      35.366  32.982  33.220  1.00  0.00     0.115 A 
BRANCH  30  31
ATOM     31  O   UNL A   1      34.543  32.826  32.146  1.00  0.00    -0.508 OA
ATOM     32  H   UNL A   1      33.873  32.171  32.160  1.00  0.00     0.293 HD
ENDBRANCH  30  31
ENDBRANCH  23  25
ENDBRANCH  18  21
ENDBRANCH  13  17
ENDBRANCH   7  12
ENDBRANCH   3   6
ENDBRANCH   1   2
BRANCH   1  33
ATOM     33  C   UNL A   1      35.442  33.415  28.710  1.00  0.00     0.042 C 
BRANCH  33  34
ATOM     34  C   UNL A   1      36.260  32.359  27.963  1.00  0.00     0.118 C 
BRANCH  34  35
ATOM     35  N   UNL A   1      35.554  31.081  27.984  1.00  0.00    -0.352 N 
ATOM     36  C   UNL A   1      35.997  29.790  27.909  1.00  0.00     0.251 C 
ATOM     37  H   UNL A   1      34.577  31.165  28.070  1.00  0.00     0.163 HD
ATOM     38  O   UNL A   1      35.161  28.926  27.613  1.00  0.00    -0.269 OA
BRANCH  36  39
ATOM     39  C   UNL A   1      37.396  29.387  28.159  1.00  0.00     0.039 A 
ATOM     40  C   UNL A   1      37.710  28.901  29.441  1.00  0.00     0.014 A 
ATOM     41  C   UNL A   1      38.414  29.559  27.219  1.00  0.00     0.014 A 
ATOM     42  C   UNL A   1      39.013  28.530  29.753  1.00  0.00     0.010 A 
ATOM     43  C   UNL A   1      39.712  29.174  27.518  1.00  0.00     0.010 A 
ATOM     44  C   UNL A   1      40.004  28.637  28.773  1.00  0.00    -0.014 A 
BRANCH  44  45
ATOM     45  C   UNL A   1      41.312  27.983  28.982  1.00  0.00     0.031 A 
ATOM     46  C   UNL A   1      41.236  26.481  28.546  1.00  0.00     0.074 A 
ATOM     47  C   UNL A   1      42.303  28.792  29.481  1.00  0.00     0.049 A 
ATOM     48  N   UNL A   1      41.844  25.425  29.004  1.00  0.00    -0.248 NA
ATOM     49  C   UNL A   1      40.231  26.083  27.512  1.00  0.00     0.031 C 
ATOM     50  C   UNL A   1      42.158  30.241  29.787  1.00  0.00     0.029 A 
ATOM     51  N   UNL A   1      43.624  28.596  29.824  1.00  0.00    -0.354 N 
ATOM     52  C   UNL A   1      41.486  24.325  28.168  1.00  0.00     0.074 A 
ATOM     53  C   UNL A   1      40.382  24.762  27.380  1.00  0.00     0.031 C 
ATOM     54  C   UNL A   1      43.288  30.746  30.336  1.00  0.00     0.029 A 
ATOM     55  C   UNL A   1      44.287  29.699  30.431  1.00  0.00     0.049 A 
ATOM     56  H   UNL A   1      44.083  27.741  29.658  1.00  0.00     0.167 HD
ATOM     57  C   UNL A   1      42.236  23.182  28.060  1.00  0.00     0.034 A 
ATOM     58  C   UNL A   1      45.527  29.735  31.020  1.00  0.00     0.034 A 
ATOM     59  C   UNL A   1      43.391  23.323  28.878  1.00  0.00     0.049 A 
ATOM     60  C   UNL A   1      46.092  28.404  30.764  1.00  0.00     0.074 A 
ATOM     61  C   UNL A   1      43.603  23.242  30.226  1.00  0.00     0.029 A 
ATOM     62  N   UNL A   1      44.452  23.952  28.273  1.00  0.00    -0.354 N 
ATOM     63  N   UNL A   1      46.499  27.984  29.604  1.00  0.00    -0.248 NA
ATOM     64  C   UNL A   1      46.040  27.411  31.843  1.00  0.00     0.031 C 
ATOM     65  C   UNL A   1      44.549  24.264  30.450  1.00  0.00     0.029 A 
ATOM     66  C   UNL A   1      45.042  24.737  29.227  1.00  0.00     0.049 A 
ATOM     67  H   UNL A   1      44.733  23.858  27.335  1.00  0.00     0.167 HD
ATOM     68  C   UNL A   1      46.395  26.623  29.741  1.00  0.00     0.074 A 
ATOM     69  C   UNL A   1      46.441  26.345  31.160  1.00  0.00     0.031 C 
ATOM     70  C   UNL A   1      45.794  25.880  28.778  1.00  0.00     0.034 A 
BRANCH  57  71
ATOM     71  C   UNL A   1      42.274  21.993  27.116  1.00  0.00     0.023 A 
ATOM     72  C   UNL A   1      41.347  20.951  27.428  1.00  0.00     0.012 A 
ATOM     73  C   UNL A   1      43.309  21.674  26.222  1.00  0.00     0.148 A 
ATOM     74  C   UNL A   1      41.533  19.629  27.030  1.00  0.00     0.002 A 
ATOM     75  C   UNL A   1      43.457  20.353  25.773  1.00  0.00     0.091 A 
ATOM     76  F   UNL A   1      44.187  22.618  25.870  1.00  0.00    -0.205 F 
ATOM     77  C   UNL A   1      42.606  19.327  26.218  1.00  0.00     0.022 A 
BRANCH  75  78
ATOM     78  S   UNL A   1      44.735  19.842  24.618  1.00  0.00     0.127 S 
ATOM     79  O   UNL A   1      44.488  20.725  23.479  1.00  0.00    -0.237 OA
ATOM     80  O   UNL A   1      45.957  20.151  25.366  1.00  0.00    -0.237 OA
ATOM     81  O   UNL A   1      44.521  18.420  24.395  1.00  0.00    -0.744 OA
ENDBRANCH  75  78
ENDBRANCH  57  71
BRANCH  58  82
ATOM     82  C   UNL A   1      46.307  30.649  31.949  1.00  0.00     0.023 A 
ATOM     83  C   UNL A   1      47.620  31.084  31.725  1.00  0.00     0.012 A 
ATOM     84  C   UNL A   1      45.661  31.214  33.095  1.00  0.00     0.148 A 
ATOM     85  C   UNL A   1      48.197  32.108  32.513  1.00  0.00     0.002 A 
ATOM     86  C   UNL A   1      46.169  32.316  33.774  1.00  0.00     0.091 A 
ATOM     87  F   UNL A   1      44.547  30.650  33.575  1.00  0.00    -0.205 F 
ATOM     88  C   UNL A   1      47.453  32.764  33.494  1.00  0.00     0.022 A 
BRANCH  86  89
ATOM     89  S   UNL A   1      45.140  33.305  34.883  1.00  0.00     0.127 S 
ATOM     90  O   UNL A   1      44.763  32.335  35.910  1.00  0.00    -0.237 OA
ATOM     91  O   UNL A   1      46.086  34.329  35.323  1.00  0.00    -0.237 OA
ATOM     92  O   UNL A   1      44.039  33.813  34.074  1.00  0.00    -0.744 OA
ENDBRANCH  86  89
ENDBRANCH  58  82
BRANCH  70  93
ATOM     93  C   UNL A   1      45.768  26.511  27.383  1.00  0.00     0.023 A 
ATOM     94  C   UNL A   1      44.511  26.927  26.902  1.00  0.00     0.012 A 
ATOM     95  C   UNL A   1      46.866  26.631  26.494  1.00  0.00     0.148 A 
ATOM     96  C   UNL A   1      44.346  27.429  25.607  1.00  0.00     0.002 A 
ATOM     97  C   UNL A   1      46.701  27.120  25.191  1.00  0.00     0.091 A 
ATOM     98  F   UNL A   1      48.073  26.268  26.916  1.00  0.00    -0.205 F 
ATOM     99  C   UNL A   1      45.437  27.525  24.751  1.00  0.00     0.022 A 
BRANCH  97 100
ATOM    100  S   UNL A   1      48.029  27.212  23.964  1.00  0.00     0.127 S 
ATOM    101  O   UNL A   1      48.241  25.802  23.626  1.00  0.00    -0.237 OA
ATOM    102  O   UNL A   1      47.412  27.995  22.897  1.00  0.00    -0.237 OA
ATOM    103  O   UNL A   1      49.165  27.841  24.625  1.00  0.00    -0.744 OA
ENDBRANCH  97 100
ENDBRANCH  70  93
ENDBRANCH  44  45
ENDBRANCH  36  39
ENDBRANCH  34  35
ENDBRANCH  33  34
ENDBRANCH   1  33
TORSDOF 19
ENDMDL
MODEL 2
REMARK VINA RESULT:     -10.9      1.511      3.452
REMARK SMILES N#C/C(=C/c1cccn1-c1ccc(C(=O)NCCCNC(=O)c2ccc(-c3c4nc(c(-c5cccc(S(=O)(=O)[O-])c5F)c5ccc([nH]5)c(-c5cccc(S(=O)(=O)[O-])c5F)c5nc(c(-c6cccc(S(=O)(=O)[O-])c6F)c6ccc3[nH]6)C=C5)C=C4)cc2)cc1)C(=O)Nc1ccc(O)cc1
REMARK SMILES IDX 17 1 16 2 14 3 15 4 13 6 10 7 11 8 87 9 12 10 86 11 9 12
REMARK SMILES IDX 5 13 6 14 7 15 8 16 4 17 3 18 2 19 1 20 88 21 89 22 90 23
REMARK SMILES IDX 91 25 92 26 97 27 93 28 96 29 94 30 95 31 18 33 19 34 20 35
REMARK SMILES IDX 21 36 22 38 23 39 24 40 85 41 25 42 84 43 26 44 27 45 28 46
REMARK SMILES IDX 78 47 29 48 83 49 77 50 79 51 30 52 82 53 76 54 75 55 31 57
REMARK SMILES IDX 63 58 43 59 62 60 44 61 47 62 61 63 80 64 45 65 46 66 60 68
REMARK SMILES IDX 81 69 48 70 32 71 33 72 41 73 34 74 36 75 42 76 35 77 37 78
REMARK SMILES IDX 38 79 39 80 40 81 64 82 65 83 73 84 66 85 68 86 74 87 67 88
REMARK SMILES IDX 69 89 70 90 71 91 72 92 49 93 50 94 58 95 51 96 53 97 59 98
REMARK SMILES IDX 52 99 54 100 55 101 56 102 57 103
REMARK H PARENT 16 5 90 24 95 32 20 37 79 56 47 67
REMARK Flexibility Score: inf
ROOT
ATOM      1  C   UNL A   1      34.952  34.056  29.865  1.00  0.00     0.118 C 
ENDROOT
BRANCH   1   2
ATOM      2  N   UNL A   1      34.169  34.900  30.753  1.00  0.00    -0.352 N 
ATOM      3  C   UNL A   1      34.295  35.269  32.066  1.00  0.00     0.251 C 
ATOM      4  O   UNL A   1      33.450  36.033  32.532  1.00  0.00    -0.269 OA
ATOM      5  H   UNL A   1      33.378  35.291  30.316  1.00  0.00     0.163 HD
BRANCH   3   6
ATOM      6  C   UNL A   1      35.417  34.848  32.947  1.00  0.00     0.039 A 
ATOM      7  C   UNL A   1      37.432  34.057  34.788  1.00  0.00     0.046 A 
ATOM      8  C   UNL A   1      36.084  34.032  35.157  1.00  0.00     0.027 A 
ATOM      9  C   UNL A   1      37.749  34.482  33.492  1.00  0.00     0.027 A 
ATOM     10  C   UNL A   1      35.094  34.445  34.252  1.00  0.00     0.016 A 
ATOM     11  C   UNL A   1      36.750  34.798  32.564  1.00  0.00     0.016 A 
BRANCH   7  12
ATOM     12  N   UNL A   1      38.443  33.551  35.681  1.00  0.00    -0.317 N 
ATOM     13  C   UNL A   1      38.813  32.224  35.953  1.00  0.00     0.047 A 
ATOM     14  C   UNL A   1      39.773  32.236  36.952  1.00  0.00     0.028 A 
ATOM     15  C   UNL A   1      40.001  33.572  37.322  1.00  0.00     0.020 A 
ATOM     16  C   UNL A   1      39.201  34.353  36.523  1.00  0.00     0.092 A 
BRANCH  13  17
ATOM     17  C   UNL A   1      38.398  31.150  35.132  1.00  0.00     0.052 C 
ATOM     18  C   UNL A   1      38.921  30.705  33.963  1.00  0.00     0.119 C 
BRANCH  18  19
ATOM     19  C   UNL A   1      37.828  29.947  33.228  1.00  0.00     0.105 C 
ATOM     20  N   UNL A   1      36.921  29.318  32.618  1.00  0.00    -0.192 NA
ENDBRANCH  18  19
BRANCH  18  21
ATOM     21  C   UNL A   1      40.170  31.117  33.245  1.00  0.00     0.266 C 
ATOM     22  O   UNL A   1      40.100  32.096  32.493  1.00  0.00    -0.268 OA
ATOM     23  N   UNL A   1      41.424  30.584  33.431  1.00  0.00    -0.321 N 
ATOM     24  H   UNL A   1      42.133  31.186  33.108  1.00  0.00     0.170 HD
BRANCH  23  25
ATOM     25  C   UNL A   1      41.947  29.392  33.968  1.00  0.00     0.041 A 
ATOM     26  C   UNL A   1      42.345  29.410  35.314  1.00  0.00     0.030 A 
ATOM     27  C   UNL A   1      42.134  28.221  33.238  1.00  0.00     0.030 A 
ATOM     28  C   UNL A   1      42.728  28.230  35.965  1.00  0.00     0.048 A 
ATOM     29  C   UNL A   1      42.551  27.039  33.883  1.00  0.00     0.048 A 
ATOM     30  C   UNL A   1      42.780  27.042  35.254  1.00  0.00     0.115 A 
BRANCH  30  31
ATOM     31  O   UNL A   1      43.028  25.894  35.946  1.00  0.00    -0.508 OA
ATOM     32  H   UNL A   1      43.077  25.912  36.881  1.00  0.00     0.293 HD
ENDBRANCH  30  31
ENDBRANCH  23  25
ENDBRANCH  18  21
ENDBRANCH  13  17
ENDBRANCH   7  12
ENDBRANCH   3   6
ENDBRANCH   1   2
BRANCH   1  33
ATOM     33  C   UNL A   1      34.774  32.576  30.227  1.00  0.00     0.042 C 
BRANCH  33  34
ATOM     34  C   UNL A   1      35.935  31.739  29.683  1.00  0.00     0.118 C 
BRANCH  34  35
ATOM     35  N   UNL A   1      35.420  30.681  28.819  1.00  0.00    -0.352 N 
ATOM     36  C   UNL A   1      36.046  29.712  28.086  1.00  0.00     0.251 C 
ATOM     37  H   UNL A   1      34.437  30.662  28.752  1.00  0.00     0.163 HD
ATOM     38  O   UNL A   1      35.386  29.171  27.189  1.00  0.00    -0.269 OA
BRANCH  36  39
ATOM     39  C   UNL A   1      37.444  29.289  28.309  1.00  0.00     0.039 A 
ATOM     40  C   UNL A   1      37.750  28.695  29.546  1.00  0.00     0.014 A 
ATOM     41  C   UNL A   1      38.467  29.543  27.394  1.00  0.00     0.014 A 
ATOM     42  C   UNL A   1      39.052  28.299  29.833  1.00  0.00     0.010 A 
ATOM     43  C   UNL A   1      39.764  29.134  27.666  1.00  0.00     0.010 A 
ATOM     44  C   UNL A   1      40.049  28.491  28.872  1.00  0.00    -0.014 A 
BRANCH  44  45
ATOM     45  C   UNL A   1      41.356  27.822  29.032  1.00  0.00     0.031 A 
ATOM     46  C   UNL A   1      41.266  26.343  28.528  1.00  0.00     0.074 A 
ATOM     47  C   UNL A   1      42.358  28.602  29.554  1.00  0.00     0.049 A 
ATOM     48  N   UNL A   1      41.875  25.264  28.928  1.00  0.00    -0.248 NA
ATOM     49  C   UNL A   1      40.246  25.997  27.491  1.00  0.00     0.031 C 
ATOM     50  C   UNL A   1      42.225  30.036  29.929  1.00  0.00     0.029 A 
ATOM     51  N   UNL A   1      43.683  28.385  29.870  1.00  0.00    -0.354 N 
ATOM     52  C   UNL A   1      41.500  24.206  28.047  1.00  0.00     0.074 A 
ATOM     53  C   UNL A   1      40.387  24.683  27.295  1.00  0.00     0.031 C 
ATOM     54  C   UNL A   1      43.365  30.509  30.486  1.00  0.00     0.029 A 
ATOM     55  C   UNL A   1      44.359  29.454  30.518  1.00  0.00     0.049 A 
ATOM     56  H   UNL A   1      44.135  27.536  29.658  1.00  0.00     0.167 HD
ATOM     57  C   UNL A   1      42.242  23.065  27.875  1.00  0.00     0.034 A 
ATOM     58  C   UNL A   1      45.608  29.458  31.091  1.00  0.00     0.034 A 
ATOM     59  C   UNL A   1      43.410  23.163  28.682  1.00  0.00     0.049 A 
ATOM     60  C   UNL A   1      46.163  28.137  30.765  1.00  0.00     0.074 A 
ATOM     61  C   UNL A   1      43.640  23.018  30.022  1.00  0.00     0.029 A 
ATOM     62  N   UNL A   1      44.465  23.814  28.093  1.00  0.00    -0.354 N 
ATOM     63  N   UNL A   1      46.551  27.770  29.581  1.00  0.00    -0.248 NA
ATOM     64  C   UNL A   1      46.120  27.095  31.797  1.00  0.00     0.031 C 
ATOM     65  C   UNL A   1      44.594  24.023  30.280  1.00  0.00     0.029 A 
ATOM     66  C   UNL A   1      45.072  24.551  29.073  1.00  0.00     0.049 A 
ATOM     67  H   UNL A   1      44.733  23.762  27.147  1.00  0.00     0.167 HD
ATOM     68  C   UNL A   1      46.442  26.405  29.656  1.00  0.00     0.074 A 
ATOM     69  C   UNL A   1      46.506  26.060  31.060  1.00  0.00     0.031 C 
ATOM     70  C   UNL A   1      45.824  25.710  28.667  1.00  0.00     0.034 A 
BRANCH  57  71
ATOM     71  C   UNL A   1      42.261  21.921  26.876  1.00  0.00     0.023 A 
ATOM     72  C   UNL A   1      41.155  21.021  26.975  1.00  0.00     0.012 A 
ATOM     73  C   UNL A   1      43.371  21.483  26.135  1.00  0.00     0.148 A 
ATOM     74  C   UNL A   1      41.211  19.703  26.530  1.00  0.00     0.002 A 
ATOM     75  C   UNL A   1      43.398  20.173  25.633  1.00  0.00     0.091 A 
ATOM     76  F   UNL A   1      44.421  22.295  25.982  1.00  0.00    -0.205 F 
ATOM     77  C   UNL A   1      42.347  19.272  25.876  1.00  0.00     0.022 A 
BRANCH  75  78
ATOM     78  S   UNL A   1      44.759  19.518  24.660  1.00  0.00     0.127 S 
ATOM     79  O   UNL A   1      45.867  20.382  25.066  1.00  0.00    -0.237 OA
ATOM     80  O   UNL A   1      44.852  18.144  25.161  1.00  0.00    -0.237 OA
ATOM     81  O   UNL A   1      44.335  19.614  23.272  1.00  0.00    -0.744 OA
ENDBRANCH  75  78
ENDBRANCH  57  71
BRANCH  58  82
ATOM     82  C   UNL A   1      46.406  30.324  32.050  1.00  0.00     0.023 A 
ATOM     83  C   UNL A   1      47.438  31.192  31.673  1.00  0.00     0.012 A 
ATOM     84  C   UNL A   1      46.044  30.366  33.435  1.00  0.00     0.148 A 
ATOM     85  C   UNL A   1      47.979  32.128  32.586  1.00  0.00     0.002 A 
ATOM     86  C   UNL A   1      46.468  31.378  34.290  1.00  0.00     0.091 A 
ATOM     87  F   UNL A   1      45.306  29.381  33.959  1.00  0.00    -0.205 F 
ATOM     88  C   UNL A   1      47.453  32.262  33.872  1.00  0.00     0.022 A 
BRANCH  86  89
ATOM     89  S   UNL A   1      45.643  31.696  35.865  1.00  0.00     0.127 S 
ATOM     90  O   UNL A   1      46.554  32.639  36.512  1.00  0.00    -0.237 OA
ATOM     91  O   UNL A   1      44.376  32.275  35.419  1.00  0.00    -0.237 OA
ATOM     92  O   UNL A   1      45.513  30.404  36.528  1.00  0.00    -0.744 OA
ENDBRANCH  86  89
ENDBRANCH  58  82
BRANCH  70  93
ATOM     93  C   UNL A   1      45.782  26.406  27.304  1.00  0.00     0.023 A 
ATOM     94  C   UNL A   1      44.522  26.853  26.862  1.00  0.00     0.012 A 
ATOM     95  C   UNL A   1      46.868  26.559  26.405  1.00  0.00     0.148 A 
ATOM     96  C   UNL A   1      44.341  27.416  25.596  1.00  0.00     0.002 A 
ATOM     97  C   UNL A   1      46.686  27.109  25.128  1.00  0.00     0.091 A 
ATOM     98  F   UNL A   1      48.078  26.167  26.791  1.00  0.00    -0.205 F 
ATOM     99  C   UNL A   1      45.420  27.544  24.728  1.00  0.00     0.022 A 
BRANCH  97 100
ATOM    100  S   UNL A   1      47.996  27.248  23.887  1.00  0.00     0.127 S 
ATOM    101  O   UNL A   1      49.085  27.867  24.648  1.00  0.00    -0.237 OA
ATOM    102  O   UNL A   1      48.235  25.852  23.531  1.00  0.00    -0.237 OA
ATOM    103  O   UNL A   1      47.471  28.086  22.817  1.00  0.00    -0.744 OA
ENDBRANCH  97 100
ENDBRANCH  70  93
ENDBRANCH  44  45
ENDBRANCH  36  39
ENDBRANCH  34  35
ENDBRANCH  33  34
ENDBRANCH   1  33
TORSDOF 19
ENDMDL
MODEL 3
REMARK VINA RESULT:     -10.8      4.886     11.116
REMARK SMILES N#C/C(=C/c1cccn1-c1ccc(C(=O)NCCCNC(=O)c2ccc(-c3c4nc(c(-c5cccc(S(=O)(=O)[O-])c5F)c5ccc([nH]5)c(-c5cccc(S(=O)(=O)[O-])c5F)c5nc(c(-c6cccc(S(=O)(=O)[O-])c6F)c6ccc3[nH]6)C=C5)C=C4)cc2)cc1)C(=O)Nc1ccc(O)cc1
REMARK SMILES IDX 17 1 16 2 14 3 15 4 13 6 10 7 11 8 87 9 12 10 86 11 9 12
REMARK SMILES IDX 5 13 6 14 7 15 8 16 4 17 3 18 2 19 1 20 88 21 89 22 90 23
REMARK SMILES IDX 91 25 92 26 97 27 93 28 96 29 94 30 95 31 18 33 19 34 20 35
REMARK SMILES IDX 21 36 22 38 23 39 24 40 85 41 25 42 84 43 26 44 27 45 28 46
REMARK SMILES IDX 78 47 29 48 83 49 77 50 79 51 30 52 82 53 76 54 75 55 31 57
REMARK SMILES IDX 63 58 43 59 62 60 44 61 47 62 61 63 80 64 45 65 46 66 60 68
REMARK SMILES IDX 81 69 48 70 32 71 33 72 41 73 34 74 36 75 42 76 35 77 37 78
REMARK SMILES IDX 38 79 39 80 40 81 64 82 65 83 73 84 66 85 68 86 74 87 67 88
REMARK SMILES IDX 69 89 70 90 71 91 72 92 49 93 50 94 58 95 51 96 53 97 59 98
REMARK SMILES IDX 52 99 54 100 55 101 56 102 57 103
REMARK H PARENT 16 5 90 24 95 32 20 37 79 56 47 67
REMARK Flexibility Score: inf
ROOT
ATOM      1  C   UNL A   1      37.391  20.845  24.836  1.00  0.00     0.118 C 
ENDROOT
BRANCH   1   2
ATOM      2  N   UNL A   1      36.036  20.320  24.833  1.00  0.00    -0.352 N 
ATOM      3  C   UNL A   1      34.796  20.893  24.938  1.00  0.00     0.251 C 
ATOM      4  O   UNL A   1      33.814  20.154  24.880  1.00  0.00    -0.269 OA
ATOM      5  H   UNL A   1      36.001  19.341  24.732  1.00  0.00     0.163 HD
BRANCH   3   6
ATOM      6  C   UNL A   1      34.562  22.356  25.064  1.00  0.00     0.039 A 
ATOM      7  C   UNL A   1      34.173  25.171  25.109  1.00  0.00     0.046 A 
ATOM      8  C   UNL A   1      34.320  24.494  23.895  1.00  0.00     0.027 A 
ATOM      9  C   UNL A   1      34.224  24.418  26.289  1.00  0.00     0.027 A 
ATOM     10  C   UNL A   1      34.534  23.108  23.878  1.00  0.00     0.016 A 
ATOM     11  C   UNL A   1      34.339  23.025  26.260  1.00  0.00     0.016 A 
BRANCH   7  12
ATOM     12  N   UNL A   1      33.866  26.578  25.128  1.00  0.00    -0.317 N 
ATOM     13  C   UNL A   1      33.693  27.470  24.057  1.00  0.00     0.047 A 
ATOM     14  C   UNL A   1      33.501  28.741  24.576  1.00  0.00     0.028 A 
ATOM     15  C   UNL A   1      33.567  28.655  25.977  1.00  0.00     0.020 A 
ATOM     16  C   UNL A   1      33.765  27.331  26.290  1.00  0.00     0.092 A 
BRANCH  13  17
ATOM     17  C   UNL A   1      33.522  27.018  22.729  1.00  0.00     0.052 C 
ATOM     18  C   UNL A   1      32.379  26.780  22.038  1.00  0.00     0.119 C 
BRANCH  18  19
ATOM     19  C   UNL A   1      32.712  25.808  20.918  1.00  0.00     0.105 C 
ATOM     20  N   UNL A   1      32.988  25.002  19.988  1.00  0.00    -0.192 NA
ENDBRANCH  18  19
BRANCH  18  21
ATOM     21  C   UNL A   1      30.953  27.045  22.412  1.00  0.00     0.266 C 
ATOM     22  O   UNL A   1      30.368  27.960  21.819  1.00  0.00    -0.268 OA
ATOM     23  N   UNL A   1      30.187  26.292  23.270  1.00  0.00    -0.321 N 
ATOM     24  H   UNL A   1      29.224  26.445  23.136  1.00  0.00     0.170 HD
BRANCH  23  25
ATOM     25  C   UNL A   1      30.437  25.356  24.291  1.00  0.00     0.041 A 
ATOM     26  C   UNL A   1      30.423  25.824  25.615  1.00  0.00     0.030 A 
ATOM     27  C   UNL A   1      30.739  24.015  24.067  1.00  0.00     0.030 A 
ATOM     28  C   UNL A   1      30.507  24.933  26.693  1.00  0.00     0.048 A 
ATOM     29  C   UNL A   1      30.857  23.121  25.151  1.00  0.00     0.048 A 
ATOM     30  C   UNL A   1      30.673  23.579  26.450  1.00  0.00     0.115 A 
BRANCH  30  31
ATOM     31  O   UNL A   1      30.619  22.728  27.514  1.00  0.00    -0.508 OA
ATOM     32  H   UNL A   1      31.184  22.861  28.249  1.00  0.00     0.293 HD
ENDBRANCH  30  31
ENDBRANCH  23  25
ENDBRANCH  18  21
ENDBRANCH  13  17
ENDBRANCH   7  12
ENDBRANCH   3   6
ENDBRANCH   1   2
BRANCH   1  33
ATOM     33  C   UNL A   1      38.414  19.707  24.957  1.00  0.00     0.042 C 
BRANCH  33  34
ATOM     34  C   UNL A   1      39.312  19.910  26.179  1.00  0.00     0.118 C 
BRANCH  34  35
ATOM     35  N   UNL A   1      40.621  19.311  25.937  1.00  0.00    -0.352 N 
ATOM     36  C   UNL A   1      41.870  19.854  25.825  1.00  0.00     0.251 C 
ATOM     37  H   UNL A   1      40.600  18.331  25.835  1.00  0.00     0.163 HD
ATOM     38  O   UNL A   1      42.740  19.157  25.287  1.00  0.00    -0.269 OA
BRANCH  36  39
ATOM     39  C   UNL A   1      42.222  21.206  26.307  1.00  0.00     0.039 A 
ATOM     40  C   UNL A   1      42.269  21.405  27.698  1.00  0.00     0.014 A 
ATOM     41  C   UNL A   1      42.410  22.291  25.449  1.00  0.00     0.014 A 
ATOM     42  C   UNL A   1      42.567  22.659  28.220  1.00  0.00     0.010 A 
ATOM     43  C   UNL A   1      42.726  23.540  25.962  1.00  0.00     0.010 A 
ATOM     44  C   UNL A   1      42.829  23.716  27.343  1.00  0.00    -0.014 A 
BRANCH  44  45
ATOM     45  C   UNL A   1      43.428  24.963  27.860  1.00  0.00     0.031 A 
ATOM     46  C   UNL A   1      42.302  26.001  28.188  1.00  0.00     0.074 A 
ATOM     47  C   UNL A   1      44.797  24.962  27.962  1.00  0.00     0.049 A 
ATOM     48  N   UNL A   1      42.292  27.302  28.122  1.00  0.00    -0.248 NA
ATOM     49  C   UNL A   1      40.937  25.498  28.532  1.00  0.00     0.031 C 
ATOM     50  C   UNL A   1      45.684  23.815  27.627  1.00  0.00     0.029 A 
ATOM     51  N   UNL A   1      45.733  25.889  28.372  1.00  0.00    -0.354 N 
ATOM     52  C   UNL A   1      41.040  27.749  28.641  1.00  0.00     0.074 A 
ATOM     53  C   UNL A   1      40.204  26.598  28.724  1.00  0.00     0.031 C 
ATOM     54  C   UNL A   1      46.990  24.145  27.760  1.00  0.00     0.029 A 
ATOM     55  C   UNL A   1      47.096  25.520  28.209  1.00  0.00     0.049 A 
ATOM     56  H   UNL A   1      45.471  26.757  28.755  1.00  0.00     0.167 HD
ATOM     57  C   UNL A   1      40.832  29.013  29.130  1.00  0.00     0.034 A 
ATOM     58  C   UNL A   1      48.219  26.296  28.368  1.00  0.00     0.034 A 
ATOM     59  C   UNL A   1      42.056  29.733  29.049  1.00  0.00     0.049 A 
ATOM     60  C   UNL A   1      47.711  27.573  28.884  1.00  0.00     0.074 A 
ATOM     61  C   UNL A   1      42.731  30.327  28.018  1.00  0.00     0.029 A 
ATOM     62  N   UNL A   1      42.895  29.568  30.124  1.00  0.00    -0.354 N 
ATOM     63  N   UNL A   1      47.244  27.752  30.083  1.00  0.00    -0.248 NA
ATOM     64  C   UNL A   1      47.551  28.686  27.942  1.00  0.00     0.031 C 
ATOM     65  C   UNL A   1      44.077  30.045  28.330  1.00  0.00     0.029 A 
ATOM     66  C   UNL A   1      44.169  29.527  29.629  1.00  0.00     0.049 A 
ATOM     67  H   UNL A   1      42.629  29.491  31.069  1.00  0.00     0.167 HD
ATOM     68  C   UNL A   1      46.429  28.842  29.911  1.00  0.00     0.074 A 
ATOM     69  C   UNL A   1      46.904  29.534  28.732  1.00  0.00     0.031 C 
ATOM     70  C   UNL A   1      45.166  28.840  30.409  1.00  0.00     0.034 A 
BRANCH  57  71
ATOM     71  C   UNL A   1      39.752  29.698  29.949  1.00  0.00     0.023 A 
ATOM     72  C   UNL A   1      39.349  30.978  29.459  1.00  0.00     0.012 A 
ATOM     73  C   UNL A   1      39.375  29.374  31.263  1.00  0.00     0.148 A 
ATOM     74  C   UNL A   1      38.773  31.951  30.271  1.00  0.00     0.002 A 
ATOM     75  C   UNL A   1      38.737  30.337  32.060  1.00  0.00     0.091 A 
ATOM     76  F   UNL A   1      39.697  28.178  31.764  1.00  0.00    -0.205 F 
ATOM     77  C   UNL A   1      38.487  31.635  31.583  1.00  0.00     0.022 A 
BRANCH  75  78
ATOM     78  S   UNL A   1      38.199  30.022  33.746  1.00  0.00     0.127 S 
ATOM     79  O   UNL A   1      37.450  28.776  33.599  1.00  0.00    -0.237 OA
ATOM     80  O   UNL A   1      39.479  29.877  34.446  1.00  0.00    -0.237 OA
ATOM     81  O   UNL A   1      37.437  31.196  34.142  1.00  0.00    -0.744 OA
ENDBRANCH  75  78
ENDBRANCH  57  71
BRANCH  58  82
ATOM     82  C   UNL A   1      49.690  26.239  27.994  1.00  0.00     0.023 A 
ATOM     83  C   UNL A   1      50.180  26.150  26.685  1.00  0.00     0.012 A 
ATOM     84  C   UNL A   1      50.685  26.386  29.013  1.00  0.00     0.148 A 
ATOM     85  C   UNL A   1      51.555  26.329  26.403  1.00  0.00     0.002 A 
ATOM     86  C   UNL A   1      52.009  26.706  28.726  1.00  0.00     0.091 A 
ATOM     87  F   UNL A   1      50.364  26.171  30.293  1.00  0.00    -0.205 F 
ATOM     88  C   UNL A   1      52.456  26.667  27.413  1.00  0.00     0.022 A 
BRANCH  86  89
ATOM     89  S   UNL A   1      53.123  27.357  29.992  1.00  0.00     0.127 S 
ATOM     90  O   UNL A   1      53.601  26.139  30.645  1.00  0.00    -0.237 OA
ATOM     91  O   UNL A   1      54.120  28.048  29.175  1.00  0.00    -0.237 OA
ATOM     92  O   UNL A   1      52.320  28.237  30.831  1.00  0.00    -0.744 OA
ENDBRANCH  86  89
ENDBRANCH  58  82
BRANCH  70  93
ATOM     93  C   UNL A   1      44.923  27.882  31.578  1.00  0.00     0.023 A 
ATOM     94  C   UNL A   1      44.504  26.578  31.249  1.00  0.00     0.012 A 
ATOM     95  C   UNL A   1      44.989  28.204  32.958  1.00  0.00     0.148 A 
ATOM     96  C   UNL A   1      44.160  25.644  32.230  1.00  0.00     0.002 A 
ATOM     97  C   UNL A   1      44.629  27.275  33.943  1.00  0.00     0.091 A 
ATOM     98  F   UNL A   1      45.399  29.419  33.311  1.00  0.00    -0.205 F 
ATOM     99  C   UNL A   1      44.220  25.989  33.575  1.00  0.00     0.022 A 
BRANCH  97 100
ATOM    100  S   UNL A   1      44.590  27.638  35.715  1.00  0.00     0.127 S 
ATOM    101  O   UNL A   1      45.992  27.949  36.003  1.00  0.00    -0.237 OA
ATOM    102  O   UNL A   1      43.697  28.792  35.776  1.00  0.00    -0.237 OA
ATOM    103  O   UNL A   1      44.101  26.435  36.377  1.00  0.00    -0.744 OA
ENDBRANCH  97 100
ENDBRANCH  70  93
ENDBRANCH  44  45
ENDBRANCH  36  39
ENDBRANCH  34  35
ENDBRANCH  33  34
ENDBRANCH   1  33
TORSDOF 19
ENDMDL
