MODEL 1
REMARK VINA RESULT:     -11.9      0.000      0.000
REMARK SMILES CC1(C)[C@H](C(=O)NCCCNC(=O)c2ccc(-c3c4nc(c(-c5cccc(S(=O)(=O)[O-])c5F)c5ccc([nH]5)c(-c5cccc(S(=O)(=O)[O-])c5F)c5nc(c(-c6cccc(S(=O)(=O)[O-])c6F)c6ccc3[nH]6)C=C5)C=C4)cc2)[C@@H]1C(=O)Nc1ccon1
REMARK SMILES IDX 9 1 8 2 7 3 5 4 6 5 4 7 1 8 2 9 3 10 77 11 78 12 79 13 80 14
REMARK SMILES IDX 81 16 82 17 85 18 83 19 84 20 10 21 11 22 12 23 13 25 14 26
REMARK SMILES IDX 15 27 76 28 16 29 75 30 17 31 18 32 19 33 69 34 20 35 74 36
REMARK SMILES IDX 68 37 70 38 21 39 73 40 67 41 66 42 22 44 54 45 34 46 53 47
REMARK SMILES IDX 35 48 38 49 52 50 71 51 36 52 37 53 51 55 72 56 39 57 23 58
REMARK SMILES IDX 24 59 32 60 25 61 27 62 33 63 26 64 28 65 29 66 30 67 31 68
REMARK SMILES IDX 55 69 56 70 64 71 57 72 59 73 65 74 58 75 60 76 61 77 62 78
REMARK SMILES IDX 63 79 40 80 41 81 49 82 42 83 44 84 50 85 43 86 45 87 46 88
REMARK SMILES IDX 47 89 48 90
REMARK H PARENT 7 6 80 15 11 24 70 43 38 54
REMARK Flexibility Score: inf
ROOT
ATOM      1  C   UNL A   1      31.746  31.905  26.825  1.00  0.00     0.042 C 
ENDROOT
BRANCH   1   2
ATOM      2  C   UNL A   1      32.075  30.462  26.492  1.00  0.00     0.117 C 
BRANCH   2   3
ATOM      3  N   UNL A   1      31.973  30.194  25.072  1.00  0.00    -0.356 N 
ATOM      4  C   UNL A   1      31.421  29.214  24.307  1.00  0.00     0.224 C 
ATOM      5  O   UNL A   1      31.557  29.350  23.089  1.00  0.00    -0.275 OA
ATOM      6  H   UNL A   1      32.410  30.889  24.530  1.00  0.00     0.163 HD
BRANCH   4   7
ATOM      7  C   UNL A   1      30.614  28.048  24.747  1.00  0.00     0.098 C 
ATOM      8  C   UNL A   1      29.036  26.208  23.923  1.00  0.00     0.013 C 
ATOM      9  C   UNL A   1      30.464  26.694  24.087  1.00  0.00    -0.011 C 
ATOM     10  C   UNL A   1      31.318  26.334  22.898  1.00  0.00     0.013 C 
ATOM     11  C   UNL A   1      31.004  26.834  25.535  1.00  0.00     0.098 C 
BRANCH  11  12
ATOM     12  C   UNL A   1      32.361  26.419  25.948  1.00  0.00     0.230 C 
ATOM     13  O   UNL A   1      33.262  27.255  25.960  1.00  0.00    -0.274 OA
ATOM     14  N   UNL A   1      32.641  25.126  26.296  1.00  0.00    -0.308 N 
ATOM     15  H   UNL A   1      33.561  24.980  26.615  1.00  0.00     0.171 HD
BRANCH  14  16
ATOM     16  C   UNL A   1      31.859  23.996  26.279  1.00  0.00     0.175 A 
ATOM     17  C   UNL A   1      31.748  22.975  25.312  1.00  0.00     0.092 A 
ATOM     18  N   UNL A   1      31.045  23.755  27.314  1.00  0.00    -0.062 NA
ATOM     19  C   UNL A   1      30.722  22.186  25.765  1.00  0.00     0.233 A 
ATOM     20  O   UNL A   1      30.300  22.645  26.965  1.00  0.00    -0.363 OA
ENDBRANCH  14  16
ENDBRANCH  11  12
ENDBRANCH   4   7
ENDBRANCH   2   3
ENDBRANCH   1   2
BRANCH   1  21
ATOM     21  C   UNL A   1      32.967  32.697  27.262  1.00  0.00     0.118 C 
BRANCH  21  22
ATOM     22  N   UNL A   1      32.638  34.076  27.612  1.00  0.00    -0.352 N 
ATOM     23  C   UNL A   1      33.103  34.844  28.653  1.00  0.00     0.251 C 
ATOM     24  H   UNL A   1      31.989  34.519  27.018  1.00  0.00     0.163 HD
ATOM     25  O   UNL A   1      32.557  35.909  28.925  1.00  0.00    -0.269 OA
BRANCH  23  26
ATOM     26  C   UNL A   1      34.253  34.370  29.452  1.00  0.00     0.039 A 
ATOM     27  C   UNL A   1      34.029  33.749  30.682  1.00  0.00     0.014 A 
ATOM     28  C   UNL A   1      35.554  34.526  28.968  1.00  0.00     0.014 A 
ATOM     29  C   UNL A   1      35.109  33.216  31.391  1.00  0.00     0.010 A 
ATOM     30  C   UNL A   1      36.608  33.902  29.619  1.00  0.00     0.010 A 
ATOM     31  C   UNL A   1      36.403  33.254  30.846  1.00  0.00    -0.014 A 
BRANCH  31  32
ATOM     32  C   UNL A   1      37.570  32.652  31.540  1.00  0.00     0.031 A 
ATOM     33  C   UNL A   1      38.302  31.502  30.898  1.00  0.00     0.074 A 
ATOM     34  C   UNL A   1      37.900  33.060  32.782  1.00  0.00     0.049 A 
ATOM     35  N   UNL A   1      39.254  30.752  31.388  1.00  0.00    -0.248 NA
ATOM     36  C   UNL A   1      37.880  31.117  29.539  1.00  0.00     0.031 C 
ATOM     37  C   UNL A   1      37.219  34.111  33.541  1.00  0.00     0.029 A 
ATOM     38  N   UNL A   1      38.878  32.616  33.638  1.00  0.00    -0.354 N 
ATOM     39  C   UNL A   1      39.511  29.786  30.422  1.00  0.00     0.074 A 
ATOM     40  C   UNL A   1      38.586  30.015  29.334  1.00  0.00     0.031 C 
ATOM     41  C   UNL A   1      37.801  34.234  34.746  1.00  0.00     0.029 A 
ATOM     42  C   UNL A   1      38.874  33.252  34.858  1.00  0.00     0.049 A 
ATOM     43  H   UNL A   1      39.520  31.909  33.401  1.00  0.00     0.167 HD
ATOM     44  C   UNL A   1      40.458  28.818  30.419  1.00  0.00     0.034 A 
ATOM     45  C   UNL A   1      39.645  33.058  35.947  1.00  0.00     0.034 A 
ATOM     46  C   UNL A   1      41.419  28.638  31.471  1.00  0.00     0.049 A 
ATOM     47  C   UNL A   1      40.726  32.011  35.893  1.00  0.00     0.074 A 
ATOM     48  C   UNL A   1      42.469  27.741  31.531  1.00  0.00     0.029 A 
ATOM     49  N   UNL A   1      41.453  29.379  32.642  1.00  0.00    -0.354 N 
ATOM     50  N   UNL A   1      41.043  31.201  34.913  1.00  0.00    -0.248 NA
ATOM     51  C   UNL A   1      41.580  31.875  37.083  1.00  0.00     0.031 C 
ATOM     52  C   UNL A   1      43.137  27.933  32.744  1.00  0.00     0.029 A 
ATOM     53  C   UNL A   1      42.511  28.963  33.430  1.00  0.00     0.049 A 
ATOM     54  H   UNL A   1      40.819  30.093  32.878  1.00  0.00     0.167 HD
ATOM     55  C   UNL A   1      42.158  30.494  35.348  1.00  0.00     0.074 A 
ATOM     56  C   UNL A   1      42.471  30.982  36.675  1.00  0.00     0.031 C 
ATOM     57  C   UNL A   1      42.850  29.516  34.715  1.00  0.00     0.034 A 
BRANCH  44  58
ATOM     58  C   UNL A   1      40.550  27.930  29.206  1.00  0.00     0.023 A 
ATOM     59  C   UNL A   1      39.667  26.838  29.081  1.00  0.00     0.012 A 
ATOM     60  C   UNL A   1      41.455  28.209  28.164  1.00  0.00     0.148 A 
ATOM     61  C   UNL A   1      39.706  26.015  27.957  1.00  0.00     0.002 A 
ATOM     62  C   UNL A   1      41.457  27.411  27.024  1.00  0.00     0.091 A 
ATOM     63  F   UNL A   1      42.300  29.240  28.308  1.00  0.00    -0.205 F 
ATOM     64  C   UNL A   1      40.592  26.309  26.925  1.00  0.00     0.022 A 
BRANCH  62  65
ATOM     65  S   UNL A   1      42.503  27.749  25.604  1.00  0.00     0.127 S 
ATOM     66  O   UNL A   1      43.822  27.854  26.227  1.00  0.00    -0.237 OA
ATOM     67  O   UNL A   1      42.309  26.550  24.788  1.00  0.00    -0.237 OA
ATOM     68  O   UNL A   1      41.996  28.978  25.010  1.00  0.00    -0.744 OA
ENDBRANCH  62  65
ENDBRANCH  44  58
BRANCH  45  69
ATOM     69  C   UNL A   1      39.480  33.922  37.151  1.00  0.00     0.023 A 
ATOM     70  C   UNL A   1      39.963  35.245  37.119  1.00  0.00     0.012 A 
ATOM     71  C   UNL A   1      38.849  33.452  38.318  1.00  0.00     0.148 A 
ATOM     72  C   UNL A   1      39.859  36.070  38.239  1.00  0.00     0.002 A 
ATOM     73  C   UNL A   1      38.700  34.297  39.414  1.00  0.00     0.091 A 
ATOM     74  F   UNL A   1      38.407  32.186  38.339  1.00  0.00    -0.205 F 
ATOM     75  C   UNL A   1      39.220  35.600  39.383  1.00  0.00     0.022 A 
BRANCH  73  76
ATOM     76  S   UNL A   1      37.778  33.813  40.877  1.00  0.00     0.127 S 
ATOM     77  O   UNL A   1      36.624  33.134  40.295  1.00  0.00    -0.237 OA
ATOM     78  O   UNL A   1      38.728  32.935  41.563  1.00  0.00    -0.237 OA
ATOM     79  O   UNL A   1      37.498  35.055  41.586  1.00  0.00    -0.744 OA
ENDBRANCH  73  76
ENDBRANCH  45  69
BRANCH  57  80
ATOM     80  C   UNL A   1      44.052  28.940  35.416  1.00  0.00     0.023 A 
ATOM     81  C   UNL A   1      45.316  29.534  35.241  1.00  0.00     0.012 A 
ATOM     82  C   UNL A   1      43.906  27.867  36.318  1.00  0.00     0.148 A 
ATOM     83  C   UNL A   1      46.426  29.051  35.935  1.00  0.00     0.002 A 
ATOM     84  C   UNL A   1      45.005  27.423  37.042  1.00  0.00     0.091 A 
ATOM     85  F   UNL A   1      42.696  27.305  36.455  1.00  0.00    -0.205 F 
ATOM     86  C   UNL A   1      46.268  28.007  36.843  1.00  0.00     0.022 A 
BRANCH  84  87
ATOM     87  S   UNL A   1      44.877  26.151  38.303  1.00  0.00     0.127 S 
ATOM     88  O   UNL A   1      43.865  26.717  39.194  1.00  0.00    -0.237 OA
ATOM     89  O   UNL A   1      44.430  24.991  37.530  1.00  0.00    -0.237 OA
ATOM     90  O   UNL A   1      46.209  26.017  38.875  1.00  0.00    -0.744 OA
ENDBRANCH  84  87
ENDBRANCH  57  80
ENDBRANCH  31  32
ENDBRANCH  23  26
ENDBRANCH  21  22
ENDBRANCH   1  21
TORSDOF 15
ENDMDL
MODEL 2
REMARK VINA RESULT:     -11.8      2.501      3.641
REMARK SMILES CC1(C)[C@H](C(=O)NCCCNC(=O)c2ccc(-c3c4nc(c(-c5cccc(S(=O)(=O)[O-])c5F)c5ccc([nH]5)c(-c5cccc(S(=O)(=O)[O-])c5F)c5nc(c(-c6cccc(S(=O)(=O)[O-])c6F)c6ccc3[nH]6)C=C5)C=C4)cc2)[C@@H]1C(=O)Nc1ccon1
REMARK SMILES IDX 9 1 8 2 7 3 5 4 6 5 4 7 1 8 2 9 3 10 77 11 78 12 79 13 80 14
REMARK SMILES IDX 81 16 82 17 85 18 83 19 84 20 10 21 11 22 12 23 13 25 14 26
REMARK SMILES IDX 15 27 76 28 16 29 75 30 17 31 18 32 19 33 69 34 20 35 74 36
REMARK SMILES IDX 68 37 70 38 21 39 73 40 67 41 66 42 22 44 54 45 34 46 53 47
REMARK SMILES IDX 35 48 38 49 52 50 71 51 36 52 37 53 51 55 72 56 39 57 23 58
REMARK SMILES IDX 24 59 32 60 25 61 27 62 33 63 26 64 28 65 29 66 30 67 31 68
REMARK SMILES IDX 55 69 56 70 64 71 57 72 59 73 65 74 58 75 60 76 61 77 62 78
REMARK SMILES IDX 63 79 40 80 41 81 49 82 42 83 44 84 50 85 43 86 45 87 46 88
REMARK SMILES IDX 47 89 48 90
REMARK H PARENT 7 6 80 15 11 24 70 43 38 54
REMARK Flexibility Score: inf
ROOT
ATOM      1  C   UNL A   1      31.874  28.096  26.608  1.00  0.00     0.042 C 
ENDROOT
BRANCH   1   2
ATOM      2  C   UNL A   1      31.019  27.178  25.755  1.00  0.00     0.117 C 
BRANCH   2   3
ATOM      3  N   UNL A   1      30.641  25.973  26.463  1.00  0.00    -0.356 N 
ATOM      4  C   UNL A   1      30.917  24.646  26.336  1.00  0.00     0.224 C 
ATOM      5  O   UNL A   1      30.377  23.910  27.164  1.00  0.00    -0.275 OA
ATOM      6  H   UNL A   1      30.037  26.158  27.218  1.00  0.00     0.163 HD
BRANCH   4   7
ATOM      7  C   UNL A   1      31.840  23.986  25.380  1.00  0.00     0.098 C 
ATOM      8  C   UNL A   1      33.543  24.430  23.521  1.00  0.00     0.013 C 
ATOM      9  C   UNL A   1      33.257  24.367  25.010  1.00  0.00    -0.011 C 
ATOM     10  C   UNL A   1      33.965  25.465  25.763  1.00  0.00     0.013 C 
ATOM     11  C   UNL A   1      32.924  22.976  25.610  1.00  0.00     0.098 C 
BRANCH  11  12
ATOM     12  C   UNL A   1      33.452  22.492  26.903  1.00  0.00     0.230 C 
ATOM     13  O   UNL A   1      32.740  22.565  27.902  1.00  0.00    -0.274 OA
ATOM     14  N   UNL A   1      34.718  21.987  27.017  1.00  0.00    -0.308 N 
ATOM     15  H   UNL A   1      34.939  21.637  27.910  1.00  0.00     0.171 HD
BRANCH  14  16
ATOM     16  C   UNL A   1      35.735  21.883  26.099  1.00  0.00     0.175 A 
ATOM     17  C   UNL A   1      36.735  22.808  25.731  1.00  0.00     0.092 A 
ATOM     18  N   UNL A   1      35.865  20.747  25.401  1.00  0.00    -0.062 NA
ATOM     19  C   UNL A   1      37.381  22.213  24.679  1.00  0.00     0.233 A 
ATOM     20  O   UNL A   1      36.867  20.978  24.479  1.00  0.00    -0.363 OA
ENDBRANCH  14  16
ENDBRANCH  11  12
ENDBRANCH   4   7
ENDBRANCH   2   3
ENDBRANCH   1   2
BRANCH   1  21
ATOM     21  C   UNL A   1      32.646  29.111  25.782  1.00  0.00     0.118 C 
BRANCH  21  22
ATOM     22  N   UNL A   1      32.224  30.482  26.053  1.00  0.00    -0.352 N 
ATOM     23  C   UNL A   1      32.764  31.404  26.919  1.00  0.00     0.251 C 
ATOM     24  H   UNL A   1      31.440  30.791  25.544  1.00  0.00     0.163 HD
ATOM     25  O   UNL A   1      32.153  32.435  27.181  1.00  0.00    -0.269 OA
BRANCH  23  26
ATOM     26  C   UNL A   1      34.077  31.135  27.544  1.00  0.00     0.039 A 
ATOM     27  C   UNL A   1      34.967  32.189  27.760  1.00  0.00     0.014 A 
ATOM     28  C   UNL A   1      34.415  29.837  27.932  1.00  0.00     0.014 A 
ATOM     29  C   UNL A   1      36.166  31.949  28.436  1.00  0.00     0.010 A 
ATOM     30  C   UNL A   1      35.553  29.623  28.696  1.00  0.00     0.010 A 
ATOM     31  C   UNL A   1      36.451  30.671  28.944  1.00  0.00    -0.014 A 
BRANCH  31  32
ATOM     32  C   UNL A   1      37.688  30.385  29.715  1.00  0.00     0.031 A 
ATOM     33  C   UNL A   1      38.734  29.474  29.128  1.00  0.00     0.074 A 
ATOM     34  C   UNL A   1      37.819  30.850  30.974  1.00  0.00     0.049 A 
ATOM     35  N   UNL A   1      39.815  28.992  29.682  1.00  0.00    -0.248 NA
ATOM     36  C   UNL A   1      38.516  29.009  27.745  1.00  0.00     0.031 C 
ATOM     37  C   UNL A   1      36.839  31.676  31.683  1.00  0.00     0.029 A 
ATOM     38  N   UNL A   1      38.821  30.665  31.894  1.00  0.00    -0.354 N 
ATOM     39  C   UNL A   1      40.377  28.139  28.739  1.00  0.00     0.074 A 
ATOM     40  C   UNL A   1      39.497  28.133  27.593  1.00  0.00     0.031 C 
ATOM     41  C   UNL A   1      37.291  31.932  32.922  1.00  0.00     0.029 A 
ATOM     42  C   UNL A   1      38.573  31.262  33.109  1.00  0.00     0.049 A 
ATOM     43  H   UNL A   1      39.640  30.153  31.703  1.00  0.00     0.167 HD
ATOM     44  C   UNL A   1      41.542  27.452  28.803  1.00  0.00     0.034 A 
ATOM     45  C   UNL A   1      39.296  31.262  34.246  1.00  0.00     0.034 A 
ATOM     46  C   UNL A   1      42.447  27.515  29.916  1.00  0.00     0.049 A 
ATOM     47  C   UNL A   1      40.614  30.534  34.269  1.00  0.00     0.074 A 
ATOM     48  C   UNL A   1      43.689  26.922  30.049  1.00  0.00     0.029 A 
ATOM     49  N   UNL A   1      42.211  28.224  31.084  1.00  0.00    -0.354 N 
ATOM     50  N   UNL A   1      41.195  29.847  33.315  1.00  0.00    -0.248 NA
ATOM     51  C   UNL A   1      41.395  30.610  35.513  1.00  0.00     0.031 C 
ATOM     52  C   UNL A   1      44.204  27.267  31.303  1.00  0.00     0.029 A 
ATOM     53  C   UNL A   1      43.288  28.089  31.941  1.00  0.00     0.049 A 
ATOM     54  H   UNL A   1      41.399  28.746  31.275  1.00  0.00     0.167 HD
ATOM     55  C   UNL A   1      42.425  29.450  33.825  1.00  0.00     0.074 A 
ATOM     56  C   UNL A   1      42.513  29.986  35.168  1.00  0.00     0.031 C 
ATOM     57  C   UNL A   1      43.388  28.695  33.244  1.00  0.00     0.034 A 
BRANCH  44  58
ATOM     58  C   UNL A   1      41.941  26.634  27.602  1.00  0.00     0.023 A 
ATOM     59  C   UNL A   1      42.619  27.260  26.536  1.00  0.00     0.012 A 
ATOM     60  C   UNL A   1      41.708  25.247  27.554  1.00  0.00     0.148 A 
ATOM     61  C   UNL A   1      43.029  26.526  25.425  1.00  0.00     0.002 A 
ATOM     62  C   UNL A   1      42.161  24.512  26.463  1.00  0.00     0.091 A 
ATOM     63  F   UNL A   1      41.046  24.673  28.569  1.00  0.00    -0.205 F 
ATOM     64  C   UNL A   1      42.811  25.151  25.395  1.00  0.00     0.022 A 
BRANCH  62  65
ATOM     65  S   UNL A   1      42.001  22.726  26.361  1.00  0.00     0.127 S 
ATOM     66  O   UNL A   1      42.714  22.296  27.563  1.00  0.00    -0.237 OA
ATOM     67  O   UNL A   1      40.550  22.545  26.416  1.00  0.00    -0.237 OA
ATOM     68  O   UNL A   1      42.616  22.336  25.100  1.00  0.00    -0.744 OA
ENDBRANCH  62  65
ENDBRANCH  44  58
BRANCH  45  69
ATOM     69  C   UNL A   1      38.834  32.038  35.433  1.00  0.00     0.023 A 
ATOM     70  C   UNL A   1      38.992  33.438  35.443  1.00  0.00     0.012 A 
ATOM     71  C   UNL A   1      38.239  31.408  36.543  1.00  0.00     0.148 A 
ATOM     72  C   UNL A   1      38.604  34.192  36.552  1.00  0.00     0.002 A 
ATOM     73  C   UNL A   1      37.806  32.171  37.623  1.00  0.00     0.091 A 
ATOM     74  F   UNL A   1      38.109  30.074  36.525  1.00  0.00    -0.205 F 
ATOM     75  C   UNL A   1      38.004  33.561  37.637  1.00  0.00     0.022 A 
BRANCH  73  76
ATOM     76  S   UNL A   1      36.909  31.454  39.003  1.00  0.00     0.127 S 
ATOM     77  O   UNL A   1      37.851  31.640  40.103  1.00  0.00    -0.237 OA
ATOM     78  O   UNL A   1      35.714  32.297  39.066  1.00  0.00    -0.237 OA
ATOM     79  O   UNL A   1      36.643  30.074  38.617  1.00  0.00    -0.744 OA
ENDBRANCH  73  76
ENDBRANCH  45  69
BRANCH  57  80
ATOM     80  C   UNL A   1      44.650  28.444  34.024  1.00  0.00     0.023 A 
ATOM     81  C   UNL A   1      45.716  29.360  33.947  1.00  0.00     0.012 A 
ATOM     82  C   UNL A   1      44.739  27.346  34.904  1.00  0.00     0.148 A 
ATOM     83  C   UNL A   1      46.865  29.173  34.714  1.00  0.00     0.002 A 
ATOM     84  C   UNL A   1      45.866  27.193  35.701  1.00  0.00     0.091 A 
ATOM     85  F   UNL A   1      43.719  26.476  34.948  1.00  0.00    -0.205 F 
ATOM     86  C   UNL A   1      46.935  28.100  35.599  1.00  0.00     0.022 A 
BRANCH  84  87
ATOM     87  S   UNL A   1      46.002  25.898  36.938  1.00  0.00     0.127 S 
ATOM     88  O   UNL A   1      46.005  24.694  36.109  1.00  0.00    -0.237 OA
ATOM     89  O   UNL A   1      47.284  26.207  37.572  1.00  0.00    -0.237 OA
ATOM     90  O   UNL A   1      44.845  26.053  37.810  1.00  0.00    -0.744 OA
ENDBRANCH  84  87
ENDBRANCH  57  80
ENDBRANCH  31  32
ENDBRANCH  23  26
ENDBRANCH  21  22
ENDBRANCH   1  21
TORSDOF 15
ENDMDL
MODEL 3
REMARK VINA RESULT:     -11.8      2.759      3.899
REMARK SMILES CC1(C)[C@H](C(=O)NCCCNC(=O)c2ccc(-c3c4nc(c(-c5cccc(S(=O)(=O)[O-])c5F)c5ccc([nH]5)c(-c5cccc(S(=O)(=O)[O-])c5F)c5nc(c(-c6cccc(S(=O)(=O)[O-])c6F)c6ccc3[nH]6)C=C5)C=C4)cc2)[C@@H]1C(=O)Nc1ccon1
REMARK SMILES IDX 9 1 8 2 7 3 5 4 6 5 4 7 1 8 2 9 3 10 77 11 78 12 79 13 80 14
REMARK SMILES IDX 81 16 82 17 85 18 83 19 84 20 10 21 11 22 12 23 13 25 14 26
REMARK SMILES IDX 15 27 76 28 16 29 75 30 17 31 18 32 19 33 69 34 20 35 74 36
REMARK SMILES IDX 68 37 70 38 21 39 73 40 67 41 66 42 22 44 54 45 34 46 53 47
REMARK SMILES IDX 35 48 38 49 52 50 71 51 36 52 37 53 51 55 72 56 39 57 23 58
REMARK SMILES IDX 24 59 32 60 25 61 27 62 33 63 26 64 28 65 29 66 30 67 31 68
REMARK SMILES IDX 55 69 56 70 64 71 57 72 59 73 65 74 58 75 60 76 61 77 62 78
REMARK SMILES IDX 63 79 40 80 41 81 49 82 42 83 44 84 50 85 43 86 45 87 46 88
REMARK SMILES IDX 47 89 48 90
REMARK H PARENT 7 6 80 15 11 24 70 43 38 54
REMARK Flexibility Score: inf
ROOT
ATOM      1  C   UNL A   1      31.735  28.133  26.729  1.00  0.00     0.042 C 
ENDROOT
BRANCH   1   2
ATOM      2  C   UNL A   1      31.198  27.057  25.804  1.00  0.00     0.117 C 
BRANCH   2   3
ATOM      3  N   UNL A   1      30.799  25.868  26.528  1.00  0.00    -0.356 N 
ATOM      4  C   UNL A   1      31.040  24.534  26.410  1.00  0.00     0.224 C 
ATOM      5  O   UNL A   1      30.492  23.818  27.251  1.00  0.00    -0.275 OA
ATOM      6  H   UNL A   1      30.210  26.075  27.288  1.00  0.00     0.163 HD
BRANCH   4   7
ATOM      7  C   UNL A   1      31.935  23.841  25.449  1.00  0.00     0.098 C 
ATOM      8  C   UNL A   1      33.563  24.222  23.511  1.00  0.00     0.013 C 
ATOM      9  C   UNL A   1      33.332  24.220  25.010  1.00  0.00    -0.011 C 
ATOM     10  C   UNL A   1      34.055  25.356  25.688  1.00  0.00     0.013 C 
ATOM     11  C   UNL A   1      33.037  22.853  25.681  1.00  0.00     0.098 C 
BRANCH  11  12
ATOM     12  C   UNL A   1      33.618  22.430  26.972  1.00  0.00     0.230 C 
ATOM     13  O   UNL A   1      32.944  22.544  27.995  1.00  0.00    -0.274 OA
ATOM     14  N   UNL A   1      34.891  21.938  27.060  1.00  0.00    -0.308 N 
ATOM     15  H   UNL A   1      35.148  21.629  27.958  1.00  0.00     0.171 HD
BRANCH  14  16
ATOM     16  C   UNL A   1      35.873  21.798  26.108  1.00  0.00     0.175 A 
ATOM     17  C   UNL A   1      36.195  20.703  25.279  1.00  0.00     0.092 A 
ATOM     18  N   UNL A   1      36.697  22.826  25.871  1.00  0.00    -0.062 NA
ATOM     19  C   UNL A   1      37.342  21.087  24.635  1.00  0.00     0.233 A 
ATOM     20  O   UNL A   1      37.646  22.359  24.982  1.00  0.00    -0.363 OA
ENDBRANCH  14  16
ENDBRANCH  11  12
ENDBRANCH   4   7
ENDBRANCH   2   3
ENDBRANCH   1   2
BRANCH   1  21
ATOM     21  C   UNL A   1      32.713  29.066  26.035  1.00  0.00     0.118 C 
BRANCH  21  22
ATOM     22  N   UNL A   1      32.377  30.472  26.237  1.00  0.00    -0.352 N 
ATOM     23  C   UNL A   1      32.998  31.411  27.029  1.00  0.00     0.251 C 
ATOM     24  H   UNL A   1      31.594  30.795  25.736  1.00  0.00     0.163 HD
ATOM     25  O   UNL A   1      32.453  32.488  27.248  1.00  0.00    -0.269 OA
BRANCH  23  26
ATOM     26  C   UNL A   1      34.315  31.104  27.626  1.00  0.00     0.039 A 
ATOM     27  C   UNL A   1      35.275  32.112  27.735  1.00  0.00     0.014 A 
ATOM     28  C   UNL A   1      34.589  29.817  28.096  1.00  0.00     0.014 A 
ATOM     29  C   UNL A   1      36.482  31.845  28.385  1.00  0.00     0.010 A 
ATOM     30  C   UNL A   1      35.740  29.585  28.834  1.00  0.00     0.010 A 
ATOM     31  C   UNL A   1      36.709  30.590  28.974  1.00  0.00    -0.014 A 
BRANCH  31  32
ATOM     32  C   UNL A   1      37.955  30.281  29.722  1.00  0.00     0.031 A 
ATOM     33  C   UNL A   1      38.956  29.324  29.130  1.00  0.00     0.074 A 
ATOM     34  C   UNL A   1      38.132  30.769  30.966  1.00  0.00     0.049 A 
ATOM     35  N   UNL A   1      40.035  28.820  29.669  1.00  0.00    -0.248 NA
ATOM     36  C   UNL A   1      38.688  28.836  27.764  1.00  0.00     0.031 C 
ATOM     37  C   UNL A   1      37.198  31.642  31.679  1.00  0.00     0.029 A 
ATOM     38  N   UNL A   1      39.151  30.573  31.865  1.00  0.00    -0.354 N 
ATOM     39  C   UNL A   1      40.546  27.928  28.732  1.00  0.00     0.074 A 
ATOM     40  C   UNL A   1      39.637  27.925  27.608  1.00  0.00     0.031 C 
ATOM     41  C   UNL A   1      37.688  31.911  32.900  1.00  0.00     0.029 A 
ATOM     42  C   UNL A   1      38.953  31.204  33.072  1.00  0.00     0.049 A 
ATOM     43  H   UNL A   1      39.948  30.030  31.666  1.00  0.00     0.167 HD
ATOM     44  C   UNL A   1      41.689  27.205  28.783  1.00  0.00     0.034 A 
ATOM     45  C   UNL A   1      39.704  31.206  34.190  1.00  0.00     0.034 A 
ATOM     46  C   UNL A   1      42.624  27.264  29.872  1.00  0.00     0.049 A 
ATOM     47  C   UNL A   1      40.998  30.437  34.198  1.00  0.00     0.074 A 
ATOM     48  C   UNL A   1      43.849  26.633  29.989  1.00  0.00     0.029 A 
ATOM     49  N   UNL A   1      42.440  28.005  31.028  1.00  0.00    -0.354 N 
ATOM     50  N   UNL A   1      41.532  29.710  33.245  1.00  0.00    -0.248 NA
ATOM     51  C   UNL A   1      41.812  30.515  35.420  1.00  0.00     0.031 C 
ATOM     52  C   UNL A   1      44.406  26.989  31.221  1.00  0.00     0.029 A 
ATOM     53  C   UNL A   1      43.533  27.855  31.862  1.00  0.00     0.049 A 
ATOM     54  H   UNL A   1      41.650  28.557  31.227  1.00  0.00     0.167 HD
ATOM     55  C   UNL A   1      42.761  29.285  33.735  1.00  0.00     0.074 A 
ATOM     56  C   UNL A   1      42.901  29.847  35.062  1.00  0.00     0.031 C 
ATOM     57  C   UNL A   1      43.685  28.486  33.147  1.00  0.00     0.034 A 
BRANCH  44  58
ATOM     58  C   UNL A   1      42.032  26.348  27.593  1.00  0.00     0.023 A 
ATOM     59  C   UNL A   1      42.677  26.934  26.483  1.00  0.00     0.012 A 
ATOM     60  C   UNL A   1      41.779  24.963  27.593  1.00  0.00     0.148 A 
ATOM     61  C   UNL A   1      43.034  26.163  25.379  1.00  0.00     0.002 A 
ATOM     62  C   UNL A   1      42.181  24.192  26.507  1.00  0.00     0.091 A 
ATOM     63  F   UNL A   1      41.149  24.427  28.648  1.00  0.00    -0.205 F 
ATOM     64  C   UNL A   1      42.797  24.791  25.397  1.00  0.00     0.022 A 
BRANCH  62  65
ATOM     65  S   UNL A   1      41.994  22.406  26.462  1.00  0.00     0.127 S 
ATOM     66  O   UNL A   1      40.539  22.262  26.448  1.00  0.00    -0.237 OA
ATOM     67  O   UNL A   1      42.652  22.060  25.202  1.00  0.00    -0.237 OA
ATOM     68  O   UNL A   1      42.658  21.899  27.655  1.00  0.00    -0.744 OA
ENDBRANCH  62  65
ENDBRANCH  44  58
BRANCH  45  69
ATOM     69  C   UNL A   1      39.297  32.023  35.370  1.00  0.00     0.023 A 
ATOM     70  C   UNL A   1      38.422  31.465  36.324  1.00  0.00     0.012 A 
ATOM     71  C   UNL A   1      39.768  33.336  35.559  1.00  0.00     0.148 A 
ATOM     72  C   UNL A   1      37.992  32.212  37.421  1.00  0.00     0.002 A 
ATOM     73  C   UNL A   1      39.378  34.057  36.683  1.00  0.00     0.091 A 
ATOM     74  F   UNL A   1      40.587  33.859  34.636  1.00  0.00    -0.205 F 
ATOM     75  C   UNL A   1      38.476  33.504  37.606  1.00  0.00     0.022 A 
BRANCH  73  76
ATOM     76  S   UNL A   1      40.052  35.678  37.063  1.00  0.00     0.127 S 
ATOM     77  O   UNL A   1      39.648  36.453  35.894  1.00  0.00    -0.237 OA
ATOM     78  O   UNL A   1      39.353  36.020  38.302  1.00  0.00    -0.237 OA
ATOM     79  O   UNL A   1      41.486  35.471  37.227  1.00  0.00    -0.744 OA
ENDBRANCH  73  76
ENDBRANCH  45  69
BRANCH  57  80
ATOM     80  C   UNL A   1      44.957  28.211  33.903  1.00  0.00     0.023 A 
ATOM     81  C   UNL A   1      46.047  29.096  33.786  1.00  0.00     0.012 A 
ATOM     82  C   UNL A   1      45.037  27.125  34.798  1.00  0.00     0.148 A 
ATOM     83  C   UNL A   1      47.208  28.889  34.530  1.00  0.00     0.002 A 
ATOM     84  C   UNL A   1      46.178  26.953  35.571  1.00  0.00     0.091 A 
ATOM     85  F   UNL A   1      43.994  26.285  34.879  1.00  0.00    -0.205 F 
ATOM     86  C   UNL A   1      47.268  27.828  35.430  1.00  0.00     0.022 A 
BRANCH  84  87
ATOM     87  S   UNL A   1      46.306  25.674  36.825  1.00  0.00     0.127 S 
ATOM     88  O   UNL A   1      47.632  25.936  37.383  1.00  0.00    -0.237 OA
ATOM     89  O   UNL A   1      45.193  26.001  37.717  1.00  0.00    -0.237 OA
ATOM     90  O   UNL A   1      46.164  24.406  36.122  1.00  0.00    -0.744 OA
ENDBRANCH  84  87
ENDBRANCH  57  80
ENDBRANCH  31  32
ENDBRANCH  23  26
ENDBRANCH  21  22
ENDBRANCH   1  21
TORSDOF 15
ENDMDL
