MODEL 1
REMARK VINA RESULT:     -12.9      0.000      0.000
REMARK SMILES CN1C(=O)C[C@@H](C(=O)NCCCNC(=O)c2ccc(-c3c4nc(c(-c5cccc(S(=O)(=O)[O-])c5F)c5ccc([nH]5)c(-c5cccc(S(=O)(=O)[O-])c5F)c5nc(c(-c6cccc(S(=O)(=O)[O-])c6F)c6ccc3[nH]6)C=C5)C=C4)cc2)C12CC[NH+](CCSc1ccccc1)CC2
REMARK SMILES IDX 10 1 9 2 7 3 8 4 6 6 1 7 2 8 3 9 79 10 4 11 5 12 80 13 93 14
REMARK SMILES IDX 81 15 92 16 82 17 83 19 84 20 85 21 86 22 87 23 91 24 88 25
REMARK SMILES IDX 90 26 89 27 11 28 12 29 13 30 14 31 15 33 16 34 17 35 78 36
REMARK SMILES IDX 18 37 77 38 19 39 20 40 21 41 71 42 22 43 76 44 70 45 72 46
REMARK SMILES IDX 23 47 75 48 69 49 68 50 24 52 56 53 36 54 55 55 37 56 40 57
REMARK SMILES IDX 54 58 73 59 38 60 39 61 53 63 74 64 41 65 25 66 26 67 34 68
REMARK SMILES IDX 27 69 29 70 35 71 28 72 30 73 31 74 32 75 33 76 57 77 58 78
REMARK SMILES IDX 66 79 59 80 61 81 67 82 60 83 62 84 63 85 64 86 65 87 42 88
REMARK SMILES IDX 43 89 51 90 44 91 46 92 52 93 45 94 47 95 48 96 49 97 50 98
REMARK H PARENT 9 5 82 18 13 32 72 51 40 62
REMARK Flexibility Score: inf
ROOT
ATOM      1  C   UNL A   1      31.731  30.782  26.384  1.00  0.00     0.117 C 
ENDROOT
BRANCH   1   2
ATOM      2  N   UNL A   1      30.965  30.402  25.214  1.00  0.00    -0.356 N 
ATOM      3  C   UNL A   1      31.195  29.488  24.247  1.00  0.00     0.226 C 
ATOM      4  O   UNL A   1      30.504  29.574  23.226  1.00  0.00    -0.275 OA
ATOM      5  H   UNL A   1      30.121  30.899  25.105  1.00  0.00     0.163 HD
BRANCH   3   6
ATOM      6  C   UNL A   1      32.197  28.362  24.368  1.00  0.00     0.114 C 
ATOM      7  C   UNL A   1      31.953  25.445  22.001  1.00  0.00     0.147 C 
ATOM      8  N   UNL A   1      32.236  26.641  22.783  1.00  0.00    -0.339 N 
ATOM      9  C   UNL A   1      33.304  27.464  22.451  1.00  0.00     0.223 C 
ATOM     10  C   UNL A   1      31.765  26.882  24.161  1.00  0.00     0.065 C 
ATOM     11  O   UNL A   1      34.028  27.366  21.463  1.00  0.00    -0.275 OA
ATOM     12  C   UNL A   1      33.459  28.521  23.512  1.00  0.00     0.116 C 
ATOM     13  C   UNL A   1      30.280  26.456  24.442  1.00  0.00     0.091 C 
ATOM     14  C   UNL A   1      32.664  26.098  25.110  1.00  0.00     0.091 C 
ATOM     15  C   UNL A   1      29.950  25.624  25.743  1.00  0.00     0.264 C 
ATOM     16  C   UNL A   1      32.083  26.203  26.510  1.00  0.00     0.264 C 
ATOM     17  N   UNL A   1      31.052  25.227  26.632  1.00  0.00    -0.334 N 
ATOM     18  H   UNL A   1      30.631  25.201  27.561  1.00  0.00     0.348 HD
BRANCH  17  19
ATOM     19  C   UNL A   1      31.577  23.838  26.581  1.00  0.00     0.273 C 
BRANCH  19  20
ATOM     20  C   UNL A   1      31.120  22.775  25.458  1.00  0.00     0.136 C 
BRANCH  20  21
ATOM     21  S   UNL A   1      32.157  21.259  25.001  1.00  0.00    -0.120 SA
BRANCH  21  22
ATOM     22  C   UNL A   1      33.848  21.840  24.632  1.00  0.00     0.007 A 
ATOM     23  C   UNL A   1      34.974  21.090  25.024  1.00  0.00     0.015 A 
ATOM     24  C   UNL A   1      34.080  22.904  23.752  1.00  0.00     0.015 A 
ATOM     25  C   UNL A   1      36.283  21.463  24.692  1.00  0.00     0.001 A 
ATOM     26  C   UNL A   1      35.389  23.228  23.339  1.00  0.00     0.001 A 
ATOM     27  C   UNL A   1      36.491  22.528  23.832  1.00  0.00     0.000 A 
ENDBRANCH  21  22
ENDBRANCH  20  21
ENDBRANCH  19  20
ENDBRANCH  17  19
ENDBRANCH   3   6
ENDBRANCH   1   2
BRANCH   1  28
ATOM     28  C   UNL A   1      31.631  32.275  26.636  1.00  0.00     0.042 C 
BRANCH  28  29
ATOM     29  C   UNL A   1      32.875  32.804  27.329  1.00  0.00     0.118 C 
BRANCH  29  30
ATOM     30  N   UNL A   1      32.697  34.202  27.699  1.00  0.00    -0.352 N 
ATOM     31  C   UNL A   1      33.166  34.825  28.824  1.00  0.00     0.251 C 
ATOM     32  H   UNL A   1      32.183  34.758  27.070  1.00  0.00     0.163 HD
ATOM     33  O   UNL A   1      32.655  35.871  29.221  1.00  0.00    -0.269 OA
BRANCH  31  34
ATOM     34  C   UNL A   1      34.305  34.219  29.532  1.00  0.00     0.039 A 
ATOM     35  C   UNL A   1      34.092  33.381  30.629  1.00  0.00     0.014 A 
ATOM     36  C   UNL A   1      35.600  34.489  29.080  1.00  0.00     0.014 A 
ATOM     37  C   UNL A   1      35.188  32.798  31.266  1.00  0.00     0.010 A 
ATOM     38  C   UNL A   1      36.674  33.828  29.645  1.00  0.00     0.010 A 
ATOM     39  C   UNL A   1      36.484  33.016  30.773  1.00  0.00    -0.014 A 
BRANCH  39  40
ATOM     40  C   UNL A   1      37.699  32.518  31.457  1.00  0.00     0.031 A 
ATOM     41  C   UNL A   1      38.466  31.395  30.808  1.00  0.00     0.074 A 
ATOM     42  C   UNL A   1      38.015  32.952  32.690  1.00  0.00     0.049 A 
ATOM     43  N   UNL A   1      39.390  30.624  31.313  1.00  0.00    -0.248 NA
ATOM     44  C   UNL A   1      38.092  31.055  29.422  1.00  0.00     0.031 C 
ATOM     45  C   UNL A   1      37.300  33.987  33.438  1.00  0.00     0.029 A 
ATOM     46  N   UNL A   1      38.998  32.534  33.551  1.00  0.00    -0.354 N 
ATOM     47  C   UNL A   1      39.646  29.663  30.341  1.00  0.00     0.074 A 
ATOM     48  C   UNL A   1      38.760  29.928  29.231  1.00  0.00     0.031 C 
ATOM     49  C   UNL A   1      37.862  34.118  34.651  1.00  0.00     0.029 A 
ATOM     50  C   UNL A   1      38.949  33.152  34.779  1.00  0.00     0.049 A 
ATOM     51  H   UNL A   1      39.673  31.859  33.314  1.00  0.00     0.167 HD
ATOM     52  C   UNL A   1      40.560  28.666  30.360  1.00  0.00     0.034 A 
ATOM     53  C   UNL A   1      39.692  32.945  35.885  1.00  0.00     0.034 A 
ATOM     54  C   UNL A   1      41.503  28.486  31.427  1.00  0.00     0.049 A 
ATOM     55  C   UNL A   1      40.779  31.903  35.841  1.00  0.00     0.074 A 
ATOM     56  C   UNL A   1      42.549  27.586  31.507  1.00  0.00     0.029 A 
ATOM     57  N   UNL A   1      41.524  29.238  32.590  1.00  0.00    -0.354 N 
ATOM     58  N   UNL A   1      41.094  31.083  34.865  1.00  0.00    -0.248 NA
ATOM     59  C   UNL A   1      41.636  31.779  37.028  1.00  0.00     0.031 C 
ATOM     60  C   UNL A   1      43.205  27.796  32.723  1.00  0.00     0.029 A 
ATOM     61  C   UNL A   1      42.574  28.835  33.391  1.00  0.00     0.049 A 
ATOM     62  H   UNL A   1      40.886  29.953  32.813  1.00  0.00     0.167 HD
ATOM     63  C   UNL A   1      42.210  30.381  35.302  1.00  0.00     0.074 A 
ATOM     64  C   UNL A   1      42.522  30.875  36.629  1.00  0.00     0.031 C 
ATOM     65  C   UNL A   1      42.909  29.406  34.671  1.00  0.00     0.034 A 
BRANCH  52  66
ATOM     66  C   UNL A   1      40.630  27.751  29.167  1.00  0.00     0.023 A 
ATOM     67  C   UNL A   1      39.755  26.649  29.080  1.00  0.00     0.012 A 
ATOM     68  C   UNL A   1      41.528  28.002  28.111  1.00  0.00     0.148 A 
ATOM     69  C   UNL A   1      39.800  25.788  27.986  1.00  0.00     0.002 A 
ATOM     70  C   UNL A   1      41.532  27.168  26.999  1.00  0.00     0.091 A 
ATOM     71  F   UNL A   1      42.369  29.041  28.218  1.00  0.00    -0.205 F 
ATOM     72  C   UNL A   1      40.680  26.054  26.941  1.00  0.00     0.022 A 
BRANCH  70  73
ATOM     73  S   UNL A   1      42.570  27.475  25.564  1.00  0.00     0.127 S 
ATOM     74  O   UNL A   1      43.896  27.568  26.174  1.00  0.00    -0.237 OA
ATOM     75  O   UNL A   1      42.351  26.269  24.762  1.00  0.00    -0.237 OA
ATOM     76  O   UNL A   1      42.068  28.701  24.962  1.00  0.00    -0.744 OA
ENDBRANCH  70  73
ENDBRANCH  52  66
BRANCH  53  77
ATOM     77  C   UNL A   1      39.486  33.799  37.087  1.00  0.00     0.023 A 
ATOM     78  C   UNL A   1      39.910  35.142  37.053  1.00  0.00     0.012 A 
ATOM     79  C   UNL A   1      38.834  33.316  38.238  1.00  0.00     0.148 A 
ATOM     80  C   UNL A   1      39.716  35.979  38.153  1.00  0.00     0.002 A 
ATOM     81  C   UNL A   1      38.596  34.169  39.310  1.00  0.00     0.091 A 
ATOM     82  F   UNL A   1      38.444  32.033  38.256  1.00  0.00    -0.205 F 
ATOM     83  C   UNL A   1      39.051  35.497  39.276  1.00  0.00     0.022 A 
BRANCH  81  84
ATOM     84  S   UNL A   1      37.626  33.669  40.738  1.00  0.00     0.127 S 
ATOM     85  O   UNL A   1      36.455  33.064  40.109  1.00  0.00    -0.237 OA
ATOM     86  O   UNL A   1      38.525  32.724  41.403  1.00  0.00    -0.237 OA
ATOM     87  O   UNL A   1      37.385  34.891  41.493  1.00  0.00    -0.744 OA
ENDBRANCH  81  84
ENDBRANCH  53  77
BRANCH  65  88
ATOM     88  C   UNL A   1      44.121  28.844  35.359  1.00  0.00     0.023 A 
ATOM     89  C   UNL A   1      45.366  29.486  35.217  1.00  0.00     0.012 A 
ATOM     90  C   UNL A   1      43.990  27.766  36.256  1.00  0.00     0.148 A 
ATOM     91  C   UNL A   1      46.468  29.053  35.952  1.00  0.00     0.002 A 
ATOM     92  C   UNL A   1      45.081  27.370  37.018  1.00  0.00     0.091 A 
ATOM     93  F   UNL A   1      42.795  27.164  36.360  1.00  0.00    -0.205 F 
ATOM     94  C   UNL A   1      46.322  28.008  36.862  1.00  0.00     0.022 A 
BRANCH  92  95
ATOM     95  S   UNL A   1      44.961  26.104  38.286  1.00  0.00     0.127 S 
ATOM     96  O   UNL A   1      46.343  26.026  38.758  1.00  0.00    -0.237 OA
ATOM     97  O   UNL A   1      44.024  26.704  39.235  1.00  0.00    -0.237 OA
ATOM     98  O   UNL A   1      44.465  24.908  37.618  1.00  0.00    -0.744 OA
ENDBRANCH  92  95
ENDBRANCH  65  88
ENDBRANCH  39  40
ENDBRANCH  31  34
ENDBRANCH  29  30
ENDBRANCH  28  29
ENDBRANCH   1  28
TORSDOF 17
ENDMDL
MODEL 2
REMARK VINA RESULT:     -12.4      3.694      8.485
REMARK SMILES CN1C(=O)C[C@@H](C(=O)NCCCNC(=O)c2ccc(-c3c4nc(c(-c5cccc(S(=O)(=O)[O-])c5F)c5ccc([nH]5)c(-c5cccc(S(=O)(=O)[O-])c5F)c5nc(c(-c6cccc(S(=O)(=O)[O-])c6F)c6ccc3[nH]6)C=C5)C=C4)cc2)C12CC[NH+](CCSc1ccccc1)CC2
REMARK SMILES IDX 10 1 9 2 7 3 8 4 6 6 1 7 2 8 3 9 79 10 4 11 5 12 80 13 93 14
REMARK SMILES IDX 81 15 92 16 82 17 83 19 84 20 85 21 86 22 87 23 91 24 88 25
REMARK SMILES IDX 90 26 89 27 11 28 12 29 13 30 14 31 15 33 16 34 17 35 78 36
REMARK SMILES IDX 18 37 77 38 19 39 20 40 21 41 71 42 22 43 76 44 70 45 72 46
REMARK SMILES IDX 23 47 75 48 69 49 68 50 24 52 56 53 36 54 55 55 37 56 40 57
REMARK SMILES IDX 54 58 73 59 38 60 39 61 53 63 74 64 41 65 25 66 26 67 34 68
REMARK SMILES IDX 27 69 29 70 35 71 28 72 30 73 31 74 32 75 33 76 57 77 58 78
REMARK SMILES IDX 66 79 59 80 61 81 67 82 60 83 62 84 63 85 64 86 65 87 42 88
REMARK SMILES IDX 43 89 51 90 44 91 46 92 52 93 45 94 47 95 48 96 49 97 50 98
REMARK H PARENT 9 5 82 18 13 32 72 51 40 62
REMARK Flexibility Score: inf
ROOT
ATOM      1  C   UNL A   1      31.894  28.947  25.217  1.00  0.00     0.117 C 
ENDROOT
BRANCH   1   2
ATOM      2  N   UNL A   1      30.992  28.005  24.584  1.00  0.00    -0.356 N 
ATOM      3  C   UNL A   1      31.210  26.999  23.711  1.00  0.00     0.226 C 
ATOM      4  O   UNL A   1      30.219  26.543  23.130  1.00  0.00    -0.275 OA
ATOM      5  H   UNL A   1      30.047  28.119  24.838  1.00  0.00     0.163 HD
BRANCH   3   6
ATOM      6  C   UNL A   1      32.567  26.386  23.449  1.00  0.00     0.114 C 
ATOM      7  C   UNL A   1      32.748  22.894  22.052  1.00  0.00     0.147 C 
ATOM      8  N   UNL A   1      32.739  24.316  22.370  1.00  0.00    -0.339 N 
ATOM      9  C   UNL A   1      33.055  25.258  21.400  1.00  0.00     0.223 C 
ATOM     10  C   UNL A   1      32.830  24.879  23.732  1.00  0.00     0.065 C 
ATOM     11  O   UNL A   1      33.256  25.045  20.207  1.00  0.00    -0.275 OA
ATOM     12  C   UNL A   1      33.125  26.619  22.041  1.00  0.00     0.116 C 
ATOM     13  C   UNL A   1      31.982  24.130  24.821  1.00  0.00     0.091 C 
ATOM     14  C   UNL A   1      34.292  24.832  24.163  1.00  0.00     0.091 C 
ATOM     15  C   UNL A   1      32.651  23.773  26.207  1.00  0.00     0.264 C 
ATOM     16  C   UNL A   1      34.369  25.249  25.622  1.00  0.00     0.264 C 
ATOM     17  N   UNL A   1      34.066  24.109  26.422  1.00  0.00    -0.334 N 
ATOM     18  H   UNL A   1      34.134  24.290  27.423  1.00  0.00     0.348 HD
BRANCH  17  19
ATOM     19  C   UNL A   1      35.101  23.048  26.311  1.00  0.00     0.273 C 
BRANCH  19  20
ATOM     20  C   UNL A   1      34.877  21.699  25.457  1.00  0.00     0.136 C 
BRANCH  20  21
ATOM     21  S   UNL A   1      33.411  20.536  25.743  1.00  0.00    -0.120 SA
BRANCH  21  22
ATOM     22  C   UNL A   1      33.510  19.209  24.495  1.00  0.00     0.007 A 
ATOM     23  C   UNL A   1      34.436  18.155  24.628  1.00  0.00     0.015 A 
ATOM     24  C   UNL A   1      32.528  19.057  23.509  1.00  0.00     0.015 A 
ATOM     25  C   UNL A   1      34.489  17.079  23.733  1.00  0.00     0.001 A 
ATOM     26  C   UNL A   1      32.520  17.928  22.663  1.00  0.00     0.001 A 
ATOM     27  C   UNL A   1      33.516  16.956  22.756  1.00  0.00     0.000 A 
ENDBRANCH  21  22
ENDBRANCH  20  21
ENDBRANCH  19  20
ENDBRANCH  17  19
ENDBRANCH   3   6
ENDBRANCH   1   2
BRANCH   1  28
ATOM     28  C   UNL A   1      32.378  28.419  26.555  1.00  0.00     0.042 C 
BRANCH  28  29
ATOM     29  C   UNL A   1      33.810  28.840  26.831  1.00  0.00     0.118 C 
BRANCH  29  30
ATOM     30  N   UNL A   1      33.917  30.293  26.856  1.00  0.00    -0.352 N 
ATOM     31  C   UNL A   1      34.763  31.046  27.626  1.00  0.00     0.251 C 
ATOM     32  H   UNL A   1      33.315  30.787  26.254  1.00  0.00     0.163 HD
ATOM     33  O   UNL A   1      34.520  32.230  27.851  1.00  0.00    -0.269 OA
BRANCH  31  34
ATOM     34  C   UNL A   1      35.977  30.404  28.159  1.00  0.00     0.039 A 
ATOM     35  C   UNL A   1      37.182  30.481  27.459  1.00  0.00     0.014 A 
ATOM     36  C   UNL A   1      35.900  29.729  29.381  1.00  0.00     0.014 A 
ATOM     37  C   UNL A   1      38.324  29.886  27.999  1.00  0.00     0.010 A 
ATOM     38  C   UNL A   1      37.052  29.235  29.962  1.00  0.00     0.010 A 
ATOM     39  C   UNL A   1      38.264  29.264  29.256  1.00  0.00    -0.014 A 
BRANCH  39  40
ATOM     40  C   UNL A   1      39.403  28.524  29.842  1.00  0.00     0.031 A 
ATOM     41  C   UNL A   1      40.021  29.060  31.107  1.00  0.00     0.074 A 
ATOM     42  C   UNL A   1      39.963  27.495  29.180  1.00  0.00     0.049 A 
ATOM     43  N   UNL A   1      41.160  28.757  31.666  1.00  0.00    -0.248 NA
ATOM     44  C   UNL A   1      39.281  30.133  31.799  1.00  0.00     0.031 C 
ATOM     45  C   UNL A   1      39.487  26.937  27.913  1.00  0.00     0.029 A 
ATOM     46  N   UNL A   1      41.090  26.767  29.464  1.00  0.00    -0.354 N 
ATOM     47  C   UNL A   1      41.309  29.651  32.720  1.00  0.00     0.074 A 
ATOM     48  C   UNL A   1      40.162  30.529  32.704  1.00  0.00     0.031 C 
ATOM     49  C   UNL A   1      40.322  25.960  27.523  1.00  0.00     0.029 A 
ATOM     50  C   UNL A   1      41.410  25.849  28.491  1.00  0.00     0.049 A 
ATOM     51  H   UNL A   1      41.619  26.889  30.284  1.00  0.00     0.167 HD
ATOM     52  C   UNL A   1      42.301  29.717  33.638  1.00  0.00     0.034 A 
ATOM     53  C   UNL A   1      42.472  25.025  28.389  1.00  0.00     0.034 A 
ATOM     54  C   UNL A   1      43.376  28.769  33.700  1.00  0.00     0.049 A 
ATOM     55  C   UNL A   1      43.505  25.040  29.485  1.00  0.00     0.074 A 
ATOM     56  C   UNL A   1      44.375  28.662  34.650  1.00  0.00     0.029 A 
ATOM     57  N   UNL A   1      43.578  27.750  32.783  1.00  0.00    -0.354 N 
ATOM     58  N   UNL A   1      43.568  25.810  30.547  1.00  0.00    -0.248 NA
ATOM     59  C   UNL A   1      44.592  24.055  29.394  1.00  0.00     0.031 C 
ATOM     60  C   UNL A   1      45.182  27.575  34.306  1.00  0.00     0.029 A 
ATOM     61  C   UNL A   1      44.676  26.998  33.150  1.00  0.00     0.049 A 
ATOM     62  H   UNL A   1      43.021  27.586  31.988  1.00  0.00     0.167 HD
ATOM     63  C   UNL A   1      44.670  25.372  31.271  1.00  0.00     0.074 A 
ATOM     64  C   UNL A   1      45.244  24.266  30.531  1.00  0.00     0.031 C 
ATOM     65  C   UNL A   1      45.172  25.849  32.436  1.00  0.00     0.034 A 
BRANCH  52  66
ATOM     66  C   UNL A   1      42.224  30.797  34.683  1.00  0.00     0.023 A 
ATOM     67  C   UNL A   1      41.441  30.597  35.838  1.00  0.00     0.012 A 
ATOM     68  C   UNL A   1      42.959  31.991  34.548  1.00  0.00     0.148 A 
ATOM     69  C   UNL A   1      41.356  31.581  36.820  1.00  0.00     0.002 A 
ATOM     70  C   UNL A   1      42.908  32.948  35.555  1.00  0.00     0.091 A 
ATOM     71  F   UNL A   1      43.681  32.177  33.433  1.00  0.00    -0.205 F 
ATOM     72  C   UNL A   1      42.097  32.751  36.684  1.00  0.00     0.022 A 
BRANCH  70  73
ATOM     73  S   UNL A   1      43.892  34.451  35.512  1.00  0.00     0.127 S 
ATOM     74  O   UNL A   1      43.314  35.149  34.363  1.00  0.00    -0.237 OA
ATOM     75  O   UNL A   1      43.586  35.057  36.809  1.00  0.00    -0.237 OA
ATOM     76  O   UNL A   1      45.273  34.020  35.355  1.00  0.00    -0.744 OA
ENDBRANCH  70  73
ENDBRANCH  52  66
BRANCH  53  77
ATOM     77  C   UNL A   1      42.559  24.064  27.255  1.00  0.00     0.023 A 
ATOM     78  C   UNL A   1      43.288  24.427  26.106  1.00  0.00     0.012 A 
ATOM     79  C   UNL A   1      41.977  22.783  27.321  1.00  0.00     0.148 A 
ATOM     80  C   UNL A   1      43.410  23.545  25.031  1.00  0.00     0.002 A 
ATOM     81  C   UNL A   1      42.146  21.890  26.269  1.00  0.00     0.091 A 
ATOM     82  F   UNL A   1      41.280  22.457  28.419  1.00  0.00    -0.205 F 
ATOM     83  C   UNL A   1      42.849  22.275  25.116  1.00  0.00     0.022 A 
BRANCH  81  84
ATOM     84  S   UNL A   1      41.575  20.188  26.353  1.00  0.00     0.127 S 
ATOM     85  O   UNL A   1      40.132  20.347  26.188  1.00  0.00    -0.237 OA
ATOM     86  O   UNL A   1      42.262  19.577  25.214  1.00  0.00    -0.237 OA
ATOM     87  O   UNL A   1      42.017  19.692  27.650  1.00  0.00    -0.744 OA
ENDBRANCH  81  84
ENDBRANCH  53  77
BRANCH  65  88
ATOM     88  C   UNL A   1      46.359  25.149  33.034  1.00  0.00     0.023 A 
ATOM     89  C   UNL A   1      47.656  25.641  32.792  1.00  0.00     0.012 A 
ATOM     90  C   UNL A   1      46.173  24.093  33.948  1.00  0.00     0.148 A 
ATOM     91  C   UNL A   1      48.754  25.081  33.444  1.00  0.00     0.002 A 
ATOM     92  C   UNL A   1      47.265  23.572  34.627  1.00  0.00     0.091 A 
ATOM     93  F   UNL A   1      44.928  23.635  34.148  1.00  0.00    -0.205 F 
ATOM     94  C   UNL A   1      48.557  24.060  34.372  1.00  0.00     0.022 A 
BRANCH  92  95
ATOM     95  S   UNL A   1      47.097  22.328  35.912  1.00  0.00     0.127 S 
ATOM     96  O   UNL A   1      48.483  22.159  36.345  1.00  0.00    -0.237 OA
ATOM     97  O   UNL A   1      46.232  22.999  36.882  1.00  0.00    -0.237 OA
ATOM     98  O   UNL A   1      46.501  21.163  35.271  1.00  0.00    -0.744 OA
ENDBRANCH  92  95
ENDBRANCH  65  88
ENDBRANCH  39  40
ENDBRANCH  31  34
ENDBRANCH  29  30
ENDBRANCH  28  29
ENDBRANCH   1  28
TORSDOF 17
ENDMDL
MODEL 3
REMARK VINA RESULT:     -12.2      1.428      2.024
REMARK SMILES CN1C(=O)C[C@@H](C(=O)NCCCNC(=O)c2ccc(-c3c4nc(c(-c5cccc(S(=O)(=O)[O-])c5F)c5ccc([nH]5)c(-c5cccc(S(=O)(=O)[O-])c5F)c5nc(c(-c6cccc(S(=O)(=O)[O-])c6F)c6ccc3[nH]6)C=C5)C=C4)cc2)C12CC[NH+](CCSc1ccccc1)CC2
REMARK SMILES IDX 10 1 9 2 7 3 8 4 6 6 1 7 2 8 3 9 79 10 4 11 5 12 80 13 93 14
REMARK SMILES IDX 81 15 92 16 82 17 83 19 84 20 85 21 86 22 87 23 91 24 88 25
REMARK SMILES IDX 90 26 89 27 11 28 12 29 13 30 14 31 15 33 16 34 17 35 78 36
REMARK SMILES IDX 18 37 77 38 19 39 20 40 21 41 71 42 22 43 76 44 70 45 72 46
REMARK SMILES IDX 23 47 75 48 69 49 68 50 24 52 56 53 36 54 55 55 37 56 40 57
REMARK SMILES IDX 54 58 73 59 38 60 39 61 53 63 74 64 41 65 25 66 26 67 34 68
REMARK SMILES IDX 27 69 29 70 35 71 28 72 30 73 31 74 32 75 33 76 57 77 58 78
REMARK SMILES IDX 66 79 59 80 61 81 67 82 60 83 62 84 63 85 64 86 65 87 42 88
REMARK SMILES IDX 43 89 51 90 44 91 46 92 52 93 45 94 47 95 48 96 49 97 50 98
REMARK H PARENT 9 5 82 18 13 32 72 51 40 62
REMARK Flexibility Score: inf
ROOT
ATOM      1  C   UNL A   1      34.201  29.836  27.237  1.00  0.00     0.117 C 
ENDROOT
BRANCH   1   2
ATOM      2  N   UNL A   1      33.092  29.029  27.705  1.00  0.00    -0.356 N 
ATOM      3  C   UNL A   1      32.189  28.273  27.043  1.00  0.00     0.226 C 
ATOM      4  O   UNL A   1      31.190  27.919  27.679  1.00  0.00    -0.275 OA
ATOM      5  H   UNL A   1      32.976  29.030  28.683  1.00  0.00     0.163 HD
BRANCH   3   6
ATOM      6  C   UNL A   1      32.358  27.810  25.614  1.00  0.00     0.114 C 
ATOM      7  C   UNL A   1      29.741  25.561  24.108  1.00  0.00     0.147 C 
ATOM      8  N   UNL A   1      30.655  26.604  24.555  1.00  0.00    -0.339 N 
ATOM      9  C   UNL A   1      30.552  27.895  24.052  1.00  0.00     0.223 C 
ATOM     10  C   UNL A   1      31.966  26.365  25.191  1.00  0.00     0.065 C 
ATOM     11  O   UNL A   1      29.675  28.325  23.308  1.00  0.00    -0.275 OA
ATOM     12  C   UNL A   1      31.711  28.713  24.558  1.00  0.00     0.116 C 
ATOM     13  C   UNL A   1      31.991  25.208  26.252  1.00  0.00     0.091 C 
ATOM     14  C   UNL A   1      32.964  26.017  24.093  1.00  0.00     0.091 C 
ATOM     15  C   UNL A   1      33.155  24.142  26.200  1.00  0.00     0.264 C 
ATOM     16  C   UNL A   1      34.269  25.604  24.754  1.00  0.00     0.264 C 
ATOM     17  N   UNL A   1      34.157  24.233  25.129  1.00  0.00    -0.334 N 
ATOM     18  H   UNL A   1      35.010  23.860  25.547  1.00  0.00     0.348 HD
BRANCH  17  19
ATOM     19  C   UNL A   1      34.065  23.330  23.953  1.00  0.00     0.273 C 
BRANCH  19  20
ATOM     20  C   UNL A   1      32.820  22.334  23.715  1.00  0.00     0.136 C 
BRANCH  20  21
ATOM     21  S   UNL A   1      32.427  20.889  24.874  1.00  0.00    -0.120 SA
BRANCH  21  22
ATOM     22  C   UNL A   1      33.083  19.371  24.100  1.00  0.00     0.007 A 
ATOM     23  C   UNL A   1      34.149  18.661  24.687  1.00  0.00     0.015 A 
ATOM     24  C   UNL A   1      32.408  18.734  23.053  1.00  0.00     0.015 A 
ATOM     25  C   UNL A   1      34.627  17.451  24.167  1.00  0.00     0.001 A 
ATOM     26  C   UNL A   1      32.828  17.472  22.584  1.00  0.00     0.001 A 
ATOM     27  C   UNL A   1      33.953  16.845  23.120  1.00  0.00     0.000 A 
ENDBRANCH  21  22
ENDBRANCH  20  21
ENDBRANCH  19  20
ENDBRANCH  17  19
ENDBRANCH   3   6
ENDBRANCH   1   2
BRANCH   1  28
ATOM     28  C   UNL A   1      33.728  31.213  26.809  1.00  0.00     0.042 C 
BRANCH  28  29
ATOM     29  C   UNL A   1      32.650  31.741  27.739  1.00  0.00     0.118 C 
BRANCH  29  30
ATOM     30  N   UNL A   1      32.555  33.191  27.636  1.00  0.00    -0.352 N 
ATOM     31  C   UNL A   1      33.221  34.118  28.394  1.00  0.00     0.251 C 
ATOM     32  H   UNL A   1      31.947  33.543  26.947  1.00  0.00     0.163 HD
ATOM     33  O   UNL A   1      32.800  35.270  28.490  1.00  0.00    -0.269 OA
BRANCH  31  34
ATOM     34  C   UNL A   1      34.459  33.703  29.074  1.00  0.00     0.039 A 
ATOM     35  C   UNL A   1      35.701  34.139  28.609  1.00  0.00     0.014 A 
ATOM     36  C   UNL A   1      34.366  32.874  30.196  1.00  0.00     0.014 A 
ATOM     37  C   UNL A   1      36.858  33.752  29.287  1.00  0.00     0.010 A 
ATOM     38  C   UNL A   1      35.502  32.581  30.925  1.00  0.00     0.010 A 
ATOM     39  C   UNL A   1      36.762  32.974  30.451  1.00  0.00    -0.014 A 
BRANCH  39  40
ATOM     40  C   UNL A   1      37.946  32.440  31.161  1.00  0.00     0.031 A 
ATOM     41  C   UNL A   1      38.694  31.295  30.528  1.00  0.00     0.074 A 
ATOM     42  C   UNL A   1      38.248  32.864  32.402  1.00  0.00     0.049 A 
ATOM     43  N   UNL A   1      39.583  30.497  31.053  1.00  0.00    -0.248 NA
ATOM     44  C   UNL A   1      38.341  30.966  29.134  1.00  0.00     0.031 C 
ATOM     45  C   UNL A   1      37.547  33.919  33.135  1.00  0.00     0.029 A 
ATOM     46  N   UNL A   1      39.199  32.417  33.284  1.00  0.00    -0.354 N 
ATOM     47  C   UNL A   1      39.833  29.529  30.086  1.00  0.00     0.074 A 
ATOM     48  C   UNL A   1      38.980  29.820  28.957  1.00  0.00     0.031 C 
ATOM     49  C   UNL A   1      38.086  34.033  34.360  1.00  0.00     0.029 A 
ATOM     50  C   UNL A   1      39.141  33.035  34.511  1.00  0.00     0.049 A 
ATOM     51  H   UNL A   1      39.858  31.723  33.061  1.00  0.00     0.167 HD
ATOM     52  C   UNL A   1      40.717  28.506  30.124  1.00  0.00     0.034 A 
ATOM     53  C   UNL A   1      39.853  32.807  35.633  1.00  0.00     0.034 A 
ATOM     54  C   UNL A   1      41.630  28.297  31.211  1.00  0.00     0.049 A 
ATOM     55  C   UNL A   1      40.909  31.733  35.611  1.00  0.00     0.074 A 
ATOM     56  C   UNL A   1      42.647  27.367  31.314  1.00  0.00     0.029 A 
ATOM     57  N   UNL A   1      41.647  29.048  32.376  1.00  0.00    -0.354 N 
ATOM     58  N   UNL A   1      41.221  30.904  34.643  1.00  0.00    -0.248 NA
ATOM     59  C   UNL A   1      41.735  31.583  36.818  1.00  0.00     0.031 C 
ATOM     60  C   UNL A   1      43.281  27.557  32.545  1.00  0.00     0.029 A 
ATOM     61  C   UNL A   1      42.667  28.615  33.199  1.00  0.00     0.049 A 
ATOM     62  H   UNL A   1      41.025  29.782  32.585  1.00  0.00     0.167 HD
ATOM     63  C   UNL A   1      42.307  30.169  35.103  1.00  0.00     0.074 A 
ATOM     64  C   UNL A   1      42.603  30.653  36.437  1.00  0.00     0.031 C 
ATOM     65  C   UNL A   1      42.990  29.175  34.487  1.00  0.00     0.034 A 
BRANCH  52  66
ATOM     66  C   UNL A   1      40.786  27.589  28.932  1.00  0.00     0.023 A 
ATOM     67  C   UNL A   1      39.863  26.531  28.811  1.00  0.00     0.012 A 
ATOM     68  C   UNL A   1      41.732  27.798  27.910  1.00  0.00     0.148 A 
ATOM     69  C   UNL A   1      39.906  25.670  27.716  1.00  0.00     0.002 A 
ATOM     70  C   UNL A   1      41.737  26.966  26.796  1.00  0.00     0.091 A 
ATOM     71  F   UNL A   1      42.618  28.796  28.050  1.00  0.00    -0.205 F 
ATOM     72  C   UNL A   1      40.835  25.894  26.705  1.00  0.00     0.022 A 
BRANCH  70  73
ATOM     73  S   UNL A   1      42.840  27.224  25.401  1.00  0.00     0.127 S 
ATOM     74  O   UNL A   1      44.122  27.433  26.073  1.00  0.00    -0.237 OA
ATOM     75  O   UNL A   1      42.729  25.953  24.682  1.00  0.00    -0.237 OA
ATOM     76  O   UNL A   1      42.312  28.374  24.682  1.00  0.00    -0.744 OA
ENDBRANCH  70  73
ENDBRANCH  52  66
BRANCH  53  77
ATOM     77  C   UNL A   1      39.645  33.666  36.831  1.00  0.00     0.023 A 
ATOM     78  C   UNL A   1      40.089  35.002  36.800  1.00  0.00     0.012 A 
ATOM     79  C   UNL A   1      38.972  33.194  37.975  1.00  0.00     0.148 A 
ATOM     80  C   UNL A   1      39.895  35.844  37.895  1.00  0.00     0.002 A 
ATOM     81  C   UNL A   1      38.735  34.053  39.043  1.00  0.00     0.091 A 
ATOM     82  F   UNL A   1      38.563  31.918  37.991  1.00  0.00    -0.205 F 
ATOM     83  C   UNL A   1      39.210  35.374  39.012  1.00  0.00     0.022 A 
BRANCH  81  84
ATOM     84  S   UNL A   1      37.741  33.570  40.460  1.00  0.00     0.127 S 
ATOM     85  O   UNL A   1      38.601  32.582  41.107  1.00  0.00    -0.237 OA
ATOM     86  O   UNL A   1      37.605  34.835  41.184  1.00  0.00    -0.237 OA
ATOM     87  O   UNL A   1      36.492  33.064  39.907  1.00  0.00    -0.744 OA
ENDBRANCH  81  84
ENDBRANCH  53  77
BRANCH  65  88
ATOM     88  C   UNL A   1      44.169  28.577  35.201  1.00  0.00     0.023 A 
ATOM     89  C   UNL A   1      45.455  29.112  34.996  1.00  0.00     0.012 A 
ATOM     90  C   UNL A   1      43.975  27.581  36.178  1.00  0.00     0.148 A 
ATOM     91  C   UNL A   1      46.536  28.655  35.748  1.00  0.00     0.002 A 
ATOM     92  C   UNL A   1      45.047  27.163  36.955  1.00  0.00     0.091 A 
ATOM     93  F   UNL A   1      42.742  27.079  36.341  1.00  0.00    -0.205 F 
ATOM     94  C   UNL A   1      46.329  27.694  36.737  1.00  0.00     0.022 A 
BRANCH  92  95
ATOM     95  S   UNL A   1      44.858  26.007  38.317  1.00  0.00     0.127 S 
ATOM     96  O   UNL A   1      44.000  26.762  39.229  1.00  0.00    -0.237 OA
ATOM     97  O   UNL A   1      44.207  24.869  37.668  1.00  0.00    -0.237 OA
ATOM     98  O   UNL A   1      46.202  25.738  38.808  1.00  0.00    -0.744 OA
ENDBRANCH  92  95
ENDBRANCH  65  88
ENDBRANCH  39  40
ENDBRANCH  31  34
ENDBRANCH  29  30
ENDBRANCH  28  29
ENDBRANCH   1  28
TORSDOF 17
ENDMDL
