MODEL 1
REMARK VINA RESULT:     -12.0      0.000      0.000
REMARK SMILES Cn1cc(CCC(=O)N2CCCC2)cc1C(=O)NCCCNC(=O)c1ccc(-c2c3nc(c(-c4cccc(S(=O)(=O)[O-])c4F)c4ccc([nH]4)c(-c4cccc(S(=O)(=O)[O-])c4F)c4nc(c(-c5cccc(S(=O)(=O)[O-])c5F)c5ccc2[nH]5)C=C4)C=C3)cc1
REMARK SMILES IDX 20 1 19 2 18 3 16 4 17 5 15 7 1 8 2 9 3 10 4 11 14 12 5 13
REMARK SMILES IDX 6 14 7 15 8 16 9 17 10 18 13 19 11 20 12 21 21 22 22 23
REMARK SMILES IDX 23 24 24 26 25 27 26 28 87 29 27 30 86 31 28 32 29 33 30 34
REMARK SMILES IDX 80 35 31 36 85 37 79 38 81 39 32 40 84 41 78 42 77 43 33 45
REMARK SMILES IDX 65 46 45 47 64 48 46 49 49 50 63 51 82 52 47 53 48 54 62 56
REMARK SMILES IDX 83 57 50 58 34 59 35 60 43 61 36 62 38 63 44 64 37 65 39 66
REMARK SMILES IDX 40 67 41 68 42 69 66 70 67 71 75 72 68 73 70 74 76 75 69 76
REMARK SMILES IDX 71 77 72 78 73 79 74 80 51 81 52 82 60 83 53 84 55 85 61 86
REMARK SMILES IDX 54 87 56 88 57 89 58 90 59 91
REMARK H PARENT 18 6 22 25 81 44 49 55
REMARK Flexibility Score: inf
ROOT
ATOM      1  C   UNL A   1      36.487  20.804  24.856  1.00  0.00     0.042 C 
ENDROOT
BRANCH   1   2
ATOM      2  C   UNL A   1      35.304  21.061  25.780  1.00  0.00     0.118 C 
BRANCH   2   3
ATOM      3  N   UNL A   1      34.178  20.174  25.581  1.00  0.00    -0.351 N 
ATOM      4  C   UNL A   1      32.956  20.394  24.991  1.00  0.00     0.267 C 
ATOM      5  O   UNL A   1      32.156  19.461  25.030  1.00  0.00    -0.268 OA
ATOM      6  H   UNL A   1      34.309  19.261  25.926  1.00  0.00     0.163 HD
BRANCH   4   7
ATOM      7  C   UNL A   1      32.601  21.688  24.433  1.00  0.00     0.107 A 
ATOM      8  C   UNL A   1      30.841  22.588  26.039  1.00  0.00     0.150 C 
ATOM      9  N   UNL A   1      31.712  22.644  24.886  1.00  0.00    -0.346 N 
ATOM     10  C   UNL A   1      31.699  23.721  24.031  1.00  0.00     0.089 A 
ATOM     11  C   UNL A   1      32.545  23.460  22.978  1.00  0.00    -0.029 A 
ATOM     12  C   UNL A   1      33.192  22.237  23.296  1.00  0.00     0.037 A 
BRANCH  11  13
ATOM     13  C   UNL A   1      32.696  24.280  21.741  1.00  0.00     0.047 C 
BRANCH  13  14
ATOM     14  C   UNL A   1      32.061  25.664  21.850  1.00  0.00     0.105 C 
BRANCH  14  15
ATOM     15  C   UNL A   1      33.014  26.790  22.230  1.00  0.00     0.222 C 
ATOM     16  O   UNL A   1      34.040  26.969  21.567  1.00  0.00    -0.275 OA
ATOM     17  N   UNL A   1      32.658  27.634  23.257  1.00  0.00    -0.343 N 
ATOM     18  C   UNL A   1      31.686  27.392  24.306  1.00  0.00     0.119 C 
ATOM     19  C   UNL A   1      33.316  28.915  23.464  1.00  0.00     0.119 C 
ATOM     20  C   UNL A   1      31.419  28.753  24.916  1.00  0.00     0.023 C 
ATOM     21  C   UNL A   1      32.776  29.433  24.794  1.00  0.00     0.023 C 
ENDBRANCH  14  15
ENDBRANCH  13  14
ENDBRANCH  11  13
ENDBRANCH   4   7
ENDBRANCH   2   3
ENDBRANCH   1   2
BRANCH   1  22
ATOM     22  C   UNL A   1      37.782  21.519  25.223  1.00  0.00     0.118 C 
BRANCH  22  23
ATOM     23  N   UNL A   1      38.806  20.646  25.783  1.00  0.00    -0.352 N 
ATOM     24  C   UNL A   1      39.947  20.929  26.501  1.00  0.00     0.251 C 
ATOM     25  H   UNL A   1      38.656  19.686  25.622  1.00  0.00     0.163 HD
ATOM     26  O   UNL A   1      40.721  20.014  26.772  1.00  0.00    -0.269 OA
BRANCH  24  27
ATOM     27  C   UNL A   1      40.271  22.315  26.918  1.00  0.00     0.039 A 
ATOM     28  C   UNL A   1      41.153  22.513  27.985  1.00  0.00     0.014 A 
ATOM     29  C   UNL A   1      39.712  23.419  26.276  1.00  0.00     0.014 A 
ATOM     30  C   UNL A   1      41.544  23.809  28.338  1.00  0.00     0.010 A 
ATOM     31  C   UNL A   1      40.187  24.699  26.552  1.00  0.00     0.010 A 
ATOM     32  C   UNL A   1      41.105  24.913  27.590  1.00  0.00    -0.014 A 
BRANCH  32  33
ATOM     33  C   UNL A   1      41.595  26.292  27.862  1.00  0.00     0.031 A 
ATOM     34  C   UNL A   1      43.005  26.686  27.500  1.00  0.00     0.074 A 
ATOM     35  C   UNL A   1      40.809  27.163  28.530  1.00  0.00     0.049 A 
ATOM     36  N   UNL A   1      43.635  27.807  27.737  1.00  0.00    -0.248 NA
ATOM     37  C   UNL A   1      43.827  25.674  26.814  1.00  0.00     0.031 C 
ATOM     38  C   UNL A   1      39.455  26.882  29.015  1.00  0.00     0.029 A 
ATOM     39  N   UNL A   1      41.045  28.452  28.943  1.00  0.00    -0.354 N 
ATOM     40  C   UNL A   1      44.933  27.620  27.274  1.00  0.00     0.074 A 
ATOM     41  C   UNL A   1      45.012  26.265  26.777  1.00  0.00     0.031 C 
ATOM     42  C   UNL A   1      38.979  27.964  29.649  1.00  0.00     0.029 A 
ATOM     43  C   UNL A   1      40.003  29.004  29.651  1.00  0.00     0.049 A 
ATOM     44  H   UNL A   1      41.881  28.934  28.751  1.00  0.00     0.167 HD
ATOM     45  C   UNL A   1      45.959  28.503  27.238  1.00  0.00     0.034 A 
ATOM     46  C   UNL A   1      39.886  30.208  30.248  1.00  0.00     0.034 A 
ATOM     47  C   UNL A   1      45.865  29.866  27.685  1.00  0.00     0.049 A 
ATOM     48  C   UNL A   1      41.023  31.188  30.150  1.00  0.00     0.074 A 
ATOM     49  C   UNL A   1      46.815  30.868  27.596  1.00  0.00     0.029 A 
ATOM     50  N   UNL A   1      44.760  30.418  28.315  1.00  0.00    -0.354 N 
ATOM     51  N   UNL A   1      42.187  31.043  29.565  1.00  0.00    -0.248 NA
ATOM     52  C   UNL A   1      40.819  32.508  30.763  1.00  0.00     0.031 C 
ATOM     53  C   UNL A   1      46.297  32.017  28.202  1.00  0.00     0.029 A 
ATOM     54  C   UNL A   1      45.010  31.742  28.634  1.00  0.00     0.049 A 
ATOM     55  H   UNL A   1      43.922  29.938  28.508  1.00  0.00     0.167 HD
ATOM     56  C   UNL A   1      42.839  32.264  29.706  1.00  0.00     0.074 A 
ATOM     57  C   UNL A   1      41.930  33.142  30.414  1.00  0.00     0.031 C 
ATOM     58  C   UNL A   1      44.080  32.622  29.296  1.00  0.00     0.034 A 
BRANCH  45  59
ATOM     59  C   UNL A   1      47.267  28.037  26.651  1.00  0.00     0.023 A 
ATOM     60  C   UNL A   1      48.319  27.645  27.506  1.00  0.00     0.012 A 
ATOM     61  C   UNL A   1      47.437  27.930  25.257  1.00  0.00     0.148 A 
ATOM     62  C   UNL A   1      49.530  27.193  26.983  1.00  0.00     0.002 A 
ATOM     63  C   UNL A   1      48.628  27.430  24.745  1.00  0.00     0.091 A 
ATOM     64  F   UNL A   1      46.435  28.325  24.459  1.00  0.00    -0.205 F 
ATOM     65  C   UNL A   1      49.680  27.075  25.605  1.00  0.00     0.022 A 
BRANCH  63  66
ATOM     66  S   UNL A   1      48.892  27.160  22.988  1.00  0.00     0.127 S 
ATOM     67  O   UNL A   1      48.236  25.869  22.787  1.00  0.00    -0.237 OA
ATOM     68  O   UNL A   1      48.190  28.299  22.396  1.00  0.00    -0.237 OA
ATOM     69  O   UNL A   1      50.335  27.165  22.793  1.00  0.00    -0.744 OA
ENDBRANCH  63  66
ENDBRANCH  45  59
BRANCH  46  70
ATOM     70  C   UNL A   1      38.617  30.576  30.941  1.00  0.00     0.023 A 
ATOM     71  C   UNL A   1      38.470  30.299  32.314  1.00  0.00     0.012 A 
ATOM     72  C   UNL A   1      37.571  31.224  30.256  1.00  0.00     0.148 A 
ATOM     73  C   UNL A   1      37.292  30.627  32.985  1.00  0.00     0.002 A 
ATOM     74  C   UNL A   1      36.423  31.602  30.944  1.00  0.00     0.091 A 
ATOM     75  F   UNL A   1      37.727  31.472  28.948  1.00  0.00    -0.205 F 
ATOM     76  C   UNL A   1      36.274  31.288  32.303  1.00  0.00     0.022 A 
BRANCH  74  77
ATOM     77  S   UNL A   1      35.121  32.576  30.182  1.00  0.00     0.127 S 
ATOM     78  O   UNL A   1      34.184  32.742  31.290  1.00  0.00    -0.237 OA
ATOM     79  O   UNL A   1      35.842  33.790  29.796  1.00  0.00    -0.237 OA
ATOM     80  O   UNL A   1      34.638  31.783  29.060  1.00  0.00    -0.744 OA
ENDBRANCH  74  77
ENDBRANCH  46  70
BRANCH  58  81
ATOM     81  C   UNL A   1      44.526  34.036  29.559  1.00  0.00     0.023 A 
ATOM     82  C   UNL A   1      45.098  34.377  30.799  1.00  0.00     0.012 A 
ATOM     83  C   UNL A   1      44.446  35.009  28.542  1.00  0.00     0.148 A 
ATOM     84  C   UNL A   1      45.553  35.674  31.037  1.00  0.00     0.002 A 
ATOM     85  C   UNL A   1      44.951  36.283  28.767  1.00  0.00     0.091 A 
ATOM     86  F   UNL A   1      43.883  34.669  27.374  1.00  0.00    -0.205 F 
ATOM     87  C   UNL A   1      45.491  36.623  30.018  1.00  0.00     0.022 A 
BRANCH  85  88
ATOM     88  S   UNL A   1      45.004  37.539  27.484  1.00  0.00     0.127 S 
ATOM     89  O   UNL A   1      43.604  37.606  27.073  1.00  0.00    -0.237 OA
ATOM     90  O   UNL A   1      45.482  38.711  28.219  1.00  0.00    -0.237 OA
ATOM     91  O   UNL A   1      45.929  37.042  26.473  1.00  0.00    -0.744 OA
ENDBRANCH  85  88
ENDBRANCH  58  81
ENDBRANCH  32  33
ENDBRANCH  24  27
ENDBRANCH  22  23
ENDBRANCH   1  22
TORSDOF 16
ENDMDL
MODEL 2
REMARK VINA RESULT:     -11.9      4.961      9.889
REMARK SMILES Cn1cc(CCC(=O)N2CCCC2)cc1C(=O)NCCCNC(=O)c1ccc(-c2c3nc(c(-c4cccc(S(=O)(=O)[O-])c4F)c4ccc([nH]4)c(-c4cccc(S(=O)(=O)[O-])c4F)c4nc(c(-c5cccc(S(=O)(=O)[O-])c5F)c5ccc2[nH]5)C=C4)C=C3)cc1
REMARK SMILES IDX 20 1 19 2 18 3 16 4 17 5 15 7 1 8 2 9 3 10 4 11 14 12 5 13
REMARK SMILES IDX 6 14 7 15 8 16 9 17 10 18 13 19 11 20 12 21 21 22 22 23
REMARK SMILES IDX 23 24 24 26 25 27 26 28 87 29 27 30 86 31 28 32 29 33 30 34
REMARK SMILES IDX 80 35 31 36 85 37 79 38 81 39 32 40 84 41 78 42 77 43 33 45
REMARK SMILES IDX 65 46 45 47 64 48 46 49 49 50 63 51 82 52 47 53 48 54 62 56
REMARK SMILES IDX 83 57 50 58 34 59 35 60 43 61 36 62 38 63 44 64 37 65 39 66
REMARK SMILES IDX 40 67 41 68 42 69 66 70 67 71 75 72 68 73 70 74 76 75 69 76
REMARK SMILES IDX 71 77 72 78 73 79 74 80 51 81 52 82 60 83 53 84 55 85 61 86
REMARK SMILES IDX 54 87 56 88 57 89 58 90 59 91
REMARK H PARENT 18 6 22 25 81 44 49 55
REMARK Flexibility Score: inf
ROOT
ATOM      1  C   UNL A   1      33.799  27.695  26.510  1.00  0.00     0.042 C 
ENDROOT
BRANCH   1   2
ATOM      2  C   UNL A   1      33.570  26.517  25.573  1.00  0.00     0.118 C 
BRANCH   2   3
ATOM      3  N   UNL A   1      33.740  26.821  24.169  1.00  0.00    -0.351 N 
ATOM      4  C   UNL A   1      33.301  26.158  23.047  1.00  0.00     0.267 C 
ATOM      5  O   UNL A   1      33.662  26.616  21.966  1.00  0.00    -0.268 OA
ATOM      6  H   UNL A   1      34.257  27.639  23.985  1.00  0.00     0.163 HD
BRANCH   4   7
ATOM      7  C   UNL A   1      32.526  24.932  23.142  1.00  0.00     0.107 A 
ATOM      8  C   UNL A   1      30.212  25.722  23.856  1.00  0.00     0.150 C 
ATOM      9  N   UNL A   1      31.197  24.737  23.468  1.00  0.00    -0.346 N 
ATOM     10  C   UNL A   1      30.893  23.396  23.432  1.00  0.00     0.089 A 
ATOM     11  C   UNL A   1      32.036  22.691  23.132  1.00  0.00    -0.029 A 
ATOM     12  C   UNL A   1      33.026  23.666  22.838  1.00  0.00     0.037 A 
BRANCH  11  13
ATOM     13  C   UNL A   1      32.195  21.208  23.165  1.00  0.00     0.047 C 
BRANCH  13  14
ATOM     14  C   UNL A   1      32.504  20.663  24.556  1.00  0.00     0.105 C 
BRANCH  14  15
ATOM     15  C   UNL A   1      33.944  20.216  24.776  1.00  0.00     0.222 C 
ATOM     16  O   UNL A   1      34.256  19.041  24.563  1.00  0.00    -0.275 OA
ATOM     17  N   UNL A   1      34.880  21.163  25.128  1.00  0.00    -0.343 N 
ATOM     18  C   UNL A   1      34.643  22.471  25.705  1.00  0.00     0.119 C 
ATOM     19  C   UNL A   1      36.309  20.907  25.025  1.00  0.00     0.119 C 
ATOM     20  C   UNL A   1      35.950  23.219  25.535  1.00  0.00     0.023 C 
ATOM     21  C   UNL A   1      36.979  22.108  25.687  1.00  0.00     0.023 C 
ENDBRANCH  14  15
ENDBRANCH  13  14
ENDBRANCH  11  13
ENDBRANCH   4   7
ENDBRANCH   2   3
ENDBRANCH   1   2
BRANCH   1  22
ATOM     22  C   UNL A   1      34.402  28.941  25.872  1.00  0.00     0.118 C 
BRANCH  22  23
ATOM     23  N   UNL A   1      33.976  30.191  26.489  1.00  0.00    -0.352 N 
ATOM     24  C   UNL A   1      34.508  30.917  27.532  1.00  0.00     0.251 C 
ATOM     25  H   UNL A   1      33.168  30.588  26.089  1.00  0.00     0.163 HD
ATOM     26  O   UNL A   1      33.895  31.898  27.946  1.00  0.00    -0.269 OA
BRANCH  24  27
ATOM     27  C   UNL A   1      35.779  30.515  28.181  1.00  0.00     0.039 A 
ATOM     28  C   UNL A   1      35.743  29.580  29.221  1.00  0.00     0.014 A 
ATOM     29  C   UNL A   1      37.003  31.052  27.782  1.00  0.00     0.014 A 
ATOM     30  C   UNL A   1      36.937  29.118  29.787  1.00  0.00     0.010 A 
ATOM     31  C   UNL A   1      38.191  30.510  28.266  1.00  0.00     0.010 A 
ATOM     32  C   UNL A   1      38.176  29.540  29.277  1.00  0.00    -0.014 A 
BRANCH  32  33
ATOM     33  C   UNL A   1      39.462  28.978  29.774  1.00  0.00     0.031 A 
ATOM     34  C   UNL A   1      40.197  29.643  30.910  1.00  0.00     0.074 A 
ATOM     35  C   UNL A   1      40.025  27.930  29.138  1.00  0.00     0.049 A 
ATOM     36  N   UNL A   1      41.365  29.352  31.419  1.00  0.00    -0.248 NA
ATOM     37  C   UNL A   1      39.550  30.812  31.532  1.00  0.00     0.031 C 
ATOM     38  C   UNL A   1      39.462  27.246  27.970  1.00  0.00     0.029 A 
ATOM     39  N   UNL A   1      41.211  27.273  29.363  1.00  0.00    -0.354 N 
ATOM     40  C   UNL A   1      41.614  30.323  32.384  1.00  0.00     0.074 A 
ATOM     41  C   UNL A   1      40.491  31.234  32.363  1.00  0.00     0.031 C 
ATOM     42  C   UNL A   1      40.295  26.264  27.589  1.00  0.00     0.029 A 
ATOM     43  C   UNL A   1      41.467  26.269  28.457  1.00  0.00     0.049 A 
ATOM     44  H   UNL A   1      41.819  27.499  30.102  1.00  0.00     0.167 HD
ATOM     45  C   UNL A   1      42.664  30.433  33.231  1.00  0.00     0.034 A 
ATOM     46  C   UNL A   1      42.532  25.452  28.329  1.00  0.00     0.034 A 
ATOM     47  C   UNL A   1      43.754  29.498  33.286  1.00  0.00     0.049 A 
ATOM     48  C   UNL A   1      43.663  25.563  29.314  1.00  0.00     0.074 A 
ATOM     49  C   UNL A   1      44.813  29.463  34.177  1.00  0.00     0.029 A 
ATOM     50  N   UNL A   1      43.934  28.438  32.410  1.00  0.00    -0.354 N 
ATOM     51  N   UNL A   1      43.801  26.391  30.321  1.00  0.00    -0.248 NA
ATOM     52  C   UNL A   1      44.770  24.606  29.168  1.00  0.00     0.031 C 
ATOM     53  C   UNL A   1      45.651  28.402  33.819  1.00  0.00     0.029 A 
ATOM     54  C   UNL A   1      45.093  27.752  32.730  1.00  0.00     0.049 A 
ATOM     55  H   UNL A   1      43.327  28.209  31.670  1.00  0.00     0.167 HD
ATOM     56  C   UNL A   1      44.988  26.031  30.951  1.00  0.00     0.074 A 
ATOM     57  C   UNL A   1      45.519  24.898  30.222  1.00  0.00     0.031 C 
ATOM     58  C   UNL A   1      45.588  26.595  32.028  1.00  0.00     0.034 A 
BRANCH  45  59
ATOM     59  C   UNL A   1      42.665  31.584  34.204  1.00  0.00     0.023 A 
ATOM     60  C   UNL A   1      43.226  32.821  33.826  1.00  0.00     0.012 A 
ATOM     61  C   UNL A   1      42.060  31.460  35.470  1.00  0.00     0.148 A 
ATOM     62  C   UNL A   1      43.220  33.904  34.705  1.00  0.00     0.002 A 
ATOM     63  C   UNL A   1      42.013  32.558  36.321  1.00  0.00     0.091 A 
ATOM     64  F   UNL A   1      41.549  30.272  35.821  1.00  0.00    -0.205 F 
ATOM     65  C   UNL A   1      42.604  33.775  35.946  1.00  0.00     0.022 A 
BRANCH  63  66
ATOM     66  S   UNL A   1      41.170  32.522  37.907  1.00  0.00     0.127 S 
ATOM     67  O   UNL A   1      41.261  33.921  38.321  1.00  0.00    -0.237 OA
ATOM     68  O   UNL A   1      39.826  32.084  37.529  1.00  0.00    -0.237 OA
ATOM     69  O   UNL A   1      41.908  31.577  38.734  1.00  0.00    -0.744 OA
ENDBRANCH  63  66
ENDBRANCH  45  59
BRANCH  46  70
ATOM     70  C   UNL A   1      42.550  24.414  27.258  1.00  0.00     0.023 A 
ATOM     71  C   UNL A   1      43.188  24.690  26.034  1.00  0.00     0.012 A 
ATOM     72  C   UNL A   1      41.966  23.148  27.457  1.00  0.00     0.148 A 
ATOM     73  C   UNL A   1      43.215  23.739  25.013  1.00  0.00     0.002 A 
ATOM     74  C   UNL A   1      42.047  22.184  26.458  1.00  0.00     0.091 A 
ATOM     75  F   UNL A   1      41.356  22.907  28.626  1.00  0.00    -0.205 F 
ATOM     76  C   UNL A   1      42.654  22.483  25.229  1.00  0.00     0.022 A 
BRANCH  74  77
ATOM     77  S   UNL A   1      41.476  20.498  26.699  1.00  0.00     0.127 S 
ATOM     78  O   UNL A   1      40.026  20.660  26.631  1.00  0.00    -0.237 OA
ATOM     79  O   UNL A   1      42.075  19.812  25.552  1.00  0.00    -0.237 OA
ATOM     80  O   UNL A   1      42.006  20.081  27.990  1.00  0.00    -0.744 OA
ENDBRANCH  74  77
ENDBRANCH  46  70
BRANCH  58  81
ATOM     81  C   UNL A   1      46.870  25.975  32.521  1.00  0.00     0.023 A 
ATOM     82  C   UNL A   1      48.109  26.449  32.050  1.00  0.00     0.012 A 
ATOM     83  C   UNL A   1      46.841  24.974  33.513  1.00  0.00     0.148 A 
ATOM     84  C   UNL A   1      49.302  25.911  32.533  1.00  0.00     0.002 A 
ATOM     85  C   UNL A   1      48.033  24.482  34.028  1.00  0.00     0.091 A 
ATOM     86  F   UNL A   1      45.651  24.526  33.935  1.00  0.00    -0.205 F 
ATOM     87  C   UNL A   1      49.265  24.937  33.530  1.00  0.00     0.022 A 
BRANCH  85  88
ATOM     88  S   UNL A   1      48.084  23.302  35.382  1.00  0.00     0.127 S 
ATOM     89  O   UNL A   1      49.522  23.122  35.568  1.00  0.00    -0.237 OA
ATOM     90  O   UNL A   1      47.416  24.037  36.457  1.00  0.00    -0.237 OA
ATOM     91  O   UNL A   1      47.362  22.125  34.915  1.00  0.00    -0.744 OA
ENDBRANCH  85  88
ENDBRANCH  58  81
ENDBRANCH  32  33
ENDBRANCH  24  27
ENDBRANCH  22  23
ENDBRANCH   1  22
TORSDOF 16
ENDMDL
MODEL 3
REMARK VINA RESULT:     -11.9      1.580      7.836
REMARK SMILES Cn1cc(CCC(=O)N2CCCC2)cc1C(=O)NCCCNC(=O)c1ccc(-c2c3nc(c(-c4cccc(S(=O)(=O)[O-])c4F)c4ccc([nH]4)c(-c4cccc(S(=O)(=O)[O-])c4F)c4nc(c(-c5cccc(S(=O)(=O)[O-])c5F)c5ccc2[nH]5)C=C4)C=C3)cc1
REMARK SMILES IDX 20 1 19 2 18 3 16 4 17 5 15 7 1 8 2 9 3 10 4 11 14 12 5 13
REMARK SMILES IDX 6 14 7 15 8 16 9 17 10 18 13 19 11 20 12 21 21 22 22 23
REMARK SMILES IDX 23 24 24 26 25 27 26 28 87 29 27 30 86 31 28 32 29 33 30 34
REMARK SMILES IDX 80 35 31 36 85 37 79 38 81 39 32 40 84 41 78 42 77 43 33 45
REMARK SMILES IDX 65 46 45 47 64 48 46 49 49 50 63 51 82 52 47 53 48 54 62 56
REMARK SMILES IDX 83 57 50 58 34 59 35 60 43 61 36 62 38 63 44 64 37 65 39 66
REMARK SMILES IDX 40 67 41 68 42 69 66 70 67 71 75 72 68 73 70 74 76 75 69 76
REMARK SMILES IDX 71 77 72 78 73 79 74 80 51 81 52 82 60 83 53 84 55 85 61 86
REMARK SMILES IDX 54 87 56 88 57 89 58 90 59 91
REMARK H PARENT 18 6 22 25 81 44 49 55
REMARK Flexibility Score: inf
ROOT
ATOM      1  C   UNL A   1      37.605  19.956  24.703  1.00  0.00     0.042 C 
ENDROOT
BRANCH   1   2
ATOM      2  C   UNL A   1      36.375  20.852  24.668  1.00  0.00     0.118 C 
BRANCH   2   3
ATOM      3  N   UNL A   1      35.470  20.679  25.783  1.00  0.00    -0.351 N 
ATOM      4  C   UNL A   1      34.405  21.441  26.202  1.00  0.00     0.267 C 
ATOM      5  O   UNL A   1      33.853  21.084  27.240  1.00  0.00    -0.268 OA
ATOM      6  H   UNL A   1      35.646  19.882  26.335  1.00  0.00     0.163 HD
BRANCH   4   7
ATOM      7  C   UNL A   1      34.012  22.651  25.500  1.00  0.00     0.107 A 
ATOM      8  C   UNL A   1      32.764  21.796  23.452  1.00  0.00     0.150 C 
ATOM      9  N   UNL A   1      33.291  22.814  24.332  1.00  0.00    -0.346 N 
ATOM     10  C   UNL A   1      33.158  24.151  24.040  1.00  0.00     0.089 A 
ATOM     11  C   UNL A   1      33.838  24.880  24.989  1.00  0.00    -0.029 A 
ATOM     12  C   UNL A   1      34.270  23.941  25.962  1.00  0.00     0.037 A 
BRANCH  11  13
ATOM     13  C   UNL A   1      34.099  26.349  24.956  1.00  0.00     0.047 C 
BRANCH  13  14
ATOM     14  C   UNL A   1      33.217  27.142  25.917  1.00  0.00     0.105 C 
BRANCH  14  15
ATOM     15  C   UNL A   1      32.491  28.333  25.302  1.00  0.00     0.222 C 
ATOM     16  O   UNL A   1      33.000  29.455  25.364  1.00  0.00    -0.275 OA
ATOM     17  N   UNL A   1      31.318  28.105  24.618  1.00  0.00    -0.343 N 
ATOM     18  C   UNL A   1      30.446  26.950  24.713  1.00  0.00     0.119 C 
ATOM     19  C   UNL A   1      30.744  29.099  23.723  1.00  0.00     0.119 C 
ATOM     20  C   UNL A   1      29.540  27.041  23.502  1.00  0.00     0.023 C 
ATOM     21  C   UNL A   1      29.376  28.545  23.334  1.00  0.00     0.023 C 
ENDBRANCH  14  15
ENDBRANCH  13  14
ENDBRANCH  11  13
ENDBRANCH   4   7
ENDBRANCH   2   3
ENDBRANCH   1   2
BRANCH   1  22
ATOM     22  C   UNL A   1      38.394  19.964  26.008  1.00  0.00     0.118 C 
BRANCH  22  23
ATOM     23  N   UNL A   1      39.651  19.229  25.948  1.00  0.00    -0.352 N 
ATOM     24  C   UNL A   1      40.953  19.643  26.124  1.00  0.00     0.251 C 
ATOM     25  H   UNL A   1      39.553  18.269  25.750  1.00  0.00     0.163 HD
ATOM     26  O   UNL A   1      41.864  18.845  25.911  1.00  0.00    -0.269 OA
BRANCH  24  27
ATOM     27  C   UNL A   1      41.272  21.033  26.527  1.00  0.00     0.039 A 
ATOM     28  C   UNL A   1      41.975  21.249  27.718  1.00  0.00     0.014 A 
ATOM     29  C   UNL A   1      40.883  22.125  25.752  1.00  0.00     0.014 A 
ATOM     30  C   UNL A   1      42.366  22.545  28.073  1.00  0.00     0.010 A 
ATOM     31  C   UNL A   1      41.369  23.397  26.047  1.00  0.00     0.010 A 
ATOM     32  C   UNL A   1      42.112  23.626  27.213  1.00  0.00    -0.014 A 
BRANCH  32  33
ATOM     33  C   UNL A   1      42.619  24.995  27.502  1.00  0.00     0.031 A 
ATOM     34  C   UNL A   1      41.725  26.017  28.157  1.00  0.00     0.074 A 
ATOM     35  C   UNL A   1      43.850  25.356  27.083  1.00  0.00     0.049 A 
ATOM     36  N   UNL A   1      41.959  27.279  28.408  1.00  0.00    -0.248 NA
ATOM     37  C   UNL A   1      40.376  25.573  28.549  1.00  0.00     0.031 C 
ATOM     38  C   UNL A   1      44.786  24.491  26.360  1.00  0.00     0.029 A 
ATOM     39  N   UNL A   1      44.516  26.554  27.177  1.00  0.00    -0.354 N 
ATOM     40  C   UNL A   1      40.779  27.788  28.940  1.00  0.00     0.074 A 
ATOM     41  C   UNL A   1      39.818  26.709  28.942  1.00  0.00     0.031 C 
ATOM     42  C   UNL A   1      45.904  25.181  26.085  1.00  0.00     0.029 A 
ATOM     43  C   UNL A   1      45.754  26.547  26.576  1.00  0.00     0.049 A 
ATOM     44  H   UNL A   1      44.142  27.343  27.631  1.00  0.00     0.167 HD
ATOM     45  C   UNL A   1      40.525  29.031  29.412  1.00  0.00     0.034 A 
ATOM     46  C   UNL A   1      46.663  27.531  26.425  1.00  0.00     0.034 A 
ATOM     47  C   UNL A   1      41.497  30.089  29.458  1.00  0.00     0.049 A 
ATOM     48  C   UNL A   1      46.375  28.890  27.003  1.00  0.00     0.074 A 
ATOM     49  C   UNL A   1      41.369  31.351  30.012  1.00  0.00     0.029 A 
ATOM     50  N   UNL A   1      42.773  30.016  28.922  1.00  0.00    -0.354 N 
ATOM     51  N   UNL A   1      45.311  29.303  27.646  1.00  0.00    -0.248 NA
ATOM     52  C   UNL A   1      47.427  29.908  26.865  1.00  0.00     0.031 C 
ATOM     53  C   UNL A   1      42.557  32.053  29.780  1.00  0.00     0.029 A 
ATOM     54  C   UNL A   1      43.438  31.214  29.118  1.00  0.00     0.049 A 
ATOM     55  H   UNL A   1      43.150  29.227  28.468  1.00  0.00     0.167 HD
ATOM     56  C   UNL A   1      45.578  30.615  28.023  1.00  0.00     0.074 A 
ATOM     57  C   UNL A   1      46.914  30.919  27.553  1.00  0.00     0.031 C 
ATOM     58  C   UNL A   1      44.786  31.490  28.689  1.00  0.00     0.034 A 
BRANCH  45  59
ATOM     59  C   UNL A   1      39.149  29.306  29.965  1.00  0.00     0.023 A 
ATOM     60  C   UNL A   1      38.832  28.913  31.281  1.00  0.00     0.012 A 
ATOM     61  C   UNL A   1      38.191  30.004  29.204  1.00  0.00     0.148 A 
ATOM     62  C   UNL A   1      37.572  29.175  31.818  1.00  0.00     0.002 A 
ATOM     63  C   UNL A   1      36.955  30.306  29.763  1.00  0.00     0.091 A 
ATOM     64  F   UNL A   1      38.502  30.352  27.947  1.00  0.00    -0.205 F 
ATOM     65  C   UNL A   1      36.639  29.880  31.063  1.00  0.00     0.022 A 
BRANCH  63  66
ATOM     66  S   UNL A   1      35.714  31.282  28.906  1.00  0.00     0.127 S 
ATOM     67  O   UNL A   1      34.875  31.732  30.015  1.00  0.00    -0.237 OA
ATOM     68  O   UNL A   1      36.524  32.332  28.289  1.00  0.00    -0.237 OA
ATOM     69  O   UNL A   1      35.070  30.376  27.964  1.00  0.00    -0.744 OA
ENDBRANCH  63  66
ENDBRANCH  45  59
BRANCH  46  70
ATOM     70  C   UNL A   1      47.961  27.249  25.746  1.00  0.00     0.023 A 
ATOM     71  C   UNL A   1      49.037  26.731  26.492  1.00  0.00     0.012 A 
ATOM     72  C   UNL A   1      48.125  27.461  24.363  1.00  0.00     0.148 A 
ATOM     73  C   UNL A   1      50.263  26.463  25.883  1.00  0.00     0.002 A 
ATOM     74  C   UNL A   1      49.329  27.136  23.751  1.00  0.00     0.091 A 
ATOM     75  F   UNL A   1      47.091  27.962  23.672  1.00  0.00    -0.205 F 
ATOM     76  C   UNL A   1      50.406  26.655  24.511  1.00  0.00     0.022 A 
BRANCH  74  77
ATOM     77  S   UNL A   1      49.559  27.221  21.971  1.00  0.00     0.127 S 
ATOM     78  O   UNL A   1      50.978  26.900  21.837  1.00  0.00    -0.237 OA
ATOM     79  O   UNL A   1      48.643  26.180  21.501  1.00  0.00    -0.237 OA
ATOM     80  O   UNL A   1      49.178  28.573  21.587  1.00  0.00    -0.744 OA
ENDBRANCH  74  77
ENDBRANCH  46  70
BRANCH  58  81
ATOM     81  C   UNL A   1      45.348  32.855  28.993  1.00  0.00     0.023 A 
ATOM     82  C   UNL A   1      46.088  33.066  30.173  1.00  0.00     0.012 A 
ATOM     83  C   UNL A   1      45.206  33.907  28.067  1.00  0.00     0.148 A 
ATOM     84  C   UNL A   1      46.648  34.315  30.443  1.00  0.00     0.002 A 
ATOM     85  C   UNL A   1      45.813  35.131  28.316  1.00  0.00     0.091 A 
ATOM     86  F   UNL A   1      44.484  33.690  26.958  1.00  0.00    -0.205 F 
ATOM     87  C   UNL A   1      46.521  35.342  29.510  1.00  0.00     0.022 A 
BRANCH  85  88
ATOM     88  S   UNL A   1      45.788  36.479  27.129  1.00  0.00     0.127 S 
ATOM     89  O   UNL A   1      46.567  37.502  27.823  1.00  0.00    -0.237 OA
ATOM     90  O   UNL A   1      46.456  35.883  25.971  1.00  0.00    -0.237 OA
ATOM     91  O   UNL A   1      44.382  36.801  26.916  1.00  0.00    -0.744 OA
ENDBRANCH  85  88
ENDBRANCH  58  81
ENDBRANCH  32  33
ENDBRANCH  24  27
ENDBRANCH  22  23
ENDBRANCH   1  22
TORSDOF 16
ENDMDL
