MODEL 1
REMARK VINA RESULT:     -10.6      0.000      0.000
REMARK SMILES C[C@H](O)[C@H](NC(=O)C[NH3+])C(=O)NCCCNC(=O)c1ccc(-c2c3nc(c(-c4cccc(S(=O)(=O)[O-])c4F)c4ccc([nH]4)c(-c4cccc(S(=O)(=O)[O-])c4F)c4nc(c(-c5cccc(S(=O)(=O)[O-])c5F)c5ccc2[nH]5)C=C4)C=C3)cc1
REMARK SMILES IDX 14 1 13 2 12 3 10 4 11 5 4 7 2 8 1 9 3 10 5 12 6 13 7 15
REMARK SMILES IDX 8 16 9 17 15 21 16 22 17 23 18 25 19 26 20 27 81 28 21 29
REMARK SMILES IDX 80 30 22 31 23 32 24 33 74 34 25 35 79 36 73 37 75 38 26 39
REMARK SMILES IDX 78 40 72 41 71 42 27 44 59 45 39 46 58 47 40 48 43 49 57 50
REMARK SMILES IDX 76 51 41 52 42 53 56 55 77 56 44 57 28 58 29 59 37 60 30 61
REMARK SMILES IDX 32 62 38 63 31 64 33 65 34 66 35 67 36 68 60 69 61 70 69 71
REMARK SMILES IDX 62 72 64 73 70 74 63 75 65 76 66 77 67 78 68 79 45 80 46 81
REMARK SMILES IDX 54 82 47 83 49 84 55 85 48 86 50 87 51 88 52 89 53 90
REMARK H PARENT 12 6 3 11 5 14 9 18 9 19 9 20 16 24 75 43 43 54
REMARK Flexibility Score: inf
ROOT
ATOM      1  C   UNL A   1      34.657  34.535  28.120  1.00  0.00     0.042 C 
ENDROOT
BRANCH   1   2
ATOM      2  C   UNL A   1      34.672  34.906  29.605  1.00  0.00     0.117 C 
BRANCH   2   3
ATOM      3  N   UNL A   1      34.509  33.765  30.491  1.00  0.00    -0.354 N 
ATOM      4  C   UNL A   1      34.390  33.591  31.829  1.00  0.00     0.245 C 
ATOM      5  O   UNL A   1      34.257  32.408  32.177  1.00  0.00    -0.273 OA
ATOM      6  H   UNL A   1      34.480  32.912  30.000  1.00  0.00     0.163 HD
BRANCH   4   7
ATOM      7  C   UNL A   1      34.479  34.690  32.911  1.00  0.00     0.200 C 
BRANCH   7   8
ATOM      8  C   UNL A   1      35.506  34.537  34.059  1.00  0.00     0.143 C 
ATOM      9  C   UNL A   1      36.912  34.137  33.633  1.00  0.00     0.041 C 
BRANCH   8  10
ATOM     10  O   UNL A   1      35.080  33.501  34.973  1.00  0.00    -0.391 OA
ATOM     11  H   UNL A   1      34.158  33.656  35.229  1.00  0.00     0.211 HD
ENDBRANCH   8  10
ENDBRANCH   7   8
BRANCH   7  12
ATOM     12  N   UNL A   1      33.259  35.439  33.232  1.00  0.00    -0.337 N 
ATOM     13  C   UNL A   1      32.788  36.659  32.863  1.00  0.00     0.275 C 
ATOM     14  H   UNL A   1      32.656  34.956  33.842  1.00  0.00     0.164 HD
ATOM     15  O   UNL A   1      31.597  36.894  33.078  1.00  0.00    -0.268 OA
BRANCH  13  16
ATOM     16  C   UNL A   1      33.701  37.689  32.219  1.00  0.00     0.360 C 
BRANCH  16  17
ATOM     17  N   UNL A   1      33.400  37.845  30.795  1.00  0.00    -0.350 N 
ATOM     18  H   UNL A   1      32.514  37.386  30.584  1.00  0.00     0.344 HD
ATOM     19  H   UNL A   1      34.144  37.422  30.242  1.00  0.00     0.344 HD
ATOM     20  H   UNL A   1      33.330  38.838  30.570  1.00  0.00     0.344 HD
ENDBRANCH  16  17
ENDBRANCH  13  16
ENDBRANCH   7  12
ENDBRANCH   4   7
ENDBRANCH   2   3
ENDBRANCH   1   2
BRANCH   1  21
ATOM     21  C   UNL A   1      35.293  33.188  27.778  1.00  0.00     0.118 C 
BRANCH  21  22
ATOM     22  N   UNL A   1      34.308  32.123  27.758  1.00  0.00    -0.352 N 
ATOM     23  C   UNL A   1      34.498  30.762  27.774  1.00  0.00     0.251 C 
ATOM     24  H   UNL A   1      33.370  32.418  27.727  1.00  0.00     0.163 HD
ATOM     25  O   UNL A   1      33.563  30.032  27.446  1.00  0.00    -0.269 OA
BRANCH  23  26
ATOM     26  C   UNL A   1      35.795  30.160  28.177  1.00  0.00     0.039 A 
ATOM     27  C   UNL A   1      35.923  29.649  29.473  1.00  0.00     0.014 A 
ATOM     28  C   UNL A   1      36.912  30.185  27.336  1.00  0.00     0.014 A 
ATOM     29  C   UNL A   1      37.157  29.158  29.920  1.00  0.00     0.010 A 
ATOM     30  C   UNL A   1      38.126  29.637  27.760  1.00  0.00     0.010 A 
ATOM     31  C   UNL A   1      38.272  29.144  29.067  1.00  0.00    -0.014 A 
BRANCH  31  32
ATOM     32  C   UNL A   1      39.599  28.660  29.542  1.00  0.00     0.031 A 
ATOM     33  C   UNL A   1      40.321  29.384  30.652  1.00  0.00     0.074 A 
ATOM     34  C   UNL A   1      40.192  27.610  28.940  1.00  0.00     0.049 A 
ATOM     35  N   UNL A   1      41.497  29.136  31.171  1.00  0.00    -0.248 NA
ATOM     36  C   UNL A   1      39.646  30.553  31.243  1.00  0.00     0.031 C 
ATOM     37  C   UNL A   1      39.643  26.866  27.805  1.00  0.00     0.029 A 
ATOM     38  N   UNL A   1      41.404  27.008  29.176  1.00  0.00    -0.354 N 
ATOM     39  C   UNL A   1      41.722  30.138  32.109  1.00  0.00     0.074 A 
ATOM     40  C   UNL A   1      40.567  31.009  32.079  1.00  0.00     0.031 C 
ATOM     41  C   UNL A   1      40.519  25.916  27.437  1.00  0.00     0.029 A 
ATOM     42  C   UNL A   1      41.699  25.994  28.294  1.00  0.00     0.049 A 
ATOM     43  H   UNL A   1      42.005  27.275  29.909  1.00  0.00     0.167 HD
ATOM     44  C   UNL A   1      42.778  30.305  32.940  1.00  0.00     0.034 A 
ATOM     45  C   UNL A   1      42.799  25.220  28.179  1.00  0.00     0.034 A 
ATOM     46  C   UNL A   1      43.893  29.400  33.026  1.00  0.00     0.049 A 
ATOM     47  C   UNL A   1      43.926  25.387  29.162  1.00  0.00     0.074 A 
ATOM     48  C   UNL A   1      44.948  29.421  33.924  1.00  0.00     0.029 A 
ATOM     49  N   UNL A   1      44.104  28.319  32.188  1.00  0.00    -0.354 N 
ATOM     50  N   UNL A   1      44.029  26.222  30.167  1.00  0.00    -0.248 NA
ATOM     51  C   UNL A   1      45.074  24.476  29.023  1.00  0.00     0.031 C 
ATOM     52  C   UNL A   1      45.806  28.361  33.616  1.00  0.00     0.029 A 
ATOM     53  C   UNL A   1      45.277  27.672  32.538  1.00  0.00     0.049 A 
ATOM     54  H   UNL A   1      43.508  28.051  31.452  1.00  0.00     0.167 HD
ATOM     55  C   UNL A   1      45.232  25.918  30.795  1.00  0.00     0.074 A 
ATOM     56  C   UNL A   1      45.811  24.803  30.076  1.00  0.00     0.031 C 
ATOM     57  C   UNL A   1      45.813  26.521  31.860  1.00  0.00     0.034 A 
BRANCH  44  58
ATOM     58  C   UNL A   1      42.764  31.479  33.884  1.00  0.00     0.023 A 
ATOM     59  C   UNL A   1      43.209  32.737  33.432  1.00  0.00     0.012 A 
ATOM     60  C   UNL A   1      42.213  31.362  35.175  1.00  0.00     0.148 A 
ATOM     61  C   UNL A   1      43.125  33.857  34.256  1.00  0.00     0.002 A 
ATOM     62  C   UNL A   1      42.097  32.491  35.978  1.00  0.00     0.091 A 
ATOM     63  F   UNL A   1      41.809  30.153  35.591  1.00  0.00    -0.205 F 
ATOM     64  C   UNL A   1      42.559  33.737  35.523  1.00  0.00     0.022 A 
BRANCH  62  65
ATOM     65  S   UNL A   1      41.313  32.462  37.594  1.00  0.00     0.127 S 
ATOM     66  O   UNL A   1      41.370  33.872  37.974  1.00  0.00    -0.237 OA
ATOM     67  O   UNL A   1      39.973  31.969  37.278  1.00  0.00    -0.237 OA
ATOM     68  O   UNL A   1      42.115  31.562  38.415  1.00  0.00    -0.744 OA
ENDBRANCH  62  65
ENDBRANCH  44  58
BRANCH  45  69
ATOM     69  C   UNL A   1      42.865  24.173  27.120  1.00  0.00     0.023 A 
ATOM     70  C   UNL A   1      43.593  24.424  25.941  1.00  0.00     0.012 A 
ATOM     71  C   UNL A   1      42.223  22.930  27.278  1.00  0.00     0.148 A 
ATOM     72  C   UNL A   1      43.649  23.472  24.921  1.00  0.00     0.002 A 
ATOM     73  C   UNL A   1      42.331  21.965  26.283  1.00  0.00     0.091 A 
ATOM     74  F   UNL A   1      41.516  22.714  28.396  1.00  0.00    -0.205 F 
ATOM     75  C   UNL A   1      43.028  22.238  25.097  1.00  0.00     0.022 A 
BRANCH  73  76
ATOM     76  S   UNL A   1      41.676  20.305  26.500  1.00  0.00     0.127 S 
ATOM     77  O   UNL A   1      42.208  19.617  25.331  1.00  0.00    -0.237 OA
ATOM     78  O   UNL A   1      42.267  19.904  27.777  1.00  0.00    -0.237 OA
ATOM     79  O   UNL A   1      40.227  20.475  26.546  1.00  0.00    -0.744 OA
ENDBRANCH  73  76
ENDBRANCH  45  69
BRANCH  57  80
ATOM     80  C   UNL A   1      47.132  25.978  32.344  1.00  0.00     0.023 A 
ATOM     81  C   UNL A   1      47.158  25.051  33.404  1.00  0.00     0.012 A 
ATOM     82  C   UNL A   1      48.334  26.319  31.694  1.00  0.00     0.148 A 
ATOM     83  C   UNL A   1      48.363  24.494  33.830  1.00  0.00     0.002 A 
ATOM     84  C   UNL A   1      49.526  25.726  32.093  1.00  0.00     0.091 A 
ATOM     85  F   UNL A   1      48.293  27.218  30.699  1.00  0.00    -0.205 F 
ATOM     86  C   UNL A   1      49.544  24.821  33.168  1.00  0.00     0.022 A 
BRANCH  84  87
ATOM     87  S   UNL A   1      51.079  26.018  31.237  1.00  0.00     0.127 S 
ATOM     88  O   UNL A   1      50.846  25.352  29.958  1.00  0.00    -0.237 OA
ATOM     89  O   UNL A   1      51.126  27.479  31.165  1.00  0.00    -0.237 OA
ATOM     90  O   UNL A   1      52.114  25.426  32.075  1.00  0.00    -0.744 OA
ENDBRANCH  84  87
ENDBRANCH  57  80
ENDBRANCH  31  32
ENDBRANCH  23  26
ENDBRANCH  21  22
ENDBRANCH   1  21
TORSDOF 18
ENDMDL
MODEL 2
REMARK VINA RESULT:     -10.1      0.796      7.875
REMARK SMILES C[C@H](O)[C@H](NC(=O)C[NH3+])C(=O)NCCCNC(=O)c1ccc(-c2c3nc(c(-c4cccc(S(=O)(=O)[O-])c4F)c4ccc([nH]4)c(-c4cccc(S(=O)(=O)[O-])c4F)c4nc(c(-c5cccc(S(=O)(=O)[O-])c5F)c5ccc2[nH]5)C=C4)C=C3)cc1
REMARK SMILES IDX 14 1 13 2 12 3 10 4 11 5 4 7 2 8 1 9 3 10 5 12 6 13 7 15
REMARK SMILES IDX 8 16 9 17 15 21 16 22 17 23 18 25 19 26 20 27 81 28 21 29
REMARK SMILES IDX 80 30 22 31 23 32 24 33 74 34 25 35 79 36 73 37 75 38 26 39
REMARK SMILES IDX 78 40 72 41 71 42 27 44 59 45 39 46 58 47 40 48 43 49 57 50
REMARK SMILES IDX 76 51 41 52 42 53 56 55 77 56 44 57 28 58 29 59 37 60 30 61
REMARK SMILES IDX 32 62 38 63 31 64 33 65 34 66 35 67 36 68 60 69 61 70 69 71
REMARK SMILES IDX 62 72 64 73 70 74 63 75 65 76 66 77 67 78 68 79 45 80 46 81
REMARK SMILES IDX 54 82 47 83 49 84 55 85 48 86 50 87 51 88 52 89 53 90
REMARK H PARENT 12 6 3 11 5 14 9 18 9 19 9 20 16 24 75 43 43 54
REMARK Flexibility Score: inf
ROOT
ATOM      1  C   UNL A   1      34.204  34.223  28.196  1.00  0.00     0.042 C 
ENDROOT
BRANCH   1   2
ATOM      2  C   UNL A   1      34.066  34.704  29.643  1.00  0.00     0.117 C 
BRANCH   2   3
ATOM      3  N   UNL A   1      34.140  33.631  30.621  1.00  0.00    -0.354 N 
ATOM      4  C   UNL A   1      34.250  33.559  31.969  1.00  0.00     0.245 C 
ATOM      5  O   UNL A   1      34.272  32.403  32.416  1.00  0.00    -0.273 OA
ATOM      6  H   UNL A   1      34.103  32.740  30.203  1.00  0.00     0.163 HD
BRANCH   4   7
ATOM      7  C   UNL A   1      34.421  34.747  32.943  1.00  0.00     0.200 C 
BRANCH   7   8
ATOM      8  C   UNL A   1      35.532  34.687  34.019  1.00  0.00     0.143 C 
ATOM      9  C   UNL A   1      36.943  34.453  33.495  1.00  0.00     0.041 C 
BRANCH   8  10
ATOM     10  O   UNL A   1      35.282  33.593  34.930  1.00  0.00    -0.391 OA
ATOM     11  H   UNL A   1      36.056  33.008  34.954  1.00  0.00     0.211 HD
ENDBRANCH   8  10
ENDBRANCH   7   8
BRANCH   7  12
ATOM     12  N   UNL A   1      33.229  35.529  33.288  1.00  0.00    -0.337 N 
ATOM     13  C   UNL A   1      32.623  36.607  32.723  1.00  0.00     0.275 C 
ATOM     14  H   UNL A   1      32.773  35.205  34.098  1.00  0.00     0.164 HD
ATOM     15  O   UNL A   1      31.475  36.866  33.089  1.00  0.00    -0.268 OA
BRANCH  13  16
ATOM     16  C   UNL A   1      33.343  37.458  31.690  1.00  0.00     0.360 C 
BRANCH  16  17
ATOM     17  N   UNL A   1      34.244  38.416  32.332  1.00  0.00    -0.350 N 
ATOM     18  H   UNL A   1      34.051  39.353  31.978  1.00  0.00     0.344 HD
ATOM     19  H   UNL A   1      35.211  38.166  32.124  1.00  0.00     0.344 HD
ATOM     20  H   UNL A   1      34.097  38.397  33.342  1.00  0.00     0.344 HD
ENDBRANCH  16  17
ENDBRANCH  13  16
ENDBRANCH   7  12
ENDBRANCH   4   7
ENDBRANCH   2   3
ENDBRANCH   1   2
BRANCH   1  21
ATOM     21  C   UNL A   1      35.028  32.951  28.008  1.00  0.00     0.118 C 
BRANCH  21  22
ATOM     22  N   UNL A   1      34.180  31.782  27.871  1.00  0.00    -0.352 N 
ATOM     23  C   UNL A   1      34.535  30.461  27.739  1.00  0.00     0.251 C 
ATOM     24  H   UNL A   1      33.213  31.961  27.871  1.00  0.00     0.163 HD
ATOM     25  O   UNL A   1      33.692  29.661  27.333  1.00  0.00    -0.269 OA
BRANCH  23  26
ATOM     26  C   UNL A   1      35.900  29.982  28.075  1.00  0.00     0.039 A 
ATOM     27  C   UNL A   1      36.135  29.469  29.356  1.00  0.00     0.014 A 
ATOM     28  C   UNL A   1      36.971  30.126  27.187  1.00  0.00     0.014 A 
ATOM     29  C   UNL A   1      37.429  29.094  29.740  1.00  0.00     0.010 A 
ATOM     30  C   UNL A   1      38.250  29.693  27.549  1.00  0.00     0.010 A 
ATOM     31  C   UNL A   1      38.501  29.200  28.839  1.00  0.00    -0.014 A 
BRANCH  31  32
ATOM     32  C   UNL A   1      39.888  28.840  29.248  1.00  0.00     0.031 A 
ATOM     33  C   UNL A   1      40.575  27.642  28.639  1.00  0.00     0.074 A 
ATOM     34  C   UNL A   1      40.515  29.546  30.210  1.00  0.00     0.049 A 
ATOM     35  N   UNL A   1      41.761  27.151  28.897  1.00  0.00    -0.248 NA
ATOM     36  C   UNL A   1      39.826  26.880  27.625  1.00  0.00     0.031 C 
ATOM     37  C   UNL A   1      39.941  30.679  30.937  1.00  0.00     0.029 A 
ATOM     38  N   UNL A   1      41.762  29.391  30.767  1.00  0.00    -0.354 N 
ATOM     39  C   UNL A   1      41.881  26.006  28.118  1.00  0.00     0.074 A 
ATOM     40  C   UNL A   1      40.640  25.863  27.387  1.00  0.00     0.031 C 
ATOM     41  C   UNL A   1      40.827  31.109  31.851  1.00  0.00     0.029 A 
ATOM     42  C   UNL A   1      42.023  30.273  31.790  1.00  0.00     0.049 A 
ATOM     43  H   UNL A   1      42.408  28.714  30.462  1.00  0.00     0.167 HD
ATOM     44  C   UNL A   1      42.934  25.163  27.998  1.00  0.00     0.034 A 
ATOM     45  C   UNL A   1      43.098  30.392  32.597  1.00  0.00     0.034 A 
ATOM     46  C   UNL A   1      44.196  25.342  28.664  1.00  0.00     0.049 A 
ATOM     47  C   UNL A   1      44.280  29.483  32.391  1.00  0.00     0.074 A 
ATOM     48  C   UNL A   1      45.361  24.610  28.508  1.00  0.00     0.029 A 
ATOM     49  N   UNL A   1      44.460  26.314  29.614  1.00  0.00    -0.354 N 
ATOM     50  N   UNL A   1      44.442  28.525  31.512  1.00  0.00    -0.248 NA
ATOM     51  C   UNL A   1      45.447  29.697  33.262  1.00  0.00     0.031 C 
ATOM     52  C   UNL A   1      46.325  25.129  29.377  1.00  0.00     0.029 A 
ATOM     53  C   UNL A   1      45.765  26.195  30.062  1.00  0.00     0.049 A 
ATOM     54  H   UNL A   1      43.816  26.991  29.924  1.00  0.00     0.167 HD
ATOM     55  C   UNL A   1      45.734  28.046  31.702  1.00  0.00     0.074 A 
ATOM     56  C   UNL A   1      46.323  28.836  32.762  1.00  0.00     0.031 C 
ATOM     57  C   UNL A   1      46.367  27.028  31.069  1.00  0.00     0.034 A 
BRANCH  44  58
ATOM     58  C   UNL A   1      42.807  23.992  27.059  1.00  0.00     0.023 A 
ATOM     59  C   UNL A   1      43.437  24.042  25.800  1.00  0.00     0.012 A 
ATOM     60  C   UNL A   1      42.158  22.808  27.462  1.00  0.00     0.148 A 
ATOM     61  C   UNL A   1      43.408  22.939  24.948  1.00  0.00     0.002 A 
ATOM     62  C   UNL A   1      42.166  21.700  26.624  1.00  0.00     0.091 A 
ATOM     63  F   UNL A   1      41.552  22.787  28.658  1.00  0.00    -0.205 F 
ATOM     64  C   UNL A   1      42.784  21.766  25.364  1.00  0.00     0.022 A 
BRANCH  62  65
ATOM     65  S   UNL A   1      41.459  20.116  27.094  1.00  0.00     0.127 S 
ATOM     66  O   UNL A   1      40.546  19.860  25.982  1.00  0.00    -0.237 OA
ATOM     67  O   UNL A   1      42.638  19.251  27.129  1.00  0.00    -0.237 OA
ATOM     68  O   UNL A   1      40.821  20.329  28.388  1.00  0.00    -0.744 OA
ENDBRANCH  62  65
ENDBRANCH  44  58
BRANCH  45  69
ATOM     69  C   UNL A   1      43.132  31.454  33.643  1.00  0.00     0.023 A 
ATOM     70  C   UNL A   1      43.721  32.699  33.349  1.00  0.00     0.012 A 
ATOM     71  C   UNL A   1      42.579  31.242  34.920  1.00  0.00     0.148 A 
ATOM     72  C   UNL A   1      43.792  33.701  34.318  1.00  0.00     0.002 A 
ATOM     73  C   UNL A   1      42.601  32.264  35.862  1.00  0.00     0.091 A 
ATOM     74  F   UNL A   1      42.042  30.044  35.191  1.00  0.00    -0.205 F 
ATOM     75  C   UNL A   1      43.222  33.488  35.571  1.00  0.00     0.022 A 
BRANCH  73  76
ATOM     76  S   UNL A   1      41.764  32.111  37.445  1.00  0.00     0.127 S 
ATOM     77  O   UNL A   1      42.525  31.047  38.086  1.00  0.00    -0.237 OA
ATOM     78  O   UNL A   1      41.953  33.442  38.023  1.00  0.00    -0.237 OA
ATOM     79  O   UNL A   1      40.377  31.802  37.110  1.00  0.00    -0.744 OA
ENDBRANCH  73  76
ENDBRANCH  45  69
BRANCH  57  80
ATOM     80  C   UNL A   1      47.784  26.720  31.474  1.00  0.00     0.023 A 
ATOM     81  C   UNL A   1      48.028  25.796  32.509  1.00  0.00     0.012 A 
ATOM     82  C   UNL A   1      48.872  27.279  30.775  1.00  0.00     0.148 A 
ATOM     83  C   UNL A   1      49.333  25.455  32.862  1.00  0.00     0.002 A 
ATOM     84  C   UNL A   1      50.169  26.900  31.102  1.00  0.00     0.091 A 
ATOM     85  F   UNL A   1      48.621  28.171  29.806  1.00  0.00    -0.205 F 
ATOM     86  C   UNL A   1      50.402  25.997  32.152  1.00  0.00     0.022 A 
BRANCH  84  87
ATOM     87  S   UNL A   1      51.599  27.477  30.179  1.00  0.00     0.127 S 
ATOM     88  O   UNL A   1      52.668  26.651  30.736  1.00  0.00    -0.237 OA
ATOM     89  O   UNL A   1      51.233  27.153  28.800  1.00  0.00    -0.237 OA
ATOM     90  O   UNL A   1      51.701  28.905  30.453  1.00  0.00    -0.744 OA
ENDBRANCH  84  87
ENDBRANCH  57  80
ENDBRANCH  31  32
ENDBRANCH  23  26
ENDBRANCH  21  22
ENDBRANCH   1  21
TORSDOF 18
ENDMDL
MODEL 3
REMARK VINA RESULT:     -10.0      3.152      6.026
REMARK SMILES C[C@H](O)[C@H](NC(=O)C[NH3+])C(=O)NCCCNC(=O)c1ccc(-c2c3nc(c(-c4cccc(S(=O)(=O)[O-])c4F)c4ccc([nH]4)c(-c4cccc(S(=O)(=O)[O-])c4F)c4nc(c(-c5cccc(S(=O)(=O)[O-])c5F)c5ccc2[nH]5)C=C4)C=C3)cc1
REMARK SMILES IDX 14 1 13 2 12 3 10 4 11 5 4 7 2 8 1 9 3 10 5 12 6 13 7 15
REMARK SMILES IDX 8 16 9 17 15 21 16 22 17 23 18 25 19 26 20 27 81 28 21 29
REMARK SMILES IDX 80 30 22 31 23 32 24 33 74 34 25 35 79 36 73 37 75 38 26 39
REMARK SMILES IDX 78 40 72 41 71 42 27 44 59 45 39 46 58 47 40 48 43 49 57 50
REMARK SMILES IDX 76 51 41 52 42 53 56 55 77 56 44 57 28 58 29 59 37 60 30 61
REMARK SMILES IDX 32 62 38 63 31 64 33 65 34 66 35 67 36 68 60 69 61 70 69 71
REMARK SMILES IDX 62 72 64 73 70 74 63 75 65 76 66 77 67 78 68 79 45 80 46 81
REMARK SMILES IDX 54 82 47 83 49 84 55 85 48 86 50 87 51 88 52 89 53 90
REMARK H PARENT 12 6 3 11 5 14 9 18 9 19 9 20 16 24 75 43 43 54
REMARK Flexibility Score: inf
ROOT
ATOM      1  C   UNL A   1      33.715  27.623  25.532  1.00  0.00     0.042 C 
ENDROOT
BRANCH   1   2
ATOM      2  C   UNL A   1      33.451  26.120  25.402  1.00  0.00     0.117 C 
BRANCH   2   3
ATOM      3  N   UNL A   1      33.791  25.580  24.096  1.00  0.00    -0.354 N 
ATOM      4  C   UNL A   1      34.266  24.399  23.633  1.00  0.00     0.245 C 
ATOM      5  O   UNL A   1      34.410  24.358  22.402  1.00  0.00    -0.273 OA
ATOM      6  H   UNL A   1      33.642  26.231  23.372  1.00  0.00     0.163 HD
BRANCH   4   7
ATOM      7  C   UNL A   1      34.694  23.183  24.484  1.00  0.00     0.200 C 
BRANCH   7   8
ATOM      8  C   UNL A   1      36.192  22.986  24.818  1.00  0.00     0.143 C 
ATOM      9  C   UNL A   1      36.743  23.884  25.919  1.00  0.00     0.041 C 
BRANCH   8  10
ATOM     10  O   UNL A   1      37.003  23.273  23.657  1.00  0.00    -0.391 OA
ATOM     11  H   UNL A   1      37.929  23.379  23.927  1.00  0.00     0.211 HD
ENDBRANCH   8  10
ENDBRANCH   7   8
BRANCH   7  12
ATOM     12  N   UNL A   1      33.888  21.961  24.390  1.00  0.00    -0.337 N 
ATOM     13  C   UNL A   1      32.598  21.667  24.700  1.00  0.00     0.275 C 
ATOM     14  H   UNL A   1      34.386  21.193  24.026  1.00  0.00     0.164 HD
ATOM     15  O   UNL A   1      32.131  20.620  24.246  1.00  0.00    -0.268 OA
BRANCH  13  16
ATOM     16  C   UNL A   1      31.773  22.593  25.579  1.00  0.00     0.360 C 
BRANCH  16  17
ATOM     17  N   UNL A   1      30.775  23.318  24.791  1.00  0.00    -0.350 N 
ATOM     18  H   UNL A   1      30.992  24.314  24.802  1.00  0.00     0.344 HD
ATOM     19  H   UNL A   1      29.850  23.167  25.193  1.00  0.00     0.344 HD
ATOM     20  H   UNL A   1      30.789  22.977  23.829  1.00  0.00     0.344 HD
ENDBRANCH  16  17
ENDBRANCH  13  16
ENDBRANCH   7  12
ENDBRANCH   4   7
ENDBRANCH   2   3
ENDBRANCH   1   2
BRANCH   1  21
ATOM     21  C   UNL A   1      33.615  28.182  26.950  1.00  0.00     0.118 C 
BRANCH  21  22
ATOM     22  N   UNL A   1      33.568  29.632  26.949  1.00  0.00    -0.352 N 
ATOM     23  C   UNL A   1      34.378  30.529  27.603  1.00  0.00     0.251 C 
ATOM     24  H   UNL A   1      32.852  30.029  26.404  1.00  0.00     0.163 HD
ATOM     25  O   UNL A   1      33.996  31.692  27.722  1.00  0.00    -0.269 OA
BRANCH  23  26
ATOM     26  C   UNL A   1      35.695  30.126  28.162  1.00  0.00     0.039 A 
ATOM     27  C   UNL A   1      36.819  30.170  27.329  1.00  0.00     0.014 A 
ATOM     28  C   UNL A   1      35.821  29.611  29.456  1.00  0.00     0.014 A 
ATOM     29  C   UNL A   1      38.059  29.711  27.792  1.00  0.00     0.010 A 
ATOM     30  C   UNL A   1      37.070  29.213  29.938  1.00  0.00     0.010 A 
ATOM     31  C   UNL A   1      38.199  29.230  29.104  1.00  0.00    -0.014 A 
BRANCH  31  32
ATOM     32  C   UNL A   1      39.503  28.705  29.596  1.00  0.00     0.031 A 
ATOM     33  C   UNL A   1      40.238  29.410  30.710  1.00  0.00     0.074 A 
ATOM     34  C   UNL A   1      40.068  27.632  29.005  1.00  0.00     0.049 A 
ATOM     35  N   UNL A   1      41.399  29.126  31.243  1.00  0.00    -0.248 NA
ATOM     36  C   UNL A   1      39.596  30.604  31.288  1.00  0.00     0.031 C 
ATOM     37  C   UNL A   1      39.506  26.900  27.869  1.00  0.00     0.029 A 
ATOM     38  N   UNL A   1      41.257  26.991  29.258  1.00  0.00    -0.354 N 
ATOM     39  C   UNL A   1      41.647  30.125  32.178  1.00  0.00     0.074 A 
ATOM     40  C   UNL A   1      40.523  31.033  32.132  1.00  0.00     0.031 C 
ATOM     41  C   UNL A   1      40.354  25.920  27.515  1.00  0.00     0.029 A 
ATOM     42  C   UNL A   1      41.527  25.964  28.384  1.00  0.00     0.049 A 
ATOM     43  H   UNL A   1      41.858  27.242  29.996  1.00  0.00     0.167 HD
ATOM     44  C   UNL A   1      42.700  30.261  33.019  1.00  0.00     0.034 A 
ATOM     45  C   UNL A   1      42.601  25.153  28.285  1.00  0.00     0.034 A 
ATOM     46  C   UNL A   1      43.783  29.320  33.123  1.00  0.00     0.049 A 
ATOM     47  C   UNL A   1      43.723  25.287  29.280  1.00  0.00     0.074 A 
ATOM     48  C   UNL A   1      44.829  29.311  34.032  1.00  0.00     0.029 A 
ATOM     49  N   UNL A   1      43.967  28.228  32.292  1.00  0.00    -0.354 N 
ATOM     50  N   UNL A   1      43.844  26.124  30.281  1.00  0.00    -0.248 NA
ATOM     51  C   UNL A   1      44.842  24.338  29.157  1.00  0.00     0.031 C 
ATOM     52  C   UNL A   1      45.654  28.221  33.738  1.00  0.00     0.029 A 
ATOM     53  C   UNL A   1      45.114  27.544  32.658  1.00  0.00     0.049 A 
ATOM     54  H   UNL A   1      43.370  27.976  31.551  1.00  0.00     0.167 HD
ATOM     55  C   UNL A   1      45.028  25.783  30.924  1.00  0.00     0.074 A 
ATOM     56  C   UNL A   1      45.578  24.646  30.216  1.00  0.00     0.031 C 
ATOM     57  C   UNL A   1      45.619  26.372  31.992  1.00  0.00     0.034 A 
BRANCH  44  58
ATOM     58  C   UNL A   1      42.715  31.440  33.957  1.00  0.00     0.023 A 
ATOM     59  C   UNL A   1      43.237  32.671  33.514  1.00  0.00     0.012 A 
ATOM     60  C   UNL A   1      42.118  31.359  35.231  1.00  0.00     0.148 A 
ATOM     61  C   UNL A   1      43.183  33.799  34.330  1.00  0.00     0.002 A 
ATOM     62  C   UNL A   1      42.034  32.497  36.024  1.00  0.00     0.091 A 
ATOM     63  F   UNL A   1      41.641  30.174  35.639  1.00  0.00    -0.205 F 
ATOM     64  C   UNL A   1      42.572  33.716  35.579  1.00  0.00     0.022 A 
BRANCH  62  65
ATOM     65  S   UNL A   1      41.198  32.517  37.615  1.00  0.00     0.127 S 
ATOM     66  O   UNL A   1      42.030  31.603  38.395  1.00  0.00    -0.237 OA
ATOM     67  O   UNL A   1      41.306  33.923  38.002  1.00  0.00    -0.237 OA
ATOM     68  O   UNL A   1      39.837  32.057  37.360  1.00  0.00    -0.744 OA
ENDBRANCH  62  65
ENDBRANCH  44  58
BRANCH  45  69
ATOM     69  C   UNL A   1      42.644  24.098  27.233  1.00  0.00     0.023 A 
ATOM     70  C   UNL A   1      43.325  24.349  26.026  1.00  0.00     0.012 A 
ATOM     71  C   UNL A   1      42.025  22.848  27.422  1.00  0.00     0.148 A 
ATOM     72  C   UNL A   1      43.358  23.391  25.012  1.00  0.00     0.002 A 
ATOM     73  C   UNL A   1      42.110  21.876  26.432  1.00  0.00     0.091 A 
ATOM     74  F   UNL A   1      41.362  22.632  28.566  1.00  0.00    -0.205 F 
ATOM     75  C   UNL A   1      42.760  22.150  25.219  1.00  0.00     0.022 A 
BRANCH  73  76
ATOM     76  S   UNL A   1      41.487  20.210  26.684  1.00  0.00     0.127 S 
ATOM     77  O   UNL A   1      40.054  20.441  26.818  1.00  0.00    -0.237 OA
ATOM     78  O   UNL A   1      41.892  19.538  25.449  1.00  0.00    -0.237 OA
ATOM     79  O   UNL A   1      42.177  19.725  27.876  1.00  0.00    -0.744 OA
ENDBRANCH  73  76
ENDBRANCH  45  69
BRANCH  57  80
ATOM     80  C   UNL A   1      46.913  25.789  32.492  1.00  0.00     0.023 A 
ATOM     81  C   UNL A   1      46.905  24.923  33.603  1.00  0.00     0.012 A 
ATOM     82  C   UNL A   1      48.123  26.028  31.812  1.00  0.00     0.148 A 
ATOM     83  C   UNL A   1      48.084  24.328  34.048  1.00  0.00     0.002 A 
ATOM     84  C   UNL A   1      49.288  25.396  32.233  1.00  0.00     0.091 A 
ATOM     85  F   UNL A   1      48.116  26.870  30.768  1.00  0.00    -0.205 F 
ATOM     86  C   UNL A   1      49.272  24.554  33.356  1.00  0.00     0.022 A 
BRANCH  84  87
ATOM     87  S   UNL A   1      50.842  25.557  31.346  1.00  0.00     0.127 S 
ATOM     88  O   UNL A   1      51.718  24.675  32.113  1.00  0.00    -0.237 OA
ATOM     89  O   UNL A   1      50.494  25.064  30.012  1.00  0.00    -0.237 OA
ATOM     90  O   UNL A   1      51.182  26.974  31.391  1.00  0.00    -0.744 OA
ENDBRANCH  84  87
ENDBRANCH  57  80
ENDBRANCH  31  32
ENDBRANCH  23  26
ENDBRANCH  21  22
ENDBRANCH   1  21
TORSDOF 18
ENDMDL
